data_PCOD9012692
_publ_section_title
;
Structure prediction by ZEFSAII (Michael W. Deem and Ramdas Pophale) SiO2 
 PCOD9012692
Probable space group: P -1
;
_chemical_formula_sum "Si O2"
_cell_formula_units_Z 15
_cell_length_a 11.101691
_cell_length_b 11.560513
_cell_length_c 11.557887
_cell_angle_alpha 98.990959
_cell_angle_beta 60.387367
_cell_angle_gamma 49.023509
_cell_volume 663.582575
_symmetry_space_group_name_H-M "P -1"
_symmetry_group_IT_number 2
_symmetry_cell_setting 'triclinic'
loop_
_space_group_symop_operation_xyz
x,y,z
-x,-y,-z
loop_
_atom_site_type_symbol
_atom_site_label
_atom_site_fract_x
_atom_site_fract_y
_atom_site_fract_z
Si Si1 0.400437 0.493251 0.205533
Si Si2 0.113607 0.578299 0.738030
Si Si3 0.277063 0.910444 0.615376
Si Si4 0.000000 0.500000 0.000000
Si Si5 0.395068 0.913056 0.314611
Si Si6 0.199135 0.863384 0.224597
Si Si7 0.948858 0.671192 0.575724
Si Si8 0.083987 0.807644 0.960547
O O1 0.259916 0.692755 0.225107
O O2 0.613988 0.405403 0.171023
O O3 0.187659 0.573291 0.389420
O O4 0.582019 0.281638 0.002696
O O5 0.430281 0.338971 0.523862
O O6 0.038994 0.530086 0.855558
O O7 0.060892 0.736663 0.855141
O O8 0.953513 0.689124 0.712704
O O9 0.309426 0.970011 0.498028
O O10 0.092617 0.936191 0.661482
O O11 0.109310 0.090334 0.826141
O O12 0.294607 0.336606 0.871368
O O13 0.241058 0.928501 0.313152
O O14 0.318646 0.091230 0.321942
O O15 0.000000 0.500000 0.500000
O O16 0.000000 0.000000 0.000000
#
# Coordination Sequence:
#
# PCOD9012692 Si02
#       8
#     2   2   2   1   2   2   2   2
#     4  10  22  41  68 108 145 175 241 296 359 432
#     4  11  27  47  74 103 147 190 240 300 358 432
#     4  10  22  44  72 108 137 181 240 295 365 421
#     4  10  26  48  70  98 132 204 250 284 346 432
#     4  11  24  44  75 101 143 187 246 301 358 430
#     4  10  21  40  76 108 137 183 233 307 361 419
#     4  12  29  46  68 107 149 198 239 293 362 439
#     4  11  25  41  70 108 146 184 229 301 372 430
#
# _framework density 22.604572000000001
#
# number of rings (size 3 to 8) (size 9 to 14) (size 15 to 20)
#    0.000    1.333    1.333    2.800    7.467    4.800 
#    0.000    2.667    0.000    0.000    0.000    0.000 
#    0.000    0.000    0.000    0.000    0.000    0.000 
#
# Total GULP energy -83721.889007 kJ/mol
# GULP energy per Si atom -5581.459267 kJ/mol
# Density = 2.255312 g / cm^3
# Si number density = 22.604572 Si / 1000 Ang^3
#
#
#
# Elastic Constant Matrix: (Units=GPa)
#
#
# Indices 1 2 3 4 5 6 
#
# 1 58.7608 12.6356 30.5548 -5.0834 17.3196 -10.1639
# 2 12.6356 63.7634 14.4746 -16.5981 9.9033 -9.8850
# 3 30.5548 14.4746 78.9391 -19.9849 1.3614 4.6819
# 4 -5.0834 -16.5981 -19.9849 33.4106 -2.6865 0.6349
# 5 17.3196 9.9033 1.3614 -2.6865 41.1197 -2.6766
# 6 -10.1639 -9.8850 4.6819 0.6349 -2.6766 27.2196
#
#
#
# Elastic Compliance Matrix: (Units=1/GPa)
#
#
# Indices 1 2 3 4 5 6 
#
# 1 0.028565 -0.000448 -0.012627 -0.004539 -0.011041 0.011696
# 2 -0.000448 0.019961 -0.001700 0.008415 -0.003568 0.006827
# 3 -0.012627 -0.001700 0.020904 0.010317 0.005146 -0.008662
# 4 -0.004539 0.008415 0.010317 0.039779 0.002069 -0.001138
# 5 -0.011041 -0.003568 0.005146 0.002069 0.029570 -0.003444
# 6 0.011696 0.006827 -0.008662 -0.001138 -0.003444 0.044762
#
#
# Mechanical properties :
#
#
# Convention : Reuss Voigt Hill
#
# Bulk Modulus (GPa) = 25.07491 35.19926 30.13708
# Shear Modulus (GPa) = 22.08648 29.93654 26.01151
#
# Velocity S-wave (km/s) = 3.12922 3.64312 3.39590
# Velocity P-wave (km/s) = 4.91660 5.77079 5.36073
#
# Compressibility (1/GPa) = 0.03988051
#
# Stress axis : x y z
#
# Youngs Moduli (GPa) = 35.00816 50.09887 47.83778
#
# Poissons Ratio (x) = 0.02244 0.60404
# Poissons Ratio (y) = 0.01568 0.08131
# Poissons Ratio (z) = 0.44204 0.08515
#
# Static dielectric constant tensor:
#      x y z
#    x 1.797320 0.006590 0.002540 
#    y 0.006590 1.871790 0.025940 
#    z 0.002540 0.025940 1.881460 
# 
# From -- ./inp_files/428358.got.cif
#   From: 2010.05.17/outbox.cif.g08.bks.cpg/sg2_215_cif.got.tgz:428358.got - 2010.06.03 11:33:40.
