data_PCOD9012382
_publ_section_title
;
Structure prediction by ZEFSAII (Michael W. Deem and Ramdas Pophale) SiO2 
 PCOD9012382
Probable space group: P -1
;
_chemical_formula_sum "Si O2"
_cell_formula_units_Z 14
_cell_length_a 7.606932
_cell_length_b 10.587561
_cell_length_c 8.805958
_cell_angle_alpha 126.875008
_cell_angle_beta 92.391022
_cell_angle_gamma 102.227158
_cell_volume 541.390257
_symmetry_space_group_name_H-M "P -1"
_symmetry_group_IT_number 2
_symmetry_cell_setting 'triclinic'
loop_
_space_group_symop_operation_xyz
x,y,z
-x,-y,-z
loop_
_atom_site_type_symbol
_atom_site_label
_atom_site_fract_x
_atom_site_fract_y
_atom_site_fract_z
Si Si1 0.713069 0.721850 0.520034
Si Si2 0.801848 0.113633 0.846130
Si Si3 0.391216 0.490104 0.150423
Si Si4 0.085269 0.341717 0.222805
Si Si5 0.740520 0.191359 0.285651
Si Si6 0.458079 0.173417 0.047213
Si Si7 0.054687 0.831086 0.421698
O O1 0.526507 0.621245 0.360363
O O2 0.772034 0.666485 0.644677
O O3 0.869644 0.707535 0.393275
O O4 0.745792 0.918506 0.675321
O O5 0.861413 0.208073 0.758633
O O6 0.626010 0.160640 0.937059
O O7 0.982147 0.176775 0.003483
O O8 0.184421 0.480209 0.201022
O O9 0.377379 0.304324 0.064437
O O10 0.500000 0.500000 0.000000
O O11 0.903732 0.332099 0.312769
O O12 0.555843 0.231512 0.254866
O O13 0.796441 0.155815 0.430139
O O14 0.689839 0.005315 0.077767
O O15 0.000000 0.000000 0.500000
#
# Coordination Sequence:
#
# PCOD9012382 Si02
#       7
#     2   2   2   2   2   2   2
#     4  10  22  40  65  98 127 172 223 265 320 394
#     4  10  21  40  69  98 126 170 223 272 323 375
#     4  12  27  43  64  97 139 173 215 270 337 393
#     4  10  22  41  69  93 128 176 223 266 315 400
#     4   9  21  42  65  98 126 173 221 272 316 385
#     4  10  24  41  67  97 136 168 218 274 333 379
#     4   9  19  36  67  99 131 164 223 269 316 380
#
# _framework density 25.859348000000001
#
# number of rings (size 3 to 8) (size 9 to 14) (size 15 to 20)
#    0.000    2.000    0.000    1.714   16.000    0.571 
#    0.000   12.857    0.000    0.000    0.000    0.000 
#    0.000    0.000    0.000    0.000    0.000    0.000 
#
# Total GULP energy -78092.621551 kJ/mol
# GULP energy per Si atom -5578.044396 kJ/mol
# Density = 2.580049 g / cm^3
# Si number density = 25.859348 Si / 1000 Ang^3
#
#
#
# Elastic Constant Matrix: (Units=GPa)
#
#
# Indices 1 2 3 4 5 6 
#
# 1 81.3843 44.7687 47.0853 -4.9474 13.1899 28.1157
# 2 44.7687 126.8581 41.9640 -18.8847 -6.1953 43.1729
# 3 47.0853 41.9640 133.2972 2.1336 10.8853 38.3402
# 4 -4.9474 -18.8847 2.1336 53.8751 18.8481 -10.9824
# 5 13.1899 -6.1953 10.8853 18.8481 41.0319 0.5092
# 6 28.1157 43.1729 38.3402 -10.9824 0.5092 56.5339
#
#
#
# Elastic Compliance Matrix: (Units=1/GPa)
#
#
# Indices 1 2 3 4 5 6 
#
# 1 0.019354 -0.004493 -0.004048 0.002123 -0.006764 -0.002976
# 2 -0.004493 0.012239 -0.000695 0.001628 0.002807 -0.006349
# 3 -0.004048 -0.000695 0.010694 -0.001807 -0.000748 -0.005053
# 4 0.002123 0.001628 -0.001807 0.024011 -0.011032 0.003690
# 5 -0.006764 0.002807 -0.000748 -0.011032 0.032244 -0.000706
# 6 -0.002976 -0.006349 -0.005053 0.003690 -0.000706 0.028167
#
#
# Mechanical properties :
#
#
# Convention : Reuss Voigt Hill
#
# Bulk Modulus (GPa) = 41.98892 67.68617 54.83755
# Shear Modulus (GPa) = 32.65451 44.13629 38.39540
#
# Velocity S-wave (km/s) = 3.55741 4.13580 3.85746
# Velocity P-wave (km/s) = 5.75727 7.00272 6.41032
#
# Compressibility (1/GPa) = 0.02381581
#
# Stress axis : x y z
#
# Youngs Moduli (GPa) = 51.66898 81.70880 93.50991
#
# Poissons Ratio (x) = 0.36709 0.37851
# Poissons Ratio (y) = 0.23213 0.06498
# Poissons Ratio (z) = 0.20915 0.05678
#
# Static dielectric constant tensor:
#      x y z
#    x 2.376770 0.050080 -0.149920 
#    y 0.050080 2.046870 -0.062850 
#    z -0.149920 -0.062850 2.089740 
# 
# From -- ./inp_files/182742.got.cif
#   From: 2010.05.17/outbox.cif.g08.bks.cpg/sg2_92_cif.got.tgz:182742.got - 2010.06.03 11:33:40.
