data_PCOD9012997
_publ_section_title
;
Structure prediction by ZEFSAII (Michael W. Deem and Ramdas Pophale) SiO2 
 PCOD9012997
Probable space group: P -1
;
_chemical_formula_sum "Si O2"
_cell_formula_units_Z 16
_cell_length_a 11.194325
_cell_length_b 18.200093
_cell_length_c 5.047387
_cell_angle_alpha 105.112361
_cell_angle_beta 86.077209
_cell_angle_gamma 138.280561
_cell_volume 647.809748
_symmetry_space_group_name_H-M "P -1"
_symmetry_group_IT_number 2
_symmetry_cell_setting 'triclinic'
loop_
_space_group_symop_operation_xyz
x,y,z
-x,-y,-z
loop_
_atom_site_type_symbol
_atom_site_label
_atom_site_fract_x
_atom_site_fract_y
_atom_site_fract_z
Si Si1 0.334926 0.321530 0.272855
Si Si2 0.739303 0.038503 0.580256
Si Si3 0.539245 0.732962 0.176338
Si Si4 0.398304 0.892574 0.111041
Si Si5 0.238321 0.448635 0.415181
Si Si6 0.020681 0.066641 0.306489
Si Si7 0.556916 0.839339 0.793493
Si Si8 0.135448 0.493314 0.954719
O O1 0.240217 0.358269 0.309205
O O2 0.542003 0.428492 0.459557
O O3 0.208449 0.202822 0.345113
O O4 0.363229 0.298828 0.952557
O O5 0.766311 0.138085 0.769494
O O6 0.707648 0.968774 0.771303
O O7 0.887490 0.072774 0.402966
O O8 0.543576 0.944785 0.370487
O O9 0.622226 0.832541 0.048001
O O10 0.524413 0.764176 0.493612
O O11 0.333463 0.625869 0.006321
O O12 0.381727 0.807158 0.868451
O O13 0.500000 0.000000 0.000000
O O14 0.120572 0.426646 0.653537
O O15 0.162633 0.456263 0.179027
O O16 0.000000 0.000000 0.500000
O O17 0.000000 0.000000 0.000000
O O18 0.000000 0.500000 0.000000
#
# Coordination Sequence:
#
# PCOD9012997 Si02
#       8
#     2   2   2   2   2   2   2   2
#     4  10  24  47  71 108 141 193 248 288 363 422
#     4  10  21  41  62  94 129 179 232 282 347 402
#     4  11  22  37  67  97 128 175 226 277 341 433
#     4   9  20  37  65  84 127 176 232 287 329 412
#     4  10  24  45  79 101 142 189 239 300 349 439
#     4  12  28  44  68 103 150 190 231 302 353 421
#     4  11  20  37  61  95 128 175 226 275 339 414
#     4  11  24  46  70 106 142 173 225 304 373 424
#
# _framework density 24.698609999999999
#
# number of rings (size 3 to 8) (size 9 to 14) (size 15 to 20)
#    0.000    1.500    1.250    3.375    3.500    8.500 
#    2.250    3.750    0.000    0.000    0.000    0.000 
#    0.000    0.000    0.000    0.000    0.000    0.000 
#
# Total GULP energy -89381.883990 kJ/mol
# GULP energy per Si atom -5586.367749 kJ/mol
# Density = 2.464239 g / cm^3
# Si number density = 24.698610 Si / 1000 Ang^3
#
#
#
# Elastic Constant Matrix: (Units=GPa)
#
#
# Indices 1 2 3 4 5 6 
#
# 1 201.9461 43.0627 81.5145 8.0998 -60.3724 -36.2055
# 2 43.0627 87.0606 38.0758 2.9572 -11.6682 -20.8153
# 3 81.5145 38.0758 171.8421 -12.1692 -44.8749 -32.0621
# 4 8.0998 2.9572 -12.1692 30.7380 -19.5967 -2.4508
# 5 -60.3724 -11.6682 -44.8749 -19.5967 59.0754 2.8030
# 6 -36.2055 -20.8153 -32.0621 -2.4508 2.8030 43.0300
#
#
#
# Elastic Compliance Matrix: (Units=1/GPa)
#
#
# Indices 1 2 3 4 5 6 
#
# 1 0.009609 -0.001968 0.000634 0.005813 0.011500 0.007187
# 2 -0.001968 0.014099 -0.002274 -0.002759 -0.002032 0.003446
# 3 0.000634 -0.002274 0.012257 0.014441 0.013897 0.008483
# 4 0.005813 -0.002759 0.014441 0.061105 0.035901 0.015458
# 5 0.011500 -0.002032 0.013897 0.035901 0.049897 0.017842
# 6 0.007187 0.003446 0.008483 0.015458 0.017842 0.036993
#
#
# Mechanical properties :
#
#
# Convention : Reuss Voigt Hill
#
# Bulk Modulus (GPa) = 34.78345 87.35054 61.06699
# Shear Modulus (GPa) = 24.90548 46.44840 35.67694
#
# Velocity S-wave (km/s) = 3.17894 4.34130 3.80477
# Velocity P-wave (km/s) = 5.25242 7.78284 6.63930
#
# Compressibility (1/GPa) = 0.02874931
#
# Stress axis : x y z
#
# Youngs Moduli (GPa) = 104.06961 70.92609 81.58609
#
# Poissons Ratio (x) = 0.13957 -0.05169
# Poissons Ratio (y) = 0.20479 0.18550
# Poissons Ratio (z) = -0.06594 0.16127
#
# Static dielectric constant tensor:
#      x y z
#    x 2.048190 -0.014030 0.033830 
#    y -0.014030 2.031830 0.003110 
#    z 0.033830 0.003110 2.045740 
# 
# From -- ./inp_files/48619.got.cif
#   From: 2010.05.17/outbox.cif.g08.bks.cpg/sg2_25_cif.got.tgz:48619.got - 2010.06.03 11:33:40.
