data_PCOD9012648
_publ_section_title
;
Structure prediction by ZEFSAII (Michael W. Deem and Ramdas Pophale) SiO2 
 PCOD9012648
Probable space group: P -1
;
_chemical_formula_sum "Si O2"
_cell_formula_units_Z 14
_cell_length_a 9.153151
_cell_length_b 9.268219
_cell_length_c 9.484469
_cell_angle_alpha 77.809317
_cell_angle_beta 48.299918
_cell_angle_gamma 72.824807
_cell_volume 573.832460
_symmetry_space_group_name_H-M "P -1"
_symmetry_group_IT_number 2
_symmetry_cell_setting 'triclinic'
loop_
_space_group_symop_operation_xyz
x,y,z
-x,-y,-z
loop_
_atom_site_type_symbol
_atom_site_label
_atom_site_fract_x
_atom_site_fract_y
_atom_site_fract_z
Si Si1 0.541737 0.352109 0.663725
Si Si2 0.823943 0.762616 0.590875
Si Si3 0.051567 0.598909 0.729553
Si Si4 0.312257 0.952020 0.200188
Si Si5 0.372857 0.167210 0.566681
Si Si6 0.821705 0.379552 0.066486
Si Si7 0.065559 0.828508 0.186074
O O1 0.264485 0.584733 0.520078
O O2 0.612109 0.217566 0.757398
O O3 0.460378 0.267295 0.601870
O O4 0.364744 0.485252 0.805561
O O5 0.656093 0.752208 0.585599
O O6 0.877905 0.668703 0.716939
O O7 0.018639 0.730483 0.371490
O O8 0.775263 0.935900 0.639994
O O9 0.081891 0.688666 0.834452
O O10 0.989025 0.451654 0.863301
O O11 0.146944 0.958890 0.183626
O O12 0.500000 0.000000 0.000000
O O13 0.152318 0.137070 0.752334
O O14 0.500000 0.000000 0.500000
O O15 0.779563 0.258111 0.007876
#
# Coordination Sequence:
#
# PCOD9012648 Si02
#       7
#     2   2   2   2   2   2   2
#     4  12  23  47  73 105 147 192 235 300 360 428
#     4  10  23  46  72 100 140 188 234 289 369 422
#     4  11  24  46  76  98 146 196 233 298 361 418
#     4  12  25  45  72 110 145 184 241 300 362 432
#     4  10  21  40  73 103 137 182 241 283 355 434
#     4  11  26  47  68 111 144 185 253 290 355 433
#     4  10  24  46  70 101 147 187 232 299 360 420
#
# _framework density 24.397365000000001
#
# number of rings (size 3 to 8) (size 9 to 14) (size 15 to 20)
#    0.857    0.286    2.857    3.429    2.000    2.286 
#    2.571    1.429    0.000    2.571    0.000    0.000 
#    0.000    0.000    0.000    0.000    0.000    0.000 
#
# Total GULP energy -78210.002407 kJ/mol
# GULP energy per Si atom -5586.428743 kJ/mol
# Density = 2.434184 g / cm^3
# Si number density = 24.397365 Si / 1000 Ang^3
#
#
#
# Elastic Constant Matrix: (Units=GPa)
#
#
# Indices 1 2 3 4 5 6 
#
# 1 111.5827 42.6037 50.3126 7.8403 -0.8820 -10.6798
# 2 42.6037 80.7468 48.6326 18.1675 3.6450 -18.9679
# 3 50.3126 48.6326 125.5888 15.9245 -1.6098 -3.5138
# 4 7.8403 18.1675 15.9245 48.7164 13.9063 8.8209
# 5 -0.8820 3.6450 -1.6098 13.9063 46.6697 -7.3974
# 6 -10.6798 -18.9679 -3.5138 8.8209 -7.3974 33.6663
#
#
#
# Elastic Compliance Matrix: (Units=1/GPa)
#
#
# Indices 1 2 3 4 5 6 
#
# 1 0.012139 -0.004324 -0.003196 0.000353 0.000527 0.001104
# 2 -0.004324 0.023579 -0.005716 -0.009745 0.003089 0.014549
# 3 -0.003196 -0.005716 0.011488 -0.000789 0.000590 -0.002699
# 4 0.000353 -0.009745 -0.000789 0.030296 -0.010786 -0.015769
# 5 0.000527 0.003089 0.000590 -0.010786 0.026099 0.010530
# 6 0.001104 0.014549 -0.002699 -0.015769 0.010530 0.044414
#
#
# Mechanical properties :
#
#
# Convention : Reuss Voigt Hill
#
# Bulk Modulus (GPa) = 48.22819 66.77956 57.50387
# Shear Modulus (GPa) = 27.56351 37.56844 32.56597
#
# Velocity S-wave (km/s) = 3.36486 3.92836 3.65748
# Velocity P-wave (km/s) = 5.90822 6.92871 6.43871
#
# Compressibility (1/GPa) = 0.02073476
#
# Stress axis : x y z
#
# Youngs Moduli (GPa) = 82.37998 42.41032 87.04436
#
# Poissons Ratio (x) = 0.18337 0.27818
# Poissons Ratio (y) = 0.35619 0.49757
# Poissons Ratio (z) = 0.26327 0.24243
#
# Static dielectric constant tensor:
#      x y z
#    x 1.957550 0.014910 -0.005930 
#    y 0.014910 1.965320 -0.005740 
#    z -0.005930 -0.005740 1.943310 
# 
# From -- ./inp_files/158474.got.cif
#   From: 2010.05.17/outbox.cif.g08.bks.cpg/sg2_80_cif.got.tgz:158474.got - 2010.06.03 11:33:40.
