data_PCOD9012656
_publ_section_title
;
Structure prediction by ZEFSAII (Michael W. Deem and Ramdas Pophale) SiO2 
 PCOD9012656
Probable space group: P -1
;
_chemical_formula_sum "Si O2"
_cell_formula_units_Z 15
_cell_length_a 11.282475
_cell_length_b 7.835032
_cell_length_c 17.763249
_cell_angle_alpha 142.637024
_cell_angle_beta 145.700261
_cell_angle_gamma 43.306963
_cell_volume 525.259712
_symmetry_space_group_name_H-M "P -1"
_symmetry_group_IT_number 2
_symmetry_cell_setting 'triclinic'
loop_
_space_group_symop_operation_xyz
x,y,z
-x,-y,-z
loop_
_atom_site_type_symbol
_atom_site_label
_atom_site_fract_x
_atom_site_fract_y
_atom_site_fract_z
Si Si1 0.815059 0.781610 0.381830
Si Si2 0.747272 0.091479 0.003909
Si Si3 0.245591 0.514864 0.152119
Si Si4 0.414451 0.303062 0.019180
Si Si5 0.809664 0.879817 0.665628
Si Si6 0.000000 0.500000 0.500000
Si Si7 0.643191 0.850592 0.725250
Si Si8 0.015868 0.733198 0.304950
O O1 0.801192 0.524133 0.340460
O O2 0.940381 0.710198 0.344486
O O3 0.606335 0.026315 0.342252
O O4 0.953646 0.936666 0.568467
O O5 0.570005 0.319289 0.035840
O O6 0.671890 0.788846 0.871857
O O7 0.753052 0.074763 0.910608
O O8 0.973265 0.100943 0.164728
O O9 0.247527 0.812053 0.297255
O O10 0.362390 0.523833 0.137327
O O11 0.000000 0.500000 0.000000
O O12 0.182614 0.294346 0.859679
O O13 0.500000 0.000000 0.000000
O O14 0.836188 0.637352 0.532153
O O15 0.647389 0.859230 0.640006
O O16 0.783655 0.526762 0.697633
#
# Coordination Sequence:
#
# PCOD9012656 Si02
#       8
#     2   2   2   2   2   1   2   2
#     4  11  27  47  72 101 146 199 246 299 361 434
#     4  10  22  41  74 107 144 184 243 302 370 432
#     4   9  20  40  66 107 134 187 234 292 360 423
#     4  10  21  40  73 115 140 180 244 301 373 425
#     4  11  25  45  69 102 150 191 239 307 366 431
#     4  12  28  50  68 102 150 192 250 300 364 440
#     4  12  24  48  71 111 142 194 246 296 380 432
#     4  11  23  48  73 104 148 189 246 304 352 443
#
# _framework density 28.557300000000001
#
# number of rings (size 3 to 8) (size 9 to 14) (size 15 to 20)
#    0.000    1.333    2.667    2.400    7.467    1.600 
#    2.400    2.000    0.000    0.000    0.000    0.000 
#    0.000    0.000    0.000    0.000    0.000    0.000 
#
# Total GULP energy -83748.420789 kJ/mol
# GULP energy per Si atom -5583.228053 kJ/mol
# Density = 2.849230 g / cm^3
# Si number density = 28.557300 Si / 1000 Ang^3
#
#
#
# Elastic Constant Matrix: (Units=GPa)
#
#
# Indices 1 2 3 4 5 6 
#
# 1 133.0658 26.9629 21.7772 4.7712 -50.2203 -27.1793
# 2 26.9629 123.4559 28.2802 5.0449 -19.0643 -21.8293
# 3 21.7772 28.2802 109.2859 9.9305 -39.2550 -14.9814
# 4 4.7712 5.0449 9.9305 49.9807 -12.7704 -12.5983
# 5 -50.2203 -19.0643 -39.2550 -12.7704 56.9422 3.2906
# 6 -27.1793 -21.8293 -14.9814 -12.5983 3.2906 60.9996
#
#
#
# Elastic Compliance Matrix: (Units=1/GPa)
#
#
# Indices 1 2 3 4 5 6 
#
# 1 0.013896 -0.000450 0.003251 0.003547 0.014751 0.006766
# 2 -0.000450 0.009246 -0.001348 0.000522 0.001725 0.002792
# 3 0.003251 -0.001348 0.013502 0.001124 0.011752 0.003880
# 4 0.003547 0.000522 0.001124 0.023281 0.008931 0.006370
# 5 0.014751 0.001725 0.011752 0.008931 0.040691 0.009725
# 6 0.006766 0.002792 0.003880 0.006370 0.009725 0.022151
#
#
# Mechanical properties :
#
#
# Convention : Reuss Voigt Hill
#
# Bulk Modulus (GPa) = 25.28483 57.76090 41.52287
# Shear Modulus (GPa) = 37.58121 52.83700 45.20911
#
# Velocity S-wave (km/s) = 3.63160 4.30607 3.98314
# Velocity P-wave (km/s) = 5.14373 6.70770 5.97709
#
# Compressibility (1/GPa) = 0.03954940
#
# Stress axis : x y z
#
# Youngs Moduli (GPa) = 71.96288 108.15661 74.06063
#
# Poissons Ratio (x) = 0.04872 -0.24077
# Poissons Ratio (y) = 0.03242 0.09984
# Poissons Ratio (z) = -0.23395 0.14580
#
# Static dielectric constant tensor:
#      x y z
#    x 2.090750 -0.409110 -0.047300 
#    y -0.409110 1.317390 -0.332790 
#    z -0.047300 -0.332790 2.209840 
# 
# From -- ./inp_files/567068.got.cif
#   From: 2010.05.17/outbox.cif.g08.bks.cpg/sg2_284_cif.got.tgz:567068.got - 2010.06.03 11:33:40.
