data_PCOD9012896
_publ_section_title
;
Structure prediction by ZEFSAII (Michael W. Deem and Ramdas Pophale) SiO2 
 PCOD9012896
Probable space group: P -1
;
_chemical_formula_sum "Si O2"
_cell_formula_units_Z 14
_cell_length_a 15.730479
_cell_length_b 7.385749
_cell_length_c 11.592880
_cell_angle_alpha 94.997217
_cell_angle_beta 28.654618
_cell_angle_gamma 91.663953
_cell_volume 640.235506
_symmetry_space_group_name_H-M "P -1"
_symmetry_group_IT_number 2
_symmetry_cell_setting 'triclinic'
loop_
_space_group_symop_operation_xyz
x,y,z
-x,-y,-z
loop_
_atom_site_type_symbol
_atom_site_label
_atom_site_fract_x
_atom_site_fract_y
_atom_site_fract_z
Si Si1 0.313379 0.397034 0.373203
Si Si2 0.060350 0.645491 0.526819
Si Si3 0.598165 0.184207 0.871247
Si Si4 0.277514 0.120832 0.955074
Si Si5 0.805827 0.061736 0.189280
Si Si6 0.382281 0.029186 0.373147
Si Si7 0.446058 0.599049 0.449003
O O1 0.153822 0.527868 0.515659
O O2 0.405720 0.474262 0.380669
O O3 0.269395 0.197143 0.456104
O O4 0.454712 0.340389 0.099498
O O5 0.212192 0.767353 0.304871
O O6 0.000000 0.500000 0.500000
O O7 0.887935 0.775068 0.777256
O O8 0.640602 0.154648 0.682205
O O9 0.500000 0.000000 0.000000
O O10 0.403650 0.980253 0.875983
O O11 0.402248 0.271657 0.764657
O O12 0.213078 0.006959 0.919910
O O13 0.676430 0.967042 0.424963
O O14 0.735749 0.272576 0.299886
O O15 0.000000 0.000000 0.000000
O O16 0.500000 0.500000 0.500000
#
# Coordination Sequence:
#
# PCOD9012896 Si02
#       7
#     2   2   2   2   2   2   2
#     4  11  22  40  64  91 123 165 210 263 319 375
#     4  12  24  41  66  99 129 161 213 275 320 370
#     4  10  22  42  65  88 124 171 210 253 320 390
#     4  11  22  39  61  89 125 165 210 264 320 381
#     4  11  22  38  59  86 123 168 210 258 317 386
#     4  10  21  41  62  87 123 170 212 255 316 388
#     4  11  22  39  63  92 125 166 213 264 318 376
#
# _framework density 21.866952999999999
#
# number of rings (size 3 to 8) (size 9 to 14) (size 15 to 20)
#    0.000    1.143    0.000    9.000    0.000    1.143 
#    0.000   20.000    0.000    0.000    0.000    0.000 
#    0.000    0.000    0.000    0.000    0.000    0.000 
#
# Total GULP energy -78084.808557 kJ/mol
# GULP energy per Si atom -5577.486326 kJ/mol
# Density = 2.181718 g / cm^3
# Si number density = 21.866953 Si / 1000 Ang^3
#
#
#
# Elastic Constant Matrix: (Units=GPa)
#
#
# Indices 1 2 3 4 5 6 
#
# 1 103.9130 44.4341 8.6648 7.7320 -10.8595 15.6461
# 2 44.4341 58.4910 25.1315 8.1182 0.4317 1.6305
# 3 8.6648 25.1315 108.2804 22.4664 -20.9205 1.9996
# 4 7.7320 8.1182 22.4664 37.9212 3.5701 5.1890
# 5 -10.8595 0.4317 -20.9205 3.5701 40.5413 10.0352
# 6 15.6461 1.6305 1.9996 5.1890 10.0352 55.5152
#
#
#
# Elastic Compliance Matrix: (Units=1/GPa)
#
#
# Indices 1 2 3 4 5 6 
#
# 1 0.017673 -0.014835 0.004529 -0.003131 0.009001 -0.006043
# 2 -0.014835 0.031762 -0.008565 0.001538 -0.010167 0.005251
# 3 0.004529 -0.008565 0.014620 -0.008356 0.010233 -0.002620
# 4 -0.003131 0.001538 -0.008356 0.032438 -0.007909 -0.000464
# 5 0.009001 -0.010167 0.010233 -0.007909 0.035200 -0.008230
# 6 -0.006043 0.005251 -0.002620 -0.000464 -0.008230 0.021187
#
#
# Mechanical properties :
#
#
# Convention : Reuss Voigt Hill
#
# Bulk Modulus (GPa) = 38.00430 47.46057 42.73243
# Shear Modulus (GPa) = 25.07609 39.62581 32.35095
#
# Velocity S-wave (km/s) = 3.39005 4.26153 3.85053
# Velocity P-wave (km/s) = 5.72196 6.77979 6.27321
#
# Compressibility (1/GPa) = 0.02631282
#
# Stress axis : x y z
#
# Youngs Moduli (GPa) = 56.58421 31.48443 68.39870
#
# Poissons Ratio (x) = 0.46707 -0.30979
# Poissons Ratio (y) = 0.83943 0.58585
# Poissons Ratio (z) = -0.25628 0.26967
#
# Static dielectric constant tensor:
#      x y z
#    x 1.884550 -0.065990 0.068650 
#    y -0.065990 1.860770 -0.061260 
#    z 0.068650 -0.061260 1.865310 
# 
# From -- ./inp_files/447726.got.cif
#   From: 2010.05.17/outbox.cif.g08.bks.cpg/sg2_224_cif.got.tgz:447726.got - 2010.06.03 11:33:40.
