data_PCOD9012993
_publ_section_title
;
Structure prediction by ZEFSAII (Michael W. Deem and Ramdas Pophale) SiO2 
 PCOD9012993
Probable space group: P -1
;
_chemical_formula_sum "Si O2"
_cell_formula_units_Z 14
_cell_length_a 7.876955
_cell_length_b 14.933198
_cell_length_c 11.609127
_cell_angle_alpha 152.023559
_cell_angle_beta 99.665767
_cell_angle_gamma 72.617403
_cell_volume 597.137749
_symmetry_space_group_name_H-M "P -1"
_symmetry_group_IT_number 2
_symmetry_cell_setting 'triclinic'
loop_
_space_group_symop_operation_xyz
x,y,z
-x,-y,-z
loop_
_atom_site_type_symbol
_atom_site_label
_atom_site_fract_x
_atom_site_fract_y
_atom_site_fract_z
Si Si1 0.568518 0.128841 0.744076
Si Si2 0.804460 0.939476 0.966997
Si Si3 0.837941 0.316487 0.511186
Si Si4 0.029703 0.628068 0.800548
Si Si5 0.478311 0.033835 0.222449
Si Si6 0.446252 0.470529 0.726561
Si Si7 0.988764 0.984709 0.618597
O O1 0.780699 0.010599 0.651933
O O2 0.500000 0.000000 0.500000
O O3 0.475056 0.125885 0.852507
O O4 0.548509 0.362744 0.989117
O O5 0.879723 0.123577 0.211802
O O6 0.635669 0.982439 0.087348
O O7 0.938568 0.724501 0.779810
O O8 0.708617 0.951502 0.847048
O O9 0.948353 0.463942 0.657114
O O10 0.620642 0.428623 0.615436
O O11 0.889290 0.216242 0.530442
O O12 0.249647 0.550953 0.733246
O O13 0.976543 0.822192 0.100573
O O14 0.459409 0.249757 0.521630
O O15 0.000000 0.000000 0.500000
#
# Coordination Sequence:
#
# PCOD9012993 Si02
#       7
#     2   2   2   2   2   2   2
#     4  11  25  41  65  94 127 169 213 264 316 374
#     4   9  21  39  68  94 130 169 204 266 314 384
#     4  10  21  41  67  93 127 169 210 259 322 377
#     4  10  21  41  62  94 128 162 213 262 319 372
#     4  10  21  42  64  96 131 165 214 259 321 373
#     4  10  23  40  63  95 125 164 215 259 310 384
#     4  10  24  42  60  92 129 169 212 262 317 376
#
# _framework density 23.445179
#
# number of rings (size 3 to 8) (size 9 to 14) (size 15 to 20)
#    0.000    2.000    0.000    1.714    8.000    2.857 
#    2.571   14.286    0.000    0.000    0.000    0.000 
#    0.000    0.000    0.000    0.000    0.000    0.000 
#
# Total GULP energy -78316.045901 kJ/mol
# GULP energy per Si atom -5594.003279 kJ/mol
# Density = 2.339182 g / cm^3
# Si number density = 23.445179 Si / 1000 Ang^3
#
#
#
# Elastic Constant Matrix: (Units=GPa)
#
#
# Indices 1 2 3 4 5 6 
#
# 1 133.6592 43.2780 54.2939 12.3281 18.9663 -13.7862
# 2 43.2780 121.1168 55.8568 3.6732 18.0019 11.1847
# 3 54.2939 55.8568 112.6647 17.5716 24.4184 -6.4444
# 4 12.3281 3.6732 17.5716 38.1949 -2.7935 -3.9592
# 5 18.9663 18.0019 24.4184 -2.7935 46.5451 2.9934
# 6 -13.7862 11.1847 -6.4444 -3.9592 2.9934 28.4948
#
#
#
# Elastic Compliance Matrix: (Units=1/GPa)
#
#
# Indices 1 2 3 4 5 6 
#
# 1 0.010453 -0.002614 -0.002704 -0.001474 -0.002272 0.005506
# 2 -0.002614 0.012352 -0.005415 0.001386 -0.000331 -0.007110
# 3 -0.002704 -0.005415 0.015110 -0.005530 -0.005321 0.004025
# 4 -0.001474 0.001386 -0.005530 0.029524 0.004666 0.001104
# 5 -0.002272 -0.000331 -0.005321 0.004666 0.025883 -0.004244
# 6 0.005506 -0.007110 0.004025 0.001104 -0.004244 0.042058
#
#
# Mechanical properties :
#
#
# Convention : Reuss Voigt Hill
#
# Bulk Modulus (GPa) = 60.79863 74.92201 67.86032
# Shear Modulus (GPa) = 30.80186 36.91443 33.85814
#
# Velocity S-wave (km/s) = 3.62855 3.97230 3.80431
# Velocity P-wave (km/s) = 6.59876 7.28454 6.95012
#
# Compressibility (1/GPa) = 0.01644774
#
# Stress axis : x y z
#
# Youngs Moduli (GPa) = 95.66843 80.96103 66.18278
#
# Poissons Ratio (x) = 0.21163 0.17896
# Poissons Ratio (y) = 0.25007 0.35839
# Poissons Ratio (z) = 0.25869 0.43842
#
# Static dielectric constant tensor:
#      x y z
#    x 1.953500 0.025340 -0.027790 
#    y 0.025340 1.889180 -0.016470 
#    z -0.027790 -0.016470 1.903270 
# 
# From -- ./inp_files/400062.got.cif
#   From: 2010.05.17/outbox.cif.g08.bks.cpg/sg2_201_cif.got.tgz:400062.got - 2010.06.03 11:33:40.
