data_PCOD9012082
_publ_section_title
;
Structure prediction by ZEFSAII (Michael W. Deem and Ramdas Pophale) SiO2 
 PCOD9012082
Probable space group: P -1
;
_chemical_formula_sum "Si O2"
_cell_formula_units_Z 16
_cell_length_a 15.572881
_cell_length_b 12.979903
_cell_length_c 5.698498
_cell_angle_alpha 80.695265
_cell_angle_beta 82.936189
_cell_angle_gamma 142.143501
_cell_volume 635.038979
_symmetry_space_group_name_H-M "P -1"
_symmetry_group_IT_number 2
_symmetry_cell_setting 'triclinic'
loop_
_space_group_symop_operation_xyz
x,y,z
-x,-y,-z
loop_
_atom_site_type_symbol
_atom_site_label
_atom_site_fract_x
_atom_site_fract_y
_atom_site_fract_z
Si Si1 0.863120 0.913472 0.354935
Si Si2 0.653460 0.587118 0.879636
Si Si3 0.962237 0.618134 0.007880
Si Si4 0.290985 0.046288 0.794171
Si Si5 0.399921 0.077944 0.253004
Si Si6 0.131777 0.269988 0.894578
Si Si7 0.829994 0.346368 0.494049
Si Si8 0.288393 0.588868 0.194686
O O1 0.771007 0.790390 0.660410
O O2 0.908487 0.849651 0.248365
O O3 0.757088 0.880465 0.239287
O O4 0.019152 0.134421 0.205032
O O5 0.667400 0.491234 0.759020
O O6 0.500000 0.500000 0.000000
O O7 0.702817 0.592474 0.114376
O O8 0.897993 0.643060 0.199989
O O9 0.885639 0.435575 0.185368
O O10 0.877949 0.566304 0.816409
O O11 0.142159 0.821661 0.891111
O O12 0.386121 0.119575 0.496315
O O13 0.354335 0.090296 0.017688
O O14 0.278804 0.862209 0.380495
O O15 0.579454 0.236194 0.090323
O O16 0.724707 0.335253 0.633112
O O17 0.000000 0.500000 0.500000
#
# Coordination Sequence:
#
# PCOD9012082 Si02
#       8
#     2   2   2   2   2   2   2   2
#     4  10  21  40  68  94 137 182 239 291 352 421
#     4  11  23  41  66 100 143 184 233 284 365 430
#     4  10  23  45  71 104 143 186 248 301 366 425
#     4  11  26  46  74 106 145 189 248 302 355 439
#     4  12  28  48  72 108 145 192 240 302 370 426
#     4   9  21  40  64 101 131 183 233 300 348 427
#     4  12  25  46  78 102 142 190 250 303 365 433
#     4  11  27  45  70 108 148 190 241 305 364 437
#
# _framework density 25.195304
#
# number of rings (size 3 to 8) (size 9 to 14) (size 15 to 20)
#    0.000    1.250    1.250    3.000    7.000    2.000 
#    4.500    0.000    0.000    0.000    0.000    0.000 
#    0.000    0.000    0.000    0.000    0.000    0.000 
#
# Total GULP energy -89207.018941 kJ/mol
# GULP energy per Si atom -5575.438684 kJ/mol
# Density = 2.513796 g / cm^3
# Si number density = 25.195304 Si / 1000 Ang^3
#
#
#
# Elastic Constant Matrix: (Units=GPa)
#
#
# Indices 1 2 3 4 5 6 
#
# 1 78.0880 3.9991 46.5570 10.9735 -10.6538 -4.9157
# 2 3.9991 44.5530 9.4421 -16.6056 9.0834 -5.3255
# 3 46.5570 9.4421 110.8251 -6.2138 2.4154 -0.0717
# 4 10.9735 -16.6056 -6.2138 36.4190 -4.9400 0.5102
# 5 -10.6538 9.0834 2.4154 -4.9400 42.0845 -2.7621
# 6 -4.9157 -5.3255 -0.0717 0.5102 -2.7621 43.5219
#
#
#
# Elastic Compliance Matrix: (Units=1/GPa)
#
#
# Indices 1 2 3 4 5 6 
#
# 1 0.020458 -0.004138 -0.008859 -0.008822 0.005693 0.002255
# 2 -0.004138 0.029419 0.000134 0.013887 -0.005603 0.002614
# 3 -0.008859 0.000134 0.013048 0.004627 -0.002555 -0.001179
# 4 -0.008822 0.013887 0.004627 0.037082 -0.001130 0.000204
# 5 0.005693 -0.005603 -0.002555 -0.001130 0.026535 0.001650
# 6 0.002255 0.002614 -0.001179 0.000204 0.001650 0.023652
#
#
# Mechanical properties :
#
#
# Convention : Reuss Voigt Hill
#
# Bulk Modulus (GPa) = 26.88226 39.27362 33.07794
# Shear Modulus (GPa) = 26.55074 35.96963 31.26018
#
# Velocity S-wave (km/s) = 3.24975 3.78250 3.52620
# Velocity P-wave (km/s) = 4.97733 5.89050 5.45306
#
# Compressibility (1/GPa) = 0.03719925
#
# Stress axis : x y z
#
# Youngs Moduli (GPa) = 48.87985 33.99172 76.64135
#
# Poissons Ratio (x) = 0.14066 0.67898
# Poissons Ratio (y) = 0.20228 -0.01030
# Poissons Ratio (z) = 0.43303 -0.00457
#
# Static dielectric constant tensor:
#      x y z
#    x 2.067880 0.018510 0.006350 
#    y 0.018510 2.046350 0.040430 
#    z 0.006350 0.040430 2.039830 
# 
# From -- ./inp_files/81298.got.cif
#   From: 2010.05.17/outbox.cif.g08.bks.cpg/sg2_41_cif.got.tgz:81298.got - 2010.06.03 11:33:40.
