data_PCOD9012035
_publ_section_title
;
Structure prediction by ZEFSAII (Michael W. Deem and Ramdas Pophale) SiO2 
 PCOD9012035
Probable space group: P -1
;
_chemical_formula_sum "Si O2"
_cell_formula_units_Z 15
_cell_length_a 15.091634
_cell_length_b 8.293347
_cell_length_c 7.069301
_cell_angle_alpha 83.620339
_cell_angle_beta 124.012804
_cell_angle_gamma 125.119977
_cell_volume 570.199021
_symmetry_space_group_name_H-M "P -1"
_symmetry_group_IT_number 2
_symmetry_cell_setting 'triclinic'
loop_
_space_group_symop_operation_xyz
x,y,z
-x,-y,-z
loop_
_atom_site_type_symbol
_atom_site_label
_atom_site_fract_x
_atom_site_fract_y
_atom_site_fract_z
Si Si1 0.644276 0.604434 0.052642
Si Si2 0.376364 0.253545 0.356833
Si Si3 0.210511 0.676441 0.327699
Si Si4 0.076315 0.756172 0.863836
Si Si5 0.198586 0.100477 0.500069
Si Si6 0.592161 0.247018 0.772056
Si Si7 0.000000 0.000000 0.500000
Si Si8 0.712991 0.139591 0.201557
O O1 0.660064 0.764638 0.900765
O O2 0.636660 0.432820 0.945074
O O3 0.500000 0.500000 0.000000
O O4 0.776286 0.733543 0.333037
O O5 0.500000 0.500000 0.500000
O O6 0.256187 0.199444 0.356235
O O7 0.447073 0.155209 0.521038
O O8 0.306482 0.675876 0.293287
O O9 0.271641 0.748349 0.600718
O O10 0.069137 0.450882 0.222661
O O11 0.169454 0.808457 0.155848
O O12 0.153431 0.729016 0.792275
O O13 0.050416 0.908274 0.728260
O O14 0.294091 0.049545 0.703569
O O15 0.043851 0.917599 0.382310
O O16 0.596226 0.092759 0.928843
#
# Coordination Sequence:
#
# PCOD9012035 Si02
#       8
#     2   2   2   2   2   2   1   2
#     4  11  23  42  69  93 132 171 221 281 324 389
#     4  10  22  40  64  97 128 166 217 275 330 387
#     4  10  21  40  68  91 137 168 235 270 325 400
#     4   9  21  41  61  97 127 182 224 280 317 400
#     4  11  24  45  63  99 138 170 219 277 331 401
#     4  10  23  38  68 101 117 171 226 263 336 392
#     4  10  24  40  68  94 142 172 216 272 342 388
#     4  10  23  41  65  93 134 176 213 271 337 398
#
# _framework density 26.306602999999999
#
# number of rings (size 3 to 8) (size 9 to 14) (size 15 to 20)
#    0.000    1.867    2.667    0.400    7.467    3.733 
#    4.800    4.667    0.000    0.000    0.000    0.000 
#    0.000    0.000    0.000    0.000    0.000    0.000 
#
# Total GULP energy -83717.870699 kJ/mol
# GULP energy per Si atom -5581.191380 kJ/mol
# Density = 2.624673 g / cm^3
# Si number density = 26.306603 Si / 1000 Ang^3
#
#
#
# Elastic Constant Matrix: (Units=GPa)
#
#
# Indices 1 2 3 4 5 6 
#
# 1 132.4147 34.6085 73.5507 -22.8715 -25.3052 13.3010
# 2 34.6085 53.6172 29.7555 -8.9694 -1.1550 0.4614
# 3 73.5507 29.7555 168.2304 -23.8955 -5.4926 4.3406
# 4 -22.8715 -8.9694 -23.8955 55.6334 -2.6284 -5.1453
# 5 -25.3052 -1.1550 -5.4926 -2.6284 60.5136 -13.0666
# 6 13.3010 0.4614 4.3406 -5.1453 -13.0666 38.0410
#
#
#
# Elastic Compliance Matrix: (Units=1/GPa)
#
#
# Indices 1 2 3 4 5 6 
#
# 1 0.012738 -0.005425 -0.004032 0.002659 0.004539 -0.002009
# 2 -0.005425 0.023187 -0.001701 0.000825 -0.001652 0.001354
# 3 -0.004032 -0.001701 0.008196 0.001590 -0.000812 0.000431
# 4 0.002659 0.000825 0.001590 0.020247 0.002701 0.002545
# 5 0.004539 -0.001652 -0.000812 0.002701 0.019653 0.005642
# 6 -0.002009 0.001354 0.000431 0.002545 0.005642 0.029207
#
#
# Mechanical properties :
#
#
# Convention : Reuss Voigt Hill
#
# Bulk Modulus (GPa) = 45.85991 70.01017 57.93504
# Shear Modulus (GPa) = 35.01119 45.26076 40.13597
#
# Velocity S-wave (km/s) = 3.65209 4.15240 3.91026
# Velocity P-wave (km/s) = 5.93754 7.04705 6.51595
#
# Compressibility (1/GPa) = 0.02180554
#
# Stress axis : x y z
#
# Youngs Moduli (GPa) = 78.50640 43.12768 122.00972
#
# Poissons Ratio (x) = 0.23395 0.49192
# Poissons Ratio (y) = 0.42586 0.20757
# Poissons Ratio (z) = 0.31652 0.07337
#
# Static dielectric constant tensor:
#      x y z
#    x 1.840210 -0.250440 -0.010230 
#    y -0.250440 2.003770 -0.000690 
#    z -0.010230 -0.000690 2.080320 
# 
# From -- ./inp_files/88845.got.cif
#   From: 2010.05.17/outbox.cif.g08.bks.cpg/sg2_45_cif.got.tgz:88845.got - 2010.06.03 11:33:40.
