data_PCOD9012454
_publ_section_title
;
Structure prediction by ZEFSAII (Michael W. Deem and Ramdas Pophale) SiO2 
 PCOD9012454
Probable space group: P -1
;
_chemical_formula_sum "Si O2"
_cell_formula_units_Z 14
_cell_length_a 11.356570
_cell_length_b 5.166954
_cell_length_c 19.857290
_cell_angle_alpha 58.328533
_cell_angle_beta 142.944076
_cell_angle_gamma 126.009675
_cell_volume 564.235923
_symmetry_space_group_name_H-M "P -1"
_symmetry_group_IT_number 2
_symmetry_cell_setting 'triclinic'
loop_
_space_group_symop_operation_xyz
x,y,z
-x,-y,-z
loop_
_atom_site_type_symbol
_atom_site_label
_atom_site_fract_x
_atom_site_fract_y
_atom_site_fract_z
Si Si1 0.926952 0.884234 0.864303
Si Si2 0.580200 0.186816 0.690575
Si Si3 0.817670 0.852218 0.671338
Si Si4 0.686783 0.199927 0.892598
Si Si5 0.403294 0.781570 0.921185
Si Si6 0.992231 0.434878 0.311186
Si Si7 0.868093 0.231029 0.426183
O O1 0.947439 0.807402 0.804505
O O2 0.806384 0.581282 0.898942
O O3 0.769451 0.085743 0.761328
O O4 0.153221 0.982550 0.987069
O O5 0.610253 0.549200 0.630264
O O6 0.622991 0.173265 0.790607
O O7 0.350005 0.943664 0.613358
O O8 0.897419 0.798388 0.640967
O O9 0.838920 0.223465 0.638359
O O10 0.484671 0.054220 0.863989
O O11 0.166102 0.587344 0.820044
O O12 0.500000 0.500000 0.000000
O O13 0.500000 0.000000 0.000000
O O14 0.854320 0.359262 0.326575
O O15 0.000000 0.500000 0.500000
O O16 0.000000 0.000000 0.500000
#
# Coordination Sequence:
#
# PCOD9012454 Si02
#       7
#     2   2   2   2   2   2   2
#     4  10  21  40  70 107 147 192 244 287 360 448
#     4  11  24  46  77 102 150 191 252 302 374 440
#     4  11  24  43  76 105 147 189 234 300 376 438
#     4  10  22  38  65 107 143 200 239 291 352 446
#     4  12  26  40  66 105 153 194 242 282 367 445
#     4  12  24  49  71 109 150 191 241 314 368 432
#     4  12  30  52  80 108 141 195 261 316 372 435
#
# _framework density 24.812317
#
# number of rings (size 3 to 8) (size 9 to 14) (size 15 to 20)
#    0.000    0.857    2.857    3.857    6.000    1.143 
#    0.000    4.286    0.000    0.000    0.000    0.000 
#    0.000    0.000    0.000    0.000    0.000    0.000 
#
# Total GULP energy -78049.026996 kJ/mol
# GULP energy per Si atom -5574.930500 kJ/mol
# Density = 2.475584 g / cm^3
# Si number density = 24.812317 Si / 1000 Ang^3
#
#
#
# Elastic Constant Matrix: (Units=GPa)
#
#
# Indices 1 2 3 4 5 6 
#
# 1 97.2990 37.8660 9.3968 16.6054 -20.4820 -15.6341
# 2 37.8660 117.3856 26.4356 31.1729 6.1074 -19.1551
# 3 9.3968 26.4356 70.6807 23.8894 0.7533 -7.9870
# 4 16.6054 31.1729 23.8894 41.3346 0.7371 -1.1939
# 5 -20.4820 6.1074 0.7533 0.7371 34.1403 6.4930
# 6 -15.6341 -19.1551 -7.9870 -1.1939 6.4930 46.6686
#
#
#
# Elastic Compliance Matrix: (Units=1/GPa)
#
#
# Indices 1 2 3 4 5 6 
#
# 1 0.014652 -0.004196 0.000872 -0.003333 0.009220 0.001967
# 2 -0.004196 0.013070 -0.001365 -0.007159 -0.005490 0.004306
# 3 0.000872 -0.001365 0.018117 -0.009719 0.000089 0.002571
# 4 -0.003333 -0.007159 -0.009719 0.036418 -0.000391 -0.004732
# 5 0.009220 -0.005490 0.000089 -0.000391 0.036620 -0.004254
# 6 0.001967 0.004306 0.002571 -0.004732 -0.004254 0.024765
#
#
# Mechanical properties :
#
#
# Convention : Reuss Voigt Hill
#
# Bulk Modulus (GPa) = 27.42752 48.08471 37.75611
# Shear Modulus (GPa) = 30.27093 38.53981 34.40537
#
# Velocity S-wave (km/s) = 3.49663 3.94541 3.72778
# Velocity P-wave (km/s) = 5.23258 6.33849 5.81190
#
# Compressibility (1/GPa) = 0.03645973
#
# Stress axis : x y z
#
# Youngs Moduli (GPa) = 68.24895 76.51390 55.19551
#
# Poissons Ratio (x) = 0.32108 -0.04814
# Poissons Ratio (y) = 0.28640 0.07537
# Poissons Ratio (z) = -0.05952 0.10448
#
# Static dielectric constant tensor:
#      x y z
#    x 2.035410 0.026210 -0.029850 
#    y 0.026210 2.063930 -0.057850 
#    z -0.029850 -0.057850 2.029520 
# 
# From -- ./inp_files/592696.got.cif
#   From: 2010.05.17/outbox.cif.g08.bks.cpg/sg2_297_cif.got.tgz:592696.got - 2010.06.03 11:33:40.
