data_PCOD9012820
_publ_section_title
;
Structure prediction by ZEFSAII (Michael W. Deem and Ramdas Pophale) SiO2 
 PCOD9012820
Probable space group: P -1
;
_chemical_formula_sum "Si O2"
_cell_formula_units_Z 16
_cell_length_a 11.847452
_cell_length_b 19.519730
_cell_length_c 8.735260
_cell_angle_alpha 119.479231
_cell_angle_beta 128.990544
_cell_angle_gamma 29.553997
_cell_volume 766.379864
_symmetry_space_group_name_H-M "P -1"
_symmetry_group_IT_number 2
_symmetry_cell_setting 'triclinic'
loop_
_space_group_symop_operation_xyz
x,y,z
-x,-y,-z
loop_
_atom_site_type_symbol
_atom_site_label
_atom_site_fract_x
_atom_site_fract_y
_atom_site_fract_z
Si Si1 0.688316 0.649117 0.568577
Si Si2 0.279587 0.401192 0.816637
Si Si3 0.482192 0.919855 0.700883
Si Si4 0.335468 0.672342 0.392673
Si Si5 0.809428 0.920711 0.049197
Si Si6 0.442410 0.565709 0.860116
Si Si7 0.047438 0.824550 0.618393
Si Si8 0.230472 0.902025 0.966898
O O1 0.690712 0.613909 0.358833
O O2 0.588903 0.783591 0.626828
O O3 0.504802 0.675498 0.540223
O O4 0.984656 0.514216 0.728590
O O5 0.357732 0.451684 0.001128
O O6 0.492216 0.245949 0.891620
O O7 0.340019 0.993672 0.824935
O O8 0.704607 0.885957 0.854093
O O9 0.259908 0.037589 0.515238
O O10 0.509238 0.522411 0.321229
O O11 0.187029 0.723374 0.479891
O O12 0.111045 0.781960 0.194691
O O13 0.759435 0.016593 0.003787
O O14 0.164876 0.730804 0.767127
O O15 0.500000 0.500000 0.000000
O O16 0.144506 0.871366 0.744895
O O17 0.000000 0.000000 0.000000
#
# Coordination Sequence:
#
# PCOD9012820 Si02
#       8
#     2   2   2   2   2   2   2   2
#     4  11  21  39  61  86 126 161 205 253 305 363
#     4  10  23  39  57  91 122 161 207 247 308 372
#     4  10  21  41  61  91 122 161 203 263 303 364
#     4  11  21  39  65  90 120 168 203 258 303 364
#     4  10  22  38  64  89 123 161 209 248 316 365
#     4  11  22  40  61  87 123 161 199 252 314 365
#     4  10  23  39  63  93 121 158 217 248 307 372
#     4  11  22  40  62  90 126 163 204 253 305 371
#
# _framework density 20.877375000000001
#
# number of rings (size 3 to 8) (size 9 to 14) (size 15 to 20)
#    0.000    1.500    1.250    4.125    1.750    3.000 
#    0.000    8.125    0.000    0.000    0.000    0.000 
#    0.000    0.000    0.000    0.000    0.000    0.000 
#
# Total GULP energy -89425.194033 kJ/mol
# GULP energy per Si atom -5589.074627 kJ/mol
# Density = 2.082986 g / cm^3
# Si number density = 20.877375 Si / 1000 Ang^3
#
#
#
# Elastic Constant Matrix: (Units=GPa)
#
#
# Indices 1 2 3 4 5 6 
#
# 1 73.8353 46.9274 25.5473 -22.0328 15.5363 16.0272
# 2 46.9274 118.0345 42.5458 -16.4212 20.0077 14.4828
# 3 25.5473 42.5458 80.3357 -18.0117 19.7132 6.8584
# 4 -22.0328 -16.4212 -18.0117 53.4044 -5.1046 2.9538
# 5 15.5363 20.0077 19.7132 -5.1046 27.0984 0.8404
# 6 16.0272 14.4828 6.8584 2.9538 0.8404 33.9430
#
#
#
# Elastic Compliance Matrix: (Units=1/GPa)
#
#
# Indices 1 2 3 4 5 6 
#
# 1 0.022844 -0.005736 -0.000052 0.007447 -0.007149 -0.008799
# 2 -0.005736 0.013031 -0.004093 0.000054 -0.003285 -0.001948
# 3 -0.000052 -0.004093 0.017955 0.004006 -0.009194 -0.001978
# 4 0.007447 0.000054 0.004006 0.023261 -0.002646 -0.006307
# 5 -0.007149 -0.003285 -0.009194 -0.002646 0.049441 0.005641
# 6 -0.008799 -0.001948 -0.001978 -0.006307 0.005641 0.035256
#
#
# Mechanical properties :
#
#
# Convention : Reuss Voigt Hill
#
# Bulk Modulus (GPa) = 29.35232 55.80516 42.57874
# Shear Modulus (GPa) = 25.91945 33.36816 29.64381
#
# Velocity S-wave (km/s) = 3.52733 4.00220 3.77225
# Velocity P-wave (km/s) = 5.53889 6.93865 6.27790
#
# Compressibility (1/GPa) = 0.03406885
#
# Stress axis : x y z
#
# Youngs Moduli (GPa) = 43.77610 76.73929 55.69482
#
# Poissons Ratio (x) = 0.44017 0.00288
# Poissons Ratio (y) = 0.25110 0.22795
# Poissons Ratio (z) = 0.00226 0.31408
#
# Static dielectric constant tensor:
#      x y z
#    x 1.726550 -0.012950 -0.038460 
#    y -0.012950 1.764180 0.014080 
#    z -0.038460 0.014080 1.778280 
# 
# From -- ./inp_files/205290.got.cif
#   From: 2010.05.17/outbox.cif.g08.bks.cpg/sg2_103_cif.got.tgz:205290.got - 2010.06.03 11:33:40.
