data_PCOD9012875
_publ_section_title
;
Structure prediction by ZEFSAII (Michael W. Deem and Ramdas Pophale) SiO2 
 PCOD9012875
Probable space group: P -1
;
_chemical_formula_sum "Si O2"
_cell_formula_units_Z 16
_cell_length_a 15.153852
_cell_length_b 9.097610
_cell_length_c 5.196089
_cell_angle_alpha 97.548244
_cell_angle_beta 118.389444
_cell_angle_gamma 93.380860
_cell_volume 618.654988
_symmetry_space_group_name_H-M "P -1"
_symmetry_group_IT_number 2
_symmetry_cell_setting 'triclinic'
loop_
_space_group_symop_operation_xyz
x,y,z
-x,-y,-z
loop_
_atom_site_type_symbol
_atom_site_label
_atom_site_fract_x
_atom_site_fract_y
_atom_site_fract_z
Si Si1 0.932074 0.576430 0.634888
Si Si2 0.473231 0.659539 0.704613
Si Si3 0.182050 0.225887 0.840548
Si Si4 0.820010 0.094251 0.108535
Si Si5 0.633041 0.863489 0.256367
Si Si6 0.607640 0.102343 0.631300
Si Si7 0.346008 0.391140 0.387084
Si Si8 0.107602 0.719826 0.255793
O O1 0.886776 0.704149 0.442852
O O2 0.859070 0.433023 0.615592
O O3 0.000000 0.500000 0.500000
O O4 0.995249 0.657578 0.980043
O O5 0.414883 0.731703 0.411421
O O6 0.391003 0.527198 0.664781
O O7 0.573098 0.594382 0.730148
O O8 0.523490 0.798553 0.976344
O O9 0.275850 0.174855 0.799806
O O10 0.146750 0.071957 0.910054
O O11 0.233135 0.362603 0.119961
O O12 0.875583 0.166471 0.456434
O O13 0.697539 0.087960 0.949683
O O14 0.845352 0.198855 0.917214
O O15 0.641012 0.764516 0.498487
O O16 0.645557 0.031989 0.406278
O O17 0.500000 0.000000 0.500000
#
# Coordination Sequence:
#
# PCOD9012875 Si02
#       8
#     2   2   2   2   2   2   2   2
#     4  11  26  54  81 114 151 195 247 321 393 467
#     4  10  22  36  64  94 136 196 253 307 360 445
#     4  11  26  45  74 105 152 196 248 317 386 453
#     4  12  26  49  74 118 156 202 255 310 379 463
#     4  11  21  43  63 100 143 199 251 315 377 440
#     4  12  23  43  68 102 150 199 256 308 368 430
#     4  10  21  41  61  99 144 186 253 303 379 432
#     4  11  27  52  80 115 155 189 260 311 388 468
#
# _framework density 25.862559000000001
#
# number of rings (size 3 to 8) (size 9 to 14) (size 15 to 20)
#    0.000    1.000    3.750    2.250    1.750    5.000 
#    0.000    0.000    0.000    0.000    0.000    0.000 
#    0.000    0.000    0.000    0.000    0.000    0.000 
#
# Total GULP energy -89421.659780 kJ/mol
# GULP energy per Si atom -5588.853736 kJ/mol
# Density = 2.580369 g / cm^3
# Si number density = 25.862559 Si / 1000 Ang^3
#
#
#
# Elastic Constant Matrix: (Units=GPa)
#
#
# Indices 1 2 3 4 5 6 
#
# 1 67.5209 43.2132 23.2962 -6.9498 -10.5536 7.9121
# 2 43.2132 135.3329 46.3813 -10.7809 4.1561 4.7258
# 3 23.2962 46.3813 150.5323 -0.9061 2.9769 1.7276
# 4 -6.9498 -10.7809 -0.9061 49.9917 1.8682 -2.0413
# 5 -10.5536 4.1561 2.9769 1.8682 36.5304 -5.3017
# 6 7.9121 4.7258 1.7276 -2.0413 -5.3017 36.2045
#
#
#
# Elastic Compliance Matrix: (Units=1/GPa)
#
#
# Indices 1 2 3 4 5 6 
#
# 1 0.020626 -0.006116 -0.001395 0.001179 0.006323 -0.002650
# 2 -0.006116 0.010291 -0.002156 0.001427 -0.002870 -0.000244
# 3 -0.001395 -0.002156 0.007534 -0.000491 -0.000733 0.000092
# 4 0.001179 0.001427 -0.000491 0.020519 -0.000740 0.000628
# 5 0.006323 -0.002870 -0.000733 -0.000740 0.030118 0.003396
# 6 -0.002650 -0.000244 0.000092 0.000628 0.003396 0.028760
#
#
# Mechanical properties :
#
#
# Convention : Reuss Voigt Hill
#
# Bulk Modulus (GPa) = 52.31026 64.35193 58.33110
# Shear Modulus (GPa) = 34.82969 40.57835 37.70402
#
# Velocity S-wave (km/s) = 3.67375 3.96536 3.82234
# Velocity P-wave (km/s) = 6.18591 6.77508 6.48719
#
# Compressibility (1/GPa) = 0.01911671
#
# Stress axis : x y z
#
# Youngs Moduli (GPa) = 48.48299 97.16910 132.73330
#
# Poissons Ratio (x) = 0.59425 0.18520
# Poissons Ratio (y) = 0.29650 0.28622
# Poissons Ratio (z) = 0.06765 0.20953
#
# Static dielectric constant tensor:
#      x y z
#    x 2.150600 0.021960 -0.008080 
#    y 0.021960 2.047310 0.031610 
#    z -0.008080 0.031610 2.077850 
# 
# From -- ./inp_files/107309.got.cif
#   From: 2010.05.17/outbox.cif.g08.bks.cpg/sg2_54_cif.got.tgz:107309.got - 2010.06.03 11:33:40.
