data_PCOD9012233
_publ_section_title
;
Structure prediction by ZEFSAII (Michael W. Deem and Ramdas Pophale) SiO2 
 PCOD9012233
Probable space group: P -1
;
_chemical_formula_sum "Si O2"
_cell_formula_units_Z 12
_cell_length_a 5.117947
_cell_length_b 9.381209
_cell_length_c 11.422596
_cell_angle_alpha 70.982560
_cell_angle_beta 106.775239
_cell_angle_gamma 94.453383
_cell_volume 496.347881
_symmetry_space_group_name_H-M "P -1"
_symmetry_group_IT_number 2
_symmetry_cell_setting 'triclinic'
loop_
_space_group_symop_operation_xyz
x,y,z
-x,-y,-z
loop_
_atom_site_type_symbol
_atom_site_label
_atom_site_fract_x
_atom_site_fract_y
_atom_site_fract_z
Si Si1 0.513895 0.199269 0.820546
Si Si2 0.785601 0.375365 0.974986
Si Si3 0.752374 0.905514 0.944471
Si Si4 0.517688 0.677792 0.830394
Si Si5 0.916160 0.677333 0.447381
Si Si6 0.518797 0.181401 0.467114
O O1 0.783812 0.286175 0.875592
O O2 0.298084 0.289310 0.692752
O O3 0.581456 0.035960 0.818350
O O4 0.388936 0.155508 0.941326
O O5 0.535372 0.497085 0.879297
O O6 0.705459 0.289548 0.106688
O O7 0.000000 0.500000 0.000000
O O8 0.777198 0.766408 0.896513
O O9 0.000000 0.000000 0.000000
O O10 0.465482 0.744616 0.679450
O O11 0.740779 0.740121 0.520196
O O12 0.000000 0.500000 0.500000
O O13 0.196359 0.770283 0.447936
O O14 0.500000 0.000000 0.500000
#
# Coordination Sequence:
#
# PCOD9012233 Si02
#       6
#     2   2   2   2   2   2
#     4  10  23  41  68 102 138 185 252 298 377 444
#     4  10  21  41  68  99 137 184 236 313 370 437
#     4  10  21  40  69 101 137 185 235 317 371 438
#     4  10  23  41  65 104 137 183 247 296 378 440
#     4  12  28  51  76 111 155 210 257 312 380 465
#     4  12  28  50  76 113 155 207 255 317 381 460
#
# _framework density 24.176590999999998
#
# number of rings (size 3 to 8) (size 9 to 14) (size 15 to 20)
#    0.000    1.333    0.000    4.000    7.000    0.000 
#    0.000    0.000    0.000    0.000    0.000    0.000 
#    0.000    0.000    0.000    0.000    0.000    0.000 
#
# Total GULP energy -66938.485856 kJ/mol
# GULP energy per Si atom -5578.207155 kJ/mol
# Density = 2.412156 g / cm^3
# Si number density = 24.176591 Si / 1000 Ang^3
#
#
#
# Elastic Constant Matrix: (Units=GPa)
#
#
# Indices 1 2 3 4 5 6 
#
# 1 89.6994 39.9567 -1.5518 -5.3026 -14.6306 1.3092
# 2 39.9567 181.7220 39.4475 -16.4412 9.0341 -16.9815
# 3 -1.5518 39.4475 119.6004 -13.3091 -2.6344 -3.1126
# 4 -5.3026 -16.4412 -13.3091 40.3160 1.8325 14.7071
# 5 -14.6306 9.0341 -2.6344 1.8325 26.5521 6.2376
# 6 1.3092 -16.9815 -3.1126 14.7071 6.2376 49.5606
#
#
#
# Elastic Compliance Matrix: (Units=1/GPa)
#
#
# Indices 1 2 3 4 5 6 
#
# 1 0.015088 -0.004479 0.002000 0.001663 0.010781 -0.003658
# 2 -0.004479 0.007718 -0.002563 0.000853 -0.006141 0.003122
# 3 0.002000 -0.002563 0.009572 0.002803 0.003095 -0.001551
# 4 0.001663 0.000853 0.002803 0.029315 0.000850 -0.008382
# 5 0.010781 -0.006141 0.003095 0.000850 0.047932 -0.008479
# 6 -0.003658 0.003122 -0.001551 -0.008382 -0.008479 0.024801
#
#
# Mechanical properties :
#
#
# Convention : Reuss Voigt Hill
#
# Bulk Modulus (GPa) = 44.85236 60.74738 52.79987
# Shear Modulus (GPa) = 32.90734 44.16368 38.53551
#
# Velocity S-wave (km/s) = 3.69334 4.27864 3.99672
# Velocity P-wave (km/s) = 6.06465 7.04203 6.57153
#
# Compressibility (1/GPa) = 0.02229537
#
# Stress axis : x y z
#
# Youngs Moduli (GPa) = 66.27620 129.56217 104.46925
#
# Poissons Ratio (x) = 0.58034 -0.20898
# Poissons Ratio (y) = 0.29687 0.26775
# Poissons Ratio (z) = -0.13258 0.33206
#
# Static dielectric constant tensor:
#      x y z
#    x 7.784710 0.138180 2.742810 
#    y 0.138180 2.159620 0.060390 
#    z 2.742810 0.060390 3.131680 
# 
# From -- ./inp_files/108095.got.cif
#   From: 2010.05.17/outbox.cif.g08.bks.cpg/sg2_55_cif.got.tgz:108095.got - 2010.06.03 11:33:40.
