data_PCOD9012536
_publ_section_title
;
Structure prediction by ZEFSAII (Michael W. Deem and Ramdas Pophale) SiO2 
 PCOD9012536
Probable space group: P -1
;
_chemical_formula_sum "Si O2"
_cell_formula_units_Z 16
_cell_length_a 20.372848
_cell_length_b 12.464313
_cell_length_c 8.237240
_cell_angle_alpha 51.351564
_cell_angle_beta 76.137798
_cell_angle_gamma 32.073732
_cell_volume 620.873288
_symmetry_space_group_name_H-M "P -1"
_symmetry_group_IT_number 2
_symmetry_cell_setting 'triclinic'
loop_
_space_group_symop_operation_xyz
x,y,z
-x,-y,-z
loop_
_atom_site_type_symbol
_atom_site_label
_atom_site_fract_x
_atom_site_fract_y
_atom_site_fract_z
Si Si1 0.474595 0.462148 0.711273
Si Si2 0.602842 0.686534 0.442808
Si Si3 0.163031 0.869174 0.886875
Si Si4 0.075050 0.887692 0.383190
Si Si5 0.092693 0.148921 0.172871
Si Si6 0.372883 0.909884 0.508010
Si Si7 0.970690 0.619670 0.674363
Si Si8 0.484177 0.851477 0.816623
O O1 0.500000 0.500000 0.500000
O O2 0.483699 0.561652 0.753228
O O3 0.280248 0.774062 0.493701
O O4 0.574208 0.141652 0.012103
O O5 0.716529 0.509107 0.384876
O O6 0.441344 0.883681 0.349905
O O7 0.549367 0.928899 0.329222
O O8 0.741161 0.349400 0.797042
O O9 0.089462 0.161163 0.631997
O O10 0.316029 0.552580 0.965374
O O11 0.008682 0.057432 0.749289
O O12 0.022513 0.143348 0.139855
O O13 0.000000 0.000000 0.500000
O O14 0.991197 0.368350 0.194460
O O15 0.115365 0.231661 0.953019
O O16 0.392462 0.967015 0.600345
O O17 0.185905 0.191283 0.365288
#
# Coordination Sequence:
#
# PCOD9012536 Si02
#       8
#     2   2   2   2   2   2   2   2
#     4  11  22  41  65  98 142 178 226 284 325 402
#     4  11  27  42  66 105 134 174 229 283 333 407
#     4  11  22  44  68  96 139 175 221 278 336 402
#     4  12  24  46  68  91 138 184 223 274 342 403
#     4  10  22  41  62  99 129 178 227 265 339 400
#     4  10  21  42  71  97 136 175 223 276 344 393
#     4  10  21  40  70  99 131 175 222 276 339 401
#     4  11  23  44  66 103 136 176 227 273 344 397
#
# _framework density 25.770153000000001
#
# number of rings (size 3 to 8) (size 9 to 14) (size 15 to 20)
#    0.000    1.250    3.750    3.000    5.250    1.000 
#    2.250    3.750    0.000    0.000    0.000    0.000 
#    0.000    0.000    0.000    0.000    0.000    0.000 
#
# Total GULP energy -89313.723411 kJ/mol
# GULP energy per Si atom -5582.107713 kJ/mol
# Density = 2.571150 g / cm^3
# Si number density = 25.770153 Si / 1000 Ang^3
#
#
#
# Elastic Constant Matrix: (Units=GPa)
#
#
# Indices 1 2 3 4 5 6 
#
# 1 134.6042 19.5017 19.7350 -0.2371 -11.8110 -1.3702
# 2 19.5017 73.8649 18.7844 20.4019 -3.0791 -10.1193
# 3 19.7350 18.7844 75.4200 13.6706 -32.7630 2.8912
# 4 -0.2371 20.4019 13.6706 24.0342 -7.9601 -4.5252
# 5 -11.8110 -3.0791 -32.7630 -7.9601 38.8060 -5.0952
# 6 -1.3702 -10.1193 2.8912 -4.5252 -5.0952 33.6913
#
#
#
# Elastic Compliance Matrix: (Units=1/GPa)
#
#
# Indices 1 2 3 4 5 6 
#
# 1 0.008214 -0.002781 -0.001297 0.003944 0.002052 0.000450
# 2 -0.002781 0.019831 -0.003748 -0.015864 -0.005266 0.003238
# 3 -0.001297 -0.003748 0.023063 -0.004261 0.017768 -0.001043
# 4 0.003944 -0.015864 -0.004261 0.061808 0.009749 0.005537
# 5 0.002052 -0.005266 0.017768 0.009749 0.043618 0.004883
# 6 0.000450 0.003238 -0.001043 0.005537 0.004883 0.032244
#
#
# Mechanical properties :
#
#
# Convention : Reuss Voigt Hill
#
# Bulk Modulus (GPa) = 28.20369 44.43681 36.32025
# Shear Modulus (GPa) = 23.12146 34.36418 28.74282
#
# Velocity S-wave (km/s) = 2.99861 3.65566 3.34331
# Velocity P-wave (km/s) = 4.79134 5.92447 5.38778
#
# Compressibility (1/GPa) = 0.03545635
#
# Stress axis : x y z
#
# Youngs Moduli (GPa) = 121.74511 50.42513 43.35936
#
# Poissons Ratio (x) = 0.14022 0.05626
# Poissons Ratio (y) = 0.33855 0.16250
# Poissons Ratio (z) = 0.15795 0.18898
#
# Static dielectric constant tensor:
#      x y z
#    x 2.035200 -0.007440 -0.034830 
#    y -0.007440 2.234570 -0.107700 
#    z -0.034830 -0.107700 2.194140 
# 
# From -- ./inp_files/332888.got.cif
#   From: 2010.05.17/outbox.cif.g08.bks.cpg/sg2_167_cif.got.tgz:332888.got - 2010.06.03 11:33:40.
