data_PCOD9012193
_publ_section_title
;
Structure prediction by ZEFSAII (Michael W. Deem and Ramdas Pophale) SiO2 
 PCOD9012193
Probable space group: P -1
;
_chemical_formula_sum "Si O2"
_cell_formula_units_Z 16
_cell_length_a 31.113222
_cell_length_b 14.901351
_cell_length_c 9.081887
_cell_angle_alpha 38.330521
_cell_angle_beta 39.181125
_cell_angle_gamma 19.374146
_cell_volume 853.579669
_symmetry_space_group_name_H-M "P -1"
_symmetry_group_IT_number 2
_symmetry_cell_setting 'triclinic'
loop_
_space_group_symop_operation_xyz
x,y,z
-x,-y,-z
loop_
_atom_site_type_symbol
_atom_site_label
_atom_site_fract_x
_atom_site_fract_y
_atom_site_fract_z
Si Si1 0.416431 0.154993 0.871161
Si Si2 0.185290 0.274660 0.889120
Si Si3 0.089251 0.158051 0.246481
Si Si4 0.012141 0.728759 0.318115
Si Si5 0.673400 0.700526 0.612410
Si Si6 0.864930 0.244004 0.449669
Si Si7 0.802067 0.331903 0.030132
Si Si8 0.200633 0.354026 0.065713
O O1 0.302447 0.475367 0.806515
O O2 0.335140 0.158629 0.039559
O O3 0.518390 0.996247 0.672955
O O4 0.500000 0.000000 0.000000
O O5 0.266079 0.248154 0.619323
O O6 0.220703 0.225647 0.030294
O O7 0.031667 0.596277 0.860456
O O8 0.193702 0.096718 0.036747
O O9 0.027687 0.279188 0.417566
O O10 0.141054 0.902791 0.415327
O O11 0.101965 0.704359 0.156102
O O12 0.099260 0.479464 0.293775
O O13 0.883856 0.036271 0.192447
O O14 0.736405 0.512343 0.543509
O O15 0.729603 0.501872 0.852402
O O16 0.866660 0.373166 0.164415
O O17 0.000000 0.000000 0.500000
#
# Coordination Sequence:
#
# PCOD9012193 Si02
#       8
#     2   2   2   2   2   2   2   2
#     4   9  19  32  53  80 106 134 180 223 264 302
#     4  10  22  33  50  76 115 141 170 206 269 324
#     4  11  20  34  49  79 112 144 166 209 266 330
#     4  10  17  29  55  75 107 133 170 216 269 302
#     4  10  18  33  54  76 106 139 174 221 261 302
#     4  11  18  31  54  80 106 134 176 221 263 309
#     4   9  16  29  51  83 101 131 170 222 265 306
#     4  10  20  34  55  83 105 137 177 225 258 312
#
# _framework density 18.744586999999999
#
# number of rings (size 3 to 8) (size 9 to 14) (size 15 to 20)
#    0.000    2.000    3.750    3.000    0.000    2.500 
#    0.000    0.000    0.000    6.750    0.000    8.750 
#    0.000    0.000    0.000    0.000    0.000    0.000 
#
# Total GULP energy -89147.209286 kJ/mol
# GULP energy per Si atom -5571.700580 kJ/mol
# Density = 1.870192 g / cm^3
# Si number density = 18.744587 Si / 1000 Ang^3
#
#
#
# Elastic Constant Matrix: (Units=GPa)
#
#
# Indices 1 2 3 4 5 6 
#
# 1 63.9449 18.7874 23.4398 5.6370 -0.2404 -7.2456
# 2 18.7874 71.4111 25.8260 25.7641 -1.1837 0.9011
# 3 23.4398 25.8260 49.6554 11.7666 1.5831 6.4661
# 4 5.6370 25.7641 11.7666 28.6839 3.5479 9.2720
# 5 -0.2404 -1.1837 1.5831 3.5479 30.9930 -2.1251
# 6 -7.2456 0.9011 6.4661 9.2720 -2.1251 24.6833
#
#
#
# Elastic Compliance Matrix: (Units=1/GPa)
#
#
# Indices 1 2 3 4 5 6 
#
# 1 0.021008 -0.001112 -0.010114 -0.002372 0.001586 0.009884
# 2 -0.001112 0.025848 -0.008893 -0.023241 0.004793 0.010202
# 3 -0.010114 -0.008893 0.030792 0.001425 -0.002943 -0.011499
# 4 -0.002372 -0.023241 0.001425 0.065145 -0.010189 -0.025570
# 5 0.001586 0.004793 -0.002943 -0.010189 0.034315 0.007843
# 6 0.009884 0.010202 -0.011499 -0.025570 0.007843 0.056335
#
#
# Mechanical properties :
#
#
# Convention : Reuss Voigt Hill
#
# Bulk Modulus (GPa) = 26.73070 35.67977 31.20523
# Shear Modulus (GPa) = 17.47340 24.66925 21.07133
#
# Velocity S-wave (km/s) = 3.05648 3.63171 3.35644
# Velocity P-wave (km/s) = 5.17180 6.05490 5.63069
#
# Compressibility (1/GPa) = 0.03741017
#
# Stress axis : x y z
#
# Youngs Moduli (GPa) = 47.60185 38.68826 32.47609
#
# Poissons Ratio (x) = 0.04301 0.32846
# Poissons Ratio (y) = 0.05291 0.28881
# Poissons Ratio (z) = 0.48145 0.34405
#
# Static dielectric constant tensor:
#      x y z
#    x 1.705360 -0.001470 0.035570 
#    y -0.001470 1.672640 0.017930 
#    z 0.035570 0.017930 1.669330 
# 
# From -- ./inp_files/174962.got.cif
#   From: 2010.05.17/outbox.cif.g08.bks.cpg/sg2_88_cif.got.tgz:174962.got - 2010.06.03 11:33:40.
