data_PCOD9012999
_publ_section_title
;
Structure prediction by ZEFSAII (Michael W. Deem and Ramdas Pophale) SiO2 
 PCOD9012999
Probable space group: P -1
;
_chemical_formula_sum "Si O2"
_cell_formula_units_Z 14
_cell_length_a 12.997686
_cell_length_b 6.761150
_cell_length_c 11.941897
_cell_angle_alpha 125.485847
_cell_angle_beta 59.845323
_cell_angle_gamma 96.693411
_cell_volume 715.678833
_symmetry_space_group_name_H-M "P -1"
_symmetry_group_IT_number 2
_symmetry_cell_setting 'triclinic'
loop_
_space_group_symop_operation_xyz
x,y,z
-x,-y,-z
loop_
_atom_site_type_symbol
_atom_site_label
_atom_site_fract_x
_atom_site_fract_y
_atom_site_fract_z
Si Si1 0.575730 0.429304 0.601332
Si Si2 0.886852 0.982751 0.979444
Si Si3 0.937938 0.424090 0.680859
Si Si4 0.190263 0.834124 0.157026
Si Si5 0.439252 0.404688 0.894818
Si Si6 0.810255 0.625892 0.590437
Si Si7 0.381241 0.876599 0.735047
O O1 0.531612 0.382500 0.733185
O O2 0.698553 0.528118 0.572185
O O3 0.468794 0.648315 0.678433
O O4 0.597409 0.190021 0.429417
O O5 0.918535 0.620207 0.440447
O O6 0.881350 0.115416 0.904912
O O7 0.896032 0.691949 0.852890
O O8 0.000000 0.000000 0.000000
O O9 0.896741 0.225960 0.717391
O O10 0.869887 0.454894 0.607776
O O11 0.229896 0.088834 0.249295
O O12 0.310727 0.606349 0.007176
O O13 0.412889 0.134234 0.836815
O O14 0.500000 0.500000 0.000000
O O15 0.759268 0.101224 0.149459
#
# Coordination Sequence:
#
# PCOD9012999 Si02
#       7
#     2   2   2   2   2   2   2
#     4  11  24  42  65  93 132 173 213 264 325 379
#     4  11  23  41  65  90 127 175 215 267 325 378
#     4  10  21  41  62  94 131 162 219 271 314 386
#     4  11  22  39  64  96 127 165 222 268 317 386
#     4  12  24  40  69  98 131 170 213 265 325 385
#     4  10  22  39  65  94 128 171 210 266 327 380
#     4  11  24  44  62  94 135 168 219 265 316 390
#
# _framework density 19.561848999999999
#
# number of rings (size 3 to 8) (size 9 to 14) (size 15 to 20)
#    0.000    1.143    2.857    3.429    2.000    1.714 
#    0.000    2.857    0.000    0.000    0.000    0.000 
#    0.000    0.000    0.000    0.000    0.000    0.000 
#
# Total GULP energy -78278.996934 kJ/mol
# GULP energy per Si atom -5591.356924 kJ/mol
# Density = 1.951733 g / cm^3
# Si number density = 19.561849 Si / 1000 Ang^3
#
#
#
# Elastic Constant Matrix: (Units=GPa)
#
#
# Indices 1 2 3 4 5 6 
#
# 1 114.5912 21.2102 39.4302 2.3125 8.8497 14.3677
# 2 21.2102 84.1344 28.6158 -12.8752 8.7852 8.4871
# 3 39.4302 28.6158 95.1850 -12.7361 6.6103 5.9709
# 4 2.3125 -12.8752 -12.7361 32.4806 -1.0348 -5.5797
# 5 8.8497 8.7852 6.6103 -1.0348 36.4605 -1.6550
# 6 14.3677 8.4871 5.9709 -5.5797 -1.6550 24.7405
#
#
#
# Elastic Compliance Matrix: (Units=1/GPa)
#
#
# Indices 1 2 3 4 5 6 
#
# 1 0.011504 -0.001177 -0.004428 -0.004170 -0.002110 -0.006290
# 2 -0.001177 0.014359 -0.002925 0.004063 -0.002655 -0.002797
# 3 -0.004428 -0.002925 0.013815 0.004776 -0.000531 0.001283
# 4 -0.004170 0.004063 0.004776 0.035964 0.000552 0.008023
# 5 -0.002110 -0.002655 -0.000531 0.000552 0.028887 0.004321
# 6 -0.006290 -0.002797 0.001283 0.008023 0.004321 0.046821
#
#
# Mechanical properties :
#
#
# Convention : Reuss Voigt Hill
#
# Bulk Modulus (GPa) = 44.21714 52.49145 48.35429
# Shear Modulus (GPa) = 28.41702 32.37993 30.39848
#
# Velocity S-wave (km/s) = 3.81553 4.07290 3.94632
# Velocity P-wave (km/s) = 6.48567 7.00071 6.74810
#
# Compressibility (1/GPa) = 0.02261567
#
# Stress axis : x y z
#
# Youngs Moduli (GPa) = 86.92558 69.64366 72.38322
#
# Poissons Ratio (x) = 0.08199 0.32055
# Poissons Ratio (y) = 0.10234 0.21176
# Poissons Ratio (z) = 0.38495 0.20374
#
# Static dielectric constant tensor:
#      x y z
#    x 1.654740 -0.006250 -0.014610 
#    y -0.006250 1.668780 -0.008500 
#    z -0.014610 -0.008500 1.686520 
# 
# From -- ./inp_files/411276.got.cif
#   From: 2010.05.17/outbox.cif.g08.bks.cpg/sg2_206_cif.got.tgz:411276.got - 2010.06.03 11:33:40.
