data_PCOD9012815
_publ_section_title
;
Structure prediction by ZEFSAII (Michael W. Deem and Ramdas Pophale) SiO2 
 PCOD9012815
Probable space group: P -1
;
_chemical_formula_sum "Si O2"
_cell_formula_units_Z 16
_cell_length_a 15.383625
_cell_length_b 9.055976
_cell_length_c 11.993951
_cell_angle_alpha 87.609305
_cell_angle_beta 151.619352
_cell_angle_gamma 103.057136
_cell_volume 727.834669
_symmetry_space_group_name_H-M "P -1"
_symmetry_group_IT_number 2
_symmetry_cell_setting 'triclinic'
loop_
_space_group_symop_operation_xyz
x,y,z
-x,-y,-z
loop_
_atom_site_type_symbol
_atom_site_label
_atom_site_fract_x
_atom_site_fract_y
_atom_site_fract_z
Si Si1 0.231701 0.284373 0.419862
Si Si2 0.539531 0.095596 0.370011
Si Si3 0.439038 0.565408 0.817709
Si Si4 0.885963 0.328995 0.612751
Si Si5 0.572426 0.810845 0.549898
Si Si6 0.106408 0.596824 0.006477
Si Si7 0.865867 0.999186 0.511084
Si Si8 0.709672 0.930697 0.102424
O O1 0.379281 0.437724 0.652731
O O2 0.308001 0.272121 0.382012
O O3 0.210892 0.127207 0.471630
O O4 0.019936 0.298616 0.172112
O O5 0.729912 0.248871 0.540409
O O6 0.394398 0.146682 0.283334
O O7 0.606533 0.977305 0.520573
O O8 0.426439 0.012592 0.132292
O O9 0.240056 0.601349 0.610201
O O10 0.500000 0.500000 0.000000
O O11 0.614775 0.737472 0.983872
O O12 0.073024 0.470113 0.872561
O O13 0.919621 0.181269 0.602977
O O14 0.337558 0.701489 0.280519
O O15 0.000000 0.500000 0.000000
O O16 0.712771 0.959797 0.236482
O O17 0.065421 0.987943 0.689038
#
# Coordination Sequence:
#
# PCOD9012815 Si02
#       8
#     2   2   2   2   2   2   2   2
#     4  11  24  41  67  96 126 171 212 260 323 376
#     4  10  21  42  62  95 123 165 215 263 308 379
#     4  10  21  41  61  90 128 165 209 260 314 380
#     4  10  22  40  63  91 127 163 211 260 317 373
#     4  11  23  41  67  93 131 168 214 261 318 373
#     4  11  24  43  61  94 135 167 209 263 311 383
#     4  11  22  42  64  95 123 166 214 264 320 372
#     4  10  23  39  65  90 131 163 212 264 317 380
#
# _framework density 21.983015999999999
#
# number of rings (size 3 to 8) (size 9 to 14) (size 15 to 20)
#    0.000    1.500    3.750    0.750    1.750    4.500 
#    0.000    3.125    0.000    0.000    0.000    0.000 
#    0.000    0.000    0.000    0.000    0.000    0.000 
#
# Total GULP energy -89405.659991 kJ/mol
# GULP energy per Si atom -5587.853749 kJ/mol
# Density = 2.193298 g / cm^3
# Si number density = 21.983016 Si / 1000 Ang^3
#
#
#
# Elastic Constant Matrix: (Units=GPa)
#
#
# Indices 1 2 3 4 5 6 
#
# 1 66.3323 6.1384 -1.2290 -4.3731 -5.9495 -7.4943
# 2 6.1384 60.7347 8.5689 -6.2402 -9.3835 -10.4178
# 3 -1.2290 8.5689 55.0532 5.6437 -12.7688 4.5006
# 4 -4.3731 -6.2402 5.6437 24.9050 5.3936 -7.1806
# 5 -5.9495 -9.3835 -12.7688 5.3936 24.2438 0.3142
# 6 -7.4943 -10.4178 4.5006 -7.1806 0.3142 36.8531
#
#
#
# Elastic Compliance Matrix: (Units=1/GPa)
#
#
# Indices 1 2 3 4 5 6 
#
# 1 0.016025 -0.000242 0.000598 0.002924 0.003456 0.003657
# 2 -0.000242 0.019530 -0.003372 0.006790 0.004120 0.007171
# 3 0.000598 -0.003372 0.023449 -0.010710 0.013651 -0.005898
# 4 0.002924 0.006790 -0.010710 0.051881 -0.014020 0.014050
# 5 0.003456 0.004120 0.013651 -0.014020 0.054038 -0.002992
# 6 0.003657 0.007171 -0.005898 0.014050 -0.002992 0.033389
#
#
# Mechanical properties :
#
#
# Convention : Reuss Voigt Hill
#
# Bulk Modulus (GPa) = 18.87803 23.23072 21.05438
# Shear Modulus (GPa) = 22.52245 28.44319 25.48282
#
# Velocity S-wave (km/s) = 3.20431 3.60094 3.40840
# Velocity P-wave (km/s) = 4.72190 5.28011 5.00879
#
# Compressibility (1/GPa) = 0.05297163
#
# Stress axis : x y z
#
# Youngs Moduli (GPa) = 62.40219 51.20452 42.64623
#
# Poissons Ratio (x) = 0.01241 -0.02552
# Poissons Ratio (y) = 0.01512 0.14380
# Poissons Ratio (z) = -0.03734 0.17266
#
# Static dielectric constant tensor:
#      x y z
#    x 1.823580 -0.022400 -0.024840 
#    y -0.022400 1.805490 -0.016850 
#    z -0.024840 -0.016850 1.814790 
# 
# From -- ./inp_files/186450.got.cif
#   From: 2010.05.17/outbox.cif.g08.bks.cpg/sg2_94_cif.got.tgz:186450.got - 2010.06.03 11:33:40.
