data_PCOD9012236
_publ_section_title
;
Structure prediction by ZEFSAII (Michael W. Deem and Ramdas Pophale) SiO2 
 PCOD9012236
Probable space group: P -1
;
_chemical_formula_sum "Si O2"
_cell_formula_units_Z 16
_cell_length_a 10.931395
_cell_length_b 7.864117
_cell_length_c 10.429084
_cell_angle_alpha 57.743111
_cell_angle_beta 111.313434
_cell_angle_gamma 119.650794
_cell_volume 652.838471
_symmetry_space_group_name_H-M "P -1"
_symmetry_group_IT_number 2
_symmetry_cell_setting 'triclinic'
loop_
_space_group_symop_operation_xyz
x,y,z
-x,-y,-z
loop_
_atom_site_type_symbol
_atom_site_label
_atom_site_fract_x
_atom_site_fract_y
_atom_site_fract_z
Si Si1 0.274591 0.933639 0.409290
Si Si2 0.151068 0.190059 0.452446
Si Si3 0.840511 0.961363 0.909190
Si Si4 0.031723 0.635054 0.827925
Si Si5 0.560651 0.287300 0.289984
Si Si6 0.287502 0.950582 0.914411
Si Si7 0.279191 0.536629 0.964016
Si Si8 0.412803 0.362412 0.644233
O O1 0.236065 0.082436 0.438802
O O2 0.161580 0.880973 0.272108
O O3 0.423059 0.069206 0.339897
O O4 0.310197 0.755580 0.574243
O O5 0.250827 0.304767 0.561878
O O6 0.106728 0.366363 0.290908
O O7 0.000000 0.000000 0.500000
O O8 0.745859 0.980462 0.986439
O O9 0.765898 0.715667 0.922953
O O10 0.000000 0.000000 0.000000
O O11 0.138700 0.547037 0.833726
O O12 0.134910 0.876465 0.812882
O O13 0.000000 0.500000 0.000000
O O14 0.537376 0.475116 0.284590
O O15 0.596336 0.367163 0.128094
O O16 0.400076 0.129217 0.792892
O O17 0.309278 0.721654 0.009730
O O18 0.500000 0.500000 0.500000
#
# Coordination Sequence:
#
# PCOD9012236 Si02
#       8
#     2   2   2   2   2   2   2   2
#     4  11  26  44  69 103 142 188 234 303 358 430
#     4  12  22  42  72 101 139 188 234 298 367 415
#     4  12  25  45  72 107 147 184 240 294 365 441
#     4  10  21  40  69 101 142 183 226 285 364 423
#     4  11  24  47  68  99 144 188 245 290 360 425
#     4  10  23  44  68 103 145 185 234 295 361 427
#     4  10  23  44  73  96 146 190 228 300 355 427
#     4  12  24  44  71 104 141 188 252 297 350 435
#
# _framework density 24.50836
#
# number of rings (size 3 to 8) (size 9 to 14) (size 15 to 20)
#    0.750    0.250    3.750    3.750    1.750    2.500 
#    0.000    2.500    0.000    0.000    0.000    0.000 
#    0.000    0.000    0.000    0.000    0.000    0.000 
#
# Total GULP energy -89315.293647 kJ/mol
# GULP energy per Si atom -5582.205853 kJ/mol
# Density = 2.445258 g / cm^3
# Si number density = 24.508360 Si / 1000 Ang^3
#
#
#
# Elastic Constant Matrix: (Units=GPa)
#
#
# Indices 1 2 3 4 5 6 
#
# 1 88.6359 20.4381 20.6083 -8.4448 -20.5766 0.1536
# 2 20.4381 83.0220 23.4370 -8.4066 -3.4742 0.8255
# 3 20.6083 23.4370 82.8505 -10.8839 11.4628 10.2610
# 4 -8.4448 -8.4066 -10.8839 38.3682 9.9852 1.6922
# 5 -20.5766 -3.4742 11.4628 9.9852 45.1398 -2.6940
# 6 0.1536 0.8255 10.2610 1.6922 -2.6940 44.8184
#
#
#
# Elastic Compliance Matrix: (Units=1/GPa)
#
#
# Indices 1 2 3 4 5 6 
#
# 1 0.014527 -0.002094 -0.004359 -0.000589 0.007786 0.001477
# 2 -0.002094 0.013660 -0.003313 0.001399 0.000658 0.000501
# 3 -0.004359 -0.003313 0.016391 0.005189 -0.007811 -0.004342
# 4 -0.000589 0.001399 0.005189 0.029993 -0.008283 -0.002842
# 5 0.007786 0.000658 -0.007811 -0.008283 0.029799 0.003853
# 6 0.001477 0.000501 -0.004342 -0.002842 0.003853 0.023631
#
#
# Mechanical properties :
#
#
# Convention : Reuss Voigt Hill
#
# Bulk Modulus (GPa) = 39.92429 42.60836 41.26633
# Shear Modulus (GPa) = 32.07554 38.33362 35.20458
#
# Velocity S-wave (km/s) = 3.62160 3.95917 3.79414
# Velocity P-wave (km/s) = 5.81493 6.19055 6.00568
#
# Compressibility (1/GPa) = 0.02504741
#
# Stress axis : x y z
#
# Youngs Moduli (GPa) = 68.83582 73.20684 61.00784
#
# Poissons Ratio (x) = 0.15332 0.26591
# Poissons Ratio (y) = 0.14417 0.20209
# Poissons Ratio (z) = 0.30003 0.24250
#
# Static dielectric constant tensor:
#      x y z
#    x 2.034200 0.027730 0.060900 
#    y 0.027730 1.940450 -0.010570 
#    z 0.060900 -0.010570 2.247900 
# 
# From -- ./inp_files/416388.got.cif
#   From: 2010.05.17/outbox.cif.g08.bks.cpg/sg2_209_cif.got.tgz:416388.got - 2010.06.03 11:33:40.
