data_PCOD9012294
_publ_section_title
;
Structure prediction by ZEFSAII (Michael W. Deem and Ramdas Pophale) SiO2 
 PCOD9012294
Probable space group: P -1
;
_chemical_formula_sum "Si O2"
_cell_formula_units_Z 16
_cell_length_a 17.867029
_cell_length_b 5.210213
_cell_length_c 16.314822
_cell_angle_alpha 95.815177
_cell_angle_beta 156.832725
_cell_angle_gamma 79.595908
_cell_volume 579.408174
_symmetry_space_group_name_H-M "P -1"
_symmetry_group_IT_number 2
_symmetry_cell_setting 'triclinic'
loop_
_space_group_symop_operation_xyz
x,y,z
-x,-y,-z
loop_
_atom_site_type_symbol
_atom_site_label
_atom_site_fract_x
_atom_site_fract_y
_atom_site_fract_z
Si Si1 0.671556 0.702325 0.030547
Si Si2 0.219223 0.423646 0.479655
Si Si3 0.430929 0.060732 0.226617
Si Si4 0.630191 0.234809 0.079956
Si Si5 0.074061 0.663804 0.505549
Si Si6 0.146706 0.705644 0.248326
Si Si7 0.093368 0.821018 0.919586
Si Si8 0.719247 0.582755 0.780921
O O1 0.688422 0.402036 0.067724
O O2 0.884509 0.763079 0.262339
O O3 0.555302 0.974466 0.969287
O O4 0.582485 0.724509 0.851650
O O5 0.221521 0.509435 0.579151
O O6 0.207398 0.634237 0.400720
O O7 0.016229 0.331438 0.257593
O O8 0.398004 0.183518 0.630895
O O9 0.436106 0.177902 0.326990
O O10 0.216374 0.997948 0.002650
O O11 0.806929 0.154107 0.320593
O O12 0.500000 0.500000 0.000000
O O13 0.000000 0.500000 0.500000
O O14 0.290800 0.528849 0.323301
O O15 0.083349 0.023280 0.194647
O O16 0.933856 0.648330 0.010556
O O17 0.255524 0.656388 0.137488
#
# Coordination Sequence:
#
# PCOD9012294 Si02
#       8
#     2   2   2   2   2   2   2   2
#     4  11  24  44  68  98 139 179 231 284 354 420
#     4  11  24  44  63  98 135 173 232 284 346 421
#     4  11  25  41  65 100 135 181 224 286 344 416
#     4  11  24  44  69 101 135 178 230 292 356 420
#     4  10  23  44  68  96 132 178 229 287 351 416
#     4   9  19  39  64  99 130 177 226 276 343 413
#     4  10  21  40  69  90 133 180 224 278 346 410
#     4   9  19  38  65  96 136 173 225 280 339 415
#
# _framework density 27.614383
#
# number of rings (size 3 to 8) (size 9 to 14) (size 15 to 20)
#    0.000    1.750    0.000    4.125    5.250    3.500 
#    9.000    1.250    0.000    0.000    0.000    0.000 
#    0.000    0.000    0.000    0.000    0.000    0.000 
#
# Total GULP energy -89424.357214 kJ/mol
# GULP energy per Si atom -5589.022326 kJ/mol
# Density = 2.755153 g / cm^3
# Si number density = 27.614383 Si / 1000 Ang^3
#
#
#
# Elastic Constant Matrix: (Units=GPa)
#
#
# Indices 1 2 3 4 5 6 
#
# 1 124.5935 50.7573 15.1337 10.4219 -5.7178 -50.6621
# 2 50.7573 112.7836 22.0933 8.6940 -12.7720 -30.7391
# 3 15.1337 22.0933 92.4335 15.5182 1.0044 -7.7202
# 4 10.4219 8.6940 15.5182 56.7610 -17.0706 4.5156
# 5 -5.7178 -12.7720 1.0044 -17.0706 34.6984 0.0316
# 6 -50.6621 -30.7391 -7.7202 4.5156 0.0316 48.5980
#
#
#
# Elastic Compliance Matrix: (Units=1/GPa)
#
#
# Indices 1 2 3 4 5 6 
#
# 1 0.015378 -0.002658 -0.000041 -0.003649 -0.000252 0.014682
# 2 -0.002658 0.012201 -0.002159 0.000095 0.004158 0.004592
# 3 -0.000041 -0.002159 0.012118 -0.003981 -0.003111 0.000889
# 4 -0.003649 0.000095 -0.003981 0.023177 0.010957 -0.006537
# 5 -0.000252 0.004158 -0.003111 0.010957 0.035789 0.000832
# 6 0.014682 0.004592 0.000889 -0.006537 0.000832 0.039535
#
#
# Mechanical properties :
#
#
# Convention : Reuss Voigt Hill
#
# Bulk Modulus (GPa) = 33.35438 56.19770 44.77604
# Shear Modulus (GPa) = 31.66449 44.13323 37.89886
#
# Velocity S-wave (km/s) = 3.38992 4.00208 3.70865
# Velocity P-wave (km/s) = 5.23707 6.46147 5.88122
#
# Compressibility (1/GPa) = 0.02998107
#
# Stress axis : x y z
#
# Youngs Moduli (GPa) = 65.02925 81.96263 82.52421
#
# Poissons Ratio (x) = 0.21788 0.00336
# Poissons Ratio (y) = 0.17286 0.17813
# Poissons Ratio (z) = 0.00265 0.17692
#
# Static dielectric constant tensor:
#      x y z
#    x 2.365740 -0.063790 0.087590 
#    y -0.063790 2.303320 -0.049470 
#    z 0.087590 -0.049470 2.125670 
# 
# From -- ./inp_files/52441.got.cif
#   From: 2010.05.17/outbox.cif.g08.bks.cpg/sg2_27_cif.got.tgz:52441.got - 2010.06.03 11:33:40.
