data_PCOD9012509
_publ_section_title
;
Structure prediction by ZEFSAII (Michael W. Deem and Ramdas Pophale) SiO2 
 PCOD9012509
Probable space group: P -1
;
_chemical_formula_sum "Si O2"
_cell_formula_units_Z 14
_cell_length_a 10.332429
_cell_length_b 20.891321
_cell_length_c 8.819297
_cell_angle_alpha 48.908735
_cell_angle_beta 127.934892
_cell_angle_gamma 153.531256
_cell_volume 637.508968
_symmetry_space_group_name_H-M "P -1"
_symmetry_group_IT_number 2
_symmetry_cell_setting 'triclinic'
loop_
_space_group_symop_operation_xyz
x,y,z
-x,-y,-z
loop_
_atom_site_type_symbol
_atom_site_label
_atom_site_fract_x
_atom_site_fract_y
_atom_site_fract_z
Si Si1 0.073467 0.234358 0.390694
Si Si2 0.582327 0.388009 0.322747
Si Si3 0.294905 0.693531 0.884636
Si Si4 0.132367 0.663215 0.490419
Si Si5 0.252306 0.495127 0.069913
Si Si6 0.552367 0.024585 0.820932
Si Si7 0.856233 0.029354 0.823454
O O1 0.272263 0.267484 0.364553
O O2 0.238624 0.394998 0.282413
O O3 0.755556 0.112905 0.275726
O O4 0.025854 0.162369 0.622933
O O5 0.664537 0.325187 0.447936
O O6 0.829925 0.530053 0.391294
O O7 0.616013 0.448976 0.090207
O O8 0.097612 0.626772 0.698918
O O9 0.091723 0.625150 0.988639
O O10 0.550559 0.869593 0.779322
O O11 0.393898 0.637523 0.033807
O O12 0.288826 0.819431 0.343887
O O13 0.765519 0.041373 0.889540
O O14 0.500000 0.000000 0.000000
O O15 0.000000 0.000000 0.000000
#
# Coordination Sequence:
#
# PCOD9012509 Si02
#       7
#     2   2   2   2   2   2   2
#     4  12  24  45  74 101 148 178 237 291 353 411
#     4  10  24  40  69 106 141 181 231 294 347 418
#     4  10  21  43  69  95 137 186 229 284 349 415
#     4  10  22  43  66  99 141 186 232 277 356 412
#     4  10  21  40  70  96 135 183 227 282 345 415
#     4  12  26  44  74 101 142 185 236 285 352 419
#     4  12  28  46  71 104 143 186 239 289 351 417
#
# _framework density 21.960474000000001
#
# number of rings (size 3 to 8) (size 9 to 14) (size 15 to 20)
#    0.000    1.143    2.857    2.571    2.000    7.429 
#    0.000    2.143    0.000    0.000    0.000    0.000 
#    0.000    0.000    0.000    0.000    0.000    0.000 
#
# Total GULP energy -78238.254204 kJ/mol
# GULP energy per Si atom -5588.446729 kJ/mol
# Density = 2.191049 g / cm^3
# Si number density = 21.960474 Si / 1000 Ang^3
#
#
#
# Elastic Constant Matrix: (Units=GPa)
#
#
# Indices 1 2 3 4 5 6 
#
# 1 149.8995 37.3281 69.7540 -12.5712 -1.6188 14.9742
# 2 37.3281 32.9636 21.5830 -17.0110 4.8788 -0.9146
# 3 69.7540 21.5830 136.9190 -26.9087 -0.0818 0.3478
# 4 -12.5712 -17.0110 -26.9087 29.6930 -6.3428 5.7966
# 5 -1.6188 4.8788 -0.0818 -6.3428 40.4262 -13.5134
# 6 14.9742 -0.9146 0.3478 5.7966 -13.5134 39.7951
#
#
#
# Elastic Compliance Matrix: (Units=1/GPa)
#
#
# Indices 1 2 3 4 5 6 
#
# 1 0.012690 -0.014543 -0.005594 -0.007286 -0.000257 -0.004087
# 2 -0.014543 0.060866 0.004007 0.031537 -0.002507 0.001391
# 3 -0.005594 0.004007 0.011585 0.010508 0.001301 0.001007
# 4 -0.007286 0.031537 0.010508 0.059811 0.003975 -0.003988
# 5 -0.000257 -0.002507 0.001301 0.003975 0.028732 0.009205
# 6 -0.004087 0.001391 0.001007 -0.003988 0.009205 0.030396
#
#
# Mechanical properties :
#
#
# Convention : Reuss Voigt Hill
#
# Bulk Modulus (GPa) = 18.91015 64.12358 41.51687
# Shear Modulus (GPa) = 19.68762 34.72400 27.20581
#
# Velocity S-wave (km/s) = 2.99741 3.98075 3.52355
# Velocity P-wave (km/s) = 4.53971 7.09869 5.95821
#
# Compressibility (1/GPa) = 0.05288166
#
# Stress axis : x y z
#
# Youngs Moduli (GPa) = 78.80048 16.42967 86.31703
#
# Poissons Ratio (x) = 0.23893 0.48289
# Poissons Ratio (y) = 1.14598 -0.34591
# Poissons Ratio (z) = 0.44084 -0.06584
#
# Static dielectric constant tensor:
#      x y z
#    x 1.840810 0.007610 0.019270 
#    y 0.007610 1.824880 0.024730 
#    z 0.019270 0.024730 1.812060 
# 
# From -- ./inp_files/223272.got.cif
#   From: 2010.05.17/outbox.cif.g08.bks.cpg/sg2_112_cif.got.tgz:223272.got - 2010.06.03 11:33:40.
