data_PCOD9012547
_publ_section_title
;
Structure prediction by ZEFSAII (Michael W. Deem and Ramdas Pophale) SiO2 
 PCOD9012547
Probable space group: P -1
;
_chemical_formula_sum "Si O2"
_cell_formula_units_Z 12
_cell_length_a 8.480988
_cell_length_b 17.885861
_cell_length_c 11.315452
_cell_angle_alpha 28.573512
_cell_angle_beta 67.057496
_cell_angle_gamma 50.953670
_cell_volume 572.564140
_symmetry_space_group_name_H-M "P -1"
_symmetry_group_IT_number 2
_symmetry_cell_setting 'triclinic'
loop_
_space_group_symop_operation_xyz
x,y,z
-x,-y,-z
loop_
_atom_site_type_symbol
_atom_site_label
_atom_site_fract_x
_atom_site_fract_y
_atom_site_fract_z
Si Si1 0.943060 0.688524 0.097387
Si Si2 0.637604 0.043818 0.539358
Si Si3 0.236492 0.780566 0.209244
Si Si4 0.302221 0.439833 0.531946
Si Si5 0.130343 0.386814 0.240245
Si Si6 0.312390 0.960089 0.730730
O O1 0.164410 0.575799 0.269196
O O2 0.019293 0.541257 0.166836
O O3 0.773513 0.687987 0.229704
O O4 0.816283 0.917480 0.767338
O O5 0.548117 0.917041 0.721945
O O6 0.398811 0.271127 0.317355
O O7 0.738894 0.039846 0.391330
O O8 0.228554 0.602459 0.431923
O O9 0.428441 0.706591 0.351130
O O10 0.322466 0.807964 0.023630
O O11 0.000000 0.000000 0.000000
O O12 0.142202 0.190643 0.515327
O O13 0.000000 0.500000 0.000000
#
# Coordination Sequence:
#
# PCOD9012547 Si02
#       6
#     2   2   2   2   2   2
#     4  11  19  38  57  89 116 138 198 236 279 326
#     4   9  18  32  56  88 110 139 185 245 275 313
#     4  11  22  41  56  81 117 156 190 220 286 348
#     4  10  24  36  59  82 116 158 180 235 280 338
#     4  10  17  29  57  87 109 141 184 233 280 326
#     4   9  17  34  56  85 110 145 189 234 274 328
#
# _framework density 20.958351
#
# number of rings (size 3 to 8) (size 9 to 14) (size 15 to 20)
#    1.000    1.000    3.333    1.000    0.000    1.333 
#    0.000    5.000    0.000    2.000    0.000    0.000 
#    0.000    0.000    0.000    0.000    0.000    0.000 
#
# Total GULP energy -66874.138600 kJ/mol
# GULP energy per Si atom -5572.844883 kJ/mol
# Density = 2.091065 g / cm^3
# Si number density = 20.958351 Si / 1000 Ang^3
#
#
#
# Elastic Constant Matrix: (Units=GPa)
#
#
# Indices 1 2 3 4 5 6 
#
# 1 53.4258 10.8964 36.5312 -1.5934 31.3287 -4.2689
# 2 10.8964 58.0109 24.1045 -13.6150 23.2275 -4.4920
# 3 36.5312 24.1045 123.2278 -3.2730 48.2365 -6.7662
# 4 -1.5934 -13.6150 -3.2730 43.0579 -4.0682 2.6906
# 5 31.3287 23.2275 48.2365 -4.0682 48.5973 0.4322
# 6 -4.2689 -4.4920 -6.7662 2.6906 0.4322 10.7614
#
#
#
# Elastic Compliance Matrix: (Units=1/GPa)
#
#
# Indices 1 2 3 4 5 6 
#
# 1 0.032882 0.004263 -0.000968 -0.000584 -0.022460 0.015263
# 2 0.004263 0.024242 0.000362 0.005801 -0.014308 0.011162
# 3 -0.000968 0.000362 0.014248 -0.000737 -0.013837 0.009465
# 4 -0.000584 0.005801 -0.000737 0.025317 0.000496 -0.004624
# 5 -0.022460 -0.014308 -0.013837 0.000496 0.055901 -0.025950
# 6 0.015263 0.011162 0.009465 -0.004624 -0.025950 0.111788
#
#
# Mechanical properties :
#
#
# Convention : Reuss Voigt Hill
#
# Bulk Modulus (GPa) = 12.70876 41.96982 27.33929
# Shear Modulus (GPa) = 17.64969 31.35880 24.50424
#
# Velocity S-wave (km/s) = 2.90510 3.87233 3.42305
# Velocity P-wave (km/s) = 4.16290 6.32946 5.35686
#
# Compressibility (1/GPa) = 0.07868587
#
# Stress axis : x y z
#
# Youngs Moduli (GPa) = 30.41161 41.25143 70.18730
#
# Poissons Ratio (x) = -0.17586 0.06793
# Poissons Ratio (y) = -0.12965 -0.02539
# Poissons Ratio (z) = 0.02943 -0.01492
#
# Static dielectric constant tensor:
#      x y z
#    x 1.797270 -0.024700 0.030960 
#    y -0.024700 1.741590 0.001380 
#    z 0.030960 0.001380 1.786310 
# 
# From -- ./inp_files/404501.got.cif
#   From: 2010.05.17/outbox.cif.g08.bks.cpg/sg2_203_cif.got.tgz:404501.got - 2010.06.03 11:33:40.
