data_PCOD9012953
_publ_section_title
;
Structure prediction by ZEFSAII (Michael W. Deem and Ramdas Pophale) SiO2 
 PCOD9012953
Probable space group: P -1
;
_chemical_formula_sum "Si O2"
_cell_formula_units_Z 16
_cell_length_a 5.662804
_cell_length_b 10.428818
_cell_length_c 18.833678
_cell_angle_alpha 37.446695
_cell_angle_beta 82.584820
_cell_angle_gamma 94.060734
_cell_volume 642.326974
_symmetry_space_group_name_H-M "P -1"
_symmetry_group_IT_number 2
_symmetry_cell_setting 'triclinic'
loop_
_space_group_symop_operation_xyz
x,y,z
-x,-y,-z
loop_
_atom_site_type_symbol
_atom_site_label
_atom_site_fract_x
_atom_site_fract_y
_atom_site_fract_z
Si Si1 0.847199 0.109484 0.010670
Si Si2 0.590539 0.270458 0.776060
Si Si3 0.342898 0.261471 0.374607
Si Si4 0.166359 0.860036 0.647637
Si Si5 0.813752 0.528124 0.893046
Si Si6 0.391485 0.246006 0.635130
Si Si7 0.534815 0.214772 0.161354
Si Si8 0.087254 0.952223 0.199951
O O1 0.570330 0.953233 0.085300
O O2 0.961256 0.082438 0.094895
O O3 0.836540 0.358405 0.904662
O O4 0.000000 0.000000 0.000000
O O5 0.584834 0.483235 0.723437
O O6 0.467604 0.262669 0.707430
O O7 0.858455 0.241922 0.763100
O O8 0.593770 0.213406 0.356123
O O9 0.090763 0.202912 0.362159
O O10 0.265867 0.122219 0.512725
O O11 0.064908 0.729976 0.782353
O O12 0.589597 0.641113 0.846777
O O13 0.749833 0.387413 0.030923
O O14 0.500000 0.500000 0.500000
O O15 0.093754 0.166984 0.678135
O O16 0.461155 0.026366 0.702277
O O17 0.327756 0.121939 0.148235
#
# Coordination Sequence:
#
# PCOD9012953 Si02
#       8
#     2   2   2   2   2   2   2   2
#     4  11  23  39  62  98 131 169 222 273 346 413
#     4  10  22  39  64  91 126 172 217 283 342 396
#     4  10  23  45  67  97 139 176 235 287 343 419
#     4  10  24  44  66 100 135 181 231 286 347 413
#     4  11  22  43  66  97 138 175 228 281 349 412
#     4  10  22  42  63  95 128 169 229 281 342 407
#     4  10  23  44  62  96 135 174 229 280 344 415
#     4  10  21  41  62  91 128 169 221 282 333 404
#
# _framework density 24.909431999999999
#
# number of rings (size 3 to 8) (size 9 to 14) (size 15 to 20)
#    0.000    1.750    3.750    0.750    5.250    7.000 
#    6.750    0.000    0.000    0.000    0.000    0.000 
#    0.000    0.000    0.000    0.000    0.000    0.000 
#
# Total GULP energy -89199.127910 kJ/mol
# GULP energy per Si atom -5574.945494 kJ/mol
# Density = 2.485274 g / cm^3
# Si number density = 24.909432 Si / 1000 Ang^3
#
#
#
# Elastic Constant Matrix: (Units=GPa)
#
#
# Indices 1 2 3 4 5 6 
#
# 1 83.1413 32.0613 49.6680 -11.4318 -5.2159 -18.0249
# 2 32.0613 91.6087 33.2388 -22.7456 -3.9835 -32.9424
# 3 49.6680 33.2388 163.6516 0.3086 -7.0434 1.4735
# 4 -11.4318 -22.7456 0.3086 44.4981 0.6674 -0.7422
# 5 -5.2159 -3.9835 -7.0434 0.6674 39.4090 3.0111
# 6 -18.0249 -32.9424 1.4735 -0.7422 3.0111 47.9364
#
#
#
# Elastic Compliance Matrix: (Units=1/GPa)
#
#
# Indices 1 2 3 4 5 6 
#
# 1 0.017374 -0.001039 -0.005091 0.004056 0.000758 0.005990
# 2 -0.001039 0.020236 -0.003939 0.010335 -0.000025 0.013798
# 3 -0.005091 -0.003939 0.008546 -0.003478 0.000896 -0.004994
# 4 0.004056 0.010335 -0.003478 0.028978 -0.000234 0.009197
# 5 0.000758 -0.000025 0.000896 -0.000234 0.025742 -0.001381
# 6 0.005990 0.013798 -0.004994 0.009197 -0.001381 0.032978
#
#
# Mechanical properties :
#
#
# Convention : Reuss Voigt Hill
#
# Bulk Modulus (GPa) = 38.43740 63.14865 50.79303
# Shear Modulus (GPa) = 30.73803 41.26427 36.00115
#
# Velocity S-wave (km/s) = 3.51663 4.07452 3.80581
# Velocity P-wave (km/s) = 5.65273 6.89506 6.30457
#
# Compressibility (1/GPa) = 0.02601632
#
# Stress axis : x y z
#
# Youngs Moduli (GPa) = 57.55871 49.41754 117.01677
#
# Poissons Ratio (x) = 0.05135 0.59570
# Poissons Ratio (y) = 0.05981 0.46098
# Poissons Ratio (z) = 0.29302 0.19468
#
# Static dielectric constant tensor:
#      x y z
#    x 2.112750 -0.022180 0.007670 
#    y -0.022180 2.035040 0.104000 
#    z 0.007670 0.104000 2.070470 
# 
# From -- ./inp_files/441943.got.cif
#   From: 2010.05.17/outbox.cif.g08.bks.cpg/sg2_221_cif.got.tgz:441943.got - 2010.06.03 11:33:40.
