data_PCOD9012630
_publ_section_title
;
Structure prediction by ZEFSAII (Michael W. Deem and Ramdas Pophale) SiO2 
 PCOD9012630
Probable space group: P -1
;
_chemical_formula_sum "Si O2"
_cell_formula_units_Z 14
_cell_length_a 14.242209
_cell_length_b 7.416202
_cell_length_c 9.324833
_cell_angle_alpha 48.812809
_cell_angle_beta 123.886568
_cell_angle_gamma 120.848912
_cell_volume 598.363675
_symmetry_space_group_name_H-M "P -1"
_symmetry_group_IT_number 2
_symmetry_cell_setting 'triclinic'
loop_
_space_group_symop_operation_xyz
x,y,z
-x,-y,-z
loop_
_atom_site_type_symbol
_atom_site_label
_atom_site_fract_x
_atom_site_fract_y
_atom_site_fract_z
Si Si1 0.782063 0.430993 0.762398
Si Si2 0.051002 0.761026 0.199654
Si Si3 0.499457 0.243142 0.284115
Si Si4 0.670835 0.427821 0.963571
Si Si5 0.410374 0.966409 0.093356
Si Si6 0.724026 0.675043 0.322139
Si Si7 0.156112 0.597930 0.638377
O O1 0.884231 0.318378 0.842620
O O2 0.767881 0.494999 0.883183
O O3 0.768658 0.650966 0.532071
O O4 0.664911 0.215160 0.757064
O O5 0.135497 0.789409 0.398557
O O6 0.953066 0.523118 0.292360
O O7 0.000000 0.000000 0.000000
O O8 0.384155 0.345756 0.159355
O O9 0.496499 0.166758 0.154648
O O10 0.611716 0.454186 0.308679
O O11 0.500000 0.000000 0.500000
O O12 0.564929 0.229809 0.897737
O O13 0.735671 0.328953 0.200497
O O14 0.315088 0.079827 0.873287
O O15 0.819607 0.628331 0.317168
#
# Coordination Sequence:
#
# PCOD9012630 Si02
#       7
#     2   2   2   2   2   2   2
#     4   9  22  42  61  96 132 164 213 270 317 374
#     4  10  21  40  72  93 122 171 211 265 329 381
#     4  12  23  41  68  94 132 179 216 260 322 380
#     4  10  24  43  62  97 136 165 219 267 316 387
#     4  10  22  41  61  93 135 163 219 265 306 383
#     4  11  21  41  67  91 131 176 214 263 320 373
#     4  10  22  41  65  96 126 165 219 261 321 389
#
# _framework density 23.397141999999999
#
# number of rings (size 3 to 8) (size 9 to 14) (size 15 to 20)
#    0.857    0.857    2.857    1.286    0.000    3.429 
#    5.143    0.714    0.000    0.000    0.000    0.000 
#    0.000    0.000    0.000    0.000    0.000    0.000 
#
# Total GULP energy -78098.431283 kJ/mol
# GULP energy per Si atom -5578.459377 kJ/mol
# Density = 2.334389 g / cm^3
# Si number density = 23.397142 Si / 1000 Ang^3
#
#
#
# Elastic Constant Matrix: (Units=GPa)
#
#
# Indices 1 2 3 4 5 6 
#
# 1 113.0157 30.9687 37.9021 28.4006 -6.5756 -27.2372
# 2 30.9687 51.7006 25.9855 3.2912 -0.6158 -18.5854
# 3 37.9021 25.9855 140.3095 9.9102 4.8727 -30.6457
# 4 28.4006 3.2912 9.9102 19.4202 -1.0697 -5.1727
# 5 -6.5756 -0.6158 4.8727 -1.0697 29.5890 6.5539
# 6 -27.2372 -18.5854 -30.6457 -5.1727 6.5539 27.0220
#
#
#
# Elastic Compliance Matrix: (Units=1/GPa)
#
#
# Indices 1 2 3 4 5 6 
#
# 1 0.019141 -0.006269 -0.000182 -0.024143 0.001090 0.009889
# 2 -0.006269 0.028187 -0.000798 0.008506 -0.003616 0.014667
# 3 -0.000182 -0.000798 0.010101 -0.001955 -0.004315 0.011395
# 4 -0.024143 0.008506 -0.001955 0.085194 -0.000859 -0.004185
# 5 0.001090 -0.003616 -0.004315 -0.000859 0.038119 -0.015692
# 6 0.009889 0.014667 0.011395 -0.004185 -0.015692 0.072991
#
#
# Mechanical properties :
#
#
# Convention : Reuss Voigt Hill
#
# Bulk Modulus (GPa) = 23.29404 54.97092 39.13248
# Shear Modulus (GPa) = 17.69653 29.21754 23.45703
#
# Velocity S-wave (km/s) = 2.75317 3.53762 3.16976
# Velocity P-wave (km/s) = 4.48154 6.34288 5.49164
#
# Compressibility (1/GPa) = 0.04292943
#
# Stress axis : x y z
#
# Youngs Moduli (GPa) = 52.24362 35.47777 98.99995
#
# Poissons Ratio (x) = 0.22241 0.01805
# Poissons Ratio (y) = 0.32752 0.07903
# Poissons Ratio (z) = 0.00952 0.02832
#
# Static dielectric constant tensor:
#      x y z
#    x 1.952370 0.051800 -0.024660 
#    y 0.051800 1.933040 0.047820 
#    z -0.024660 0.047820 1.893960 
# 
# From -- ./inp_files/291720.got.cif
#   From: 2010.05.17/outbox.cif.g08.bks.cpg/sg2_146_cif.got.tgz:291720.got - 2010.06.03 11:33:40.
