data_PCOD9012682
_publ_section_title
;
Structure prediction by ZEFSAII (Michael W. Deem and Ramdas Pophale) SiO2 
 PCOD9012682
Probable space group: P -1
;
_chemical_formula_sum "Si O2"
_cell_formula_units_Z 12
_cell_length_a 10.629529
_cell_length_b 4.757636
_cell_length_c 18.464248
_cell_angle_alpha 64.734914
_cell_angle_beta 148.887831
_cell_angle_gamma 116.266519
_cell_volume 430.350669
_symmetry_space_group_name_H-M "P -1"
_symmetry_group_IT_number 2
_symmetry_cell_setting 'triclinic'
loop_
_space_group_symop_operation_xyz
x,y,z
-x,-y,-z
loop_
_atom_site_type_symbol
_atom_site_label
_atom_site_fract_x
_atom_site_fract_y
_atom_site_fract_z
Si Si1 0.426737 0.876305 0.337453
Si Si2 0.457290 0.691091 0.032336
Si Si3 0.897321 0.868171 0.039534
Si Si4 0.294790 0.640101 0.447764
Si Si5 0.920665 0.025886 0.291381
Si Si6 0.611885 0.148707 0.250051
O O1 0.452274 0.832760 0.440440
O O2 0.517708 0.546356 0.395045
O O3 0.561393 0.097073 0.315675
O O4 0.145659 0.940536 0.197868
O O5 0.686238 0.020183 0.117210
O O6 0.627812 0.512048 0.194640
O O7 0.500000 0.500000 0.000000
O O8 0.197524 0.504788 0.959012
O O9 0.640201 0.000822 0.902498
O O10 0.000000 0.000000 0.000000
O O11 0.113426 0.803441 0.389894
O O12 0.090616 0.373321 0.336268
O O13 0.825647 0.012632 0.329129
#
# Coordination Sequence:
#
# PCOD9012682 Si02
#       6
#     2   2   2   2   2   2
#     4  10  22  46  70 107 144 193 241 288 360 432
#     4  10  21  40  75 105 142 183 241 302 365 420
#     4   8  17  41  71 102 144 183 236 300 361 423
#     4  11  26  45  75 101 147 196 237 292 352 440
#     4  12  24  49  68 111 140 189 244 292 366 420
#     4   9  22  44  73 107 139 183 236 306 354 419
#
# _framework density 27.884235
#
# number of rings (size 3 to 8) (size 9 to 14) (size 15 to 20)
#    1.000    1.000    1.667    1.000    0.000    6.000 
#    6.000    5.000    0.000    0.000    0.000    0.000 
#    0.000    0.000    0.000    0.000    0.000    0.000 
#
# Total GULP energy -66813.853100 kJ/mol
# GULP energy per Si atom -5567.821092 kJ/mol
# Density = 2.782077 g / cm^3
# Si number density = 27.884235 Si / 1000 Ang^3
#
#
#
# Elastic Constant Matrix: (Units=GPa)
#
#
# Indices 1 2 3 4 5 6 
#
# 1 178.8828 97.9110 38.4806 -12.6007 20.0861 30.5011
# 2 97.9110 124.4526 19.2682 -26.6158 -16.8961 14.7138
# 3 38.4806 19.2682 107.0112 13.0469 18.5932 3.6868
# 4 -12.6007 -26.6158 13.0469 58.7092 6.0580 -0.2087
# 5 20.0861 -16.8961 18.5932 6.0580 61.8731 -11.1361
# 6 30.5011 14.7138 3.6868 -0.2087 -11.1361 67.3285
#
#
#
# Elastic Compliance Matrix: (Units=1/GPa)
#
#
# Indices 1 2 3 4 5 6 
#
# 1 0.013730 -0.011351 -0.001196 -0.001127 -0.007987 -0.004999
# 2 -0.011351 0.019486 -0.001872 0.005847 0.009459 0.002569
# 3 -0.001196 -0.001872 0.011063 -0.003238 -0.003164 -0.000188
# 4 -0.001127 0.005847 -0.003238 0.020067 0.000903 -0.000378
# 5 -0.007987 0.009459 -0.003164 0.000903 0.023202 0.005565
# 6 -0.004999 0.002569 -0.000188 -0.000378 0.005565 0.017485
#
#
# Mechanical properties :
#
#
# Convention : Reuss Voigt Hill
#
# Bulk Modulus (GPa) = 64.76045 80.18513 72.47279
# Shear Modulus (GPa) = 35.96624 54.56129 45.26376
#
# Velocity S-wave (km/s) = 3.59533 4.42827 4.03336
# Velocity P-wave (km/s) = 6.36478 7.41383 6.90924
#
# Compressibility (1/GPa) = 0.01544152
#
# Stress axis : x y z
#
# Youngs Moduli (GPa) = 72.83063 51.31795 90.39192
#
# Poissons Ratio (x) = 0.58253 0.10812
# Poissons Ratio (y) = 0.82673 0.16917
# Poissons Ratio (z) = 0.08711 0.09604
#
# Static dielectric constant tensor:
#      x y z
#    x 1.779800 -0.326040 -0.146230 
#    y -0.326040 2.359510 -0.041920 
#    z -0.146230 -0.041920 2.299570 
# 
# From -- ./inp_files/459055.got.cif
#   From: 2010.05.17/outbox.cif.g08.bks.cpg/sg2_230_cif.got.tgz:459055.got - 2010.06.03 11:33:40.
