data_PCOD9012045
_publ_section_title
;
Structure prediction by ZEFSAII (Michael W. Deem and Ramdas Pophale) SiO2 
 PCOD9012045
Probable space group: P -1
;
_chemical_formula_sum "Si O2"
_cell_formula_units_Z 16
_cell_length_a 5.129654
_cell_length_b 13.399950
_cell_length_c 16.244740
_cell_angle_alpha 36.924397
_cell_angle_beta 71.695921
_cell_angle_gamma 87.378568
_cell_volume 594.176281
_symmetry_space_group_name_H-M "P -1"
_symmetry_group_IT_number 2
_symmetry_cell_setting 'triclinic'
loop_
_space_group_symop_operation_xyz
x,y,z
-x,-y,-z
loop_
_atom_site_type_symbol
_atom_site_label
_atom_site_fract_x
_atom_site_fract_y
_atom_site_fract_z
Si Si1 0.793190 0.311126 0.046841
Si Si2 0.584293 0.523179 0.198828
Si Si3 0.661177 0.267564 0.471554
Si Si4 0.918362 0.153435 0.817851
Si Si5 0.598318 0.166364 0.996383
Si Si6 0.826215 0.695745 0.734612
Si Si7 0.589899 0.325363 0.619671
Si Si8 0.265896 0.940725 0.636591
O O1 0.604814 0.168575 0.092626
O O2 0.731815 0.223917 0.198965
O O3 0.123698 0.350337 0.957496
O O4 0.771217 0.506826 0.911220
O O5 0.628231 0.453140 0.328454
O O6 0.454015 0.353842 0.263732
O O7 0.370913 0.630007 0.156115
O O8 0.917065 0.265156 0.385609
O O9 0.725655 0.278352 0.553778
O O10 0.364088 0.106270 0.580475
O O11 0.798617 0.299604 0.689078
O O12 0.257708 0.183414 0.753496
O O13 0.703106 0.972055 0.917502
O O14 0.848770 0.147557 0.925532
O O15 0.944996 0.859410 0.678115
O O16 0.500000 0.500000 0.500000
O O17 0.500000 0.000000 0.500000
#
# Coordination Sequence:
#
# PCOD9012045 Si02
#       8
#     2   2   2   2   2   2   2   2
#     4  10  21  40  68  92 131 176 229 282 351 414
#     4  10  22  39  66  94 132 178 232 279 349 411
#     4  10  23  40  65  94 138 183 224 286 350 418
#     4  11  27  43  69 105 139 186 241 289 343 412
#     4  10  24  42  68  93 133 182 228 294 336 413
#     4   9  21  40  64  94 129 180 229 286 343 416
#     4  12  27  44  70 105 147 186 233 285 354 415
#     4  10  21  41  65  95 133 175 223 291 351 422
#
# _framework density 26.928038000000001
#
# number of rings (size 3 to 8) (size 9 to 14) (size 15 to 20)
#    0.000    1.750    0.000    2.250   12.250    2.000 
#    0.000    2.500    0.000    0.000    0.000    0.000 
#    0.000    0.000    0.000    0.000    0.000    0.000 
#
# Total GULP energy -89531.074553 kJ/mol
# GULP energy per Si atom -5595.692160 kJ/mol
# Density = 2.686675 g / cm^3
# Si number density = 26.928038 Si / 1000 Ang^3
#
#
#
# Elastic Constant Matrix: (Units=GPa)
#
#
# Indices 1 2 3 4 5 6 
#
# 1 55.8055 -0.0906 16.8564 6.6568 4.0358 1.6283
# 2 -0.0906 100.6759 31.1162 0.1502 1.7924 1.0985
# 3 16.8564 31.1162 139.2569 10.7594 21.5925 -2.2746
# 4 6.6568 0.1502 10.7594 43.4918 8.2912 0.2586
# 5 4.0358 1.7924 21.5925 8.2912 40.4806 -3.2996
# 6 1.6283 1.0985 -2.2746 0.2586 -3.2996 26.0789
#
#
#
# Elastic Compliance Matrix: (Units=1/GPa)
#
#
# Indices 1 2 3 4 5 6 
#
# 1 0.018939 0.000737 -0.002247 -0.002265 -0.000375 -0.001435
# 2 0.000737 0.010744 -0.002642 0.000368 0.000733 -0.000640
# 3 -0.002247 -0.002642 0.008765 -0.001041 -0.004079 0.000510
# 4 -0.002265 0.000368 -0.001041 0.024420 -0.004298 -0.000751
# 5 -0.000375 0.000733 -0.004079 -0.004298 0.028027 0.003225
# 6 -0.001435 -0.000640 0.000510 -0.000751 0.003225 0.038922
#
#
# Mechanical properties :
#
#
# Convention : Reuss Voigt Hill
#
# Bulk Modulus (GPa) = 33.17625 43.50027 38.33826
# Shear Modulus (GPa) = 33.74551 38.53399 36.13975
#
# Velocity S-wave (km/s) = 3.54386 3.78696 3.66742
# Velocity P-wave (km/s) = 5.39373 5.94228 5.67464
#
# Compressibility (1/GPa) = 0.03014205
#
# Stress axis : x y z
#
# Youngs Moduli (GPa) = 52.80212 93.07873 114.09424
#
# Poissons Ratio (x) = -0.06863 0.25642
# Poissons Ratio (y) = -0.03894 0.30148
# Poissons Ratio (z) = 0.11867 0.24595
#
# Static dielectric constant tensor:
#      x y z
#    x 2.146000 -0.012150 0.044320 
#    y -0.012150 2.101550 -0.081130 
#    z 0.044320 -0.081130 2.113410 
# 
# From -- ./inp_files/110872.got.cif
#   From: 2010.05.17/outbox.cif.g08.bks.cpg/sg2_56_cif.got.tgz:110872.got - 2010.06.03 11:33:40.
