data_PCOD9012706
_publ_section_title
;
Structure prediction by ZEFSAII (Michael W. Deem and Ramdas Pophale) SiO2 
 PCOD9012706
Probable space group: P -1
;
_chemical_formula_sum "Si O2"
_cell_formula_units_Z 14
_cell_length_a 12.105235
_cell_length_b 7.418135
_cell_length_c 12.476796
_cell_angle_alpha 37.947851
_cell_angle_beta 62.153352
_cell_angle_gamma 64.133157
_cell_volume 604.423228
_symmetry_space_group_name_H-M "P -1"
_symmetry_group_IT_number 2
_symmetry_cell_setting 'triclinic'
loop_
_space_group_symop_operation_xyz
x,y,z
-x,-y,-z
loop_
_atom_site_type_symbol
_atom_site_label
_atom_site_fract_x
_atom_site_fract_y
_atom_site_fract_z
Si Si1 0.384057 0.942923 0.351294
Si Si2 0.043251 0.164513 0.166250
Si Si3 0.704999 0.807546 0.050571
Si Si4 0.863144 0.317107 0.357875
Si Si5 0.023295 0.613585 0.317309
Si Si6 0.682067 0.460372 0.812730
Si Si7 0.481325 0.496571 0.330731
O O1 0.240849 0.877476 0.463310
O O2 0.434580 0.760203 0.310378
O O3 0.463038 0.780932 0.491703
O O4 0.383199 0.294400 0.191594
O O5 0.968329 0.124986 0.327716
O O6 0.002106 0.965605 0.181326
O O7 0.195175 0.117720 0.120031
O O8 0.000000 0.500000 0.000000
O O9 0.784895 0.575987 0.201658
O O10 0.590509 0.632920 0.150591
O O11 0.662146 0.115392 0.986831
O O12 0.930583 0.485137 0.339000
O O13 0.167926 0.538180 0.252613
O O14 0.000000 0.500000 0.500000
O O15 0.628252 0.564432 0.671081
#
# Coordination Sequence:
#
# PCOD9012706 Si02
#       7
#     2   2   2   2   2   2   2
#     4  10  22  38  62  85 110 156 195 235 294 339
#     4   9  20  38  59  85 116 154 192 230 287 345
#     4   9  21  39  60  85 117 157 193 236 289 341
#     4  10  21  41  60  84 122 154 190 238 290 348
#     4  11  23  37  59  90 120 152 192 240 292 345
#     4  11  22  36  58  87 114 149 196 239 284 340
#     4  10  21  41  58  81 120 151 192 242 284 344
#
# _framework density 23.162579000000001
#
# number of rings (size 3 to 8) (size 9 to 14) (size 15 to 20)
#    0.000    2.000    0.000    2.571    0.000   10.286 
#    0.000   12.857    0.000    0.000    0.000    0.000 
#    0.000    0.000    0.000    0.000    0.000    0.000 
#
# Total GULP energy -78271.846236 kJ/mol
# GULP energy per Si atom -5590.846160 kJ/mol
# Density = 2.310986 g / cm^3
# Si number density = 23.162579 Si / 1000 Ang^3
#
#
#
# Elastic Constant Matrix: (Units=GPa)
#
#
# Indices 1 2 3 4 5 6 
#
# 1 78.4927 15.7663 12.4719 -2.4851 9.7524 2.7157
# 2 15.7663 138.5816 17.0381 -28.2815 9.2643 -11.4237
# 3 12.4719 17.0381 41.6584 -12.3771 -4.4602 -10.4744
# 4 -2.4851 -28.2815 -12.3771 42.9867 -5.1109 3.3938
# 5 9.7524 9.2643 -4.4602 -5.1109 19.4752 6.4046
# 6 2.7157 -11.4237 -10.4744 3.3938 6.4046 27.6145
#
#
#
# Elastic Compliance Matrix: (Units=1/GPa)
#
#
# Indices 1 2 3 4 5 6 
#
# 1 0.014967 -0.001045 -0.006181 -0.002442 -0.008396 -0.002001
# 2 -0.001045 0.009052 -0.001521 0.004682 -0.004102 0.003647
# 3 -0.006181 -0.001521 0.032341 0.008523 0.010587 0.008743
# 4 -0.002442 0.004682 0.008523 0.029731 0.008848 -0.000296
# 5 -0.008396 -0.004102 0.010587 0.008848 0.066657 -0.013402
# 6 -0.002001 0.003647 0.008743 -0.000296 -0.013402 0.044380
#
#
# Mechanical properties :
#
#
# Convention : Reuss Voigt Hill
#
# Bulk Modulus (GPa) = 25.72907 38.80948 32.26928
# Shear Modulus (GPa) = 21.97049 32.24570 27.10810
#
# Velocity S-wave (km/s) = 3.08317 3.73520 3.42473
# Velocity P-wave (km/s) = 4.87921 5.94928 5.44062
#
# Compressibility (1/GPa) = 0.03886654
#
# Stress axis : x y z
#
# Youngs Moduli (GPa) = 66.81260 110.47260 30.92016
#
# Poissons Ratio (x) = 0.11543 0.19113
# Poissons Ratio (y) = 0.06981 0.04702
# Poissons Ratio (z) = 0.41300 0.16800
#
# Static dielectric constant tensor:
#      x y z
#    x 1.857360 -0.025810 -0.018660 
#    y -0.025810 1.859270 0.004140 
#    z -0.018660 0.004140 1.963610 
# 
# From -- ./inp_files/61087.got.cif
#   From: 2010.05.17/outbox.cif.g08.bks.cpg/sg2_31_cif.got.tgz:61087.got - 2010.06.03 11:33:40.
