data_PCOD9012504
_publ_section_title
;
Structure prediction by ZEFSAII (Michael W. Deem and Ramdas Pophale) SiO2 
 PCOD9012504
Probable space group: P -1
;
_chemical_formula_sum "Si O2"
_cell_formula_units_Z 16
_cell_length_a 16.332423
_cell_length_b 9.577637
_cell_length_c 15.935134
_cell_angle_alpha 36.906154
_cell_angle_beta 134.856520
_cell_angle_gamma 106.680772
_cell_volume 805.791579
_symmetry_space_group_name_H-M "P -1"
_symmetry_group_IT_number 2
_symmetry_cell_setting 'triclinic'
loop_
_space_group_symop_operation_xyz
x,y,z
-x,-y,-z
loop_
_atom_site_type_symbol
_atom_site_label
_atom_site_fract_x
_atom_site_fract_y
_atom_site_fract_z
Si Si1 0.423555 0.053248 0.045164
Si Si2 0.339737 0.672095 0.930708
Si Si3 0.672188 0.343544 0.256537
Si Si4 0.276291 0.265945 0.660856
Si Si5 0.127616 0.167590 0.216607
Si Si6 0.661767 0.683009 0.750306
Si Si7 0.647264 0.341139 0.746357
Si Si8 0.014592 0.052191 0.890507
O O1 0.606306 0.785443 0.299062
O O2 0.353606 0.898899 0.088669
O O3 0.373284 0.324464 0.939723
O O4 0.354276 0.232406 0.821034
O O5 0.267272 0.786885 0.730549
O O6 0.299910 0.962028 0.810264
O O7 0.516750 0.434761 0.140270
O O8 0.300121 0.525312 0.040002
O O9 0.795431 0.088192 0.532666
O O10 0.104214 0.579201 0.385449
O O11 0.238197 0.215506 0.234119
O O12 0.053507 0.076668 0.146433
O O13 0.000000 0.500000 0.000000
O O14 0.649516 0.545047 0.720966
O O15 0.500000 0.000000 0.500000
O O16 0.500000 0.500000 0.500000
O O17 0.809471 0.140839 0.912994
O O18 0.000000 0.000000 0.000000
#
# Coordination Sequence:
#
# PCOD9012504 Si02
#       8
#     2   2   2   2   2   2   2   2
#     4  10  21  40  70  96 132 177 230 278 338 412
#     4  10  22  41  69 105 133 181 232 282 339 411
#     4  10  22  41  69  99 139 181 228 281 345 412
#     4  10  21  41  68  97 133 178 227 276 346 412
#     4  12  26  47  68 101 146 189 229 283 354 415
#     4  12  26  44  74 103 141 184 235 287 342 416
#     4  12  28  46  70 104 138 181 238 291 345 416
#     4  12  28  46  70 101 142 187 228 290 354 412
#
# _framework density 19.856251
#
# number of rings (size 3 to 8) (size 9 to 14) (size 15 to 20)
#    0.000    1.000    5.000    0.750    7.000    1.500 
#    2.250    0.625    0.000    0.000    0.000    0.000 
#    0.000    0.000    0.000    0.000    0.000    0.000 
#
# Total GULP energy -89110.214669 kJ/mol
# GULP energy per Si atom -5569.388417 kJ/mol
# Density = 1.981106 g / cm^3
# Si number density = 19.856251 Si / 1000 Ang^3
#
#
#
# Elastic Constant Matrix: (Units=GPa)
#
#
# Indices 1 2 3 4 5 6 
#
# 1 103.3165 25.0562 52.6922 2.0688 15.5833 7.9598
# 2 25.0562 74.9359 34.2356 6.9287 -3.0455 -3.0903
# 3 52.6922 34.2356 104.7984 6.0348 17.3057 -6.1676
# 4 2.0688 6.9287 6.0348 30.5974 -4.9649 -1.1502
# 5 15.5833 -3.0455 17.3057 -4.9649 31.0384 1.1243
# 6 7.9598 -3.0903 -6.1676 -1.1502 1.1243 33.4717
#
#
#
# Elastic Compliance Matrix: (Units=1/GPa)
#
#
# Indices 1 2 3 4 5 6 
#
# 1 0.014265 -0.002357 -0.006031 -0.000042 -0.003871 -0.004593
# 2 -0.002357 0.016857 -0.005045 -0.001761 0.005334 0.000948
# 3 -0.006031 -0.005045 0.015722 -0.002500 -0.006778 0.004007
# 4 -0.000042 -0.001761 -0.002500 0.034690 0.006778 0.000351
# 5 -0.003871 0.005334 -0.006778 0.006778 0.039582 -0.000932
# 6 -0.004593 0.000948 0.004007 0.000351 -0.000932 0.031837
#
#
# Mechanical properties :
#
#
# Convention : Reuss Voigt Hill
#
# Bulk Modulus (GPa) = 50.05886 56.33543 53.19715
# Shear Modulus (GPa) = 26.81265 30.42596 28.61931
#
# Velocity S-wave (km/s) = 3.67868 3.91872 3.80060
# Velocity P-wave (km/s) = 6.58095 6.99345 6.79034
#
# Compressibility (1/GPa) = 0.01997648
#
# Stress axis : x y z
#
# Youngs Moduli (GPa) = 70.10132 59.32365 63.60645
#
# Poissons Ratio (x) = 0.13984 0.38361
# Poissons Ratio (y) = 0.16525 0.32091
# Poissons Ratio (z) = 0.42278 0.29930
#
# Static dielectric constant tensor:
#      x y z
#    x 1.650400 -0.000260 -0.024480 
#    y -0.000260 1.760840 0.093830 
#    z -0.024480 0.093830 1.772810 
# 
# From -- ./inp_files/315369.got.cif
#   From: 2010.05.17/outbox.cif.g08.bks.cpg/sg2_158_cif.got.tgz:315369.got - 2010.06.03 11:33:40.
