data_PCOD9012284
_publ_section_title
;
Structure prediction by ZEFSAII (Michael W. Deem and Ramdas Pophale) SiO2 
 PCOD9012284
Probable space group: P -1
;
_chemical_formula_sum "Si O2"
_cell_formula_units_Z 16
_cell_length_a 6.357934
_cell_length_b 17.677643
_cell_length_c 23.793709
_cell_angle_alpha 161.031910
_cell_angle_beta 90.586503
_cell_angle_gamma 99.250188
_cell_volume 740.124984
_symmetry_space_group_name_H-M "P -1"
_symmetry_group_IT_number 2
_symmetry_cell_setting 'triclinic'
loop_
_space_group_symop_operation_xyz
x,y,z
-x,-y,-z
loop_
_atom_site_type_symbol
_atom_site_label
_atom_site_fract_x
_atom_site_fract_y
_atom_site_fract_z
Si Si1 0.167417 0.746529 0.713861
Si Si2 0.769908 0.420086 0.901685
Si Si3 0.990019 0.151780 0.661454
Si Si4 0.633049 0.151988 0.931359
Si Si5 0.934378 0.761189 0.941502
Si Si6 0.379166 0.402786 0.680703
Si Si7 0.259116 0.709703 0.809555
Si Si8 0.497010 0.700832 0.077658
O O1 0.140167 0.615350 0.682402
O O2 0.000000 0.500000 0.500000
O O3 0.440001 0.908898 0.800742
O O4 0.099465 0.980694 0.882978
O O5 0.729243 0.662041 0.052658
O O6 0.822858 0.288427 0.756006
O O7 0.546188 0.231197 0.811461
O O8 0.000000 0.500000 0.000000
O O9 0.835569 0.909378 0.535012
O O10 0.000000 0.000000 0.500000
O O11 0.263881 0.392387 0.847615
O O12 0.899171 0.192188 0.970351
O O13 0.656934 0.425276 0.149479
O O14 0.526899 0.124111 0.848822
O O15 0.084406 0.741554 0.875597
O O16 0.662192 0.489868 0.750576
O O17 0.348129 0.525507 0.709291
O O18 0.500000 0.000000 0.000000
#
# Coordination Sequence:
#
# PCOD9012284 Si02
#       8
#     2   2   2   2   2   2   2   2
#     4  11  24  41  60 100 129 162 216 271 321 383
#     4   9  22  41  63  87 123 175 212 252 333 383
#     4  11  22  40  63  97 129 160 214 271 319 377
#     4  10  21  41  63  94 123 168 211 261 322 384
#     4  10  21  40  69  86 129 169 215 254 330 382
#     4  10  22  38  61  98 122 164 221 259 317 389
#     4  11  20  42  67  88 128 172 215 258 325 394
#     4  10  21  44  64  87 132 169 213 264 319 392
#
# _framework density 21.61797
#
# number of rings (size 3 to 8) (size 9 to 14) (size 15 to 20)
#    0.000    1.750    5.000    0.375    0.000    7.000 
#   11.250    0.000    0.000    0.000    0.000    0.000 
#    0.000    0.000    0.000    0.000    0.000    0.000 
#
# Total GULP energy -89238.924493 kJ/mol
# GULP energy per Si atom -5577.432781 kJ/mol
# Density = 2.156877 g / cm^3
# Si number density = 21.617970 Si / 1000 Ang^3
#
#
#
# Elastic Constant Matrix: (Units=GPa)
#
#
# Indices 1 2 3 4 5 6 
#
# 1 111.4365 40.6595 7.7754 -2.6657 2.1986 -6.7402
# 2 40.6595 116.1193 2.4076 -4.2987 -3.0362 -19.4377
# 3 7.7754 2.4076 57.4393 1.3856 13.6387 10.5348
# 4 -2.6657 -4.2987 1.3856 41.3236 9.3604 -0.4430
# 5 2.1986 -3.0362 13.6387 9.3604 18.3408 -4.1963
# 6 -6.7402 -19.4377 10.5348 -0.4430 -4.1963 29.6695
#
#
#
# Elastic Compliance Matrix: (Units=1/GPa)
#
#
# Indices 1 2 3 4 5 6 
#
# 1 0.010412 -0.003615 -0.000960 0.000654 -0.001433 0.000145
# 2 -0.003615 0.011616 -0.003314 -0.000423 0.007087 0.008961
# 3 -0.000960 -0.003314 0.026571 0.004422 -0.025980 -0.015432
# 4 0.000654 -0.000423 0.004422 0.028256 -0.018756 -0.003929
# 5 -0.001433 0.007087 -0.025980 -0.018756 0.090730 0.026094
# 6 0.000145 0.008961 -0.015432 -0.003929 0.026094 0.048720
#
#
# Mechanical properties :
#
#
# Convention : Reuss Voigt Hill
#
# Bulk Modulus (GPa) = 30.46715 42.96446 36.71580
# Shear Modulus (GPa) = 20.57420 33.47696 27.02558
#
# Velocity S-wave (km/s) = 3.08834 3.93946 3.53957
# Velocity P-wave (km/s) = 5.18084 6.37260 5.80737
#
# Compressibility (1/GPa) = 0.03282224
#
# Stress axis : x y z
#
# Youngs Moduli (GPa) = 96.03935 86.08759 37.63506
#
# Poissons Ratio (x) = 0.31121 0.03613
# Poissons Ratio (y) = 0.34718 0.12471
# Poissons Ratio (z) = 0.09220 0.28526
#
# Static dielectric constant tensor:
#      x y z
#    x 1.848030 -0.007420 0.012420 
#    y -0.007420 1.873090 -0.019960 
#    z 0.012420 -0.019960 1.811650 
# 
# From -- ./inp_files/605022.got.cif
#   From: 2010.05.17/outbox.cif.g08.bks.cpg/sg2_303_cif.got.tgz:605022.got - 2010.06.03 11:33:40.
