data_PCOD9012683
_publ_section_title
;
Structure prediction by ZEFSAII (Michael W. Deem and Ramdas Pophale) SiO2 
 PCOD9012683
Probable space group: P -1
;
_chemical_formula_sum "Si O2"
_cell_formula_units_Z 12
_cell_length_a 8.464995
_cell_length_b 11.454193
_cell_length_c 12.824208
_cell_angle_alpha 140.399932
_cell_angle_beta 112.632302
_cell_angle_gamma 42.720777
_cell_volume 488.204236
_symmetry_space_group_name_H-M "P -1"
_symmetry_group_IT_number 2
_symmetry_cell_setting 'triclinic'
loop_
_space_group_symop_operation_xyz
x,y,z
-x,-y,-z
loop_
_atom_site_type_symbol
_atom_site_label
_atom_site_fract_x
_atom_site_fract_y
_atom_site_fract_z
Si Si1 0.824254 0.807655 0.211081
Si Si2 0.031902 0.442747 0.346431
Si Si3 0.261195 0.681020 0.169846
Si Si4 0.275144 0.874223 0.973318
Si Si5 0.523878 0.681631 0.678165
Si Si6 0.637327 0.671327 0.228032
O O1 0.676239 0.829154 0.283410
O O2 0.027222 0.813358 0.276498
O O3 0.624914 0.054631 0.250483
O O4 0.000000 0.500000 0.000000
O O5 0.181079 0.490849 0.362801
O O6 0.000000 0.500000 0.500000
O O7 0.781584 0.585232 0.314757
O O8 0.223284 0.120181 0.163329
O O9 0.512225 0.390845 0.084956
O O10 0.349575 0.819767 0.269458
O O11 0.226947 0.596308 0.993747
O O12 0.387082 0.787082 0.826463
O O13 0.000000 0.000000 0.000000
O O14 0.500000 0.500000 0.500000
#
# Coordination Sequence:
#
# PCOD9012683 Si02
#       6
#     2   2   2   2   2   2
#     4  10  21  44  74 107 151 197 250 317 384 453
#     4  12  25  47  74 111 157 201 262 318 382 464
#     4  10  21  40  75 109 146 192 260 307 390 456
#     4  12  23  44  78 108 151 206 258 313 386 462
#     4  12  28  49  75 113 158 203 260 321 385 463
#     4  10  21  41  70 108 144 192 249 312 381 447
#
# _framework density 24.579877
#
# number of rings (size 3 to 8) (size 9 to 14) (size 15 to 20)
#    0.000    1.000    1.667    6.500    2.333    0.000 
#    3.000    6.667    0.000    0.000    0.000    0.000 
#    0.000    0.000    0.000    0.000    0.000    0.000 
#
# Total GULP energy -67168.899637 kJ/mol
# GULP energy per Si atom -5597.408303 kJ/mol
# Density = 2.452393 g / cm^3
# Si number density = 24.579877 Si / 1000 Ang^3
#
#
#
# Elastic Constant Matrix: (Units=GPa)
#
#
# Indices 1 2 3 4 5 6 
#
# 1 255.6329 39.8614 63.2054 -27.3942 3.3578 -15.7852
# 2 39.8614 104.4759 49.4910 -24.1350 -7.4841 5.8989
# 3 63.2054 49.4910 149.5346 -22.5386 -8.8340 4.3281
# 4 -27.3942 -24.1350 -22.5386 36.0155 1.2136 1.6245
# 5 3.3578 -7.4841 -8.8340 1.2136 30.8897 -12.6422
# 6 -15.7852 5.8989 4.3281 1.6245 -12.6422 53.1627
#
#
#
# Elastic Compliance Matrix: (Units=1/GPa)
#
#
# Indices 1 2 3 4 5 6 
#
# 1 0.004720 -0.000717 -0.001516 0.002120 -0.000635 0.001388
# 2 -0.000717 0.012836 -0.002871 0.006259 0.001627 -0.001208
# 3 -0.001516 -0.002871 0.008748 0.002365 0.001665 -0.000520
# 4 0.002120 0.006259 0.002365 0.035111 0.000043 -0.001320
# 5 -0.000635 0.001627 0.001665 0.000043 0.036673 0.008215
# 6 0.001388 -0.001208 -0.000520 -0.001320 0.008215 0.021393
#
#
# Mechanical properties :
#
#
# Convention : Reuss Voigt Hill
#
# Bulk Modulus (GPa) = 62.12470 90.52879 76.32674
# Shear Modulus (GPa) = 37.02256 47.81928 42.42092
#
# Velocity S-wave (km/s) = 3.88521 4.41553 4.15883
# Velocity P-wave (km/s) = 6.74210 7.93135 7.36078
#
# Compressibility (1/GPa) = 0.01609666
#
# Stress axis : x y z
#
# Youngs Moduli (GPa) = 211.87888 77.90787 114.30941
#
# Poissons Ratio (x) = 0.05585 0.17328
# Poissons Ratio (y) = 0.15189 0.32814
# Poissons Ratio (z) = 0.32118 0.22365
#
# Static dielectric constant tensor:
#      x y z
#    x 2.117300 -0.129070 0.026590 
#    y -0.129070 1.991490 -0.020970 
#    z 0.026590 -0.020970 1.913690 
# 
# From -- ./inp_files/388632.got.cif
#   From: 2010.05.17/outbox.cif.g08.bks.cpg/sg2_195_cif.got.tgz:388632.got - 2010.06.03 11:33:40.
