data_PCOD9012695
_publ_section_title
;
Structure prediction by ZEFSAII (Michael W. Deem and Ramdas Pophale) SiO2 
 PCOD9012695
Probable space group: P -1
;
_chemical_formula_sum "Si O2"
_cell_formula_units_Z 14
_cell_length_a 10.167719
_cell_length_b 13.827885
_cell_length_c 18.065655
_cell_angle_alpha 157.308361
_cell_angle_beta 146.859937
_cell_angle_gamma 43.460275
_cell_volume 522.394840
_symmetry_space_group_name_H-M "P -1"
_symmetry_group_IT_number 2
_symmetry_cell_setting 'triclinic'
loop_
_space_group_symop_operation_xyz
x,y,z
-x,-y,-z
loop_
_atom_site_type_symbol
_atom_site_label
_atom_site_fract_x
_atom_site_fract_y
_atom_site_fract_z
Si Si1 0.354829 0.762205 0.310968
Si Si2 0.029680 0.965021 0.622170
Si Si3 0.232774 0.808317 0.747605
Si Si4 0.949773 0.453024 0.121670
Si Si5 0.423241 0.679315 0.886512
Si Si6 0.778301 0.101108 0.928132
Si Si7 0.500424 0.433613 0.540672
O O1 0.529515 0.592904 0.309364
O O2 0.500000 0.000000 0.500000
O O3 0.208512 0.572804 0.045085
O O4 0.171593 0.860844 0.350409
O O5 0.035895 0.888667 0.658467
O O6 0.970302 0.719250 0.365710
O O7 0.310971 0.121256 0.851961
O O8 0.222546 0.769191 0.802514
O O9 0.284570 0.550875 0.554736
O O10 0.500000 0.000000 0.000000
O O11 0.223534 0.434645 0.213451
O O12 0.844898 0.214988 0.959078
O O13 0.308220 0.673058 0.908461
O O14 0.554424 0.859309 0.666931
O O15 0.000000 0.000000 0.000000
O O16 0.500000 0.500000 0.500000
#
# Coordination Sequence:
#
# PCOD9012695 Si02
#       7
#     2   2   2   2   2   2   2
#     4  12  30  50  72 108 156 203 255 312 372 456
#     4  11  23  48  79 108 148 199 253 313 379 446
#     4  10  21  40  77 107 143 188 249 314 368 442
#     4  12  26  48  76 108 155 196 255 313 372 449
#     4  11  25  48  72 110 152 199 254 301 383 453
#     4  12  25  41  75 115 144 193 247 306 381 439
#     4  12  21  44  71 110 151 189 243 312 377 444
#
# _framework density 26.799651000000001
#
# number of rings (size 3 to 8) (size 9 to 14) (size 15 to 20)
#    0.000    0.571    4.286    3.857    4.000    2.857 
#    0.000    2.143    0.000    0.000    0.000    0.000 
#    0.000    0.000    0.000    0.000    0.000    0.000 
#
# Total GULP energy -78472.131982 kJ/mol
# GULP energy per Si atom -5605.152284 kJ/mol
# Density = 2.673865 g / cm^3
# Si number density = 26.799651 Si / 1000 Ang^3
#
#
#
# Elastic Constant Matrix: (Units=GPa)
#
#
# Indices 1 2 3 4 5 6 
#
# 1 94.7811 20.0548 31.2352 3.9057 10.7737 -15.5410
# 2 20.0548 111.3558 15.0464 3.0714 -7.2869 -1.8198
# 3 31.2352 15.0464 123.7279 13.5935 4.4608 6.5363
# 4 3.9057 3.0714 13.5935 40.0021 0.3575 -5.8140
# 5 10.7737 -7.2869 4.4608 0.3575 47.2532 10.3373
# 6 -15.5410 -1.8198 6.5363 -5.8140 10.3373 43.0829
#
#
#
# Elastic Compliance Matrix: (Units=1/GPa)
#
#
# Indices 1 2 3 4 5 6 
#
# 1 0.013743 -0.002224 -0.003496 0.001023 -0.004606 0.006637
# 2 -0.002224 0.009605 -0.000588 -0.000473 0.002246 -0.000910
# 3 -0.003496 -0.000588 0.009560 -0.003350 0.000556 -0.003322
# 4 0.001023 -0.000473 -0.003350 0.026777 -0.001235 0.004767
# 5 -0.004606 0.002246 0.000556 -0.001235 0.024183 -0.007620
# 6 0.006637 -0.000910 -0.003322 0.004767 -0.007620 0.028542
#
#
# Mechanical properties :
#
#
# Convention : Reuss Voigt Hill
#
# Bulk Modulus (GPa) = 49.27748 51.39307 50.33527
# Shear Modulus (GPa) = 37.93919 43.63621 40.78770
#
# Velocity S-wave (km/s) = 3.76661 4.03952 3.90545
# Velocity P-wave (km/s) = 6.11095 6.40120 6.25776
#
# Compressibility (1/GPa) = 0.02029325
#
# Stress axis : x y z
#
# Youngs Moduli (GPa) = 72.76481 104.10911 104.60553
#
# Poissons Ratio (x) = 0.23152 0.36569
# Poissons Ratio (y) = 0.16182 0.06147
# Poissons Ratio (z) = 0.25438 0.06118
#
# Static dielectric constant tensor:
#      x y z
#    x 2.035430 0.017820 -0.051850 
#    y 0.017820 2.116430 0.027310 
#    z -0.051850 0.027310 2.235390 
# 
# From -- ./inp_files/183787.got.cif
#   From: 2010.05.17/outbox.cif.g08.bks.cpg/sg2_92_cif.got.tgz:183787.got - 2010.06.03 11:33:40.
