data_PCOD9012343
_publ_section_title
;
Structure prediction by ZEFSAII (Michael W. Deem and Ramdas Pophale) SiO2 
 PCOD9012343
Probable space group: P -1
;
_chemical_formula_sum "Si O2"
_cell_formula_units_Z 16
_cell_length_a 17.570739
_cell_length_b 8.165339
_cell_length_c 17.323154
_cell_angle_alpha 125.005251
_cell_angle_beta 157.418100
_cell_angle_gamma 57.340972
_cell_volume 781.348949
_symmetry_space_group_name_H-M "P -1"
_symmetry_group_IT_number 2
_symmetry_cell_setting 'triclinic'
loop_
_space_group_symop_operation_xyz
x,y,z
-x,-y,-z
loop_
_atom_site_type_symbol
_atom_site_label
_atom_site_fract_x
_atom_site_fract_y
_atom_site_fract_z
Si Si1 0.172897 0.497222 0.225014
Si Si2 0.183163 0.566058 0.429366
Si Si3 0.879941 0.983594 0.464614
Si Si4 0.457268 0.749596 0.309752
Si Si5 0.793052 0.436788 0.099216
Si Si6 0.846026 0.325213 0.290158
Si Si7 0.463101 0.803764 0.509045
Si Si8 0.542314 0.782936 0.016824
O O1 0.107740 0.528079 0.260977
O O2 0.317050 0.679211 0.390709
O O3 0.316110 0.297148 0.301392
O O4 0.000000 0.500000 0.000000
O O5 0.202344 0.800361 0.527704
O O6 0.380335 0.430952 0.588962
O O7 0.018283 0.492052 0.313435
O O8 0.701862 0.831412 0.245540
O O9 0.000000 0.000000 0.500000
O O10 0.034300 0.883760 0.641545
O O11 0.401553 0.773492 0.353845
O O12 0.541961 0.960111 0.418549
O O13 0.277873 0.701106 0.073012
O O14 0.769467 0.346676 0.137395
O O15 0.657669 0.638948 0.026558
O O16 0.000000 0.500000 0.500000
O O17 0.655381 0.317557 0.165425
O O18 0.500000 0.000000 0.000000
#
# Coordination Sequence:
#
# PCOD9012343 Si02
#       8
#     2   2   2   2   2   2   2   2
#     4  10  21  40  69  95 133 164 216 265 329 399
#     4  11  24  41  64  98 128 179 215 275 325 393
#     4  12  23  44  65  92 135 171 224 272 327 398
#     4  10  23  41  66  91 133 167 216 271 328 392
#     4  12  25  39  63  96 128 165 229 266 326 397
#     4  12  26  42  63  92 130 173 220 278 332 386
#     4   9  21  43  64  96 128 171 206 270 337 387
#     4  12  24  42  68  88 124 183 218 273 332 383
#
# _framework density 20.477405999999998
#
# number of rings (size 3 to 8) (size 9 to 14) (size 15 to 20)
#    0.000    1.000    3.750    1.875    1.750    4.000 
#    0.000    5.000    0.000    0.000    0.000    0.000 
#    0.000    0.000    0.000    0.000    0.000    0.000 
#
# Total GULP energy -89426.773274 kJ/mol
# GULP energy per Si atom -5589.173330 kJ/mol
# Density = 2.043080 g / cm^3
# Si number density = 20.477406 Si / 1000 Ang^3
#
#
#
# Elastic Constant Matrix: (Units=GPa)
#
#
# Indices 1 2 3 4 5 6 
#
# 1 47.6013 5.6307 3.5385 2.4969 3.9488 8.9832
# 2 5.6307 108.5107 5.8419 3.0183 -9.0844 0.1476
# 3 3.5385 5.8419 70.1546 11.0408 -10.9251 -4.7826
# 4 2.4969 3.0183 11.0408 26.6183 7.6749 -5.9302
# 5 3.9488 -9.0844 -10.9251 7.6749 40.0359 -2.2392
# 6 8.9832 0.1476 -4.7826 -5.9302 -2.2392 26.5989
#
#
#
# Elastic Compliance Matrix: (Units=1/GPa)
#
#
# Indices 1 2 3 4 5 6 
#
# 1 0.023382 -0.001300 -0.001795 -0.002406 -0.003134 -0.009012
# 2 -0.001300 0.009550 -0.000049 -0.001641 0.002609 0.000231
# 3 -0.001795 -0.000049 0.016790 -0.008121 0.006436 0.002357
# 4 -0.002406 -0.001641 -0.008121 0.046411 -0.010756 0.008803
# 5 -0.003134 0.002609 0.006436 -0.010756 0.029826 0.002314
# 6 -0.009012 0.000231 0.002357 0.008803 0.002314 0.043219
#
#
# Mechanical properties :
#
#
# Convention : Reuss Voigt Hill
#
# Bulk Modulus (GPa) = 23.02381 28.47653 25.75017
# Shear Modulus (GPa) = 26.32357 32.73429 29.52893
#
# Velocity S-wave (km/s) = 3.58927 4.00253 3.80152
# Velocity P-wave (km/s) = 5.33339 5.94112 5.64544
#
# Compressibility (1/GPa) = 0.04343330
#
# Stress axis : x y z
#
# Youngs Moduli (GPa) = 42.76793 104.71684 59.55969
#
# Poissons Ratio (x) = 0.13612 0.10691
# Poissons Ratio (y) = 0.05559 0.00293
# Poissons Ratio (z) = 0.07677 0.00516
#
# Static dielectric constant tensor:
#      x y z
#    x 1.716910 0.018210 -0.015360 
#    y 0.018210 1.734460 -0.012440 
#    z -0.015360 -0.012440 1.754420 
# 
# From -- ./inp_files/358212.got.cif
#   From: 2010.05.17/outbox.cif.g08.bks.cpg/sg2_180_cif.got.tgz:358212.got - 2010.06.03 11:33:40.
