data_PCOD9012255
_publ_section_title
;
Structure prediction by ZEFSAII (Michael W. Deem and Ramdas Pophale) SiO2 
 PCOD9012255
Probable space group: P -1
;
_chemical_formula_sum "Si O2"
_cell_formula_units_Z 16
_cell_length_a 15.583407
_cell_length_b 9.095792
_cell_length_c 8.551666
_cell_angle_alpha 104.335347
_cell_angle_beta 65.024101
_cell_angle_gamma 140.899187
_cell_volume 686.161016
_symmetry_space_group_name_H-M "P -1"
_symmetry_group_IT_number 2
_symmetry_cell_setting 'triclinic'
loop_
_space_group_symop_operation_xyz
x,y,z
-x,-y,-z
loop_
_atom_site_type_symbol
_atom_site_label
_atom_site_fract_x
_atom_site_fract_y
_atom_site_fract_z
Si Si1 0.380174 0.402972 0.444689
Si Si2 0.120964 0.454248 0.978612
Si Si3 0.462172 0.291046 0.892551
Si Si4 0.076472 0.147481 0.711871
Si Si5 0.201011 0.819715 0.798591
Si Si6 0.259561 0.932575 0.418429
Si Si7 0.323420 0.706103 0.188845
Si Si8 0.967921 0.721622 0.528826
O O1 0.500000 0.500000 0.500000
O O2 0.452927 0.588238 0.303944
O O3 0.248682 0.332320 0.604079
O O4 0.315236 0.163299 0.375398
O O5 0.064039 0.223474 0.899445
O O6 0.195784 0.644511 0.831231
O O7 0.237045 0.586213 0.061885
O O8 0.971287 0.351146 0.121545
O O9 0.543203 0.247429 0.897634
O O10 0.295596 0.041495 0.904835
O O11 0.500000 0.500000 0.000000
O O12 0.018266 0.180122 0.623210
O O13 0.006371 0.896842 0.675659
O O14 0.263590 0.917502 0.600253
O O15 0.353811 0.918697 0.258857
O O16 0.087620 0.735415 0.451567
O O17 0.199296 0.524026 0.370620
#
# Coordination Sequence:
#
# PCOD9012255 Si02
#       8
#     2   2   2   2   2   2   2   2
#     4  11  24  46  71 102 133 191 232 288 352 421
#     4  11  27  43  72 104 146 184 238 293 351 408
#     4  12  30  48  72 105 148 182 236 292 360 423
#     4  10  23  41  70 101 141 180 240 287 347 417
#     4  11  26  47  68 105 144 192 228 296 354 409
#     4  11  24  44  74 100 144 181 244 286 345 428
#     4  12  26  44  70 106 138 191 232 289 356 412
#     4  10  21  40  69 103 132 183 235 290 340 411
#
# _framework density 23.318141000000001
#
# number of rings (size 3 to 8) (size 9 to 14) (size 15 to 20)
#    0.000    1.000    3.750    1.125    8.750    2.500 
#    0.000    0.000    0.000    0.000    0.000    0.000 
#    0.000    0.000    0.000    0.000    0.000    0.000 
#
# Total GULP energy -89448.562418 kJ/mol
# GULP energy per Si atom -5590.535151 kJ/mol
# Density = 2.326507 g / cm^3
# Si number density = 23.318141 Si / 1000 Ang^3
#
#
#
# Elastic Constant Matrix: (Units=GPa)
#
#
# Indices 1 2 3 4 5 6 
#
# 1 147.9216 19.3468 31.0402 16.2445 6.8158 11.1403
# 2 19.3468 67.4469 3.2321 0.7580 1.6687 2.6893
# 3 31.0402 3.2321 49.4124 12.0984 8.1815 -3.6940
# 4 16.2445 0.7580 12.0984 44.3311 -6.2570 2.1497
# 5 6.8158 1.6687 8.1815 -6.2570 24.8426 6.1888
# 6 11.1403 2.6893 -3.6940 2.1497 6.1888 35.6081
#
#
#
# Elastic Compliance Matrix: (Units=1/GPa)
#
#
# Indices 1 2 3 4 5 6 
#
# 1 0.008476 -0.002055 -0.004972 -0.001609 -0.000239 -0.002874
# 2 -0.002055 0.015428 0.000197 0.000414 -0.000316 -0.000472
# 3 -0.004972 0.000197 0.027619 -0.007657 -0.011379 0.006846
# 4 -0.001609 0.000414 -0.007657 0.026919 0.010662 -0.003801
# 5 -0.000239 -0.000316 -0.011379 0.010662 0.049339 -0.010301
# 6 -0.002874 -0.000472 0.006846 -0.003801 -0.010301 0.031748
#
#
# Mechanical properties :
#
#
# Convention : Reuss Voigt Hill
#
# Bulk Modulus (GPa) = 26.40938 41.33547 33.87242
# Shear Modulus (GPa) = 26.90924 35.03380 30.97152
#
# Velocity S-wave (km/s) = 3.40075 3.88032 3.64842
# Velocity P-wave (km/s) = 5.17401 6.15151 5.68381
#
# Compressibility (1/GPa) = 0.03786534
#
# Stress axis : x y z
#
# Youngs Moduli (GPa) = 117.97377 64.81565 36.20731
#
# Poissons Ratio (x) = 0.13317 0.18001
# Poissons Ratio (y) = 0.24239 -0.00714
# Poissons Ratio (z) = 0.58654 -0.01278
#
# Static dielectric constant tensor:
#      x y z
#    x 1.836230 -0.061990 0.024690 
#    y -0.061990 2.082520 -0.017390 
#    z 0.024690 -0.017390 1.867280 
# 
# From -- ./inp_files/298800.got.cif
#   From: 2010.05.17/outbox.cif.g08.bks.cpg/sg2_150_cif.got.tgz:298800.got - 2010.06.03 11:33:40.
