data_PCOD9012783
_publ_section_title
;
Structure prediction by ZEFSAII (Michael W. Deem and Ramdas Pophale) SiO2 
 PCOD9012783
Probable space group: P -1
;
_chemical_formula_sum "Si O2"
_cell_formula_units_Z 14
_cell_length_a 10.843117
_cell_length_b 8.473499
_cell_length_c 8.108399
_cell_angle_alpha 52.463125
_cell_angle_beta 61.043687
_cell_angle_gamma 77.929724
_cell_volume 512.926906
_symmetry_space_group_name_H-M "P -1"
_symmetry_group_IT_number 2
_symmetry_cell_setting 'triclinic'
loop_
_space_group_symop_operation_xyz
x,y,z
-x,-y,-z
loop_
_atom_site_type_symbol
_atom_site_label
_atom_site_fract_x
_atom_site_fract_y
_atom_site_fract_z
Si Si1 0.261360 0.546145 0.696333
Si Si2 0.712596 0.880287 0.557165
Si Si3 0.445704 0.240187 0.734081
Si Si4 0.980507 0.725898 0.321312
Si Si5 0.806650 0.293854 0.047710
Si Si6 0.134099 0.911276 0.391438
Si Si7 0.557518 0.227236 0.032542
O O1 0.301239 0.337018 0.736223
O O2 0.421214 0.666156 0.520983
O O3 0.193471 0.530981 0.930643
O O4 0.167730 0.689549 0.565977
O O5 0.556404 0.765623 0.750819
O O6 0.829993 0.767454 0.463961
O O7 0.732774 0.092258 0.313057
O O8 0.743223 0.942529 0.691264
O O9 0.422904 0.005287 0.864960
O O10 0.503934 0.292781 0.848553
O O11 0.094802 0.882983 0.245609
O O12 0.000000 0.500000 0.500000
O O13 0.036707 0.741955 0.087964
O O14 0.705961 0.334319 0.935501
O O15 0.000000 0.000000 0.500000
#
# Coordination Sequence:
#
# PCOD9012783 Si02
#       7
#     2   2   2   2   2   2   2
#     4  10  21  41  60  97 130 164 208 269 312 376
#     4  10  22  43  64  92 129 165 212 258 316 391
#     4  10  22  37  63  90 134 161 213 254 322 373
#     4  11  25  42  62  92 127 167 213 265 321 374
#     4  11  23  40  65  93 129 165 211 261 323 373
#     4   9  19  41  67  83 122 173 206 250 313 381
#     4  11  22  40  66  99 123 172 209 262 319 386
#
# _framework density 27.294340999999999
#
# number of rings (size 3 to 8) (size 9 to 14) (size 15 to 20)
#    0.000    1.714    2.857    1.714    4.000    1.714 
#    2.571    2.857    0.000    0.000    0.000    0.000 
#    0.000    0.000    0.000    0.000    0.000    0.000 
#
# Total GULP energy -78350.702780 kJ/mol
# GULP energy per Si atom -5596.478770 kJ/mol
# Density = 2.723222 g / cm^3
# Si number density = 27.294341 Si / 1000 Ang^3
#
#
#
# Elastic Constant Matrix: (Units=GPa)
#
#
# Indices 1 2 3 4 5 6 
#
# 1 86.4466 56.0532 24.9643 12.5356 -11.5988 -17.6435
# 2 56.0532 139.6400 52.9679 33.9164 1.5200 -51.7832
# 3 24.9643 52.9679 113.1260 31.2309 -20.0329 -14.0355
# 4 12.5356 33.9164 31.2309 56.9061 -12.2371 -5.8659
# 5 -11.5988 1.5200 -20.0329 -12.2371 29.9639 7.9138
# 6 -17.6435 -51.7832 -14.0355 -5.8659 7.9138 54.8232
#
#
#
# Elastic Compliance Matrix: (Units=1/GPa)
#
#
# Indices 1 2 3 4 5 6 
#
# 1 0.018012 -0.010632 0.001390 0.003490 0.011223 -0.005137
# 2 -0.010632 0.023793 -0.007039 -0.010147 -0.019173 0.018932
# 3 0.001390 -0.007039 0.013626 -0.001800 0.010435 -0.004412
# 4 0.003490 -0.010147 -0.001800 0.025881 0.013366 -0.008082
# 5 0.011223 -0.019173 0.010435 0.013366 0.056007 -0.018480
# 6 -0.005137 0.018932 -0.004412 -0.008082 -0.018480 0.035143
#
#
# Mechanical properties :
#
#
# Convention : Reuss Voigt Hill
#
# Bulk Modulus (GPa) = 43.72842 67.46482 55.59662
# Shear Modulus (GPa) = 23.51328 42.02045 32.76686
#
# Velocity S-wave (km/s) = 2.93827 3.92794 3.46858
# Velocity P-wave (km/s) = 5.25043 6.73371 6.03779
#
# Compressibility (1/GPa) = 0.02286842
#
# Stress axis : x y z
#
# Youngs Moduli (GPa) = 55.51937 42.02953 73.38750
#
# Poissons Ratio (x) = 0.44686 -0.10200
# Poissons Ratio (y) = 0.59028 0.51658
# Poissons Ratio (z) = -0.07717 0.29585
#
# Static dielectric constant tensor:
#      x y z
#    x 2.182080 0.007870 0.050760 
#    y 0.007870 2.113170 -0.015040 
#    z 0.050760 -0.015040 2.125780 
# 
# From -- ./inp_files/156745.got.cif
#   From: 2010.05.17/outbox.cif.g08.bks.cpg/sg2_79_cif.got.tgz:156745.got - 2010.06.03 11:33:40.
