data_PCOD9012229
_publ_section_title
;
Structure prediction by ZEFSAII (Michael W. Deem and Ramdas Pophale) SiO2 
 PCOD9012229
Probable space group: P -1
;
_chemical_formula_sum "Si O2"
_cell_formula_units_Z 12
_cell_length_a 5.415176
_cell_length_b 7.889911
_cell_length_c 17.905971
_cell_angle_alpha 48.452071
_cell_angle_beta 67.831054
_cell_angle_gamma 56.750474
_cell_volume 478.707640
_symmetry_space_group_name_H-M "P -1"
_symmetry_group_IT_number 2
_symmetry_cell_setting 'triclinic'
loop_
_space_group_symop_operation_xyz
x,y,z
-x,-y,-z
loop_
_atom_site_type_symbol
_atom_site_label
_atom_site_fract_x
_atom_site_fract_y
_atom_site_fract_z
Si Si1 0.658757 0.075065 0.027327
Si Si2 0.251110 0.124247 0.613120
Si Si3 0.395280 0.536161 0.416969
Si Si4 0.476656 0.550808 0.732414
Si Si5 0.151014 0.136218 0.783507
Si Si6 0.787288 0.414805 0.095017
O O1 0.643907 0.935556 0.145629
O O2 0.523838 0.375170 0.959144
O O3 0.500000 0.000000 0.000000
O O4 0.000000 0.000000 0.000000
O O5 0.295291 0.304916 0.494823
O O6 0.297737 0.179627 0.678490
O O7 0.899772 0.205699 0.629719
O O8 0.442730 0.834214 0.660770
O O9 0.500000 0.500000 0.500000
O O10 0.589189 0.489715 0.334031
O O11 0.248098 0.545419 0.822884
O O12 0.817340 0.352592 0.767365
O O13 0.135064 0.871037 0.847203
O O14 0.000000 0.500000 0.000000
#
# Coordination Sequence:
#
# PCOD9012229 Si02
#       6
#     2   2   2   2   2   2
#     4  12  25  45  73 104 143 195 247 307 370 432
#     4   9  21  42  66  96 135 180 227 291 358 434
#     4  10  21  40  69 101 134 176 229 292 360 432
#     4  10  21  42  69  96 146 180 238 290 362 433
#     4  10  22  44  67  97 141 186 243 295 364 434
#     4  11  24  43  72 101 142 195 245 301 359 426
#
# _framework density 25.067489999999999
#
# number of rings (size 3 to 8) (size 9 to 14) (size 15 to 20)
#    0.000    1.667    1.667    2.000    0.000    2.000 
#    6.000    0.000    0.000    0.000    0.000    0.000 
#    0.000    0.000    0.000    0.000    0.000    0.000 
#
# Total GULP energy -67074.620859 kJ/mol
# GULP energy per Si atom -5589.551738 kJ/mol
# Density = 2.501044 g / cm^3
# Si number density = 25.067490 Si / 1000 Ang^3
#
#
#
# Elastic Constant Matrix: (Units=GPa)
#
#
# Indices 1 2 3 4 5 6 
#
# 1 63.2983 38.8120 29.9602 16.5359 28.4604 3.2067
# 2 38.8120 191.1509 73.7385 -8.4517 19.1070 -0.0640
# 3 29.9602 73.7385 183.4926 22.5705 10.3448 0.7603
# 4 16.5359 -8.4517 22.5705 77.3950 4.5974 11.4015
# 5 28.4604 19.1070 10.3448 4.5974 59.4055 11.1391
# 6 3.2067 -0.0640 0.7603 11.4015 11.1391 37.3133
#
#
#
# Elastic Compliance Matrix: (Units=1/GPa)
#
#
# Indices 1 2 3 4 5 6 
#
# 1 0.024542 -0.003638 -0.001351 -0.005003 -0.010445 0.002559
# 2 -0.003638 0.007068 -0.002520 0.002337 -0.000221 -0.000272
# 3 -0.001351 -0.002520 0.006921 -0.002100 0.000318 0.000517
# 4 -0.005003 0.002337 -0.002100 0.015457 0.001707 -0.004756
# 5 -0.010445 -0.000221 0.000318 0.001707 0.022936 -0.006478
# 6 0.002559 -0.000272 0.000517 -0.004756 -0.006478 0.029956
#
#
# Mechanical properties :
#
#
# Convention : Reuss Voigt Hill
#
# Bulk Modulus (GPa) = 42.53132 80.32924 61.43028
# Shear Modulus (GPa) = 38.53951 54.51816 46.52884
#
# Velocity S-wave (km/s) = 3.92526 4.66859 4.31297
# Velocity P-wave (km/s) = 6.12757 7.82149 7.02577
#
# Compressibility (1/GPa) = 0.02351209
#
# Stress axis : x y z
#
# Youngs Moduli (GPa) = 40.74579 141.48884 144.47864
#
# Poissons Ratio (x) = 0.51476 0.19526
# Poissons Ratio (y) = 0.14824 0.36410
# Poissons Ratio (z) = 0.05507 0.35657
#
# Static dielectric constant tensor:
#      x y z
#    x 2.303980 -0.131040 -0.082120 
#    y -0.131040 2.326920 0.096560 
#    z -0.082120 0.096560 2.092230 
# 
# From -- ./inp_files/5900.got.cif
#   From: 2010.05.17/outbox.cif.g08.bks.cpg/sg2_3_cif.got.tgz:5900.got - 2010.06.03 11:33:40.
