data_PCOD9012016
_publ_section_title
;
Structure prediction by ZEFSAII (Michael W. Deem and Ramdas Pophale) SiO2 
 PCOD9012016
Probable space group: P -1
;
_chemical_formula_sum "Si O2"
_cell_formula_units_Z 16
_cell_length_a 14.747722
_cell_length_b 9.212853
_cell_length_c 24.721569
_cell_angle_alpha 29.862329
_cell_angle_beta 149.474803
_cell_angle_gamma 129.455572
_cell_volume 762.362939
_symmetry_space_group_name_H-M "P -1"
_symmetry_group_IT_number 2
_symmetry_cell_setting 'triclinic'
loop_
_space_group_symop_operation_xyz
x,y,z
-x,-y,-z
loop_
_atom_site_type_symbol
_atom_site_label
_atom_site_fract_x
_atom_site_fract_y
_atom_site_fract_z
Si Si1 0.976247 0.154163 0.497534
Si Si2 0.563166 0.104932 0.940918
Si Si3 0.403161 0.830567 0.650819
Si Si4 0.569129 0.770647 0.370719
Si Si5 0.020734 0.731681 0.292533
Si Si6 0.379083 0.301864 0.403099
Si Si7 0.620477 0.121465 0.175607
Si Si8 0.168685 0.250002 0.209062
O O1 0.013641 0.471859 0.414659
O O2 0.762778 0.227045 0.383817
O O3 0.156333 0.916632 0.702439
O O4 0.000000 0.000000 0.500000
O O5 0.532730 0.476667 0.807162
O O6 0.431935 0.037357 0.850901
O O7 0.500000 0.000000 0.000000
O O8 0.790411 0.900862 0.102953
O O9 0.499224 0.976226 0.697133
O O10 0.295077 0.127955 0.458108
O O11 0.799816 0.485196 0.586524
O O12 0.425089 0.597849 0.347968
O O13 0.581875 0.951385 0.264157
O O14 0.078593 0.000850 0.259663
O O15 0.234252 0.400675 0.244807
O O16 0.606045 0.002175 0.612675
O O17 0.500000 0.500000 0.000000
O O18 0.000000 0.500000 0.000000
#
# Coordination Sequence:
#
# PCOD9012016 Si02
#       8
#     2   2   2   2   2   2   2   2
#     4  11  21  42  66  94 129 175 215 259 334 406
#     4  12  25  38  64 103 137 164 218 287 331 384
#     4  12  23  40  70  98 138 166 221 286 333 390
#     4  10  23  45  69  89 131 183 223 266 332 412
#     4  10  21  40  68  89 128 173 220 253 341 397
#     4  10  24  41  67  98 131 179 228 274 339 393
#     4  11  24  40  68  94 129 178 223 261 335 407
#     4  10  22  42  67  96 134 176 224 277 334 403
#
# _framework density 20.987380999999999
#
# number of rings (size 3 to 8) (size 9 to 14) (size 15 to 20)
#    0.000    1.250    3.750    2.625    8.750    1.500 
#    0.000    1.250    0.000    5.250    0.000    0.000 
#    0.000    0.000    0.000    0.000    0.000    0.000 
#
# Total GULP energy -89083.383679 kJ/mol
# GULP energy per Si atom -5567.711480 kJ/mol
# Density = 2.093961 g / cm^3
# Si number density = 20.987381 Si / 1000 Ang^3
#
#
#
# Elastic Constant Matrix: (Units=GPa)
#
#
# Indices 1 2 3 4 5 6 
#
# 1 27.8914 18.8526 13.4485 -2.6487 -12.6706 -4.7180
# 2 18.8526 151.1457 54.9045 -6.2575 -14.3704 -7.6413
# 3 13.4485 54.9045 95.5698 0.1172 -6.2488 -13.5074
# 4 -2.6487 -6.2575 0.1172 39.5116 3.6697 -8.2656
# 5 -12.6706 -14.3704 -6.2488 3.6697 24.6812 1.9691
# 6 -4.7180 -7.6413 -13.5074 -8.2656 1.9691 39.1787
#
#
#
# Elastic Compliance Matrix: (Units=1/GPa)
#
#
# Indices 1 2 3 4 5 6 
#
# 1 0.050537 -0.002546 -0.003650 0.001591 0.023021 0.003510
# 2 -0.002546 0.008881 -0.004588 0.000996 0.002560 -0.000075
# 3 -0.003650 -0.004588 0.014031 -0.000158 -0.001251 0.003533
# 4 0.001591 0.000996 -0.000158 0.027171 -0.003179 0.006224
# 5 0.023021 0.002560 -0.001251 -0.003179 0.054025 -0.000546
# 6 0.003510 -0.000075 0.003533 0.006224 -0.000546 0.028490
#
#
# Mechanical properties :
#
#
# Convention : Reuss Voigt Hill
#
# Bulk Modulus (GPa) = 19.27473 49.89090 34.58282
# Shear Modulus (GPa) = 22.52279 33.16772 27.84526
#
# Velocity S-wave (km/s) = 3.27946 3.97969 3.64643
# Velocity P-wave (km/s) = 4.85219 6.70379 5.85169
#
# Compressibility (1/GPa) = 0.05188139
#
# Stress axis : x y z
#
# Youngs Moduli (GPa) = 19.78757 112.59591 71.27157
#
# Poissons Ratio (x) = 0.28663 0.26012
# Poissons Ratio (y) = 0.05037 0.32703
# Poissons Ratio (z) = 0.07222 0.51664
#
# Static dielectric constant tensor:
#      x y z
#    x 1.831000 0.061220 -0.116840 
#    y 0.061220 1.698290 0.051850 
#    z -0.116840 0.051850 2.036960 
# 
# From -- ./inp_files/501179.got.cif
#   From: 2010.05.17/outbox.cif.g08.bks.cpg/sg2_251_cif.got.tgz:501179.got - 2010.06.03 11:33:40.
