data_PCOD9012050
_publ_section_title
;
Structure prediction by ZEFSAII (Michael W. Deem and Ramdas Pophale) SiO2 
 PCOD9012050
Probable space group: P -1
;
_chemical_formula_sum "Si O2"
_cell_formula_units_Z 16
_cell_length_a 9.311362
_cell_length_b 11.853861
_cell_length_c 12.909061
_cell_angle_alpha 74.520220
_cell_angle_beta 33.256254
_cell_angle_gamma 71.641740
_cell_volume 741.579155
_symmetry_space_group_name_H-M "P -1"
_symmetry_group_IT_number 2
_symmetry_cell_setting 'triclinic'
loop_
_space_group_symop_operation_xyz
x,y,z
-x,-y,-z
loop_
_atom_site_type_symbol
_atom_site_label
_atom_site_fract_x
_atom_site_fract_y
_atom_site_fract_z
Si Si1 0.867049 0.922187 0.018574
Si Si2 0.755243 0.107748 0.636800
Si Si3 0.623193 0.367688 0.590638
Si Si4 0.287088 0.510571 0.281928
Si Si5 0.983558 0.571635 0.824237
Si Si6 0.017229 0.348090 0.961857
Si Si7 0.282444 0.927589 0.103799
Si Si8 0.507870 0.319831 0.035947
O O1 0.540497 0.922373 0.209319
O O2 0.003976 0.788399 0.994151
O O3 0.920241 0.974486 0.860172
O O4 0.000000 0.000000 0.000000
O O5 0.778603 0.231903 0.538282
O O6 0.783093 0.133961 0.736004
O O7 0.000000 0.000000 0.500000
O O8 0.596384 0.436475 0.699138
O O9 0.324333 0.353538 0.750645
O O10 0.773392 0.433935 0.399646
O O11 0.296320 0.604828 0.160045
O O12 0.000000 0.500000 0.500000
O O13 0.403410 0.384098 0.189567
O O14 0.885757 0.446682 0.935604
O O15 0.049192 0.612504 0.889388
O O16 0.743976 0.661461 0.895216
O O17 0.381776 0.819681 0.992033
O O18 0.500000 0.000000 0.000000
#
# Coordination Sequence:
#
# PCOD9012050 Si02
#       8
#     2   2   2   2   2   2   2   2
#     4  10  23  43  66  91 133 173 217 270 337 388
#     4  10  22  39  69 100 128 169 231 277 321 398
#     4  11  21  40  62  94 129 162 219 266 329 390
#     4  11  22  36  57  90 130 159 199 268 329 381
#     4  11  21  37  69  88 124 167 216 264 321 389
#     4  10  23  42  60  92 125 172 217 258 318 405
#     4  10  21  40  68  93 125 173 219 269 326 395
#     4  11  22  38  61  96 128 162 212 273 330 383
#
# _framework density 21.575579000000001
#
# number of rings (size 3 to 8) (size 9 to 14) (size 15 to 20)
#    0.000    1.500    3.750    1.875    5.250    2.000 
#    0.000    0.625    0.000    0.000    0.000    0.000 
#    0.000    0.000    0.000    0.000    0.000    0.000 
#
# Total GULP energy -89178.600417 kJ/mol
# GULP energy per Si atom -5573.662526 kJ/mol
# Density = 2.152647 g / cm^3
# Si number density = 21.575579 Si / 1000 Ang^3
#
#
#
# Elastic Constant Matrix: (Units=GPa)
#
#
# Indices 1 2 3 4 5 6 
#
# 1 75.4412 21.5208 23.7014 -10.0275 16.1911 8.0021
# 2 21.5208 153.3756 38.9893 2.6431 15.7949 6.5558
# 3 23.7014 38.9893 108.3249 5.2716 19.3595 6.2227
# 4 -10.0275 2.6431 5.2716 28.9868 -2.4437 4.9876
# 5 16.1911 15.7949 19.3595 -2.4437 27.4406 2.8704
# 6 8.0021 6.5558 6.2227 4.9876 2.8704 32.1477
#
#
#
# Elastic Compliance Matrix: (Units=1/GPa)
#
#
# Indices 1 2 3 4 5 6 
#
# 1 0.017010 -0.001061 -0.002197 0.006486 -0.006882 -0.003984
# 2 -0.001061 0.007441 -0.001969 -0.000786 -0.002281 -0.000547
# 3 -0.002197 -0.001969 0.011674 -0.003166 -0.006059 -0.000279
# 4 0.006486 -0.000786 -0.003166 0.038878 0.003069 -0.007147
# 5 -0.006882 -0.002281 -0.006059 0.003069 0.046497 -0.001277
# 6 -0.003984 -0.000547 -0.000279 -0.007147 -0.001277 0.033487
#
#
# Mechanical properties :
#
#
# Convention : Reuss Voigt Hill
#
# Bulk Modulus (GPa) = 38.95395 56.17387 47.56391
# Shear Modulus (GPa) = 28.73613 34.57704 31.65659
#
# Velocity S-wave (km/s) = 3.65346 4.00759 3.83461
# Velocity P-wave (km/s) = 5.99090 6.89252 6.45746
#
# Compressibility (1/GPa) = 0.02567134
#
# Stress axis : x y z
#
# Youngs Moduli (GPa) = 58.78965 134.38849 85.66206
#
# Poissons Ratio (x) = 0.14260 0.18818
# Poissons Ratio (y) = 0.06238 0.16866
# Poissons Ratio (z) = 0.12915 0.26459
#
# Static dielectric constant tensor:
#      x y z
#    x 1.847880 -0.021440 -0.015610 
#    y -0.021440 1.834240 0.008650 
#    z -0.015610 0.008650 1.812720 
# 
# From -- ./inp_files/389899.got.cif
#   From: 2010.05.17/outbox.cif.g08.bks.cpg/sg2_195_cif.got.tgz:389899.got - 2010.06.03 11:33:40.
