data_PCOD9012443
_publ_section_title
;
Structure prediction by ZEFSAII (Michael W. Deem and Ramdas Pophale) SiO2 
 PCOD9012443
Probable space group: P -1
;
_chemical_formula_sum "Si O2"
_cell_formula_units_Z 14
_cell_length_a 6.001303
_cell_length_b 11.922318
_cell_length_c 17.021535
_cell_angle_alpha 35.970622
_cell_angle_beta 62.252533
_cell_angle_gamma 52.818653
_cell_volume 569.215617
_symmetry_space_group_name_H-M "P -1"
_symmetry_group_IT_number 2
_symmetry_cell_setting 'triclinic'
loop_
_space_group_symop_operation_xyz
x,y,z
-x,-y,-z
loop_
_atom_site_type_symbol
_atom_site_label
_atom_site_fract_x
_atom_site_fract_y
_atom_site_fract_z
Si Si1 0.566088 0.572061 0.346587
Si Si2 0.460301 0.861203 0.700620
Si Si3 0.491818 0.073709 0.735988
Si Si4 0.047809 0.687145 0.926633
Si Si5 0.884505 0.184776 0.826284
Si Si6 0.940187 0.851418 0.533013
Si Si7 0.063166 0.262575 0.905925
O O1 0.556890 0.690763 0.362356
O O2 0.259818 0.656209 0.311737
O O3 0.772592 0.327029 0.445830
O O4 0.712027 0.665973 0.205546
O O5 0.754085 0.759315 0.663740
O O6 0.320857 0.713700 0.839185
O O7 0.494541 0.999862 0.688036
O O8 0.242349 0.014808 0.585457
O O9 0.216394 0.066098 0.821915
O O10 0.777682 0.906615 0.824053
O O11 0.000000 0.500000 0.000000
O O12 0.052738 0.650897 0.039098
O O13 0.842597 0.307255 0.845726
O O14 0.804101 0.992239 0.959685
O O15 0.000000 0.000000 0.500000
#
# Coordination Sequence:
#
# PCOD9012443 Si02
#       7
#     2   2   2   2   2   2   2
#     4  11  24  43  73 105 140 190 239 294 356 424
#     4  11  26  51  73 102 146 187 242 300 360 421
#     4  11  23  45  71 106 142 186 242 294 354 425
#     4  12  27  45  72 109 151 188 233 296 361 430
#     4  10  21  40  70 104 149 181 234 291 355 425
#     4  11  28  51  75 102 141 192 244 300 356 431
#     4  10  22  38  67 107 142 184 229 288 355 428
#
# _framework density 24.595248000000002
#
# number of rings (size 3 to 8) (size 9 to 14) (size 15 to 20)
#    0.000    1.143    2.857    1.286    8.000    6.857 
#    0.000    5.000    0.000    0.000    0.000    0.000 
#    0.000    0.000    0.000    0.000    0.000    0.000 
#
# Total GULP energy -78397.846597 kJ/mol
# GULP energy per Si atom -5599.846185 kJ/mol
# Density = 2.453927 g / cm^3
# Si number density = 24.595248 Si / 1000 Ang^3
#
#
#
# Elastic Constant Matrix: (Units=GPa)
#
#
# Indices 1 2 3 4 5 6 
#
# 1 103.6307 52.9581 31.6844 7.9790 9.9241 13.2570
# 2 52.9581 151.9724 53.2571 13.7095 -7.2565 18.9882
# 3 31.6844 53.2571 65.1632 23.4779 -12.3806 4.4214
# 4 7.9790 13.7095 23.4779 57.4688 -2.2872 2.5659
# 5 9.9241 -7.2565 -12.3806 -2.2872 50.5038 8.4510
# 6 13.2570 18.9882 4.4214 2.5659 8.4510 60.8978
#
#
#
# Elastic Compliance Matrix: (Units=1/GPa)
#
#
# Indices 1 2 3 4 5 6 
#
# 1 0.013137 -0.002984 -0.004922 0.000786 -0.004005 -0.001049
# 2 -0.002984 0.010306 -0.007022 0.000953 0.000757 -0.002199
# 3 -0.004922 -0.007022 0.027775 -0.008773 0.006245 0.000747
# 4 0.000786 0.000953 -0.008773 0.020627 -0.001143 -0.000542
# 5 -0.004005 0.000757 0.006245 -0.001143 0.022663 -0.002914
# 6 -0.001049 -0.002199 0.000747 -0.000542 -0.002914 0.017708
#
#
# Mechanical properties :
#
#
# Convention : Reuss Voigt Hill
#
# Bulk Modulus (GPa) = 46.81282 66.28504 56.54893
# Shear Modulus (GPa) = 33.51388 45.96519 39.73954
#
# Velocity S-wave (km/s) = 3.69537 4.32773 4.02399
# Velocity P-wave (km/s) = 6.10592 7.20979 6.68070
#
# Compressibility (1/GPa) = 0.02136167
#
# Stress axis : x y z
#
# Youngs Moduli (GPa) = 76.12304 97.03264 36.00364
#
# Poissons Ratio (x) = 0.28955 0.17720
# Poissons Ratio (y) = 0.22716 0.25282
# Poissons Ratio (z) = 0.37465 0.68138
#
# Static dielectric constant tensor:
#      x y z
#    x 1.955170 0.000070 -0.006870 
#    y 0.000070 1.935330 -0.003960 
#    z -0.006870 -0.003960 2.015960 
# 
# From -- ./inp_files/117167.got.cif
#   From: 2010.05.17/outbox.cif.g08.bks.cpg/sg2_59_cif.got.tgz:117167.got - 2010.06.03 11:33:40.
