data_PCOD9012025
_publ_section_title
;
Structure prediction by ZEFSAII (Michael W. Deem and Ramdas Pophale) SiO2 
 PCOD9012025
Probable space group: P -1
;
_chemical_formula_sum "Si O2"
_cell_formula_units_Z 15
_cell_length_a 8.239553
_cell_length_b 8.207590
_cell_length_c 11.200065
_cell_angle_alpha 67.805687
_cell_angle_beta 75.884962
_cell_angle_gamma 63.568581
_cell_volume 625.372589
_symmetry_space_group_name_H-M "P -1"
_symmetry_group_IT_number 2
_symmetry_cell_setting 'triclinic'
loop_
_space_group_symop_operation_xyz
x,y,z
-x,-y,-z
loop_
_atom_site_type_symbol
_atom_site_label
_atom_site_fract_x
_atom_site_fract_y
_atom_site_fract_z
Si Si1 0.323236 0.156777 0.860163
Si Si2 0.500000 0.500000 0.000000
Si Si3 0.186336 0.834803 0.553844
Si Si4 0.709848 0.642420 0.571542
Si Si5 0.809596 0.110477 0.931461
Si Si6 0.360285 0.725860 0.308071
Si Si7 0.903652 0.538327 0.329413
Si Si8 0.580087 0.165278 0.268077
O O1 0.472483 0.248226 0.795743
O O2 0.135793 0.333721 0.815641
O O3 0.372681 0.995927 0.794535
O O4 0.289009 0.042791 0.008756
O O5 0.677626 0.310561 0.961708
O O6 0.485401 0.633310 0.847586
O O7 0.323790 0.808199 0.425402
O O8 0.151520 0.640791 0.623811
O O9 0.257378 0.868252 0.659474
O O10 0.000000 0.000000 0.500000
O O11 0.611611 0.493983 0.622212
O O12 0.775333 0.667627 0.421961
O O13 0.585832 0.821257 0.620208
O O14 0.893363 0.537244 0.641126
O O15 0.813918 0.165452 0.776647
O O16 0.000000 0.000000 0.000000
#
# Coordination Sequence:
#
# PCOD9012025 Si02
#       8
#     2   1   2   2   2   2   2   2
#     4  11  25  40  70 102 135 183 234 290 351 425
#     4  10  24  44  72 100 142 182 242 286 354 426
#     4  11  27  43  70 102 143 186 236 294 350 428
#     4  10  21  40  68  90 135 179 221 284 345 415
#     4  11  24  45  75 101 141 191 240 294 355 425
#     4  11  23  44  68  98 141 184 234 286 357 416
#     4  10  23  40  64 102 131 177 233 280 350 418
#     4  11  24  43  69  99 139 185 227 292 356 411
#
# _framework density 23.985702
#
# number of rings (size 3 to 8) (size 9 to 14) (size 15 to 20)
#    0.000    1.333    1.333    2.800   11.200    3.200 
#    0.000    0.000    0.000    4.000    0.000    0.000 
#    0.000    0.000    0.000    0.000    0.000    0.000 
#
# Total GULP energy -83616.923862 kJ/mol
# GULP energy per Si atom -5574.461591 kJ/mol
# Density = 2.393111 g / cm^3
# Si number density = 23.985702 Si / 1000 Ang^3
#
#
#
# Elastic Constant Matrix: (Units=GPa)
#
#
# Indices 1 2 3 4 5 6 
#
# 1 78.1456 11.2264 14.7156 -16.1131 1.0171 -3.9411
# 2 11.2264 80.9179 28.3305 -16.8908 9.3899 -12.3535
# 3 14.7156 28.3305 81.6217 -28.3983 11.1391 -8.3320
# 4 -16.1131 -16.8908 -28.3983 50.0205 -5.3301 7.8428
# 5 1.0171 9.3899 11.1391 -5.3301 34.5088 -8.7445
# 6 -3.9411 -12.3535 -8.3320 7.8428 -8.7445 33.4808
#
#
#
# Elastic Compliance Matrix: (Units=1/GPa)
#
#
# Indices 1 2 3 4 5 6 
#
# 1 0.013867 -0.000841 -0.001014 0.003627 0.000817 0.000434
# 2 -0.000841 0.014932 -0.003788 0.001884 -0.001611 0.003606
# 3 -0.001014 -0.003788 0.016835 0.007604 -0.003184 0.000060
# 4 0.003627 0.001884 0.007604 0.026634 0.000239 -0.003163
# 5 0.000817 -0.001611 -0.003184 0.000239 0.032250 0.007077
# 6 0.000434 0.003606 0.000060 -0.003163 0.007077 0.033853
#
#
# Mechanical properties :
#
#
# Convention : Reuss Voigt Hill
#
# Bulk Modulus (GPa) = 29.11212 38.80335 33.95773
# Shear Modulus (GPa) = 31.03534 36.02953 33.53243
#
# Velocity S-wave (km/s) = 3.60100 3.87993 3.74306
# Velocity P-wave (km/s) = 5.42708 6.02367 5.73314
#
# Compressibility (1/GPa) = 0.03434995
#
# Stress axis : x y z
#
# Youngs Moduli (GPa) = 72.11188 66.97193 59.39886
#
# Poissons Ratio (x) = 0.05629 0.06022
# Poissons Ratio (y) = 0.06061 0.22499
# Poissons Ratio (z) = 0.07311 0.25368
#
# Static dielectric constant tensor:
#      x y z
#    x 2.009900 0.001210 -0.029490 
#    y 0.001210 1.899740 0.028100 
#    z -0.029490 0.028100 1.904640 
# 
# From -- ./inp_files/186163.got.cif
#   From: 2010.05.17/outbox.cif.g08.bks.cpg/sg2_94_cif.got.tgz:186163.got - 2010.06.03 11:33:40.
