data_PCOD9012052
_publ_section_title
;
Structure prediction by ZEFSAII (Michael W. Deem and Ramdas Pophale) SiO2 
 PCOD9012052
Probable space group: P -1
;
_chemical_formula_sum "Si O2"
_cell_formula_units_Z 14
_cell_length_a 22.118523
_cell_length_b 16.734955
_cell_length_c 5.277814
_cell_angle_alpha 118.657962
_cell_angle_beta 80.844107
_cell_angle_gamma 152.696569
_cell_volume 588.388615
_symmetry_space_group_name_H-M "P -1"
_symmetry_group_IT_number 2
_symmetry_cell_setting 'triclinic'
loop_
_space_group_symop_operation_xyz
x,y,z
-x,-y,-z
loop_
_atom_site_type_symbol
_atom_site_label
_atom_site_fract_x
_atom_site_fract_y
_atom_site_fract_z
Si Si1 0.340424 0.836162 0.480821
Si Si2 0.465434 0.365884 0.142039
Si Si3 0.218244 0.763654 0.964470
Si Si4 0.154205 0.845257 0.830685
Si Si5 0.058954 0.296166 0.999308
Si Si6 0.887472 0.819904 0.043938
Si Si7 0.265957 0.233196 0.794995
O O1 0.328773 0.869172 0.818086
O O2 0.500000 0.000000 0.500000
O O3 0.296843 0.848979 0.313291
O O4 0.188071 0.548695 0.177430
O O5 0.500000 0.500000 0.500000
O O6 0.657010 0.614963 0.281247
O O7 0.358807 0.267095 0.837007
O O8 0.332873 0.108858 0.956006
O O9 0.203323 0.849285 0.040638
O O10 0.017182 0.444056 0.612233
O O11 0.078043 0.838503 0.940323
O O12 0.152286 0.342934 0.153109
O O13 0.935396 0.078615 0.541318
O O14 0.723823 0.661751 0.883872
O O15 0.000000 0.000000 0.500000
O O16 0.000000 0.000000 0.000000
#
# Coordination Sequence:
#
# PCOD9012052 Si02
#       7
#     2   2   2   2   2   2   2
#     4  11  24  44  66  94 128 162 218 266 325 375
#     4  11  21  37  60  94 129 164 207 263 318 378
#     4  10  24  43  68  96 125 169 214 267 316 385
#     4  10  21  40  68  93 128 166 215 261 324 379
#     4  10  21  41  65  89 123 173 206 265 318 380
#     4  10  22  39  61  89 123 163 213 251 303 381
#     4  10  22  37  61  90 129 169 213 254 319 385
#
# _framework density 23.793794999999999
#
# number of rings (size 3 to 8) (size 9 to 14) (size 15 to 20)
#    0.000    1.714    1.429    2.143    2.000   10.857 
#    2.571    0.000    0.000    0.000    0.000    0.000 
#    0.000    0.000    0.000    0.000    0.000    0.000 
#
# Total GULP energy -77993.997318 kJ/mol
# GULP energy per Si atom -5570.999808 kJ/mol
# Density = 2.373964 g / cm^3
# Si number density = 23.793795 Si / 1000 Ang^3
#
#
#
# Elastic Constant Matrix: (Units=GPa)
#
#
# Indices 1 2 3 4 5 6 
#
# 1 101.3749 16.9953 -1.6782 3.3816 -18.0154 -21.0601
# 2 16.9953 136.5217 23.3574 -4.4295 -10.3590 -5.5241
# 3 -1.6782 23.3574 27.5011 -3.9999 -3.4169 -5.6266
# 4 3.3816 -4.4295 -3.9999 30.2583 -2.2610 2.4460
# 5 -18.0154 -10.3590 -3.4169 -2.2610 23.1987 -5.3223
# 6 -21.0601 -5.5241 -5.6266 2.4460 -5.3223 43.7394
#
#
#
# Elastic Compliance Matrix: (Units=1/GPa)
#
#
# Indices 1 2 3 4 5 6 
#
# 1 0.014532 -0.001379 0.005502 -0.000834 0.013514 0.009222
# 2 -0.001379 0.008907 -0.007394 0.000641 0.001810 -0.000306
# 3 0.005502 -0.007394 0.046701 0.004540 0.010293 0.008722
# 4 -0.000834 0.000641 0.004540 0.034187 0.003354 -0.001240
# 5 0.013514 0.001810 0.010293 0.003354 0.059725 0.015139
# 6 0.009222 -0.000306 0.008722 -0.001240 0.015139 0.030298
#
#
# Mechanical properties :
#
#
# Convention : Reuss Voigt Hill
#
# Bulk Modulus (GPa) = 15.72336 38.08298 26.90317
# Shear Modulus (GPa) = 22.51334 34.55415 28.53375
#
# Velocity S-wave (km/s) = 3.07935 3.81495 3.46672
# Velocity P-wave (km/s) = 4.38927 5.95360 5.23025
#
# Compressibility (1/GPa) = 0.06359964
#
# Stress axis : x y z
#
# Youngs Moduli (GPa) = 68.81475 112.26820 21.41262
#
# Poissons Ratio (x) = 0.15481 -0.11782
# Poissons Ratio (y) = 0.09489 0.15832
# Poissons Ratio (z) = -0.37864 0.83009
#
# Static dielectric constant tensor:
#      x y z
#    x 2.179580 0.058760 0.208500 
#    y 0.058760 1.947060 -0.093820 
#    z 0.208500 -0.093820 2.166920 
# 
# From -- ./inp_files/94794.got.cif
#   From: 2010.05.17/outbox.cif.g08.bks.cpg/sg2_48_cif.got.tgz:94794.got - 2010.06.03 11:33:40.
