data_PCOD9012002
_publ_section_title
;
Structure prediction by ZEFSAII (Michael W. Deem and Ramdas Pophale) SiO2 
 PCOD9012002
Probable space group: P -1
;
_chemical_formula_sum "Si O2"
_cell_formula_units_Z 15
_cell_length_a 24.514873
_cell_length_b 13.823015
_cell_length_c 8.847851
_cell_angle_alpha 51.852469
_cell_angle_beta 137.801631
_cell_angle_gamma 160.104239
_cell_volume 643.221051
_symmetry_space_group_name_H-M "P -1"
_symmetry_group_IT_number 2
_symmetry_cell_setting 'triclinic'
loop_
_space_group_symop_operation_xyz
x,y,z
-x,-y,-z
loop_
_atom_site_type_symbol
_atom_site_label
_atom_site_fract_x
_atom_site_fract_y
_atom_site_fract_z
Si Si1 0.341112 0.697887 0.866693
Si Si2 0.250894 0.727547 0.356491
Si Si3 0.755968 0.965496 0.658413
Si Si4 0.564891 0.768986 0.159965
Si Si5 0.935064 0.785468 0.996496
Si Si6 0.500000 0.500000 0.000000
Si Si7 0.918327 0.428028 0.130019
Si Si8 0.435361 0.637329 0.547079
O O1 0.311406 0.713704 0.622822
O O2 0.143850 0.414517 0.839235
O O3 0.410178 0.652891 0.025287
O O4 0.500000 0.000000 0.000000
O O5 0.064624 0.540020 0.231411
O O6 0.435763 0.078271 0.379623
O O7 0.169850 0.592869 0.149992
O O8 0.873252 0.003690 0.900423
O O9 0.939132 0.315492 0.700747
O O10 0.650930 0.808103 0.435600
O O11 0.598119 0.802125 0.608666
O O12 0.512100 0.605689 0.073934
O O13 0.739642 0.102147 0.141830
O O14 0.747160 0.553601 0.728697
O O15 0.000000 0.000000 0.000000
O O16 0.623308 0.558581 0.282023
#
# Coordination Sequence:
#
# PCOD9012002 Si02
#       8
#     2   2   2   2   2   1   2   2
#     4  12  23  43  74 108 147 189 249 309 366 431
#     4  10  21  41  69 100 147 178 239 307 366 426
#     4  11  24  45  76 100 144 186 250 305 364 430
#     4  12  24  43  73 106 144 196 241 298 373 437
#     4  12  26  44  70 109 141 189 246 300 358 442
#     4  12  28  44  72 100 154 202 236 292 378 448
#     4  10  21  40  68 106 131 186 245 299 365 423
#     4  11  24  49  70 102 147 197 237 303 365 436
#
# _framework density 23.320131
#
# number of rings (size 3 to 8) (size 9 to 14) (size 15 to 20)
#    0.000    0.800    4.000    3.600    1.867    2.667 
#    0.000    0.667    0.000    0.000    0.000    0.000 
#    0.000    0.000    0.000    0.000    0.000    0.000 
#
# Total GULP energy -83574.389824 kJ/mol
# GULP energy per Si atom -5571.625988 kJ/mol
# Density = 2.326705 g / cm^3
# Si number density = 23.320131 Si / 1000 Ang^3
#
#
#
# Elastic Constant Matrix: (Units=GPa)
#
#
# Indices 1 2 3 4 5 6 
#
# 1 97.2813 19.1484 27.2407 34.4549 6.8878 -28.7132
# 2 19.1484 34.0312 16.4143 -4.9999 -3.4234 -3.1887
# 3 27.2407 16.4143 118.4648 10.0771 13.4989 -3.9512
# 4 34.4549 -4.9999 10.0771 29.1556 -6.1192 9.5099
# 5 6.8878 -3.4234 13.4989 -6.1192 36.5756 13.7005
# 6 -28.7132 -3.1887 -3.9512 9.5099 13.7005 7.7955
#
#
#
# Elastic Compliance Matrix: (Units=1/GPa)
#
#
# Indices 1 2 3 4 5 6 
#
# 1 0.001862 0.000490 -0.002853 0.007321 0.009410 -0.019855
# 2 0.000490 0.032247 -0.003610 -0.000435 -0.002765 0.018556
# 3 -0.002853 -0.003610 0.009728 0.000027 -0.002140 -0.003327
# 4 0.007321 -0.000435 0.000027 0.011418 -0.012702 0.035193
# 5 0.009410 -0.002765 -0.002140 -0.012702 0.017610 0.016991
# 6 -0.019855 0.018556 -0.003327 0.035193 0.016991 -0.011745
#
#
# Mechanical properties :
#
#
# Convention : Reuss Voigt Hill
#
# Bulk Modulus (GPa) = 31.35647 41.70934 36.53290
# Shear Modulus (GPa) = 59.73894 27.17027 43.45460
#
# Velocity S-wave (km/s) = 5.06680 3.41706 4.32139
# Velocity P-wave (km/s) = 6.90690 5.78729 6.37174
#
# Compressibility (1/GPa) = 0.03189134
#
# Stress axis : x y z
#
# Youngs Moduli (GPa) = 536.92084 31.01080 102.79308
#
# Poissons Ratio (x) = -0.01520 0.29332
# Poissons Ratio (y) = -0.26317 0.37106
# Poissons Ratio (z) = 1.53208 0.11194
#
# Static dielectric constant tensor:
#      x y z
#    x 1.864860 0.011890 0.010900 
#    y 0.011890 1.913860 -0.030210 
#    z 0.010900 -0.030210 1.886760 
# 
# From -- ./inp_files/357387.got.cif
#   From: 2010.05.17/outbox.cif.g08.bks.cpg/sg2_179_cif.got.tgz:357387.got - 2010.06.03 11:33:40.
