data_PCOD9012412
_publ_section_title
;
Structure prediction by ZEFSAII (Michael W. Deem and Ramdas Pophale) SiO2 
 PCOD9012412
Probable space group: P -1
;
_chemical_formula_sum "Si O2"
_cell_formula_units_Z 16
_cell_length_a 15.673262
_cell_length_b 18.598713
_cell_length_c 8.823597
_cell_angle_alpha 38.099515
_cell_angle_beta 150.169940
_cell_angle_gamma 143.627410
_cell_volume 723.843835
_symmetry_space_group_name_H-M "P -1"
_symmetry_group_IT_number 2
_symmetry_cell_setting 'triclinic'
loop_
_space_group_symop_operation_xyz
x,y,z
-x,-y,-z
loop_
_atom_site_type_symbol
_atom_site_label
_atom_site_fract_x
_atom_site_fract_y
_atom_site_fract_z
Si Si1 0.889814 0.337922 0.246251
Si Si2 0.702443 0.050355 0.313038
Si Si3 0.412751 0.296953 0.861843
Si Si4 0.321667 0.016964 0.266849
Si Si5 0.270844 0.484743 0.475574
Si Si6 0.205725 0.564974 0.771649
Si Si7 0.939869 0.931266 0.684402
Si Si8 0.641234 0.648907 0.643238
O O1 0.802161 0.201801 0.253562
O O2 0.809733 0.337499 0.289370
O O3 0.116649 0.409593 0.488430
O O4 0.821159 0.432912 0.891409
O O5 0.668501 0.986118 0.532504
O O6 0.845724 0.009317 0.507203
O O7 0.500000 0.000000 0.000000
O O8 0.284737 0.368125 0.598280
O O9 0.456731 0.335158 0.690015
O O10 0.321975 0.148986 0.988950
O O11 0.605699 0.348840 0.169456
O O12 0.500000 0.000000 0.500000
O O13 0.119455 0.920847 0.057549
O O14 0.489228 0.583121 0.651041
O O15 0.000000 0.500000 0.500000
O O16 0.258169 0.444885 0.088956
O O17 0.785085 0.788943 0.669318
O O18 0.000000 0.000000 0.500000
#
# Coordination Sequence:
#
# PCOD9012412 Si02
#       8
#     2   2   2   2   2   2   2   2
#     4  11  22  42  73 101 142 174 248 292 363 424
#     4  12  28  49  74 111 149 197 249 305 370 445
#     4  11  21  46  68 100 144 182 240 290 361 436
#     4  12  27  47  73 105 148 198 246 311 366 438
#     4  10  21  40  70 100 129 189 223 297 353 421
#     4  11  24  42  70 107 138 189 234 306 361 432
#     4  12  26  46  75 107 146 197 244 298 375 444
#     4  11  22  44  73  99 145 183 245 285 372 436
#
# _framework density 22.104216999999998
#
# number of rings (size 3 to 8) (size 9 to 14) (size 15 to 20)
#    0.000    0.750    3.750    4.125    3.500    0.000 
#    6.750    1.250    0.000    0.000    0.000    0.000 
#    0.000    0.000    0.000    0.000    0.000    0.000 
#
# Total GULP energy -89235.349726 kJ/mol
# GULP energy per Si atom -5577.209358 kJ/mol
# Density = 2.205391 g / cm^3
# Si number density = 22.104217 Si / 1000 Ang^3
#
#
#
# Elastic Constant Matrix: (Units=GPa)
#
#
# Indices 1 2 3 4 5 6 
#
# 1 122.0433 33.4394 52.0592 -3.0791 30.3954 -1.6128
# 2 33.4394 142.6675 61.7046 -8.4351 27.0573 -5.8503
# 3 52.0592 61.7046 102.8817 20.8061 20.1226 -0.0627
# 4 -3.0791 -8.4351 20.8061 45.3740 -0.0097 4.5603
# 5 30.3954 27.0573 20.1226 -0.0097 35.1038 -0.5237
# 6 -1.6128 -5.8503 -0.0627 4.5603 -0.5237 32.7369
#
#
#
# Elastic Compliance Matrix: (Units=1/GPa)
#
#
# Indices 1 2 3 4 5 6 
#
# 1 0.012845 0.001817 -0.006767 0.004290 -0.008639 0.000209
# 2 0.001817 0.011463 -0.007787 0.005700 -0.005924 0.001234
# 3 -0.006767 -0.007787 0.019969 -0.011049 0.000410 -0.000141
# 4 0.004290 0.005700 -0.011049 0.028740 -0.001808 -0.002824
# 5 -0.008639 -0.005924 0.000410 -0.001808 0.040290 -0.000587
# 6 0.000209 0.001234 -0.000141 -0.002824 -0.000587 0.031161
#
#
# Mechanical properties :
#
#
# Convention : Reuss Voigt Hill
#
# Bulk Modulus (GPa) = 53.18721 73.55542 63.37132
# Shear Modulus (GPa) = 28.37518 37.33554 32.85536
#
# Velocity S-wave (km/s) = 3.58676 4.11429 3.85955
# Velocity P-wave (km/s) = 6.42397 7.47788 6.97087
#
# Compressibility (1/GPa) = 0.01880151
#
# Stress axis : x y z
#
# Youngs Moduli (GPa) = 77.84982 87.23896 50.07766
#
# Poissons Ratio (x) = -0.15848 0.33888
# Poissons Ratio (y) = -0.14143 0.38997
# Poissons Ratio (z) = 0.52681 0.67936
#
# Static dielectric constant tensor:
#      x y z
#    x 1.827850 0.019920 -0.020640 
#    y 0.019920 1.891200 0.043120 
#    z -0.020640 0.043120 1.847610 
# 
# From -- ./inp_files/178758.got.cif
#   From: 2010.05.17/outbox.cif.g08.bks.cpg/sg2_90_cif.got.tgz:178758.got - 2010.06.03 11:33:40.
