data_PCOD9012332
_publ_section_title
;
Structure prediction by ZEFSAII (Michael W. Deem and Ramdas Pophale) SiO2 
 PCOD9012332
Probable space group: P -1
;
_chemical_formula_sum "Si O2"
_cell_formula_units_Z 16
_cell_length_a 5.148307
_cell_length_b 14.578667
_cell_length_c 10.369116
_cell_angle_alpha 96.332886
_cell_angle_beta 83.170202
_cell_angle_gamma 75.269622
_cell_volume 739.291040
_symmetry_space_group_name_H-M "P -1"
_symmetry_group_IT_number 2
_symmetry_cell_setting 'triclinic'
loop_
_space_group_symop_operation_xyz
x,y,z
-x,-y,-z
loop_
_atom_site_type_symbol
_atom_site_label
_atom_site_fract_x
_atom_site_fract_y
_atom_site_fract_z
Si Si1 0.398315 0.779461 0.871003
Si Si2 0.249638 0.968869 0.575537
Si Si3 0.825801 0.799102 0.031604
Si Si4 0.468712 0.228368 0.564823
Si Si5 0.073642 0.735290 0.282154
Si Si6 0.843252 0.433597 0.569892
Si Si7 0.229422 0.994237 0.874902
Si Si8 0.529146 0.367858 0.385711
O O1 0.422817 0.886169 0.851066
O O2 0.472370 0.699474 0.744831
O O3 0.604148 0.752348 0.975706
O O4 0.079614 0.793556 0.920676
O O5 0.351807 0.853157 0.549450
O O6 0.151490 0.004892 0.730141
O O7 0.500000 0.000000 0.500000
O O8 0.000000 0.000000 0.500000
O O9 0.984786 0.751695 0.142775
O O10 0.673581 0.910952 0.088168
O O11 0.195711 0.203095 0.618793
O O12 0.379422 0.326743 0.504125
O O13 0.656460 0.239375 0.677637
O O14 0.097740 0.627486 0.313054
O O15 0.805052 0.361028 0.447665
O O16 0.570666 0.520508 0.628196
O O17 0.000000 0.500000 0.500000
O O18 0.000000 0.000000 0.000000
#
# Coordination Sequence:
#
# PCOD9012332 Si02
#       8
#     2   2   2   2   2   2   2   2
#     4  11  24  42  65  91 128 172 220 259 306 391
#     4  12  25  40  63  98 136 171 223 282 327 382
#     4  11  24  41  62  92 129 176 213 258 315 378
#     4  11  21  39  64  92 125 167 209 267 323 378
#     4  11  23  41  66  93 131 165 210 268 333 388
#     4  10  21  40  69  94 124 160 208 273 338 390
#     4  10  23  44  65  94 133 185 225 264 322 396
#     4  10  22  40  64  98 121 160 215 267 321 383
#
# _framework density 21.642354000000001
#
# number of rings (size 3 to 8) (size 9 to 14) (size 15 to 20)
#    0.000    1.250    2.500    3.375    1.750    5.000 
#    0.000    1.250    0.000    0.000    0.000    0.000 
#    0.000    0.000    0.000    0.000    0.000    0.000 
#
# Total GULP energy -89125.233550 kJ/mol
# GULP energy per Si atom -5570.327097 kJ/mol
# Density = 2.159310 g / cm^3
# Si number density = 21.642354 Si / 1000 Ang^3
#
#
#
# Elastic Constant Matrix: (Units=GPa)
#
#
# Indices 1 2 3 4 5 6 
#
# 1 75.8842 2.1821 19.5163 4.2692 11.7409 0.8443
# 2 2.1821 99.7212 34.2407 -2.4968 15.4498 -1.1796
# 3 19.5163 34.2407 126.6570 10.7221 24.6350 4.0862
# 4 4.2692 -2.4968 10.7221 20.4882 8.4230 1.3882
# 5 11.7409 15.4498 24.6350 8.4230 26.4586 1.1890
# 6 0.8443 -1.1796 4.0862 1.3882 1.1890 25.8607
#
#
#
# Elastic Compliance Matrix: (Units=1/GPa)
#
#
# Indices 1 2 3 4 5 6 
#
# 1 0.014389 0.001069 -0.001404 0.000240 -0.005781 0.000054
# 2 0.001069 0.012105 -0.002582 0.005372 -0.006892 0.000954
# 3 -0.001404 -0.002582 0.010361 -0.002637 -0.006620 -0.001263
# 4 0.000240 0.005372 -0.002637 0.058906 -0.019468 -0.001613
# 5 -0.005781 -0.006892 -0.006620 -0.019468 0.056775 -0.000645
# 6 0.000054 0.000954 -0.001263 -0.001613 -0.000645 0.039026
#
#
# Mechanical properties :
#
#
# Convention : Reuss Voigt Hill
#
# Bulk Modulus (GPa) = 32.23590 46.01564 39.12577
# Shear Modulus (GPa) = 24.06901 30.98305 27.52603
#
# Velocity S-wave (km/s) = 3.33847 3.78774 3.57018
# Velocity P-wave (km/s) = 5.45781 6.35904 5.92558
#
# Compressibility (1/GPa) = 0.03102132
#
# Stress axis : x y z
#
# Youngs Moduli (GPa) = 69.49933 82.61219 96.51187
#
# Poissons Ratio (x) = -0.08835 0.13549
# Poissons Ratio (y) = -0.07433 0.24923
# Poissons Ratio (z) = 0.09757 0.21333
#
# Static dielectric constant tensor:
#      x y z
#    x 1.971310 -0.022100 -0.052620 
#    y -0.022100 1.877820 -0.015940 
#    z -0.052620 -0.015940 1.810280 
# 
# From -- ./inp_files/77511.got.cif
#   From: 2010.05.17/outbox.cif.g08.bks.cpg/sg2_39_cif.got.tgz:77511.got - 2010.06.03 11:33:40.
