data_PCOD9012040
_publ_section_title
;
Structure prediction by ZEFSAII (Michael W. Deem and Ramdas Pophale) SiO2 
 PCOD9012040
Probable space group: P -1
;
_chemical_formula_sum "Si O2"
_cell_formula_units_Z 16
_cell_length_a 14.102720
_cell_length_b 12.068381
_cell_length_c 8.273717
_cell_angle_alpha 141.406710
_cell_angle_beta 65.285941
_cell_angle_gamma 99.444930
_cell_volume 764.349634
_symmetry_space_group_name_H-M "P -1"
_symmetry_group_IT_number 2
_symmetry_cell_setting 'triclinic'
loop_
_space_group_symop_operation_xyz
x,y,z
-x,-y,-z
loop_
_atom_site_type_symbol
_atom_site_label
_atom_site_fract_x
_atom_site_fract_y
_atom_site_fract_z
Si Si1 0.532019 0.453531 0.738260
Si Si2 0.226575 0.524314 0.392450
Si Si3 0.406873 0.928711 0.905264
Si Si4 0.672270 0.274586 0.977333
Si Si5 0.122455 0.727850 0.008457
Si Si6 0.822807 0.154223 0.449083
Si Si7 0.961780 0.846308 0.516167
Si Si8 0.204036 0.163407 0.125080
O O1 0.649512 0.485771 0.659377
O O2 0.545756 0.239734 0.444556
O O3 0.500000 0.500000 0.000000
O O4 0.437885 0.578900 0.835379
O O5 0.204663 0.642436 0.379460
O O6 0.212278 0.321026 0.174583
O O7 0.142684 0.640292 0.718395
O O8 0.353619 0.843153 0.991563
O O9 0.500000 0.000000 0.000000
O O10 0.316305 0.084465 0.052190
O O11 0.766828 0.360936 0.071592
O O12 0.729178 0.155041 0.646308
O O13 0.017214 0.725467 0.184836
O O14 0.108772 0.948888 0.255308
O O15 0.937809 0.118204 0.414555
O O16 0.822647 0.006073 0.141917
O O17 0.889668 0.762661 0.590000
#
# Coordination Sequence:
#
# PCOD9012040 Si02
#       8
#     2   2   2   2   2   2   2   2
#     4  12  23  43  70  95 136 180 218 277 336 398
#     4  12  24  42  66  96 134 174 218 270 336 397
#     4  12  25  42  67 103 135 175 228 277 337 398
#     4  11  21  41  69  91 129 176 218 270 333 393
#     4  10  21  40  68  92 127 171 220 273 328 392
#     4  11  23  44  66  96 134 177 219 272 335 397
#     4  10  21  42  69  93 128 177 219 275 339 380
#     4  12  24  43  67  98 136 172 222 276 331 400
#
# _framework density 20.932829999999999
#
# number of rings (size 3 to 8) (size 9 to 14) (size 15 to 20)
#    0.000    0.750    6.250    1.500    1.750    2.000 
#    0.000    2.500    0.000    0.000    0.000    0.000 
#    0.000    0.000    0.000    0.000    0.000    0.000 
#
# Total GULP energy -89444.804705 kJ/mol
# GULP energy per Si atom -5590.300294 kJ/mol
# Density = 2.088519 g / cm^3
# Si number density = 20.932830 Si / 1000 Ang^3
#
#
#
# Elastic Constant Matrix: (Units=GPa)
#
#
# Indices 1 2 3 4 5 6 
#
# 1 81.5382 13.9353 26.4420 6.9026 -19.2318 -6.7461
# 2 13.9353 92.5284 45.4680 2.1609 5.2677 -7.2007
# 3 26.4420 45.4680 83.3800 -21.1167 -10.8474 7.1265
# 4 6.9026 2.1609 -21.1167 36.1128 -5.5271 -1.4535
# 5 -19.2318 5.2677 -10.8474 -5.5271 25.3315 4.0293
# 6 -6.7461 -7.2007 7.1265 -1.4535 4.0293 33.0653
#
#
#
# Elastic Compliance Matrix: (Units=1/GPa)
#
#
# Indices 1 2 3 4 5 6 
#
# 1 0.016938 0.000455 -0.006241 -0.005495 0.008314 0.003645
# 2 0.000455 0.022452 -0.019396 -0.015038 -0.017604 0.010647
# 3 -0.006241 -0.019396 0.035244 0.025792 0.022351 -0.014683
# 4 -0.005495 -0.015038 0.025792 0.047678 0.022081 -0.010550
# 5 0.008314 -0.017604 0.022351 0.022081 0.066070 -0.014035
# 6 0.003645 0.010647 -0.014683 -0.010550 -0.014035 0.037717
#
#
# Mechanical properties :
#
#
# Convention : Reuss Voigt Hill
#
# Bulk Modulus (GPa) = 41.20495 47.68193 44.44344
# Shear Modulus (GPa) = 17.57127 30.34200 23.95663
#
# Velocity S-wave (km/s) = 2.90040 3.81135 3.38665
# Velocity P-wave (km/s) = 5.56269 6.49589 6.04732
#
# Compressibility (1/GPa) = 0.02426893
#
# Stress axis : x y z
#
# Youngs Moduli (GPa) = 59.03863 44.53876 28.37327
#
# Poissons Ratio (x) = -0.02025 0.17708
# Poissons Ratio (y) = -0.02684 0.55034
# Poissons Ratio (z) = 0.36846 0.86390
#
# Static dielectric constant tensor:
#      x y z
#    x 1.742880 0.000760 -0.005800 
#    y 0.000760 1.762300 -0.020270 
#    z -0.005800 -0.020270 1.765520 
# 
# From -- ./inp_files/305967.got.cif
#   From: 2010.05.17/outbox.cif.g08.bks.cpg/sg2_153_cif.got.tgz:305967.got - 2010.06.03 11:33:40.
