data_PCOD9012958
_publ_section_title
;
Structure prediction by ZEFSAII (Michael W. Deem and Ramdas Pophale) SiO2 
 PCOD9012958
Probable space group: P -1
;
_chemical_formula_sum "Si O2"
_cell_formula_units_Z 16
_cell_length_a 5.834558
_cell_length_b 29.668511
_cell_length_c 27.774001
_cell_angle_alpha 170.710316
_cell_angle_beta 63.541273
_cell_angle_gamma 115.679426
_cell_volume 694.129029
_symmetry_space_group_name_H-M "P -1"
_symmetry_group_IT_number 2
_symmetry_cell_setting 'triclinic'
loop_
_space_group_symop_operation_xyz
x,y,z
-x,-y,-z
loop_
_atom_site_type_symbol
_atom_site_label
_atom_site_fract_x
_atom_site_fract_y
_atom_site_fract_z
Si Si1 0.017122 0.102035 0.308347
Si Si2 0.312911 0.435747 0.403644
Si Si3 0.742485 0.509717 0.953121
Si Si4 0.306396 0.437021 0.231352
Si Si5 0.006447 0.972594 0.528109
Si Si6 0.240829 0.662276 0.337402
Si Si7 0.545051 0.179502 0.290404
Si Si8 0.540633 0.185206 0.859340
O O1 0.875558 0.371085 0.582493
O O2 0.006574 0.181465 0.449799
O O3 0.285796 0.077279 0.231062
O O4 0.847902 0.839107 0.035572
O O5 0.500000 0.500000 0.500000
O O6 0.449222 0.617813 0.542136
O O7 0.000000 0.500000 0.500000
O O8 0.322335 0.109302 0.044370
O O9 0.961656 0.341506 0.786600
O O10 0.753269 0.349651 0.732971
O O11 0.500000 0.500000 0.000000
O O12 0.759915 0.832080 0.276358
O O13 0.348569 0.623004 0.469762
O O14 0.551207 0.348159 0.081146
O O15 0.000000 0.000000 0.500000
O O16 0.778654 0.138359 0.752424
O O17 0.458962 0.877193 0.556549
O O18 0.323963 0.360884 0.033981
#
# Coordination Sequence:
#
# PCOD9012958 Si02
#       8
#     2   2   2   2   2   2   2   2
#     4  10  23  42  69 103 143 185 233 294 360 425
#     4  12  30  52  80 114 154 202 249 308 367 440
#     4  12  24  39  61  87 121 169 221 279 339 417
#     4  10  23  42  69 103 143 185 233 294 360 425
#     4  12  24  39  61  87 121 169 221 279 339 417
#     4  10  21  41  62  91 130 169 217 283 347 415
#     4  12  26  46  80 106 148 194 245 296 353 444
#     4  10  21  41  62  91 130 169 217 283 347 415
#
# _framework density 23.050467999999999
#
# number of rings (size 3 to 8) (size 9 to 14) (size 15 to 20)
#    0.000    1.000    0.000    6.000    7.000    0.000 
#    2.250    0.000    0.000    0.000    0.000    0.000 
#    0.000    0.000    0.000    0.000    0.000    0.000 
#
# Total GULP energy -89221.022849 kJ/mol
# GULP energy per Si atom -5576.313928 kJ/mol
# Density = 2.299800 g / cm^3
# Si number density = 23.050468 Si / 1000 Ang^3
#
#
#
# Elastic Constant Matrix: (Units=GPa)
#
#
# Indices 1 2 3 4 5 6 
#
# 1 65.1501 61.7552 53.0179 -29.5241 1.7469 -5.3797
# 2 61.7552 200.1296 86.4520 -37.5210 -2.8082 -14.5548
# 3 53.0179 86.4520 205.7130 -1.4021 14.9334 -25.3703
# 4 -29.5241 -37.5210 -1.4021 68.0502 4.3105 6.2886
# 5 1.7469 -2.8082 14.9334 4.3105 41.2986 1.8568
# 6 -5.3797 -14.5548 -25.3703 6.2886 1.8568 32.3422
#
#
#
# Elastic Compliance Matrix: (Units=1/GPa)
#
#
# Indices 1 2 3 4 5 6 
#
# 1 0.028928 -0.004789 -0.005827 0.010169 -0.000329 -0.003873
# 2 -0.004789 0.007804 -0.002041 0.002046 0.001229 0.000646
# 3 -0.005827 -0.002041 0.008042 -0.003812 -0.002641 0.005313
# 4 0.010169 0.002046 -0.003812 0.020612 -0.000869 -0.004336
# 5 -0.000329 0.001229 -0.002641 -0.000869 0.025486 -0.002868
# 6 -0.003873 0.000646 0.005313 -0.004336 -0.002868 0.035742
#
#
# Mechanical properties :
#
#
# Convention : Reuss Voigt Hill
#
# Bulk Modulus (GPa) = 51.38986 97.04923 74.21954
# Shear Modulus (GPa) = 31.56283 46.32269 38.94276
#
# Velocity S-wave (km/s) = 3.70441 4.48774 4.11476
# Velocity P-wave (km/s) = 6.37493 8.30948 7.40565
#
# Compressibility (1/GPa) = 0.01945909
#
# Stress axis : x y z
#
# Youngs Moduli (GPa) = 34.56855 128.14079 124.35081
#
# Poissons Ratio (x) = 0.61366 0.72464
# Poissons Ratio (y) = 0.16555 0.25379
# Poissons Ratio (z) = 0.20144 0.26153
#
# Static dielectric constant tensor:
#      x y z
#    x 28.715690 -0.345100 53.147220 
#    y -0.345100 1.922700 -0.781950 
#    z 53.147220 -0.781950 107.201580 
# 
# From -- ./inp_files/616089.got.cif
#   From: 2010.05.17/outbox.cif.g08.bks.cpg/sg2_309_cif.got.tgz:616089.got - 2010.06.03 11:33:40.
