data_PCOD9012244
_publ_section_title
;
Structure prediction by ZEFSAII (Michael W. Deem and Ramdas Pophale) SiO2 
 PCOD9012244
Probable space group: P -1
;
_chemical_formula_sum "Si O2"
_cell_formula_units_Z 14
_cell_length_a 9.645756
_cell_length_b 12.005519
_cell_length_c 8.462981
_cell_angle_alpha 94.379816
_cell_angle_beta 118.519384
_cell_angle_gamma 129.138586
_cell_volume 555.914923
_symmetry_space_group_name_H-M "P -1"
_symmetry_group_IT_number 2
_symmetry_cell_setting 'triclinic'
loop_
_space_group_symop_operation_xyz
x,y,z
-x,-y,-z
loop_
_atom_site_type_symbol
_atom_site_label
_atom_site_fract_x
_atom_site_fract_y
_atom_site_fract_z
Si Si1 0.558764 0.322600 0.271256
Si Si2 0.302166 0.368029 0.516595
Si Si3 0.350558 0.000625 0.542099
Si Si4 0.139595 0.080766 0.247745
Si Si5 0.481964 0.364002 0.926771
Si Si6 0.192063 0.641826 0.994382
Si Si7 0.739753 0.185759 0.231981
O O1 0.717604 0.521335 0.399005
O O2 0.418638 0.233428 0.349199
O O3 0.683546 0.273991 0.294367
O O4 0.375052 0.245327 0.011757
O O5 0.500000 0.500000 0.500000
O O6 0.090442 0.177488 0.304594
O O7 0.383031 0.323463 0.691977
O O8 0.156576 0.979515 0.352874
O O9 0.565595 0.184117 0.767435
O O10 0.500000 0.000000 0.500000
O O11 0.208233 0.862819 0.593245
O O12 0.000000 0.000000 0.000000
O O13 0.732663 0.431570 0.059718
O O14 0.500000 0.500000 0.000000
O O15 0.113185 0.693799 0.831644
O O16 0.000000 0.500000 0.000000
O O17 0.500000 0.000000 0.000000
#
# Coordination Sequence:
#
# PCOD9012244 Si02
#       7
#     2   2   2   2   2   2   2
#     4   9  18  36  63  90 127 171 218 280 352 406
#     4   9  18  35  61  88 122 172 215 279 340 393
#     4  11  21  41  68  95 142 185 215 281 361 420
#     4  11  22  39  64  95 129 179 241 276 331 415
#     4   9  17  35  64  91 129 169 208 277 360 396
#     4  10  21  40  69 102 133 173 233 284 339 422
#     4   9  19  37  68  96 134 179 218 275 363 423
#
# _framework density 25.183707999999999
#
# number of rings (size 3 to 8) (size 9 to 14) (size 15 to 20)
#    0.000    2.286    2.857    0.000    0.000    0.000 
#    7.714    1.429    3.143    0.000    0.000    0.000 
#    0.000    0.000    0.000    0.000    0.000    0.000 
#
# Total GULP energy -77999.621484 kJ/mol
# GULP energy per Si atom -5571.401535 kJ/mol
# Density = 2.512639 g / cm^3
# Si number density = 25.183708 Si / 1000 Ang^3
#
#
#
# Elastic Constant Matrix: (Units=GPa)
#
#
# Indices 1 2 3 4 5 6 
#
# 1 90.8604 53.6299 29.7790 -2.7610 -22.8141 -17.3021
# 2 53.6299 187.1519 73.4916 -45.8981 -6.1490 -12.5968
# 3 29.7790 73.4916 137.4881 -33.0172 -5.7190 -26.7710
# 4 -2.7610 -45.8981 -33.0172 53.7446 -7.4666 -11.5016
# 5 -22.8141 -6.1490 -5.7190 -7.4666 39.2103 -2.0814
# 6 -17.3021 -12.5968 -26.7710 -11.5016 -2.0814 54.6297
#
#
#
# Elastic Compliance Matrix: (Units=1/GPa)
#
#
# Indices 1 2 3 4 5 6 
#
# 1 0.016712 -0.004272 -0.000300 -0.000782 0.009091 0.004343
# 2 -0.004272 0.009052 -0.002200 0.006354 -0.000124 0.000989
# 3 -0.000300 -0.002200 0.011645 0.007096 0.002886 0.006708
# 4 -0.000782 0.006354 0.007096 0.032020 0.008298 0.011752
# 5 0.009091 -0.000124 0.002886 0.008298 0.033161 0.007275
# 6 0.004343 0.000989 0.006708 0.011752 0.007275 0.025947
#
#
# Mechanical properties :
#
#
# Convention : Reuss Voigt Hill
#
# Bulk Modulus (GPa) = 41.90358 81.03350 61.46854
# Shear Modulus (GPa) = 33.32564 46.75693 40.04128
#
# Velocity S-wave (km/s) = 3.64167 4.31354 3.99177
# Velocity P-wave (km/s) = 5.86154 7.55352 6.76067
#
# Compressibility (1/GPa) = 0.02386431
#
# Stress axis : x y z
#
# Youngs Moduli (GPa) = 59.83896 110.47285 85.87661
#
# Poissons Ratio (x) = 0.47189 0.02579
# Poissons Ratio (y) = 0.25561 0.18893
# Poissons Ratio (z) = 0.01797 0.24305
#
# Static dielectric constant tensor:
#      x y z
#    x 2.057500 -0.062970 0.012460 
#    y -0.062970 1.857090 0.005440 
#    z 0.012460 0.005440 2.124900 
# 
# From -- ./inp_files/262572.got.cif
#   From: 2010.05.17/outbox.cif.g08.bks.cpg/sg2_132_cif.got.tgz:262572.got - 2010.06.03 11:33:40.
