data_PCOD9012383
_publ_section_title
;
Structure prediction by ZEFSAII (Michael W. Deem and Ramdas Pophale) SiO2 
 PCOD9012383
Probable space group: P -1
;
_chemical_formula_sum "Si O2"
_cell_formula_units_Z 16
_cell_length_a 6.810716
_cell_length_b 17.989363
_cell_length_c 15.614618
_cell_angle_alpha 32.144028
_cell_angle_beta 57.065099
_cell_angle_gamma 79.702326
_cell_volume 663.028108
_symmetry_space_group_name_H-M "P -1"
_symmetry_group_IT_number 2
_symmetry_cell_setting 'triclinic'
loop_
_space_group_symop_operation_xyz
x,y,z
-x,-y,-z
loop_
_atom_site_type_symbol
_atom_site_label
_atom_site_fract_x
_atom_site_fract_y
_atom_site_fract_z
Si Si1 0.413592 0.126748 0.415547
Si Si2 0.923925 0.415669 0.888664
Si Si3 0.280862 0.427001 0.511508
Si Si4 0.595218 0.764249 0.208060
Si Si5 0.951171 0.280645 0.558163
Si Si6 0.849536 0.176429 0.997436
Si Si7 0.795331 0.342590 0.269147
Si Si8 0.862976 0.092292 0.592524
O O1 0.506136 0.194283 0.426132
O O2 0.067524 0.038949 0.569916
O O3 0.500000 0.000000 0.500000
O O4 0.626852 0.296691 0.135236
O O5 0.931506 0.274467 0.973284
O O6 0.919029 0.537276 0.702244
O O7 0.203893 0.555291 0.748871
O O8 0.463233 0.637974 0.278429
O O9 0.460844 0.369315 0.571359
O O10 0.160844 0.343506 0.529120
O O11 0.992649 0.325136 0.743166
O O12 0.386958 0.812914 0.236202
O O13 0.959061 0.895847 0.988333
O O14 0.927334 0.153178 0.616702
O O15 0.494798 0.046824 0.198039
O O16 0.945309 0.257552 0.353018
O O17 0.000000 0.500000 0.000000
#
# Coordination Sequence:
#
# PCOD9012383 Si02
#       8
#     2   2   2   2   2   2   2   2
#     4  11  25  48  70  96 136 178 227 289 352 407
#     4  10  21  40  69  98 127 172 229 278 330 396
#     4   9  19  38  64  95 140 178 226 273 322 397
#     4   9  19  38  61  93 138 175 226 272 316 402
#     4  11  21  39  67  98 138 176 223 281 338 395
#     4  10  21  41  61  97 142 183 214 273 334 398
#     4   9  22  44  69  97 133 172 224 283 340 393
#     4  11  26  43  64 104 140 176 232 278 340 421
#
# _framework density 24.131708
#
# number of rings (size 3 to 8) (size 9 to 14) (size 15 to 20)
#    0.750    1.250    1.250    1.125    0.000   10.500 
#    4.500    6.250    0.000    0.000    0.000    0.000 
#    0.000    0.000    0.000    0.000    0.000    0.000 
#
# Total GULP energy -89330.524052 kJ/mol
# GULP energy per Si atom -5583.157753 kJ/mol
# Density = 2.407678 g / cm^3
# Si number density = 24.131708 Si / 1000 Ang^3
#
#
#
# Elastic Constant Matrix: (Units=GPa)
#
#
# Indices 1 2 3 4 5 6 
#
# 1 132.5503 57.2676 57.8895 3.8411 -31.9881 0.8132
# 2 57.2676 116.4392 37.7983 2.9689 -5.8588 22.0406
# 3 57.8895 37.7983 92.1453 1.0316 -22.8877 -5.9049
# 4 3.8411 2.9689 1.0316 18.6913 -3.0444 2.5638
# 5 -31.9881 -5.8588 -22.8877 -3.0444 27.0592 13.1202
# 6 0.8132 22.0406 -5.9049 2.5638 13.1202 43.1418
#
#
#
# Elastic Compliance Matrix: (Units=1/GPa)
#
#
# Indices 1 2 3 4 5 6 
#
# 1 0.014863 -0.004766 -0.003924 0.000711 0.014703 -0.002896
# 2 -0.004766 0.013104 -0.003462 -0.000512 -0.002775 -0.006204
# 3 -0.003924 -0.003462 0.016888 0.001572 0.008333 0.001526
# 4 0.000711 -0.000512 0.001572 0.056085 0.011450 -0.006352
# 5 0.014703 -0.002775 0.008333 0.011450 0.071899 -0.020265
# 6 -0.002896 -0.006204 0.001526 -0.006352 -0.020265 0.033153
#
#
# Mechanical properties :
#
#
# Convention : Reuss Voigt Hill
#
# Bulk Modulus (GPa) = 48.66086 71.89398 60.27742
# Shear Modulus (GPa) = 21.08407 30.32376 25.70392
#
# Velocity S-wave (km/s) = 2.95906 3.54869 3.26721
# Velocity P-wave (km/s) = 5.64652 6.82993 6.26623
#
# Compressibility (1/GPa) = 0.02055040
#
# Stress axis : x y z
#
# Youngs Moduli (GPa) = 67.28296 76.31234 59.21529
#
# Poissons Ratio (x) = 0.36373 0.23234
# Poissons Ratio (y) = 0.32069 0.20501
# Poissons Ratio (z) = 0.26399 0.26420
#
# Static dielectric constant tensor:
#      x y z
#    x 1.919900 -0.007430 -0.003380 
#    y -0.007430 1.946180 -0.032450 
#    z -0.003380 -0.032450 2.010640 
# 
# From -- ./inp_files/506659.got.cif
#   From: 2010.05.17/outbox.cif.g08.bks.cpg/sg2_254_cif.got.tgz:506659.got - 2010.06.03 11:33:40.
