data_PCOD9012935
_publ_section_title
;
Structure prediction by ZEFSAII (Michael W. Deem and Ramdas Pophale) SiO2 
 PCOD9012935
Probable space group: P -1
;
_chemical_formula_sum "Si O2"
_cell_formula_units_Z 15
_cell_length_a 6.321901
_cell_length_b 11.415795
_cell_length_c 10.652856
_cell_angle_alpha 59.314054
_cell_angle_beta 76.668227
_cell_angle_gamma 98.525171
_cell_volume 609.994554
_symmetry_space_group_name_H-M "P -1"
_symmetry_group_IT_number 2
_symmetry_cell_setting 'triclinic'
loop_
_space_group_symop_operation_xyz
x,y,z
-x,-y,-z
loop_
_atom_site_type_symbol
_atom_site_label
_atom_site_fract_x
_atom_site_fract_y
_atom_site_fract_z
Si Si1 0.652712 0.197419 0.153258
Si Si2 0.500000 0.000000 0.500000
Si Si3 0.248297 0.999211 0.149531
Si Si4 0.863082 0.306909 0.718902
Si Si5 0.136884 0.257620 0.915122
Si Si6 0.875671 0.880979 0.477778
Si Si7 0.760542 0.462715 0.129492
Si Si8 0.003418 0.397790 0.370058
O O1 0.602382 0.340776 0.128121
O O2 0.881598 0.227302 0.024409
O O3 0.681106 0.114988 0.319907
O O4 0.617782 0.879395 0.508493
O O5 0.441644 0.086403 0.171730
O O6 0.294995 0.859137 0.161788
O O7 0.022232 0.929724 0.304442
O O8 0.204259 0.114696 0.998330
O O9 0.821804 0.440380 0.724349
O O10 0.883182 0.352435 0.546401
O O11 0.101787 0.301998 0.753201
O O12 0.287740 0.391691 0.903825
O O13 0.887949 0.726737 0.602447
O O14 0.000000 0.000000 0.500000
O O15 0.825444 0.404447 0.284187
O O16 0.000000 0.500000 0.000000
#
# Coordination Sequence:
#
# PCOD9012935 Si02
#       8
#     2   1   2   2   2   2   2   2
#     4  11  23  36  60  97 127 167 206 259 326 382
#     4  12  22  36  60  94 128 158 204 256 316 384
#     4  11  22  37  64  95 126 168 210 260 321 374
#     4   9  20  39  63  91 123 175 216 258 305 371
#     4  10  21  41  62  90 130 168 214 264 306 373
#     4  11  21  36  61  93 125 164 205 259 317 374
#     4   9  20  36  61  92 131 167 203 258 315 378
#     4   9  19  38  65  91 126 173 213 255 315 373
#
# _framework density 24.590384
#
# number of rings (size 3 to 8) (size 9 to 14) (size 15 to 20)
#    0.000    1.867    2.667    1.200    3.733    1.067 
#    0.000    2.667    0.000    4.000    0.000    0.000 
#    0.000    0.000    0.000    0.000    0.000    0.000 
#
# Total GULP energy -83519.600003 kJ/mol
# GULP energy per Si atom -5567.973334 kJ/mol
# Density = 2.453442 g / cm^3
# Si number density = 24.590384 Si / 1000 Ang^3
#
#
#
# Elastic Constant Matrix: (Units=GPa)
#
#
# Indices 1 2 3 4 5 6 
#
# 1 68.0401 32.2782 20.1102 -5.4276 -4.9470 -10.9674
# 2 32.2782 213.2312 39.8423 -45.1975 10.4777 18.3424
# 3 20.1102 39.8423 114.7951 -10.2603 16.9985 -10.1224
# 4 -5.4276 -45.1975 -10.2603 54.0289 -11.5093 3.3323
# 5 -4.9470 10.4777 16.9985 -11.5093 22.4305 0.6884
# 6 -10.9674 18.3424 -10.1224 3.3323 0.6884 24.6486
#
#
#
# Elastic Compliance Matrix: (Units=1/GPa)
#
#
# Indices 1 2 3 4 5 6 
#
# 1 0.019379 -0.003987 -0.002194 -0.000975 0.006972 0.010626
# 2 -0.003987 0.007916 -0.002447 0.006546 0.000930 -0.009581
# 3 -0.002194 -0.002447 0.011708 -0.002493 -0.009685 0.006260
# 4 -0.000975 0.006546 -0.002493 0.026744 0.012655 -0.010298
# 5 0.006972 0.000930 -0.009685 0.012655 0.059670 -0.004944
# 6 0.010626 -0.009581 0.006260 -0.010298 -0.004944 0.056529
#
#
# Mechanical properties :
#
#
# Convention : Reuss Voigt Hill
#
# Bulk Modulus (GPa) = 45.97955 64.50309 55.24132
# Shear Modulus (GPa) = 24.21880 40.47731 32.34806
#
# Velocity S-wave (km/s) = 3.14170 4.06157 3.63088
# Velocity P-wave (km/s) = 5.64793 6.94861 6.33176
#
# Compressibility (1/GPa) = 0.02174880
#
# Stress axis : x y z
#
# Youngs Moduli (GPa) = 51.60237 126.31893 85.41232
#
# Poissons Ratio (x) = 0.50363 0.18737
# Poissons Ratio (y) = 0.20574 0.20896
# Poissons Ratio (z) = 0.11320 0.30904
#
# Static dielectric constant tensor:
#      x y z
#    x 1.986050 0.032690 0.047360 
#    y 0.032690 2.036470 -0.014000 
#    z 0.047360 -0.014000 2.020340 
# 
# From -- ./inp_files/384165.got.cif
#   From: 2010.05.17/outbox.cif.g08.bks.cpg/sg2_193_cif.got.tgz:384165.got - 2010.06.03 11:33:40.
