data_PCOD9012728
_publ_section_title
;
Structure prediction by ZEFSAII (Michael W. Deem and Ramdas Pophale) SiO2 
 PCOD9012728
Probable space group: P -1
;
_chemical_formula_sum "Si O2"
_cell_formula_units_Z 16
_cell_length_a 8.641341
_cell_length_b 20.464939
_cell_length_c 23.934254
_cell_angle_alpha 163.880465
_cell_angle_beta 43.753114
_cell_angle_gamma 129.283453
_cell_volume 770.904941
_symmetry_space_group_name_H-M "P -1"
_symmetry_group_IT_number 2
_symmetry_cell_setting 'triclinic'
loop_
_space_group_symop_operation_xyz
x,y,z
-x,-y,-z
loop_
_atom_site_type_symbol
_atom_site_label
_atom_site_fract_x
_atom_site_fract_y
_atom_site_fract_z
Si Si1 0.530790 0.315173 0.788919
Si Si2 0.549818 0.074558 0.297568
Si Si3 0.399928 0.881200 0.063864
Si Si4 0.794640 0.495414 0.591257
Si Si5 0.841074 0.582696 0.880388
Si Si6 0.082112 0.688952 0.469860
Si Si7 0.183892 0.461832 0.783779
Si Si8 0.580014 0.765547 0.362833
O O1 0.762615 0.346670 0.725848
O O2 0.363752 0.375901 0.827714
O O3 0.540770 0.050280 0.591609
O O4 0.500000 0.500000 0.000000
O O5 0.706597 0.259619 0.406683
O O6 0.311343 0.248722 0.531211
O O7 0.508735 0.985294 0.173324
O O8 0.653143 0.838501 0.118075
O O9 0.582571 0.758140 0.865458
O O10 0.333458 0.643913 0.907599
O O11 0.152945 0.077909 0.272270
O O12 0.880394 0.451647 0.596840
O O13 0.000000 0.500000 0.500000
O O14 0.972166 0.480608 0.704557
O O15 0.962497 0.626860 0.941929
O O16 0.330699 0.744171 0.435726
O O17 0.202978 0.325663 0.725747
#
# Coordination Sequence:
#
# PCOD9012728 Si02
#       8
#     2   2   2   2   2   2   2   2
#     4  10  22  37  62  89 127 169 213 259 322 360
#     4  11  21  42  67  92 125 163 208 261 315 376
#     4  11  22  39  67  95 124 167 214 254 311 387
#     4  11  25  44  67  96 130 164 206 264 318 377
#     4  11  22  40  68  92 125 174 213 263 317 374
#     4  11  21  42  66  92 128 170 215 257 318 377
#     4  11  22  37  65  96 121 167 221 255 315 371
#     4  10  21  41  59  89 131 164 211 274 300 372
#
# _framework density 20.754828
#
# number of rings (size 3 to 8) (size 9 to 14) (size 15 to 20)
#    0.000    1.250    5.000    2.250    1.750    1.500 
#    0.000    1.250    0.000    0.000    0.000    0.000 
#    0.000    0.000    0.000    0.000    0.000    0.000 
#
# Total GULP energy -89080.095281 kJ/mol
# GULP energy per Si atom -5567.505955 kJ/mol
# Density = 2.070759 g / cm^3
# Si number density = 20.754828 Si / 1000 Ang^3
#
#
#
# Elastic Constant Matrix: (Units=GPa)
#
#
# Indices 1 2 3 4 5 6 
#
# 1 101.2895 28.2428 19.1371 1.5507 10.1597 -15.1876
# 2 28.2428 73.7618 7.8547 -6.8998 1.7583 -12.5049
# 3 19.1371 7.8547 83.0829 -7.3575 -7.4290 -6.4140
# 4 1.5507 -6.8998 -7.3575 13.6379 -5.9190 2.4884
# 5 10.1597 1.7583 -7.4290 -5.9190 42.7119 -5.2872
# 6 -15.1876 -12.5049 -6.4140 2.4884 -5.2872 16.3389
#
#
#
# Elastic Compliance Matrix: (Units=1/GPa)
#
#
# Indices 1 2 3 4 5 6 
#
# 1 0.013315 -0.004085 -0.003126 -0.008350 -0.003697 0.008099
# 2 -0.004085 0.017423 0.001123 0.009426 0.002931 0.009491
# 3 -0.003126 0.001123 0.014281 0.010150 0.005039 0.003645
# 4 -0.008350 0.009426 0.010150 0.092250 0.015453 -0.005612
# 5 -0.003697 0.002931 0.005039 0.015453 0.028122 0.007531
# 6 0.008099 0.009491 0.003645 -0.005612 0.007531 0.080718
#
#
# Mechanical properties :
#
#
# Convention : Reuss Voigt Hill
#
# Bulk Modulus (GPa) = 30.44767 40.95593 35.70180
# Shear Modulus (GPa) = 18.57140 28.06437 23.31789
#
# Velocity S-wave (km/s) = 2.99456 3.68120 3.35549
# Velocity P-wave (km/s) = 5.16319 6.15177 5.67904
#
# Compressibility (1/GPa) = 0.03284324
#
# Stress axis : x y z
#
# Youngs Moduli (GPa) = 75.10104 57.39676 70.02450
#
# Poissons Ratio (x) = 0.23449 0.21887
# Poissons Ratio (y) = 0.30682 -0.07866
# Poissons Ratio (z) = 0.23474 -0.06448
#
# Static dielectric constant tensor:
#      x y z
#    x 1.855180 0.018090 -0.007220 
#    y 0.018090 1.755880 -0.028340 
#    z -0.007220 -0.028340 1.783440 
# 
# From -- ./inp_files/591051.got.cif
#   From: 2010.05.17/outbox.cif.g08.bks.cpg/sg2_296_cif.got.tgz:591051.got - 2010.06.03 11:33:40.
