data_PCOD9012257
_publ_section_title
;
Structure prediction by ZEFSAII (Michael W. Deem and Ramdas Pophale) SiO2 
 PCOD9012257
Probable space group: P -1
;
_chemical_formula_sum "Si O2"
_cell_formula_units_Z 14
_cell_length_a 16.498610
_cell_length_b 13.389903
_cell_length_c 9.130886
_cell_angle_alpha 130.960391
_cell_angle_beta 136.571340
_cell_angle_gamma 27.666685
_cell_volume 643.396417
_symmetry_space_group_name_H-M "P -1"
_symmetry_group_IT_number 2
_symmetry_cell_setting 'triclinic'
loop_
_space_group_symop_operation_xyz
x,y,z
-x,-y,-z
loop_
_atom_site_type_symbol
_atom_site_label
_atom_site_fract_x
_atom_site_fract_y
_atom_site_fract_z
Si Si1 0.543678 0.065699 0.748571
Si Si2 0.010232 0.083840 0.236174
Si Si3 0.873526 0.500677 0.413935
Si Si4 0.134446 0.024524 0.892104
Si Si5 0.807904 0.627131 0.788927
Si Si6 0.283265 0.528359 0.275254
Si Si7 0.310622 0.809774 0.614680
O O1 0.339027 0.307416 0.749104
O O2 0.500000 0.000000 0.500000
O O3 0.652533 0.882211 0.835899
O O4 0.695167 0.043270 0.876594
O O5 0.950883 0.283182 0.305945
O O6 0.878348 0.115518 0.206069
O O7 0.210411 0.916390 0.427441
O O8 0.000000 0.000000 0.000000
O O9 0.856550 0.555294 0.615091
O O10 0.000000 0.500000 0.500000
O O11 0.182257 0.983832 0.742582
O O12 0.926762 0.275568 0.886996
O O13 0.728978 0.567045 0.705011
O O14 0.000000 0.500000 0.000000
O O15 0.315539 0.647989 0.492047
O O16 0.471493 0.332943 0.238375
#
# Coordination Sequence:
#
# PCOD9012257 Si02
#       7
#     2   2   2   2   2   2   2
#     4  10  25  42  65  99 140 187 223 291 364 411
#     4  11  26  42  72 103 141 192 233 286 355 425
#     4  11  27  45  66 102 147 185 233 288 356 427
#     4  11  22  45  70  97 140 175 243 294 347 417
#     4  11  22  42  72  98 135 186 233 289 352 413
#     4  10  21  40  69 103 135 168 233 295 352 404
#     4  10  23  41  71 103 132 177 234 296 350 416
#
# _framework density 21.759523999999999
#
# number of rings (size 3 to 8) (size 9 to 14) (size 15 to 20)
#    0.000    1.429    1.429    3.429    6.000    6.286 
#    0.000    1.429    0.000    0.000    0.000    0.000 
#    0.000    0.000    0.000    0.000    0.000    0.000 
#
# Total GULP energy -78225.047244 kJ/mol
# GULP energy per Si atom -5587.503375 kJ/mol
# Density = 2.171000 g / cm^3
# Si number density = 21.759524 Si / 1000 Ang^3
#
#
#
# Elastic Constant Matrix: (Units=GPa)
#
#
# Indices 1 2 3 4 5 6 
#
# 1 152.3244 79.8159 48.6436 -14.1572 27.5303 13.1220
# 2 79.8159 157.5773 57.1504 -19.1800 17.3477 18.9340
# 3 48.6436 57.1504 123.8070 -14.5175 8.1207 -9.3856
# 4 -14.1572 -19.1800 -14.5175 32.0191 -6.5054 11.0054
# 5 27.5303 17.3477 8.1207 -6.5054 42.6879 -0.5593
# 6 13.1220 18.9340 -9.3856 11.0054 -0.5593 43.9338
#
#
#
# Elastic Compliance Matrix: (Units=1/GPa)
#
#
# Indices 1 2 3 4 5 6 
#
# 1 0.010221 -0.003425 -0.002154 0.001395 -0.004610 -0.002445
# 2 -0.003425 0.010680 -0.003356 0.005123 -0.000785 -0.005590
# 3 -0.002154 -0.003356 0.010815 0.000654 0.000851 0.004247
# 4 0.001395 0.005123 0.000654 0.040083 0.002839 -0.012489
# 5 -0.004610 -0.000785 0.000851 0.002839 0.027009 0.001530
# 6 -0.002445 -0.005590 0.004247 -0.012489 0.001530 0.029956
#
#
# Mechanical properties :
#
#
# Convention : Reuss Voigt Hill
#
# Bulk Modulus (GPa) = 72.22151 89.43651 80.82901
# Shear Modulus (GPa) = 33.05820 40.26809 36.66315
#
# Velocity S-wave (km/s) = 3.90199 4.30652 4.10924
# Velocity P-wave (km/s) = 7.31871 8.11909 7.72927
#
# Compressibility (1/GPa) = 0.01384629
#
# Stress axis : x y z
#
# Youngs Moduli (GPa) = 97.84040 93.63719 92.46066
#
# Poissons Ratio (x) = 0.32067 0.19919
# Poissons Ratio (y) = 0.33507 0.31027
# Poissons Ratio (z) = 0.21078 0.31422
#
# Static dielectric constant tensor:
#      x y z
#    x 1.791930 -0.012880 -0.010190 
#    y -0.012880 1.834700 -0.003390 
#    z -0.010190 -0.003390 1.803720 
# 
# From -- ./inp_files/308390.got.cif
#   From: 2010.05.17/outbox.cif.g08.bks.cpg/sg2_155_cif.got.tgz:308390.got - 2010.06.03 11:33:40.
