data_PCOD9012319
_publ_section_title
;
Structure prediction by ZEFSAII (Michael W. Deem and Ramdas Pophale) SiO2 
 PCOD9012319
Probable space group: P -1
;
_chemical_formula_sum "Si O2"
_cell_formula_units_Z 16
_cell_length_a 13.990553
_cell_length_b 9.239351
_cell_length_c 16.968944
_cell_angle_alpha 117.525653
_cell_angle_beta 147.103571
_cell_angle_gamma 85.647635
_cell_volume 804.559495
_symmetry_space_group_name_H-M "P -1"
_symmetry_group_IT_number 2
_symmetry_cell_setting 'triclinic'
loop_
_space_group_symop_operation_xyz
x,y,z
-x,-y,-z
loop_
_atom_site_type_symbol
_atom_site_label
_atom_site_fract_x
_atom_site_fract_y
_atom_site_fract_z
Si Si1 0.365689 0.701786 0.450783
Si Si2 0.537891 0.112912 0.763797
Si Si3 0.223109 0.741437 0.198226
Si Si4 0.394959 0.759217 0.885736
Si Si5 0.861300 0.409744 0.482992
Si Si6 0.152952 0.075527 0.201472
Si Si7 0.023064 0.324719 0.221976
Si Si8 0.763737 0.963332 0.326404
O O1 0.353085 0.790005 0.382153
O O2 0.590298 0.728588 0.600092
O O3 0.147122 0.463750 0.263368
O O4 0.415918 0.870763 0.593144
O O5 0.642975 0.234152 0.782700
O O6 0.365776 0.118134 0.698634
O O7 0.754756 0.203882 0.993762
O O8 0.152857 0.888127 0.179344
O O9 0.000000 0.500000 0.000000
O O10 0.332566 0.646349 0.728079
O O11 0.130276 0.605745 0.695194
O O12 0.578151 0.801033 0.087930
O O13 0.500000 0.000000 0.000000
O O14 0.848661 0.500855 0.577354
O O15 0.827701 0.193939 0.415040
O O16 0.062147 0.156552 0.218516
O O17 0.000000 0.000000 0.000000
O O18 0.000000 0.000000 0.500000
#
# Coordination Sequence:
#
# PCOD9012319 Si02
#       8
#     2   2   2   2   2   2   2   2
#     4  11  22  41  64  91 139 173 208 268 336 383
#     4  11  21  39  66  93 125 172 220 266 333 390
#     4  11  22  41  65  92 139 177 210 268 329 388
#     4   9  20  41  65  91 125 161 215 271 338 387
#     4  10  21  40  69  93 122 173 214 268 344 385
#     4  11  21  37  63  97 126 168 223 264 308 386
#     4  12  21  38  70  95 126 172 227 264 316 405
#     4  11  23  41  70  95 129 169 222 280 328 401
#
# _framework density 19.886658000000001
#
# number of rings (size 3 to 8) (size 9 to 14) (size 15 to 20)
#    0.000    1.250    6.250    1.875    0.000    0.500 
#    0.000    7.500    5.500    0.000    0.000    0.000 
#    0.000    0.000    0.000    0.000    0.000    0.000 
#
# Total GULP energy -89092.712963 kJ/mol
# GULP energy per Si atom -5568.294560 kJ/mol
# Density = 1.984140 g / cm^3
# Si number density = 19.886658 Si / 1000 Ang^3
#
#
#
# Elastic Constant Matrix: (Units=GPa)
#
#
# Indices 1 2 3 4 5 6 
#
# 1 110.9484 43.2636 46.5294 -8.8013 -7.6436 0.9494
# 2 43.2636 85.2256 42.4809 -0.4188 0.0943 3.5677
# 3 46.5294 42.4809 132.5620 -8.6037 -15.2757 -1.9403
# 4 -8.8013 -0.4188 -8.6037 35.0361 7.5916 5.6461
# 5 -7.6436 0.0943 -15.2757 7.5916 45.1800 0.9768
# 6 0.9494 3.5677 -1.9403 5.6461 0.9768 26.9636
#
#
#
# Elastic Compliance Matrix: (Units=1/GPa)
#
#
# Indices 1 2 3 4 5 6 
#
# 1 0.012220 -0.004947 -0.002462 0.002292 0.000870 -0.000464
# 2 -0.004947 0.016208 -0.003786 -0.001260 -0.001898 -0.001910
# 3 -0.002462 -0.003786 0.010024 0.001035 0.002785 0.000991
# 4 0.002292 -0.001260 0.001035 0.031312 -0.004386 -0.006237
# 5 0.000870 -0.001898 0.002785 -0.004386 0.023953 0.000472
# 6 -0.000464 -0.001910 0.000991 -0.006237 0.000472 0.038717
#
#
# Mechanical properties :
#
#
# Convention : Reuss Voigt Hill
#
# Bulk Modulus (GPa) = 62.25660 65.92043 64.08851
# Shear Modulus (GPa) = 31.21539 34.53341 32.87440
#
# Velocity S-wave (km/s) = 3.96620 4.17167 4.07023
# Velocity P-wave (km/s) = 7.23519 7.51158 7.37468
#
# Compressibility (1/GPa) = 0.01606255
#
# Stress axis : x y z
#
# Youngs Moduli (GPa) = 81.83080 61.69910 99.76391
#
# Poissons Ratio (x) = 0.30520 0.24561
# Poissons Ratio (y) = 0.40478 0.37771
# Poissons Ratio (z) = 0.20146 0.23360
#
# Static dielectric constant tensor:
#      x y z
#    x 1.768400 0.037170 -0.031760 
#    y 0.037170 1.702390 -0.010170 
#    z -0.031760 -0.010170 1.772810 
# 
# From -- ./inp_files/572890.got.cif
#   From: 2010.05.17/outbox.cif.g08.bks.cpg/sg2_287_cif.got.tgz:572890.got - 2010.06.03 11:33:40.
