data_PCOD9012451
_publ_section_title
;
Structure prediction by ZEFSAII (Michael W. Deem and Ramdas Pophale) SiO2 
 PCOD9012451
Probable space group: P -1
;
_chemical_formula_sum "Si O2"
_cell_formula_units_Z 14
_cell_length_a 14.662672
_cell_length_b 7.960590
_cell_length_c 5.051722
_cell_angle_alpha 81.043930
_cell_angle_beta 82.759178
_cell_angle_gamma 68.848961
_cell_volume 541.661985
_symmetry_space_group_name_H-M "P -1"
_symmetry_group_IT_number 2
_symmetry_cell_setting 'triclinic'
loop_
_space_group_symop_operation_xyz
x,y,z
-x,-y,-z
loop_
_atom_site_type_symbol
_atom_site_label
_atom_site_fract_x
_atom_site_fract_y
_atom_site_fract_z
Si Si1 0.808476 0.378818 0.399394
Si Si2 0.841382 0.738770 0.327717
Si Si3 0.262150 0.861176 0.864545
Si Si4 0.346570 0.182553 0.274999
Si Si5 0.610851 0.214238 0.681574
Si Si6 0.603922 0.648911 0.295435
Si Si7 0.020999 0.865466 0.277575
O O1 0.846808 0.543052 0.264966
O O2 0.811919 0.224935 0.221962
O O3 0.691007 0.482894 0.431866
O O4 0.872104 0.280127 0.652075
O O5 0.766283 0.771242 0.597520
O O6 0.946194 0.754511 0.338403
O O7 0.788414 0.922259 0.132487
O O8 0.346424 0.824470 0.619960
O O9 0.312491 0.769063 0.135194
O O10 0.605683 0.018003 0.807727
O O11 0.403322 0.201180 0.515551
O O12 0.355881 0.313560 0.008624
O O13 0.502885 0.358122 0.709110
O O14 0.000000 0.000000 0.500000
O O15 0.000000 0.000000 0.000000
#
# Coordination Sequence:
#
# PCOD9012451 Si02
#       7
#     2   2   2   2   2   2   2
#     4  11  26  48  75 109 145 190 242 300 359 431
#     4  10  24  49  76 107 144 189 237 299 362 429
#     4  11  25  42  72 104 150 191 242 289 358 423
#     4  10  21  40  70 106 145 194 241 295 351 429
#     4  11  22  40  66 104 149 198 233 297 353 415
#     4  11  23  40  69 106 149 189 248 291 353 423
#     4  12  28  50  80 108 143 185 239 301 371 437
#
# _framework density 25.846378000000001
#
# number of rings (size 3 to 8) (size 9 to 14) (size 15 to 20)
#    0.000    1.143    1.429    4.714    2.000    8.000 
#    0.000    2.143    0.000    0.000    0.000    0.000 
#    0.000    0.000    0.000    0.000    0.000    0.000 
#
# Total GULP energy -78308.298741 kJ/mol
# GULP energy per Si atom -5593.449910 kJ/mol
# Density = 2.578755 g / cm^3
# Si number density = 25.846378 Si / 1000 Ang^3
#
#
#
# Elastic Constant Matrix: (Units=GPa)
#
#
# Indices 1 2 3 4 5 6 
#
# 1 168.8381 36.7104 59.9570 -27.8779 25.7084 -29.0728
# 2 36.7104 92.4946 25.7192 -30.8805 2.7148 11.2290
# 3 59.9570 25.7192 156.5826 -12.4603 8.5417 -5.7952
# 4 -27.8779 -30.8805 -12.4603 29.6413 0.1582 4.3650
# 5 25.7084 2.7148 8.5417 0.1582 31.7007 -4.6720
# 6 -29.0728 11.2290 -5.7952 4.3650 -4.6720 49.1456
#
#
#
# Elastic Compliance Matrix: (Units=1/GPa)
#
#
# Indices 1 2 3 4 5 6 
#
# 1 0.010011 -0.001690 -0.002546 0.005905 -0.006601 0.004856
# 2 -0.001690 0.018992 -0.001187 0.018771 -0.001099 -0.007250
# 3 -0.002546 -0.001187 0.007505 -0.000432 0.000102 -0.000302
# 4 0.005905 0.018771 -0.000432 0.059717 -0.007591 -0.006872
# 5 -0.006601 -0.001099 0.000102 -0.007591 0.037085 0.000558
# 6 0.004856 -0.007250 -0.000302 -0.006872 0.000558 0.025505
#
#
# Mechanical properties :
#
#
# Convention : Reuss Voigt Hill
#
# Bulk Modulus (GPa) = 38.96809 73.63205 56.30007
# Shear Modulus (GPa) = 28.05628 41.79944 34.92786
#
# Velocity S-wave (km/s) = 3.29827 4.02584 3.68008
# Velocity P-wave (km/s) = 5.44190 7.08237 6.31563
#
# Compressibility (1/GPa) = 0.02566203
#
# Stress axis : x y z
#
# Youngs Moduli (GPa) = 99.89450 52.65506 133.24227
#
# Poissons Ratio (x) = 0.08896 0.33922
# Poissons Ratio (y) = 0.16877 0.15818
# Poissons Ratio (z) = 0.25432 0.06251
#
# Static dielectric constant tensor:
#      x y z
#    x 2.088140 0.024290 -0.028010 
#    y 0.024290 2.199330 -0.037380 
#    z -0.028010 -0.037380 1.970020 
# 
# From -- ./inp_files/88596.got.cif
#   From: 2010.05.17/outbox.cif.g08.bks.cpg/sg2_45_cif.got.tgz:88596.got - 2010.06.03 11:33:40.
