data_PCOD9012117
_publ_section_title
;
Structure prediction by ZEFSAII (Michael W. Deem and Ramdas Pophale) SiO2 
 PCOD9012117
Probable space group: P -1
;
_chemical_formula_sum "Si O2"
_cell_formula_units_Z 16
_cell_length_a 20.523473
_cell_length_b 8.031724
_cell_length_c 5.285471
_cell_angle_alpha 95.185024
_cell_angle_beta 45.047858
_cell_angle_gamma 88.397795
_cell_volume 608.826788
_symmetry_space_group_name_H-M "P -1"
_symmetry_group_IT_number 2
_symmetry_cell_setting 'triclinic'
loop_
_space_group_symop_operation_xyz
x,y,z
-x,-y,-z
loop_
_atom_site_type_symbol
_atom_site_label
_atom_site_fract_x
_atom_site_fract_y
_atom_site_fract_z
Si Si1 0.597217 0.334252 0.308536
Si Si2 0.725331 0.877556 0.430960
Si Si3 0.238810 0.665461 0.806133
Si Si4 0.562387 0.149560 0.858399
Si Si5 0.833023 0.607826 0.759447
Si Si6 0.857563 0.094466 0.323064
Si Si7 0.046911 0.109066 0.589332
Si Si8 0.324418 0.402728 0.169819
O O1 0.705299 0.277853 0.093220
O O2 0.542438 0.281954 0.699839
O O3 0.567766 0.233765 0.130687
O O4 0.606440 0.524319 0.208909
O O5 0.666126 0.789690 0.791488
O O6 0.663564 0.042953 0.525912
O O7 0.822549 0.925784 0.274877
O O8 0.751715 0.738004 0.129688
O O9 0.199006 0.772221 0.690087
O O10 0.318992 0.528975 0.440311
O O11 0.159678 0.563787 0.125823
O O12 0.500000 0.000000 0.000000
O O13 0.918603 0.712486 0.532437
O O14 0.782907 0.572634 0.631573
O O15 0.864543 0.023094 0.580915
O O16 0.961713 0.143651 0.023530
O O17 0.000000 0.000000 0.500000
#
# Coordination Sequence:
#
# PCOD9012117 Si02
#       8
#     2   2   2   2   2   2   2   2
#     4  11  22  46  69  98 138 174 217 272 336 399
#     4  11  22  40  68  97 126 176 228 267 336 404
#     4  10  22  40  67  96 127 180 224 274 325 400
#     4  12  27  45  72 106 138 170 221 280 332 401
#     4  10  22  38  63  92 131 171 227 274 329 397
#     4  11  22  38  62  92 127 173 227 273 338 388
#     4  11  23  38  58  93 133 170 221 287 329 388
#     4  10  21  40  68  96 131 173 229 270 326 402
#
# _framework density 26.280052000000001
#
# number of rings (size 3 to 8) (size 9 to 14) (size 15 to 20)
#    0.000    1.250    5.000    0.375    1.750    4.500 
#    0.000    2.500    0.000    0.000    0.000    0.000 
#    0.000    0.000    0.000    0.000    0.000    0.000 
#
# Total GULP energy -89178.129790 kJ/mol
# GULP energy per Si atom -5573.633112 kJ/mol
# Density = 2.622024 g / cm^3
# Si number density = 26.280052 Si / 1000 Ang^3
#
#
#
# Elastic Constant Matrix: (Units=GPa)
#
#
# Indices 1 2 3 4 5 6 
#
# 1 133.9185 70.2489 40.2451 -20.4881 24.7223 16.5861
# 2 70.2489 113.7680 39.6084 -50.3085 13.4473 7.8718
# 3 40.2451 39.6084 84.0686 -50.4764 2.2890 12.8618
# 4 -20.4881 -50.3085 -50.4764 59.3970 -1.2544 -3.1071
# 5 24.7223 13.4473 2.2890 -1.2544 48.0974 -9.1149
# 6 16.5861 7.8718 12.8618 -3.1071 -9.1149 58.0013
#
#
#
# Elastic Compliance Matrix: (Units=1/GPa)
#
#
# Indices 1 2 3 4 5 6 
#
# 1 0.015047 -0.010481 -0.008391 -0.011054 -0.005152 -0.002421
# 2 -0.010481 0.022377 0.007721 0.021846 -0.000801 -0.000708
# 3 -0.008391 0.007721 0.030428 0.029326 0.000769 -0.003704
# 4 -0.011054 0.021846 0.029326 0.056245 -0.001009 -0.003452
# 5 -0.005152 -0.000801 0.000769 -0.001009 0.024590 0.005221
# 6 -0.002421 -0.000708 -0.003704 -0.003452 0.005221 0.019486
#
#
# Mechanical properties :
#
#
# Convention : Reuss Voigt Hill
#
# Bulk Modulus (GPa) = 21.95412 70.21778 46.08595
# Shear Modulus (GPa) = 24.31216 45.20932 34.76074
#
# Velocity S-wave (km/s) = 3.04488 4.15214 3.64085
# Velocity P-wave (km/s) = 4.55343 7.05436 5.93708
#
# Compressibility (1/GPa) = 0.04554955
#
# Stress axis : x y z
#
# Youngs Moduli (GPa) = 66.45952 44.68814 32.86483
#
# Poissons Ratio (x) = 0.46838 0.27577
# Poissons Ratio (y) = 0.69657 -0.25375
# Poissons Ratio (z) = 0.55767 -0.34504
#
# Static dielectric constant tensor:
#      x y z
#    x 2.180650 0.045500 -0.025550 
#    y 0.045500 2.158430 0.023610 
#    z -0.025550 0.023610 2.289330 
# 
# From -- ./inp_files/117005.got.cif
#   From: 2010.05.17/outbox.cif.g08.bks.cpg/sg2_59_cif.got.tgz:117005.got - 2010.06.03 11:33:40.
