data_PCOD9012491
_publ_section_title
;
Structure prediction by ZEFSAII (Michael W. Deem and Ramdas Pophale) SiO2 
 PCOD9012491
Probable space group: P -1
;
_chemical_formula_sum "Si O2"
_cell_formula_units_Z 14
_cell_length_a 9.652001
_cell_length_b 18.171966
_cell_length_c 9.943606
_cell_angle_alpha 144.638814
_cell_angle_beta 45.030041
_cell_angle_gamma 143.821052
_cell_volume 589.797216
_symmetry_space_group_name_H-M "P -1"
_symmetry_group_IT_number 2
_symmetry_cell_setting 'triclinic'
loop_
_space_group_symop_operation_xyz
x,y,z
-x,-y,-z
loop_
_atom_site_type_symbol
_atom_site_label
_atom_site_fract_x
_atom_site_fract_y
_atom_site_fract_z
Si Si1 0.739690 0.861032 0.576455
Si Si2 0.894406 0.115082 0.451353
Si Si3 0.027499 0.800158 0.092236
Si Si4 0.388547 0.732983 0.834737
Si Si5 0.396959 0.960337 0.718800
Si Si6 0.051165 0.645559 0.594886
Si Si7 0.133416 0.457625 0.739369
O O1 0.497042 0.727970 0.612543
O O2 0.958438 0.933381 0.641040
O O3 0.815098 0.791988 0.303765
O O4 0.760693 0.018304 0.765191
O O5 0.807613 0.073114 0.296080
O O6 0.077818 0.300438 0.602968
O O7 0.646176 0.042713 0.591806
O O8 0.138898 0.715811 0.962514
O O9 0.967960 0.729192 0.877426
O O10 0.379408 0.621114 0.787536
O O11 0.569806 0.909383 0.013226
O O12 0.311748 0.797164 0.601218
O O13 0.000000 0.500000 0.500000
O O14 0.944151 0.582972 0.425950
O O15 0.000000 0.500000 0.000000
#
# Coordination Sequence:
#
# PCOD9012491 Si02
#       7
#     2   2   2   2   2   2   2
#     4  11  24  40  70  98 139 176 232 284 327 416
#     4  10  22  42  64 101 131 178 228 276 344 397
#     4  11  23  42  65  99 137 179 225 280 341 400
#     4  12  22  41  71  98 131 187 229 275 341 401
#     4  10  21  40  70  95 129 181 229 271 338 407
#     4  11  23  40  69 102 136 177 226 282 343 402
#     4  11  22  41  71  99 138 179 226 284 337 410
#
# _framework density 23.736972000000002
#
# number of rings (size 3 to 8) (size 9 to 14) (size 15 to 20)
#    0.000    1.143    5.714    0.429    0.000    1.143 
#    0.000    0.714    0.000    0.000    0.000    0.000 
#    0.000    0.000    0.000    0.000    0.000    0.000 
#
# Total GULP energy -77996.913581 kJ/mol
# GULP energy per Si atom -5571.208113 kJ/mol
# Density = 2.368295 g / cm^3
# Si number density = 23.736972 Si / 1000 Ang^3
#
#
#
# Elastic Constant Matrix: (Units=GPa)
#
#
# Indices 1 2 3 4 5 6 
#
# 1 72.7729 4.0623 22.3440 -0.0251 13.3005 -13.5083
# 2 4.0623 145.8874 42.9242 -3.4913 -12.3741 -31.4706
# 3 22.3440 42.9242 126.0098 -14.5430 13.8400 -5.8698
# 4 -0.0251 -3.4913 -14.5430 43.2893 -12.6213 4.5070
# 5 13.3005 -12.3741 13.8400 -12.6213 27.7409 -2.5150
# 6 -13.5083 -31.4706 -5.8698 4.5070 -2.5150 30.9330
#
#
#
# Elastic Compliance Matrix: (Units=1/GPa)
#
#
# Indices 1 2 3 4 5 6 
#
# 1 0.017446 0.001495 -0.002850 -0.003830 -0.007241 0.008568
# 2 0.001495 0.011354 -0.004381 0.000487 0.007837 0.011939
# 3 -0.002850 -0.004381 0.010552 0.002108 -0.005295 -0.004437
# 4 -0.003830 0.000487 0.002108 0.028168 0.013474 -0.003786
# 5 -0.007241 0.007837 -0.005295 0.013474 0.052340 0.006099
# 6 0.008568 0.011939 -0.004437 -0.003786 0.006099 0.048422
#
#
# Mechanical properties :
#
#
# Convention : Reuss Voigt Hill
#
# Bulk Modulus (GPa) = 35.86940 53.70345 44.78643
# Shear Modulus (GPa) = 26.44836 38.74863 32.59849
#
# Velocity S-wave (km/s) = 3.34162 4.04470 3.70986
# Velocity P-wave (km/s) = 5.48020 6.66981 6.10405
#
# Compressibility (1/GPa) = 0.02787891
#
# Stress axis : x y z
#
# Youngs Moduli (GPa) = 57.32083 88.07519 94.76935
#
# Poissons Ratio (x) = -0.13171 0.27014
# Poissons Ratio (y) = -0.08572 0.41521
# Poissons Ratio (z) = 0.16339 0.38588
#
# Static dielectric constant tensor:
#      x y z
#    x 1.973650 -0.005750 0.046510 
#    y -0.005750 1.993790 -0.001590 
#    z 0.046510 -0.001590 1.912040 
# 
# From -- ./inp_files/391103.got.cif
#   From: 2010.05.17/outbox.cif.g08.bks.cpg/sg2_196_cif.got.tgz:391103.got - 2010.06.03 11:33:40.
