data_PCOD9012465
_publ_section_title
;
Structure prediction by ZEFSAII (Michael W. Deem and Ramdas Pophale) SiO2 
 PCOD9012465
Probable space group: P -1
;
_chemical_formula_sum "Si O2"
_cell_formula_units_Z 12
_cell_length_a 14.037579
_cell_length_b 11.691934
_cell_length_c 12.701680
_cell_angle_alpha 32.787753
_cell_angle_beta 144.665633
_cell_angle_gamma 153.099813
_cell_volume 491.839698
_symmetry_space_group_name_H-M "P -1"
_symmetry_group_IT_number 2
_symmetry_cell_setting 'triclinic'
loop_
_space_group_symop_operation_xyz
x,y,z
-x,-y,-z
loop_
_atom_site_type_symbol
_atom_site_label
_atom_site_fract_x
_atom_site_fract_y
_atom_site_fract_z
Si Si1 0.807335 0.289886 0.600103
Si Si2 0.374669 0.118148 0.613953
Si Si3 0.454021 0.306112 0.766407
Si Si4 0.397432 0.772309 0.737257
Si Si5 0.166533 0.341719 0.006524
Si Si6 0.084427 0.156285 0.686085
O O1 0.788354 0.276542 0.466444
O O2 0.782987 0.517529 0.426523
O O3 0.000827 0.371578 0.785795
O O4 0.611028 0.972928 0.704907
O O5 0.414053 0.132201 0.762448
O O6 0.523496 0.435325 0.459037
O O7 0.429354 0.957902 0.720123
O O8 0.122834 0.968669 0.478907
O O9 0.251592 0.136005 0.796718
O O10 0.684894 0.468118 0.907564
O O11 0.336960 0.492386 0.945973
O O12 0.024259 0.026563 0.163142
#
# Coordination Sequence:
#
# PCOD9012465 Si02
#       6
#     2   2   2   2   2   2
#     4  11  24  44  68  92 130 171 214 264 317 381
#     4  10  21  40  70  90 129 174 207 263 318 379
#     4  10  22  42  64  98 130 164 216 260 321 380
#     4  11  23  44  65  94 129 171 215 261 320 378
#     4  11  24  42  66 100 127 168 214 264 321 379
#     4  11  22  42  68  98 126 169 213 263 320 379
#
# _framework density 24.398194
#
# number of rings (size 3 to 8) (size 9 to 14) (size 15 to 20)
#    0.000    1.333    3.333    2.000    0.000    1.333 
#    3.000    4.167    0.000    0.000    0.000    0.000 
#    0.000    0.000    0.000    0.000    0.000    0.000 
#
# Total GULP energy -67021.903148 kJ/mol
# GULP energy per Si atom -5585.158596 kJ/mol
# Density = 2.434266 g / cm^3
# Si number density = 24.398194 Si / 1000 Ang^3
#
#
#
# Elastic Constant Matrix: (Units=GPa)
#
#
# Indices 1 2 3 4 5 6 
#
# 1 58.6259 24.7480 43.1995 -5.6477 -20.4000 -13.3746
# 2 24.7480 89.3714 47.0132 -10.5135 -18.7062 5.2623
# 3 43.1995 47.0132 143.3926 1.1466 -30.1265 -2.0685
# 4 -5.6477 -10.5135 1.1466 38.8075 14.0143 -5.4162
# 5 -20.4000 -18.7062 -30.1265 14.0143 27.3618 -7.0340
# 6 -13.3746 5.2623 -2.0685 -5.4162 -7.0340 35.7260
#
#
#
# Elastic Compliance Matrix: (Units=1/GPa)
#
#
# Indices 1 2 3 4 5 6 
#
# 1 0.033214 -0.003604 -0.003510 -0.002325 0.024032 0.017141
# 2 -0.003604 0.014843 -0.003554 0.002671 0.001392 -0.003062
# 3 -0.003510 -0.003554 0.011522 -0.005544 0.010777 0.001158
# 4 -0.002325 0.002671 -0.005544 0.034893 -0.024153 -0.001051
# 5 0.024032 0.001392 0.010777 -0.024153 0.085458 0.022580
# 6 0.017141 -0.003062 0.001158 -0.001051 0.022580 0.039212
#
#
# Mechanical properties :
#
#
# Convention : Reuss Voigt Hill
#
# Bulk Modulus (GPa) = 26.14809 57.92346 42.03577
# Shear Modulus (GPa) = 19.74546 32.14101 25.94323
#
# Velocity S-wave (km/s) = 2.84791 3.63347 3.26441
# Velocity P-wave (km/s) = 4.64269 6.43391 5.61025
#
# Compressibility (1/GPa) = 0.03824372
#
# Stress axis : x y z
#
# Youngs Moduli (GPa) = 30.10807 67.37403 86.79402
#
# Poissons Ratio (x) = 0.24279 0.30462
# Poissons Ratio (y) = 0.10850 0.30844
# Poissons Ratio (z) = 0.10567 0.23942
#
# Static dielectric constant tensor:
#      x y z
#    x 1.955190 0.071210 0.001170 
#    y 0.071210 2.031830 -0.009370 
#    z 0.001170 -0.009370 1.937800 
# 
# From -- ./inp_files/449666.got.cif
#   From: 2010.05.17/outbox.cif.g08.bks.cpg/sg2_225_cif.got.tgz:449666.got - 2010.06.03 11:33:40.
