data_PCOD9012417
_publ_section_title
;
Structure prediction by ZEFSAII (Michael W. Deem and Ramdas Pophale) SiO2 
 PCOD9012417
Probable space group: P -1
;
_chemical_formula_sum "Si O2"
_cell_formula_units_Z 16
_cell_length_a 5.502695
_cell_length_b 14.185688
_cell_length_c 13.401302
_cell_angle_alpha 50.758980
_cell_angle_beta 99.206406
_cell_angle_gamma 74.109756
_cell_volume 696.937326
_symmetry_space_group_name_H-M "P -1"
_symmetry_group_IT_number 2
_symmetry_cell_setting 'triclinic'
loop_
_space_group_symop_operation_xyz
x,y,z
-x,-y,-z
loop_
_atom_site_type_symbol
_atom_site_label
_atom_site_fract_x
_atom_site_fract_y
_atom_site_fract_z
Si Si1 0.208997 0.219357 0.574281
Si Si2 0.243852 0.822882 0.025063
Si Si3 0.342560 0.380763 0.309574
Si Si4 0.148000 0.314695 0.953043
Si Si5 0.673870 0.795087 0.738679
Si Si6 0.677319 0.392903 0.498383
Si Si7 0.862975 0.913273 0.508444
Si Si8 0.739703 0.113240 0.784977
O O1 0.327789 0.269565 0.457433
O O2 0.033507 0.161026 0.540973
O O3 0.460724 0.110344 0.731437
O O4 0.998564 0.357778 0.527877
O O5 0.281879 0.856392 0.119276
O O6 0.548938 0.746796 0.042073
O O7 0.057683 0.743893 0.061029
O O8 0.023822 0.975582 0.865428
O O9 0.438873 0.296801 0.267596
O O10 0.527236 0.429450 0.355782
O O11 0.040098 0.517848 0.181313
O O12 0.211194 0.270093 0.103110
O O13 0.890550 0.804774 0.668602
O O14 0.451710 0.960208 0.622049
O O15 0.500000 0.500000 0.500000
O O16 0.721227 0.247650 0.642124
O O17 0.000000 0.000000 0.500000
#
# Coordination Sequence:
#
# PCOD9012417 Si02
#       8
#     2   2   2   2   2   2   2   2
#     4  10  23  41  70 100 137 180 234 289 353 415
#     4  11  28  46  71 105 139 191 233 295 345 418
#     4  10  24  44  64 102 141 182 236 287 348 421
#     4  12  27  46  73 100 145 186 239 281 356 413
#     4  10  23  43  66 101 135 184 229 290 349 413
#     4  11  24  40  71 102 138 183 232 289 352 416
#     4  10  21  40  70 100 137 175 233 289 348 416
#     4  10  25  44  69 100 141 180 239 292 350 412
#
# _framework density 22.957591000000001
#
# number of rings (size 3 to 8) (size 9 to 14) (size 15 to 20)
#    0.000    1.500    0.000    2.625   12.250    4.000 
#    0.000    1.250    0.000    0.000    0.000    0.000 
#    0.000    0.000    0.000    0.000    0.000    0.000 
#
# Total GULP energy -89274.537205 kJ/mol
# GULP energy per Si atom -5579.658575 kJ/mol
# Density = 2.290534 g / cm^3
# Si number density = 22.957591 Si / 1000 Ang^3
#
#
#
# Elastic Constant Matrix: (Units=GPa)
#
#
# Indices 1 2 3 4 5 6 
#
# 1 84.7378 40.4828 20.6161 9.5000 19.3597 -11.3564
# 2 40.4828 117.7851 36.6117 0.2712 15.2242 -13.6192
# 3 20.6161 36.6117 117.9259 0.1742 21.7041 -12.4197
# 4 9.5000 0.2712 0.1742 39.9576 0.4495 9.0870
# 5 19.3597 15.2242 21.7041 0.4495 25.5628 -9.1753
# 6 -11.3564 -13.6192 -12.4197 9.0870 -9.1753 38.1944
#
#
#
# Elastic Compliance Matrix: (Units=1/GPa)
#
#
# Indices 1 2 3 4 5 6 
#
# 1 0.016775 -0.004390 0.000439 -0.004379 -0.009556 0.002311
# 2 -0.004390 0.010996 -0.002361 0.000638 -0.000681 0.001533
# 3 0.000439 -0.002361 0.010639 -0.000274 -0.007600 0.000988
# 4 -0.004379 0.000638 -0.000274 0.027844 -0.000127 -0.007818
# 5 -0.009556 -0.000681 -0.007600 -0.000127 0.056069 0.007944
# 6 0.002311 0.001533 0.000988 -0.007818 0.007944 0.031505
#
#
# Mechanical properties :
#
#
# Convention : Reuss Voigt Hill
#
# Bulk Modulus (GPa) = 38.77735 57.31888 48.04812
# Shear Modulus (GPa) = 28.56351 35.59217 32.07784
#
# Velocity S-wave (km/s) = 3.53113 3.94171 3.74206
# Velocity P-wave (km/s) = 5.79247 6.76296 6.29644
#
# Compressibility (1/GPa) = 0.02578825
#
# Stress axis : x y z
#
# Youngs Moduli (GPa) = 59.61111 90.93935 93.99055
#
# Poissons Ratio (x) = 0.39918 -0.04125
# Poissons Ratio (y) = 0.26167 0.22188
# Poissons Ratio (z) = -0.02616 0.21468
#
# Static dielectric constant tensor:
#      x y z
#    x 2.077040 0.028970 0.062350 
#    y 0.028970 1.932130 -0.027380 
#    z 0.062350 -0.027380 1.838130 
# 
# From -- ./inp_files/483865.got.cif
#   From: 2010.05.17/outbox.cif.g08.bks.cpg/sg2_242_cif.got.tgz:483865.got - 2010.06.03 11:33:40.
