data_PCOD9012668
_publ_section_title
;
Structure prediction by ZEFSAII (Michael W. Deem and Ramdas Pophale) SiO2 
 PCOD9012668
Probable space group: P -1
;
_chemical_formula_sum "Si O2"
_cell_formula_units_Z 14
_cell_length_a 13.702545
_cell_length_b 8.890854
_cell_length_c 14.257776
_cell_angle_alpha 44.148063
_cell_angle_beta 33.716133
_cell_angle_gamma 40.346890
_cell_volume 607.089046
_symmetry_space_group_name_H-M "P -1"
_symmetry_group_IT_number 2
_symmetry_cell_setting 'triclinic'
loop_
_space_group_symop_operation_xyz
x,y,z
-x,-y,-z
loop_
_atom_site_type_symbol
_atom_site_label
_atom_site_fract_x
_atom_site_fract_y
_atom_site_fract_z
Si Si1 0.456216 0.946038 0.778187
Si Si2 0.496111 0.659179 0.551924
Si Si3 0.133008 0.438439 0.330179
Si Si4 0.183700 0.871981 0.157760
Si Si5 0.132165 0.740291 0.468336
Si Si6 0.137809 0.624381 0.860588
Si Si7 0.779223 0.177580 0.131415
O O1 0.679602 0.798746 0.689634
O O2 0.367530 0.813486 0.837384
O O3 0.430345 0.185336 0.640152
O O4 0.344278 0.959257 0.958363
O O5 0.676315 0.435806 0.551819
O O6 0.345844 0.559612 0.675752
O O7 0.351412 0.843343 0.665400
O O8 0.192712 0.655513 0.181485
O O9 0.000000 0.500000 0.500000
O O10 0.006244 0.397184 0.369518
O O11 0.194562 0.788077 0.293179
O O12 0.984774 0.099334 0.193675
O O13 0.000000 0.000000 0.500000
O O14 0.181798 0.610958 0.943827
O O15 0.000000 0.500000 0.000000
O O16 0.000000 0.000000 0.000000
#
# Coordination Sequence:
#
# PCOD9012668 Si02
#       7
#     2   2   2   2   2   2   2
#     4  12  22  43  74 109 138 187 239 301 356 427
#     4  10  24  42  76 105 145 183 249 290 360 426
#     4  10  23  42  71 102 148 185 241 294 358 422
#     4  11  24  45  71 103 143 187 242 297 363 423
#     4  11  26  50  70 104 146 196 237 300 365 426
#     4  10  24  46  70 103 148 186 240 296 358 428
#     4  10  21  40  74 107 141 173 247 292 355 402
#
# _framework density 23.060867999999999
#
# number of rings (size 3 to 8) (size 9 to 14) (size 15 to 20)
#    0.857    0.571    1.429    4.286    2.000    2.286 
#    2.571    3.571    0.000    0.000    0.000    0.000 
#    0.000    0.000    0.000    0.000    0.000    0.000 
#
# Total GULP energy -78006.113449 kJ/mol
# GULP energy per Si atom -5571.865246 kJ/mol
# Density = 2.300838 g / cm^3
# Si number density = 23.060868 Si / 1000 Ang^3
#
#
#
# Elastic Constant Matrix: (Units=GPa)
#
#
# Indices 1 2 3 4 5 6 
#
# 1 86.3848 38.5871 45.1132 -8.8231 -23.1609 -6.1422
# 2 38.5871 99.4411 45.5034 -1.0198 1.4249 -17.3596
# 3 45.1132 45.5034 161.8462 -7.0366 10.1700 -0.5550
# 4 -8.8231 -1.0198 -7.0366 37.0006 -8.7924 -6.8095
# 5 -23.1609 1.4249 10.1700 -8.7924 29.7723 0.5855
# 6 -6.1422 -17.3596 -0.5550 -6.8095 0.5855 51.2251
#
#
#
# Elastic Compliance Matrix: (Units=1/GPa)
#
#
# Indices 1 2 3 4 5 6 
#
# 1 0.026830 -0.007326 -0.006594 0.011682 0.026887 0.001909
# 2 -0.007326 0.014387 -0.001684 -0.002566 -0.006643 0.003714
# 3 -0.006594 -0.001684 0.008936 -0.002267 -0.008742 -0.001466
# 4 0.011682 -0.002566 -0.002267 0.035026 0.020232 0.004932
# 5 0.026887 -0.006643 -0.008742 0.020232 0.063728 0.002839
# 6 0.001909 0.003714 -0.001466 0.004932 0.002839 0.021616
#
#
# Mechanical properties :
#
#
# Convention : Reuss Voigt Hill
#
# Bulk Modulus (GPa) = 52.78608 67.34217 60.06413
# Shear Modulus (GPa) = 24.03319 38.16417 31.09868
#
# Velocity S-wave (km/s) = 3.23176 4.07250 3.67624
# Velocity P-wave (km/s) = 6.07168 7.16791 6.64245
#
# Compressibility (1/GPa) = 0.01894439
#
# Stress axis : x y z
#
# Youngs Moduli (GPa) = 37.27195 69.50793 111.90724
#
# Poissons Ratio (x) = 0.50921 0.73791
# Poissons Ratio (y) = 0.27305 0.18848
# Poissons Ratio (z) = 0.24577 0.11707
#
# Static dielectric constant tensor:
#      x y z
#    x 2.173410 0.260010 -0.025810 
#    y 0.260010 2.026950 -0.029810 
#    z -0.025810 -0.029810 1.925790 
# 
# From -- ./inp_files/529251.got.cif
#   From: 2010.05.17/outbox.cif.g08.bks.cpg/sg2_265_cif.got.tgz:529251.got - 2010.06.03 11:33:40.
