data_PCOD9012466
_publ_section_title
;
Structure prediction by ZEFSAII (Michael W. Deem and Ramdas Pophale) SiO2 
 PCOD9012466
Probable space group: P -1
;
_chemical_formula_sum "Si O2"
_cell_formula_units_Z 16
_cell_length_a 12.381813
_cell_length_b 9.204938
_cell_length_c 19.207592
_cell_angle_alpha 141.803057
_cell_angle_beta 140.576440
_cell_angle_gamma 37.729773
_cell_volume 759.658136
_symmetry_space_group_name_H-M "P -1"
_symmetry_group_IT_number 2
_symmetry_cell_setting 'triclinic'
loop_
_space_group_symop_operation_xyz
x,y,z
-x,-y,-z
loop_
_atom_site_type_symbol
_atom_site_label
_atom_site_fract_x
_atom_site_fract_y
_atom_site_fract_z
Si Si1 0.262431 0.744201 0.224294
Si Si2 0.502169 0.260411 0.067140
Si Si3 0.670457 0.795962 0.613952
Si Si4 0.937509 0.273254 0.610218
Si Si5 0.363809 0.588917 0.365395
Si Si6 0.247223 0.425134 0.866245
Si Si7 0.410215 0.048432 0.208770
Si Si8 0.858766 0.035527 0.057880
O O1 0.436598 0.488794 0.178713
O O2 0.242013 0.668128 0.263998
O O3 0.309541 0.990336 0.342782
O O4 0.067000 0.844306 0.120333
O O5 0.706630 0.163503 0.093877
O O6 0.342896 0.387978 0.975022
O O7 0.500000 0.000000 0.000000
O O8 0.859578 0.512749 0.605835
O O9 0.500849 0.725124 0.485695
O O10 0.640998 0.915801 0.722544
O O11 0.767952 0.326976 0.600219
O O12 0.104405 0.298472 0.744138
O O13 0.000000 0.000000 0.500000
O O14 0.476971 0.268173 0.304874
O O15 0.145317 0.723919 0.899348
O O16 0.426251 0.245609 0.837370
O O17 0.229552 0.102515 0.090035
#
# Coordination Sequence:
#
# PCOD9012466 Si02
#       8
#     2   2   2   2   2   2   2   2
#     4  12  25  43  68  95 140 173 211 272 327 399
#     4  11  26  41  67  99 137 175 209 270 333 389
#     4  11  22  43  65  93 125 175 224 263 329 380
#     4  11  23  40  67  94 123 170 223 273 317 387
#     4  11  25  42  63  96 129 174 218 267 332 385
#     4  11  21  41  63  98 131 166 222 269 323 385
#     4  10  21  40  70  91 127 170 216 280 315 385
#     4  11  24  42  66 103 131 171 222 263 330 390
#
# _framework density 21.062104000000001
#
# number of rings (size 3 to 8) (size 9 to 14) (size 15 to 20)
#    0.000    1.000    1.250    7.875    5.250    2.000 
#    0.000    0.625    0.000    0.000    0.000    0.000 
#    0.000    0.000    0.000    0.000    0.000    0.000 
#
# Total GULP energy -89510.015418 kJ/mol
# GULP energy per Si atom -5594.375964 kJ/mol
# Density = 2.101417 g / cm^3
# Si number density = 21.062104 Si / 1000 Ang^3
#
#
#
# Elastic Constant Matrix: (Units=GPa)
#
#
# Indices 1 2 3 4 5 6 
#
# 1 38.6779 25.4830 8.1036 5.9598 0.6752 9.8884
# 2 25.4830 78.5658 9.0743 12.8756 -15.0624 12.6826
# 3 8.1036 9.0743 75.9410 6.5308 4.1235 -8.2177
# 4 5.9598 12.8756 6.5308 39.3080 -3.7830 4.6685
# 5 0.6752 -15.0624 4.1235 -3.7830 34.3668 -1.7106
# 6 9.8884 12.6826 -8.2177 4.6685 -1.7106 28.7307
#
#
#
# Elastic Compliance Matrix: (Units=1/GPa)
#
#
# Indices 1 2 3 4 5 6 
#
# 1 0.036149 -0.010893 -0.003115 -0.000904 -0.005644 -0.008713
# 2 -0.010893 0.019252 -0.001790 -0.003049 0.008318 -0.004270
# 3 -0.003115 -0.001790 0.014734 -0.002375 -0.002438 0.006317
# 4 -0.000904 -0.003049 -0.002375 0.027549 0.001830 -0.003390
# 5 -0.005644 0.008318 -0.002438 0.001830 0.033311 -0.000741
# 6 -0.008713 -0.004270 0.006317 -0.003390 -0.000741 0.042004
#
#
# Mechanical properties :
#
#
# Convention : Reuss Voigt Hill
#
# Bulk Modulus (GPa) = 25.94588 30.94514 28.44551
# Shear Modulus (GPa) = 22.99478 30.51603 26.75541
#
# Velocity S-wave (km/s) = 3.30777 3.81052 3.56801
# Velocity P-wave (km/s) = 5.18979 5.83818 5.52350
#
# Compressibility (1/GPa) = 0.03854177
#
# Stress axis : x y z
#
# Youngs Moduli (GPa) = 27.66312 51.94320 67.86801
#
# Poissons Ratio (x) = 0.56580 0.21138
# Poissons Ratio (y) = 0.30133 0.12146
# Poissons Ratio (z) = 0.08616 0.09296
#
# Static dielectric constant tensor:
#      x y z
#    x 1.749620 -0.006770 0.022850 
#    y -0.006770 1.758640 -0.004470 
#    z 0.022850 -0.004470 1.760060 
# 
# From -- ./inp_files/189258.got.cif
#   From: 2010.05.17/outbox.cif.g08.bks.cpg/sg2_95_cif.got.tgz:189258.got - 2010.06.03 11:33:40.
