data_PCOD9012971
_publ_section_title
;
Structure prediction by ZEFSAII (Michael W. Deem and Ramdas Pophale) SiO2 
 PCOD9012971
Probable space group: P -1
;
_chemical_formula_sum "Si O2"
_cell_formula_units_Z 15
_cell_length_a 6.939792
_cell_length_b 10.856235
_cell_length_c 9.451113
_cell_angle_alpha 112.145596
_cell_angle_beta 113.554442
_cell_angle_gamma 101.572676
_cell_volume 550.407442
_symmetry_space_group_name_H-M "P -1"
_symmetry_group_IT_number 2
_symmetry_cell_setting 'triclinic'
loop_
_space_group_symop_operation_xyz
x,y,z
-x,-y,-z
loop_
_atom_site_type_symbol
_atom_site_label
_atom_site_fract_x
_atom_site_fract_y
_atom_site_fract_z
Si Si1 0.310187 0.954586 0.714980
Si Si2 0.024306 0.834708 0.158185
Si Si3 0.282195 0.562546 0.352280
Si Si4 0.542818 0.243370 0.752520
Si Si5 0.201144 0.464251 0.882927
Si Si6 0.314088 0.096472 0.065930
Si Si7 0.000000 0.000000 0.500000
Si Si8 0.603635 0.416525 0.295819
O O1 0.326131 0.102169 0.689811
O O2 0.074436 0.860814 0.528654
O O3 0.545185 0.930885 0.773344
O O4 0.282355 0.981233 0.882350
O O5 0.844428 0.682470 0.109060
O O6 0.249105 0.805443 0.187727
O O7 0.065199 0.961140 0.338414
O O8 0.916279 0.873221 0.001520
O O9 0.454328 0.712073 0.390479
O O10 0.390082 0.447608 0.304070
O O11 0.255590 0.574997 0.516412
O O12 0.041003 0.519989 0.185531
O O13 0.612278 0.392578 0.923846
O O14 0.271195 0.474493 0.744602
O O15 0.510450 0.252688 0.139211
#
# Coordination Sequence:
#
# PCOD9012971 Si02
#       8
#     2   2   2   2   2   2   1   2
#     4  10  23  41  66  92 126 173 221 269 324 392
#     4  10  23  41  66  99 133 169 222 278 326 397
#     4  10  24  39  58 105 134 164 219 281 330 395
#     4  11  22  42  68  97 128 171 228 272 332 392
#     4  11  22  41  70  97 131 176 223 272 335 398
#     4  10  21  41  62  92 127 172 221 267 321 396
#     4  10  24  44  60  94 132 176 220 262 330 402
#     4  11  22  40  64  92 137 177 213 273 340 391
#
# _framework density 27.252538999999999
#
# number of rings (size 3 to 8) (size 9 to 14) (size 15 to 20)
#    0.000    1.600    1.333    3.600    7.467    2.133 
#    0.000    0.000    0.000    0.000    0.000    0.000 
#    0.000    0.000    0.000    0.000    0.000    0.000 
#
# Total GULP energy -83691.333845 kJ/mol
# GULP energy per Si atom -5579.422256 kJ/mol
# Density = 2.719051 g / cm^3
# Si number density = 27.252539 Si / 1000 Ang^3
#
#
#
# Elastic Constant Matrix: (Units=GPa)
#
#
# Indices 1 2 3 4 5 6 
#
# 1 88.7881 16.4684 27.1013 -11.0116 10.4136 -19.3448
# 2 16.4684 122.3393 43.1798 -24.1595 0.9143 2.9611
# 3 27.1013 43.1798 147.0763 -32.3585 8.1729 -14.8505
# 4 -11.0116 -24.1595 -32.3585 54.8855 -11.3112 11.2275
# 5 10.4136 0.9143 8.1729 -11.3112 46.6432 -28.6634
# 6 -19.3448 2.9611 -14.8505 11.2275 -28.6634 50.6038
#
#
#
# Elastic Compliance Matrix: (Units=1/GPa)
#
#
# Indices 1 2 3 4 5 6 
#
# 1 0.012982 -0.001285 -0.001499 0.000260 0.000372 0.004751
# 2 -0.001285 0.009823 -0.002178 0.003247 -0.000349 -0.002623
# 3 -0.001499 -0.002178 0.008649 0.003651 0.000821 0.001748
# 4 0.000260 0.003247 0.003651 0.023014 0.003504 -0.002140
# 5 0.000372 -0.000349 0.000821 0.003504 0.033500 0.018602
# 6 0.004751 -0.002623 0.001748 -0.002140 0.018602 0.033256
#
#
# Mechanical properties :
#
#
# Convention : Reuss Voigt Hill
#
# Bulk Modulus (GPa) = 46.44582 59.07808 52.76195
# Shear Modulus (GPa) = 36.14679 48.52344 42.33511
#
# Velocity S-wave (km/s) = 3.64588 4.22419 3.94564
# Velocity P-wave (km/s) = 5.89941 6.74661 6.33718
#
# Compressibility (1/GPa) = 0.02153046
#
# Stress axis : x y z
#
# Youngs Moduli (GPa) = 77.02741 101.80142 115.61947
#
# Poissons Ratio (x) = 0.13082 0.17327
# Poissons Ratio (y) = 0.09898 0.25186
# Poissons Ratio (z) = 0.11544 0.22176
#
# Static dielectric constant tensor:
#      x y z
#    x 2.364030 0.018040 0.178910 
#    y 0.018040 2.209370 0.026140 
#    z 0.178910 0.026140 2.261090 
# 
# From -- ./inp_files/171794.got.cif
#   From: 2010.05.17/outbox.cif.g08.bks.cpg/sg2_86_cif.got.tgz:171794.got - 2010.06.03 11:33:40.
