data_PCOD9012204
_publ_section_title
;
Structure prediction by ZEFSAII (Michael W. Deem and Ramdas Pophale) SiO2 
 PCOD9012204
Probable space group: P -1
;
_chemical_formula_sum "Si O2"
_cell_formula_units_Z 10
_cell_length_a 16.544795
_cell_length_b 5.029777
_cell_length_c 15.280979
_cell_angle_alpha 60.997852
_cell_angle_beta 24.208808
_cell_angle_gamma 69.625792
_cell_volume 440.098282
_symmetry_space_group_name_H-M "P -1"
_symmetry_group_IT_number 2
_symmetry_cell_setting 'triclinic'
loop_
_space_group_symop_operation_xyz
x,y,z
-x,-y,-z
loop_
_atom_site_type_symbol
_atom_site_label
_atom_site_fract_x
_atom_site_fract_y
_atom_site_fract_z
Si Si1 0.422356 0.720006 0.758866
Si Si2 0.948321 0.329079 0.986594
Si Si3 0.153503 0.208048 0.442526
Si Si4 0.327625 0.774183 0.455391
Si Si5 0.124863 0.426899 0.252046
O O1 0.279202 0.724281 0.816634
O O2 0.533923 0.444268 0.680018
O O3 0.581925 0.048291 0.572781
O O4 0.274724 0.642684 0.001397
O O5 0.103130 0.548998 0.730187
O O6 0.000000 0.000000 0.000000
O O7 0.226871 0.387561 0.250992
O O8 0.064702 0.429683 0.558972
O O9 0.306964 0.046034 0.365569
O O10 0.962715 0.917948 0.648099
O O11 0.000000 0.500000 0.000000
#
# Coordination Sequence:
#
# PCOD9012204 Si02
#       5
#     2   2   2   2   2
#     4  12  26  43  72 103 134 177 226 276 335 405
#     4  12  28  48  71  96 135 176 224 288 344 390
#     4  10  21  40  68  99 138 181 219 265 328 400
#     4  12  26  43  72 103 134 177 226 276 335 405
#     4  10  21  40  68  99 138 181 219 265 328 400
#
# _framework density 22.722196
#
# number of rings (size 3 to 8) (size 9 to 14) (size 15 to 20)
#    0.000    0.800    2.000    4.800    2.800    6.400 
#    0.000    0.000    0.000    0.000    0.000    0.000 
#    0.000    0.000    0.000    0.000    0.000    0.000 
#
# Total GULP energy -56007.256475 kJ/mol
# GULP energy per Si atom -5600.725648 kJ/mol
# Density = 2.267048 g / cm^3
# Si number density = 22.722196 Si / 1000 Ang^3
#
#
#
# Elastic Constant Matrix: (Units=GPa)
#
#
# Indices 1 2 3 4 5 6 
#
# 1 117.9995 30.3786 36.7230 15.3120 -12.8315 -2.1211
# 2 30.3786 109.9191 15.7956 20.7716 -1.6698 8.3111
# 3 36.7230 15.7956 36.3010 7.0169 -1.8784 -4.9515
# 4 15.3120 20.7716 7.0169 40.6932 2.7613 -3.9253
# 5 -12.8315 -1.6698 -1.8784 2.7613 34.8536 -1.2722
# 6 -2.1211 8.3111 -4.9515 -3.9253 -1.2722 39.6339
#
#
#
# Elastic Compliance Matrix: (Units=1/GPa)
#
#
# Indices 1 2 3 4 5 6 
#
# 1 0.013493 -0.001331 -0.012427 -0.002619 0.004417 -0.000669
# 2 -0.001331 0.011076 -0.002948 -0.004969 0.000157 -0.003249
# 3 -0.012427 -0.002948 0.042064 -0.000430 -0.002229 0.005094
# 4 -0.002619 -0.004969 -0.000430 0.028745 -0.003372 0.003587
# 5 0.004417 0.000157 -0.002229 -0.003372 0.030493 0.000570
# 6 -0.000669 -0.003249 0.005094 0.003587 0.000570 0.026886
#
#
# Mechanical properties :
#
#
# Convention : Reuss Voigt Hill
#
# Bulk Modulus (GPa) = 30.10077 47.77933 38.94005
# Shear Modulus (GPa) = 25.34947 35.12431 30.23689
#
# Velocity S-wave (km/s) = 3.34372 3.93595 3.65186
# Velocity P-wave (km/s) = 5.30880 6.45979 5.91237
#
# Compressibility (1/GPa) = 0.03322175
#
# Stress axis : x y z
#
# Youngs Moduli (GPa) = 74.11342 90.28540 23.77304
#
# Poissons Ratio (x) = 0.12013 0.29543
# Poissons Ratio (y) = 0.09861 0.07008
# Poissons Ratio (z) = 0.92102 0.26617
#
# Static dielectric constant tensor:
#      x y z
#    x 1.863490 -0.007580 0.010890 
#    y -0.007580 1.775560 -0.029630 
#    z 0.010890 -0.029630 1.824910 
# 
# From -- ./inp_files/536269.got.cif
#   From: 2010.05.17/outbox.cif.g08.bks.cpg/sg2_269_cif.got.tgz:536269.got - 2010.06.03 11:33:40.
