data_PCOD9012767
_publ_section_title
;
Structure prediction by ZEFSAII (Michael W. Deem and Ramdas Pophale) SiO2 
 PCOD9012767
Probable space group: P -1
;
_chemical_formula_sum "Si O2"
_cell_formula_units_Z 14
_cell_length_a 6.832667
_cell_length_b 18.255261
_cell_length_c 5.148498
_cell_angle_alpha 86.437437
_cell_angle_beta 75.045829
_cell_angle_gamma 100.727341
_cell_volume 605.471798
_symmetry_space_group_name_H-M "P -1"
_symmetry_group_IT_number 2
_symmetry_cell_setting 'triclinic'
loop_
_space_group_symop_operation_xyz
x,y,z
-x,-y,-z
loop_
_atom_site_type_symbol
_atom_site_label
_atom_site_fract_x
_atom_site_fract_y
_atom_site_fract_z
Si Si1 0.117395 0.633050 0.944470
Si Si2 0.821777 0.965778 0.368288
Si Si3 0.883148 0.659539 0.495305
Si Si4 0.744222 0.798399 0.311900
Si Si5 0.461843 0.776543 0.918441
Si Si6 0.466163 0.547437 0.750953
Si Si7 0.404855 0.935356 0.848786
O O1 0.285184 0.702613 0.988520
O O2 0.245153 0.570226 0.842207
O O3 0.015857 0.656699 0.710484
O O4 0.955558 0.613683 0.240580
O O5 0.846795 0.886765 0.257373
O O6 0.592698 0.941877 0.578551
O O7 0.794330 0.036269 0.189251
O O8 0.000000 0.000000 0.500000
O O9 0.889919 0.742686 0.362686
O O10 0.647022 0.622174 0.656989
O O11 0.567564 0.785255 0.597633
O O12 0.635592 0.775442 0.078009
O O13 0.371718 0.851363 0.984594
O O14 0.500000 0.500000 0.500000
O O15 0.500000 0.500000 0.000000
O O16 0.500000 0.000000 0.000000
#
# Coordination Sequence:
#
# PCOD9012767 Si02
#       7
#     2   2   2   2   2   2   2
#     4  12  27  46  76 109 141 192 233 293 356 422
#     4  10  23  39  63  93 137 179 239 292 349 404
#     4  12  27  46  75 110 146 183 248 281 351 436
#     4  11  23  44  68  99 141 191 232 297 349 419
#     4  11  23  43  71  94 144 187 237 292 359 411
#     4  12  28  50  79 107 149 185 226 295 359 422
#     4  10  21  41  60  92 132 183 232 292 346 407
#
# _framework density 23.122467
#
# number of rings (size 3 to 8) (size 9 to 14) (size 15 to 20)
#    0.000    0.857    2.857    3.429    4.000    5.143 
#    0.000    0.000    0.000    0.000    0.000    0.000 
#    0.000    0.000    0.000    0.000    0.000    0.000 
#
# Total GULP energy -78324.820837 kJ/mol
# GULP energy per Si atom -5594.630060 kJ/mol
# Density = 2.306984 g / cm^3
# Si number density = 23.122467 Si / 1000 Ang^3
#
#
#
# Elastic Constant Matrix: (Units=GPa)
#
#
# Indices 1 2 3 4 5 6 
#
# 1 112.2426 38.2452 20.0965 -4.3564 21.4841 -17.6738
# 2 38.2452 100.8523 15.0258 9.8467 0.5611 -17.7240
# 3 20.0965 15.0258 86.8891 -2.9573 -0.9806 -1.8620
# 4 -4.3564 9.8467 -2.9573 33.1462 4.0872 -1.7875
# 5 21.4841 0.5611 -0.9806 4.0872 54.3897 -1.2702
# 6 -17.6738 -17.7240 -1.8620 -1.7875 -1.2702 38.1907
#
#
#
# Elastic Compliance Matrix: (Units=1/GPa)
#
#
# Indices 1 2 3 4 5 6 
#
# 1 0.012329 -0.004029 -0.002014 0.003460 -0.005038 0.003732
# 2 -0.004029 0.012739 -0.001319 -0.004454 0.001861 0.003836
# 3 -0.002014 -0.001319 0.012231 0.001057 0.000930 -0.000868
# 4 0.003460 -0.004454 0.001057 0.032554 -0.003725 0.000985
# 5 -0.005038 0.001861 0.000930 -0.003725 0.020632 -0.000911
# 6 0.003732 0.003836 -0.000868 0.000985 -0.000911 0.029665
#
#
# Mechanical properties :
#
#
# Convention : Reuss Voigt Hill
#
# Bulk Modulus (GPa) = 44.30002 49.63546 46.96774
# Shear Modulus (GPa) = 35.11253 40.25311 37.68282
#
# Velocity S-wave (km/s) = 3.90108 4.17689 4.04134
# Velocity P-wave (km/s) = 6.28424 6.69140 6.49102
#
# Compressibility (1/GPa) = 0.02257335
#
# Stress axis : x y z
#
# Youngs Moduli (GPa) = 81.11017 78.50041 81.76115
#
# Poissons Ratio (x) = 0.31630 0.16466
# Poissons Ratio (y) = 0.32682 0.10787
# Poissons Ratio (z) = 0.16334 0.10357
#
# Static dielectric constant tensor:
#      x y z
#    x 1.807470 -0.023660 -0.038600 
#    y -0.023660 1.890610 -0.006710 
#    z -0.038600 -0.006710 1.791320 
# 
# From -- ./inp_files/7859.got.cif
#   From: 2010.05.17/outbox.cif.g08.bks.cpg/sg2_4_cif.got.tgz:7859.got - 2010.06.03 11:33:40.
