data_PCOD9012495
_publ_section_title
;
Structure prediction by ZEFSAII (Michael W. Deem and Ramdas Pophale) SiO2 
 PCOD9012495
Probable space group: P -1
;
_chemical_formula_sum "Si O2"
_cell_formula_units_Z 16
_cell_length_a 9.387065
_cell_length_b 11.760987
_cell_length_c 17.283607
_cell_angle_alpha 148.851408
_cell_angle_beta 131.316331
_cell_angle_gamma 57.666968
_cell_volume 739.068604
_symmetry_space_group_name_H-M "P -1"
_symmetry_group_IT_number 2
_symmetry_cell_setting 'triclinic'
loop_
_space_group_symop_operation_xyz
x,y,z
-x,-y,-z
loop_
_atom_site_type_symbol
_atom_site_label
_atom_site_fract_x
_atom_site_fract_y
_atom_site_fract_z
Si Si1 0.375302 0.772429 0.841247
Si Si2 0.676499 0.922960 0.567748
Si Si3 0.900036 0.746732 0.313592
Si Si4 0.812798 0.591829 0.019485
Si Si5 0.608961 0.553105 0.216078
Si Si6 0.106728 0.967582 0.753935
Si Si7 0.419096 0.372443 0.504988
Si Si8 0.205581 0.617745 0.457427
O O1 0.366640 0.688531 0.878566
O O2 0.166567 0.826829 0.766531
O O3 0.444268 0.580040 0.695563
O O4 0.500000 0.000000 0.000000
O O5 0.713190 0.699138 0.405217
O O6 0.609376 0.849461 0.585336
O O7 0.889198 0.031610 0.710701
O O8 0.500000 0.000000 0.500000
O O9 0.865896 0.684109 0.176702
O O10 0.702639 0.669516 0.241656
O O11 0.042884 0.597067 0.322917
O O12 0.000000 0.000000 0.500000
O O13 0.773471 0.798624 0.072063
O O14 0.619148 0.435020 0.861658
O O15 0.000000 0.500000 0.000000
O O16 0.160037 0.824160 0.615067
O O17 0.241845 0.422927 0.416619
O O18 0.599582 0.350922 0.502561
#
# Coordination Sequence:
#
# PCOD9012495 Si02
#       8
#     2   2   2   2   2   2   2   2
#     4  10  21  40  70  95 133 177 224 273 344 411
#     4  11  23  38  64 100 133 169 224 282 334 400
#     4  12  25  42  70  96 131 179 230 276 335 406
#     4  12  26  43  64  99 138 177 224 278 344 408
#     4  11  24  42  65  99 132 175 224 275 343 402
#     4  11  22  41  68  95 128 180 221 274 342 405
#     4   9  23  37  62  98 129 166 221 280 328 386
#     4  10  21  41  63  92 127 170 223 278 326 388
#
# _framework density 21.648869999999999
#
# number of rings (size 3 to 8) (size 9 to 14) (size 15 to 20)
#    0.000    1.250    3.750    1.125    8.750    1.500 
#    0.000    0.000    0.000    1.500    0.000    0.000 
#    0.000    0.000    0.000    0.000    0.000    0.000 
#
# Total GULP energy -89109.470229 kJ/mol
# GULP energy per Si atom -5569.341889 kJ/mol
# Density = 2.159960 g / cm^3
# Si number density = 21.648870 Si / 1000 Ang^3
#
#
#
# Elastic Constant Matrix: (Units=GPa)
#
#
# Indices 1 2 3 4 5 6 
#
# 1 134.5210 59.4990 34.3840 6.3913 24.8091 8.3822
# 2 59.4990 127.9061 16.7065 0.8827 13.2604 2.9963
# 3 34.3840 16.7065 70.0844 -3.0366 26.9278 5.2586
# 4 6.3913 0.8827 -3.0366 22.8695 4.2148 5.4399
# 5 24.8091 13.2604 26.9278 4.2148 29.4144 -7.6215
# 6 8.3822 2.9963 5.2586 5.4399 -7.6215 39.0990
#
#
#
# Elastic Compliance Matrix: (Units=1/GPa)
#
#
# Indices 1 2 3 4 5 6 
#
# 1 0.011204 -0.004229 -0.001885 -0.001360 -0.006368 -0.002876
# 2 -0.004229 0.009893 0.000374 0.001213 -0.001503 -0.000364
# 3 -0.001885 0.000374 0.026981 0.011620 -0.027599 -0.010250
# 4 -0.001360 0.001213 0.011620 0.052474 -0.020854 -0.012730
# 5 -0.006368 -0.001503 -0.027599 -0.020854 0.074142 0.022546
# 6 -0.002876 -0.000364 -0.010250 -0.012730 0.022546 0.033765
#
#
# Mechanical properties :
#
#
# Convention : Reuss Voigt Hill
#
# Bulk Modulus (GPa) = 27.32383 61.52116 44.42250
# Shear Modulus (GPa) = 21.53882 33.07139 27.30511
#
# Velocity S-wave (km/s) = 3.15765 3.91273 3.55529
# Velocity P-wave (km/s) = 5.09344 6.99228 6.11699
#
# Compressibility (1/GPa) = 0.03659809
#
# Stress axis : x y z
#
# Youngs Moduli (GPa) = 89.25045 101.08621 37.06303
#
# Poissons Ratio (x) = 0.42747 0.06987
# Poissons Ratio (y) = 0.37742 -0.01386
# Poissons Ratio (z) = 0.16826 -0.03781
#
# Static dielectric constant tensor:
#      x y z
#    x 1.845440 0.026970 0.050090 
#    y 0.026970 1.894440 0.048630 
#    z 0.050090 0.048630 1.829950 
# 
# From -- ./inp_files/272219.got.cif
#   From: 2010.05.17/outbox.cif.g08.bks.cpg/sg2_137_cif.got.tgz:272219.got - 2010.06.03 11:33:40.
