data_PCOD9012133
_publ_section_title
;
Structure prediction by ZEFSAII (Michael W. Deem and Ramdas Pophale) SiO2 
 PCOD9012133
Probable space group: P -1
;
_chemical_formula_sum "Si O2"
_cell_formula_units_Z 13
_cell_length_a 8.657882
_cell_length_b 12.414294
_cell_length_c 8.044660
_cell_angle_alpha 70.567054
_cell_angle_beta 129.337511
_cell_angle_gamma 75.947442
_cell_volume 493.777112
_symmetry_space_group_name_H-M "P -1"
_symmetry_group_IT_number 2
_symmetry_cell_setting 'triclinic'
loop_
_space_group_symop_operation_xyz
x,y,z
-x,-y,-z
loop_
_atom_site_type_symbol
_atom_site_label
_atom_site_fract_x
_atom_site_fract_y
_atom_site_fract_z
Si Si1 0.835288 0.924565 0.000526
Si Si2 0.696001 0.265197 0.363823
Si Si3 0.500000 0.500000 0.500000
Si Si4 0.758378 0.609574 0.502622
Si Si5 0.859320 0.345093 0.135619
Si Si6 0.755050 0.699187 0.079991
Si Si7 0.996069 0.952390 0.745917
O O1 0.693460 0.854730 0.941683
O O2 0.124383 0.786482 0.326861
O O3 0.841877 0.977754 0.798257
O O4 0.776106 0.044095 0.034442
O O5 0.749514 0.354384 0.238435
O O6 0.821045 0.104461 0.449332
O O7 0.407754 0.327088 0.133232
O O8 0.524497 0.630404 0.415448
O O9 0.650157 0.458882 0.803216
O O10 0.715635 0.672557 0.256051
O O11 0.905916 0.652065 0.686129
O O12 0.952386 0.431804 0.702666
O O13 0.956855 0.187169 0.223096
#
# Coordination Sequence:
#
# PCOD9012133 Si02
#       7
#     2   2   1   2   2   2   2
#     4   9  20  42  63  95 131 167 211 268 314 383
#     4  10  21  40  68  97 128 172 216 260 330 379
#     4  12  26  44  62  96 132 172 216 264 330 380
#     4  11  25  42  65  94 132 174 215 272 315 384
#     4  12  23  44  64  98 133 169 214 269 326 384
#     4  11  22  41  67  96 128 171 226 257 317 395
#     4   9  21  42  66  96 133 165 209 277 317 381
#
# _framework density 26.327669
#
# number of rings (size 3 to 8) (size 9 to 14) (size 15 to 20)
#    0.923    0.615    3.077    1.846    0.000    3.692 
#    2.769    1.538    0.000    0.000    0.000    0.000 
#    0.000    0.000    0.000    0.000    0.000    0.000 
#
# Total GULP energy -72445.489885 kJ/mol
# GULP energy per Si atom -5572.729991 kJ/mol
# Density = 2.626775 g / cm^3
# Si number density = 26.327669 Si / 1000 Ang^3
#
#
#
# Elastic Constant Matrix: (Units=GPa)
#
#
# Indices 1 2 3 4 5 6 
#
# 1 44.2928 38.2007 14.2509 11.8614 -13.7085 27.0321
# 2 38.2007 157.4004 28.0441 29.8656 2.1503 42.1620
# 3 14.2509 28.0441 115.4382 29.5883 -12.6496 19.1899
# 4 11.8614 29.8656 29.5883 43.6926 13.7272 16.7035
# 5 -13.7085 2.1503 -12.6496 13.7272 33.9051 -1.9194
# 6 27.0321 42.1620 19.1899 16.7035 -1.9194 55.0652
#
#
#
# Elastic Compliance Matrix: (Units=1/GPa)
#
#
# Indices 1 2 3 4 5 6 
#
# 1 0.047373 -0.005908 0.004689 -0.014507 0.026299 -0.015049
# 2 -0.005908 0.009262 -0.000679 -0.002176 -0.002540 -0.003383
# 3 0.004689 -0.000679 0.013126 -0.012598 0.011816 -0.002123
# 4 -0.014507 -0.002176 -0.012598 0.046923 -0.029544 -0.002086
# 5 0.026299 -0.002540 0.011816 -0.029544 0.056423 -0.004155
# 6 -0.015049 -0.003383 -0.002123 -0.002086 -0.004155 0.029366
#
#
# Mechanical properties :
#
#
# Convention : Reuss Voigt Hill
#
# Bulk Modulus (GPa) = 15.15992 53.12477 34.14234
# Shear Modulus (GPa) = 21.90510 42.30831 32.10670
#
# Velocity S-wave (km/s) = 2.88760 4.01308 3.49593
# Velocity P-wave (km/s) = 4.10954 6.45718 5.41218
#
# Compressibility (1/GPa) = 0.06596341
#
# Stress axis : x y z
#
# Youngs Moduli (GPa) = 21.10911 107.96957 76.18739
#
# Poissons Ratio (x) = 0.63793 -0.35724
# Poissons Ratio (y) = 0.12472 0.05173
# Poissons Ratio (z) = -0.09898 0.07331
#
# Static dielectric constant tensor:
#      x y z
#    x 2.024360 -0.089820 0.041460 
#    y -0.089820 2.096140 -0.027880 
#    z 0.041460 -0.027880 2.020870 
# 
# From -- ./inp_files/79203.got.cif
#   From: 2010.05.17/outbox.cif.g08.bks.cpg/sg2_40_cif.got.tgz:79203.got - 2010.06.03 11:33:40.
