data_PCOD9012702
_publ_section_title
;
Structure prediction by ZEFSAII (Michael W. Deem and Ramdas Pophale) SiO2 
 PCOD9012702
Probable space group: P -1
;
_chemical_formula_sum "Si O2"
_cell_formula_units_Z 16
_cell_length_a 18.146802
_cell_length_b 14.559115
_cell_length_c 8.851111
_cell_angle_alpha 66.006967
_cell_angle_beta 75.490705
_cell_angle_gamma 20.642684
_cell_volume 689.111752
_symmetry_space_group_name_H-M "P -1"
_symmetry_group_IT_number 2
_symmetry_cell_setting 'triclinic'
loop_
_space_group_symop_operation_xyz
x,y,z
-x,-y,-z
loop_
_atom_site_type_symbol
_atom_site_label
_atom_site_fract_x
_atom_site_fract_y
_atom_site_fract_z
Si Si1 0.697149 0.849126 0.676072
Si Si2 0.918939 0.430399 0.631716
Si Si3 0.020792 0.863744 0.646396
Si Si4 0.421093 0.842522 0.720067
Si Si5 0.179702 0.348530 0.788073
Si Si6 0.853465 0.223920 0.062985
Si Si7 0.200424 0.922939 0.673497
Si Si8 0.411954 0.236347 0.863284
O O1 0.753799 0.671320 0.688736
O O2 0.940389 0.592504 0.770790
O O3 0.587180 0.059648 0.465424
O O4 0.540670 0.049543 0.767571
O O5 0.834383 0.591015 0.415313
O O6 0.984174 0.236862 0.672649
O O7 0.173346 0.157865 0.718583
O O8 0.985081 0.917251 0.807646
O O9 0.867457 0.990731 0.525602
O O10 0.281551 0.502321 0.741587
O O11 0.000000 0.000000 0.500000
O O12 0.393431 0.765911 0.708056
O O13 0.647657 0.550753 0.895843
O O14 0.213959 0.398047 0.856151
O O15 0.403567 0.004390 0.939382
O O16 0.755102 0.245399 0.181305
O O17 0.000000 0.000000 0.000000
#
# Coordination Sequence:
#
# PCOD9012702 Si02
#       8
#     2   2   2   2   2   2   2   2
#     4  11  22  38  65  94 122 165 215 241 309 382
#     4   9  20  38  64  84 128 161 204 253 306 366
#     4  10  22  41  62  84 126 165 197 261 318 358
#     4   9  20  38  68  85 127 162 207 254 314 357
#     4  10  21  41  56  91 130 159 204 258 303 365
#     4  11  24  39  65  95 118 158 214 262 302 376
#     4   9  20  43  62  83 128 165 201 247 322 359
#     4  11  23  38  65  88 127 165 204 254 316 363
#
# _framework density 23.218294
#
# number of rings (size 3 to 8) (size 9 to 14) (size 15 to 20)
#    0.750    1.250    1.250    2.250    7.000    0.500 
#    4.500    0.625    8.250    0.000    0.000    0.000 
#    0.000    0.000    0.000    0.000    0.000    0.000 
#
# Total GULP energy -89306.522715 kJ/mol
# GULP energy per Si atom -5581.657670 kJ/mol
# Density = 2.316545 g / cm^3
# Si number density = 23.218294 Si / 1000 Ang^3
#
#
#
# Elastic Constant Matrix: (Units=GPa)
#
#
# Indices 1 2 3 4 5 6 
#
# 1 74.4710 9.3470 30.4220 -8.3211 11.7707 9.7085
# 2 9.3470 87.0918 37.4612 -1.3882 0.2876 21.6900
# 3 30.4220 37.4612 128.5411 -28.0772 10.4782 9.1609
# 4 -8.3211 -1.3882 -28.0772 43.0727 12.0930 0.8049
# 5 11.7707 0.2876 10.4782 12.0930 41.1118 -7.7219
# 6 9.7085 21.6900 9.1609 0.8049 -7.7219 28.8191
#
#
#
# Elastic Compliance Matrix: (Units=1/GPa)
#
#
# Indices 1 2 3 4 5 6 
#
# 1 0.016746 0.001244 -0.002409 0.003742 -0.006741 -0.007723
# 2 0.001244 0.016054 -0.004452 -0.001662 -0.000967 -0.011300
# 3 -0.002409 -0.004452 0.012069 0.008734 -0.005169 -0.001303
# 4 0.003742 -0.001662 0.008734 0.033844 -0.014681 -0.007665
# 5 -0.006741 -0.000967 -0.005169 -0.014681 0.034586 0.014319
# 6 -0.007723 -0.011300 -0.001303 -0.007665 0.014319 0.050270
#
#
# Mechanical properties :
#
#
# Convention : Reuss Voigt Hill
#
# Bulk Modulus (GPa) = 29.72959 49.39603 39.56281
# Shear Modulus (GPa) = 26.87937 36.79230 31.83583
#
# Velocity S-wave (km/s) = 3.40616 3.98505 3.70693
# Velocity P-wave (km/s) = 5.31991 6.51882 5.94964
#
# Compressibility (1/GPa) = 0.03363652
#
# Stress axis : x y z
#
# Youngs Moduli (GPa) = 59.71521 62.28799 82.85514
#
# Poissons Ratio (x) = -0.07749 0.19957
# Poissons Ratio (y) = -0.07429 0.36887
# Poissons Ratio (z) = 0.14384 0.27731
#
# Static dielectric constant tensor:
#      x y z
#    x 1.949830 0.018610 0.019700 
#    y 0.018610 1.890470 0.011530 
#    z 0.019700 0.011530 1.872450 
# 
# From -- ./inp_files/347579.got.cif
#   From: 2010.05.17/outbox.cif.g08.bks.cpg/sg2_174_cif.got.tgz:347579.got - 2010.06.03 11:33:40.
