data_PCOD9012313
_publ_section_title
;
Structure prediction by ZEFSAII (Michael W. Deem and Ramdas Pophale) SiO2 
 PCOD9012313
Probable space group: P -1
;
_chemical_formula_sum "Si O2"
_cell_formula_units_Z 14
_cell_length_a 7.550293
_cell_length_b 11.832805
_cell_length_c 11.850445
_cell_angle_alpha 106.504379
_cell_angle_beta 102.054592
_cell_angle_gamma 32.466850
_cell_volume 543.943758
_symmetry_space_group_name_H-M "P -1"
_symmetry_group_IT_number 2
_symmetry_cell_setting 'triclinic'
loop_
_space_group_symop_operation_xyz
x,y,z
-x,-y,-z
loop_
_atom_site_type_symbol
_atom_site_label
_atom_site_fract_x
_atom_site_fract_y
_atom_site_fract_z
Si Si1 0.851115 0.946042 0.762888
Si Si2 0.528934 0.154802 0.007109
Si Si3 0.887314 0.429859 0.866414
Si Si4 0.138303 0.655411 0.533975
Si Si5 0.677621 0.096559 0.486556
Si Si6 0.176481 0.354083 0.666455
Si Si7 0.838998 0.967528 0.230918
O O1 0.079357 0.720702 0.675286
O O2 0.482544 0.129646 0.714858
O O3 0.985313 0.001234 0.756281
O O4 0.797892 0.978859 0.898209
O O5 0.449929 0.338510 0.058189
O O6 0.644463 0.049059 0.113459
O O7 0.182629 0.291751 0.954853
O O8 0.939655 0.489456 0.782527
O O9 0.915207 0.278406 0.789264
O O10 0.500000 0.500000 0.500000
O O11 0.054113 0.581718 0.438821
O O12 0.834815 0.894661 0.504867
O O13 0.408464 0.299465 0.592380
O O14 0.607801 0.104843 0.349636
O O15 0.000000 0.000000 0.500000
#
# Coordination Sequence:
#
# PCOD9012313 Si02
#       7
#     2   2   2   2   2   2   2
#     4  10  22  41  67  93 134 178 221 275 332 397
#     4  10  24  44  64  96 132 183 224 274 335 393
#     4  10  23  42  67  95 135 173 228 278 329 401
#     4  11  23  40  67  99 130 173 220 274 339 401
#     4  11  21  40  66  95 131 173 221 272 340 400
#     4  10  21  40  69  92 134 177 215 277 345 390
#     4  12  22  38  70  95 133 175 224 278 329 400
#
# _framework density 25.737954999999999
#
# number of rings (size 3 to 8) (size 9 to 14) (size 15 to 20)
#    0.000    1.429    4.286    2.571    4.000    0.571 
#    0.000    4.286    0.000    0.000    0.000    0.000 
#    0.000    0.000    0.000    0.000    0.000    0.000 
#
# Total GULP energy -78036.107037 kJ/mol
# GULP energy per Si atom -5574.007646 kJ/mol
# Density = 2.567937 g / cm^3
# Si number density = 25.737955 Si / 1000 Ang^3
#
#
#
# Elastic Constant Matrix: (Units=GPa)
#
#
# Indices 1 2 3 4 5 6 
#
# 1 63.3868 22.3507 18.2802 3.7230 16.0106 -21.4940
# 2 22.3507 96.2063 53.9635 20.9081 7.0440 7.9440
# 3 18.2802 53.9635 218.4409 13.2509 -14.2810 -1.7680
# 4 3.7230 20.9081 13.2509 45.2226 5.5610 -0.4373
# 5 16.0106 7.0440 -14.2810 5.5610 27.9969 5.1638
# 6 -21.4940 7.9440 -1.7680 -0.4373 5.1638 38.3318
#
#
#
# Elastic Compliance Matrix: (Units=1/GPa)
#
#
# Indices 1 2 3 4 5 6 
#
# 1 0.032261 -0.007253 -0.002497 0.004471 -0.022959 0.022622
# 2 -0.007253 0.015496 -0.002828 -0.005986 0.001409 -0.007667
# 3 -0.002497 -0.002828 0.005894 -0.000911 0.005567 -0.001303
# 4 0.004471 -0.005986 -0.000911 0.025757 -0.007557 0.005017
# 5 -0.022959 0.001409 0.005567 -0.007557 0.056638 -0.020625
# 6 0.022622 -0.007667 -0.001303 0.005017 -0.020625 0.043137
#
#
# Mechanical properties :
#
#
# Convention : Reuss Voigt Hill
#
# Bulk Modulus (GPa) = 35.09307 63.02478 49.05893
# Shear Modulus (GPa) = 23.38208 41.20622 32.29415
#
# Velocity S-wave (km/s) = 3.01735 4.00558 3.54606
# Velocity P-wave (km/s) = 5.07972 6.77740 5.98902
#
# Compressibility (1/GPa) = 0.02849565
#
# Stress axis : x y z
#
# Youngs Moduli (GPa) = 30.99721 64.53085 169.65765
#
# Poissons Ratio (x) = 0.46803 0.42365
# Poissons Ratio (y) = 0.22482 0.47980
# Poissons Ratio (z) = 0.07740 0.18250
#
# Static dielectric constant tensor:
#      x y z
#    x 2.072050 0.024470 -0.015720 
#    y 0.024470 2.007120 0.038550 
#    z -0.015720 0.038550 2.085810 
# 
# From -- ./inp_files/394272.got.cif
#   From: 2010.05.17/outbox.cif.g08.bks.cpg/sg2_198_cif.got.tgz:394272.got - 2010.06.03 11:33:40.
