data_PCOD9012248
_publ_section_title
;
Structure prediction by ZEFSAII (Michael W. Deem and Ramdas Pophale) SiO2 
 PCOD9012248
Probable space group: P -1
;
_chemical_formula_sum "Si O2"
_cell_formula_units_Z 16
_cell_length_a 12.273889
_cell_length_b 14.284165
_cell_length_c 7.100438
_cell_angle_alpha 133.838819
_cell_angle_beta 52.884935
_cell_angle_gamma 132.913728
_cell_volume 636.811934
_symmetry_space_group_name_H-M "P -1"
_symmetry_group_IT_number 2
_symmetry_cell_setting 'triclinic'
loop_
_space_group_symop_operation_xyz
x,y,z
-x,-y,-z
loop_
_atom_site_type_symbol
_atom_site_label
_atom_site_fract_x
_atom_site_fract_y
_atom_site_fract_z
Si Si1 0.563079 0.882819 0.288209
Si Si2 0.762972 0.330351 0.575809
Si Si3 0.337938 0.315516 0.089971
Si Si4 0.870909 0.815122 0.412807
Si Si5 0.376918 0.828260 0.890288
Si Si6 0.174268 0.942184 0.430322
Si Si7 0.062222 0.322757 0.204824
Si Si8 0.451925 0.359456 0.591193
O O1 0.395297 0.736632 0.240088
O O2 0.658421 0.816650 0.982255
O O3 0.500000 0.000000 0.500000
O O4 0.698411 0.962480 0.416069
O O5 0.696967 0.237221 0.324377
O O6 0.839660 0.504433 0.708812
O O7 0.904701 0.298549 0.433082
O O8 0.413179 0.324759 0.810648
O O9 0.170191 0.289067 0.179926
O O10 0.432859 0.471808 0.297787
O O11 0.706882 0.674941 0.391675
O O12 0.989508 0.860114 0.523565
O O13 0.823838 0.939390 0.562814
O O14 0.957921 0.774826 0.095350
O O15 0.466995 0.734487 0.703452
O O16 0.236444 0.826604 0.150407
O O17 0.500000 0.000000 0.000000
#
# Coordination Sequence:
#
# PCOD9012248 Si02
#       8
#     2   2   2   2   2   2   2   2
#     4  12  23  38  55  73 115 157 185 211 249 345
#     4  11  20  33  52  91 106 138 178 218 298 312
#     4  10  17  34  51  78 106 140 190 213 269 319
#     4  10  18  30  51  81 108 135 165 240 278 315
#     4  12  17  29  50  81 115 133 159 242 287 319
#     4  11  21  31  49  81 112 136 180 213 289 321
#     4  10  19  31  58  82 114 128 171 249 276 318
#     4  10  17  29  55  80 107 135 168 240 277 314
#
# _framework density 25.125156
#
# number of rings (size 3 to 8) (size 9 to 14) (size 15 to 20)
#    0.000    1.250    8.750    1.500    0.000    0.000 
#    0.000    0.625    0.000    3.750    0.000    0.000 
#    0.000    0.000    0.000    0.000    0.000    0.000 
#
# Total GULP energy -89109.691627 kJ/mol
# GULP energy per Si atom -5569.355727 kJ/mol
# Density = 2.506797 g / cm^3
# Si number density = 25.125156 Si / 1000 Ang^3
#
#
#
# Elastic Constant Matrix: (Units=GPa)
#
#
# Indices 1 2 3 4 5 6 
#
# 1 152.5894 65.7114 63.4653 -3.4966 -39.8143 52.4382
# 2 65.7114 64.9071 36.8176 4.4337 -4.0121 22.4200
# 3 63.4653 36.8176 144.2358 18.4310 -31.1147 6.8914
# 4 -3.4966 4.4337 18.4310 43.2306 12.7367 -0.4875
# 5 -39.8143 -4.0121 -31.1147 12.7367 53.6806 -11.7048
# 6 52.4382 22.4200 6.8914 -0.4875 -11.7048 43.5722
#
#
#
# Elastic Compliance Matrix: (Units=1/GPa)
#
#
# Indices 1 2 3 4 5 6 
#
# 1 0.022499 -0.014622 -0.003569 0.001855 0.009506 -0.016414
# 2 -0.014622 0.032408 -0.004315 0.000676 -0.011401 -0.001450
# 3 -0.003569 -0.004315 0.011614 -0.006715 0.006754 0.006418
# 4 0.001855 0.000676 -0.006715 0.029041 -0.010215 -0.003938
# 5 0.009506 -0.011401 0.006754 -0.010215 0.031540 0.001716
# 6 -0.016414 -0.001450 0.006418 -0.003938 0.001716 0.042852
#
#
# Mechanical properties :
#
#
# Convention : Reuss Voigt Hill
#
# Bulk Modulus (GPa) = 46.49654 77.08009 61.78831
# Shear Modulus (GPa) = 22.50886 41.14589 31.82738
#
# Velocity S-wave (km/s) = 2.99636 4.05116 3.56301
# Velocity P-wave (km/s) = 5.52422 7.25449 6.44766
#
# Compressibility (1/GPa) = 0.02150698
#
# Stress axis : x y z
#
# Youngs Moduli (GPa) = 44.44689 30.85681 86.10632
#
# Poissons Ratio (x) = 0.45120 0.30735
# Poissons Ratio (y) = 0.64992 0.37153
# Poissons Ratio (z) = 0.15865 0.13314
#
# Static dielectric constant tensor:
#      x y z
#    x 2.176400 -0.307890 0.094750 
#    y -0.307890 2.480660 -0.186690 
#    z 0.094750 -0.186690 2.052560 
# 
# From -- ./inp_files/457366.got.cif
#   From: 2010.05.17/outbox.cif.g08.bks.cpg/sg2_229_cif.got.tgz:457366.got - 2010.06.03 11:33:40.
