data_PCOD9012235
_publ_section_title
;
Structure prediction by ZEFSAII (Michael W. Deem and Ramdas Pophale) SiO2 
 PCOD9012235
Probable space group: P -1
;
_chemical_formula_sum "Si O2"
_cell_formula_units_Z 12
_cell_length_a 25.321541
_cell_length_b 7.272219
_cell_length_c 14.057754
_cell_angle_alpha 148.036300
_cell_angle_beta 19.334339
_cell_angle_gamma 142.794902
_cell_volume 453.584702
_symmetry_space_group_name_H-M "P -1"
_symmetry_group_IT_number 2
_symmetry_cell_setting 'triclinic'
loop_
_space_group_symop_operation_xyz
x,y,z
-x,-y,-z
loop_
_atom_site_type_symbol
_atom_site_label
_atom_site_fract_x
_atom_site_fract_y
_atom_site_fract_z
Si Si1 0.581639 0.389911 0.911859
Si Si2 0.121779 0.229120 0.453082
Si Si3 0.496425 0.717443 0.465323
Si Si4 0.296901 0.974097 0.236956
Si Si5 0.286167 0.220667 0.697730
Si Si6 0.992190 0.798063 0.061606
O O1 0.719552 0.650170 0.820085
O O2 0.576714 0.729927 0.818373
O O3 0.500000 0.500000 0.000000
O O4 0.604370 0.382524 0.101851
O O5 0.202538 0.049328 0.331081
O O6 0.023351 0.566191 0.812052
O O7 0.000000 0.000000 0.500000
O O8 0.328036 0.580764 0.732707
O O9 0.500000 0.000000 0.500000
O O10 0.585047 0.839305 0.463464
O O11 0.323666 0.951338 0.432876
O O12 0.165922 0.991497 0.548287
O O13 0.125440 0.092354 0.962497
O O14 0.000000 0.500000 0.000000
#
# Coordination Sequence:
#
# PCOD9012235 Si02
#       6
#     2   2   2   2   2   2
#     4   8  15  32  62  92 134 189 232 282 360 435
#     4   9  17  33  63 103 143 187 241 298 361 435
#     4  10  21  40  69 101 139 193 254 300 348 422
#     4   9  18  35  63  99 146 191 234 294 361 432
#     4   9  19  38  65  98 141 187 237 298 361 431
#     4   9  18  36  66 101 145 189 227 291 374 437
#
# _framework density 26.455918
#
# number of rings (size 3 to 8) (size 9 to 14) (size 15 to 20)
#    0.000    3.000    0.000    1.000    0.000    0.667 
#    0.000   15.000    0.000   38.000    0.000    2.333 
#    0.000    0.000    0.000    0.000    0.000    0.000 
#
# Total GULP energy -67067.633398 kJ/mol
# GULP energy per Si atom -5588.969450 kJ/mol
# Density = 2.639570 g / cm^3
# Si number density = 26.455918 Si / 1000 Ang^3
#
#
#
# Elastic Constant Matrix: (Units=GPa)
#
#
# Indices 1 2 3 4 5 6 
#
# 1 184.3146 81.1064 25.6391 -19.4263 -4.5797 -9.9393
# 2 81.1064 231.9210 102.0572 -51.6581 -2.8789 15.0922
# 3 25.6391 102.0572 175.5366 -48.2694 2.3316 4.2306
# 4 -19.4263 -51.6581 -48.2694 76.9553 -8.7238 -2.4965
# 5 -4.5797 -2.8789 2.3316 -8.7238 20.5039 -4.1212
# 6 -9.9393 15.0922 4.2306 -2.4965 -4.1212 57.6010
#
#
#
# Elastic Compliance Matrix: (Units=1/GPa)
#
#
# Indices 1 2 3 4 5 6 
#
# 1 0.006685 -0.002582 0.000620 0.000599 0.001703 0.001932
# 2 -0.002582 0.007279 -0.003185 0.002335 0.001416 -0.001916
# 3 0.000620 -0.003185 0.008351 0.003300 0.000244 0.000489
# 4 0.000599 0.002335 0.003300 0.017676 0.007721 0.000568
# 5 0.001703 0.001416 0.000244 0.007721 0.053424 0.004062
# 6 0.001932 -0.001916 0.000489 0.000568 0.004062 0.018476
#
#
# Mechanical properties :
#
#
# Convention : Reuss Voigt Hill
#
# Bulk Modulus (GPa) = 83.19320 112.15308 97.67314
# Shear Modulus (GPa) = 39.62228 56.54335 48.08281
#
# Velocity S-wave (km/s) = 3.87417 4.62807 4.26780
# Velocity P-wave (km/s) = 7.17820 8.42871 7.82847
#
# Compressibility (1/GPa) = 0.01202021
#
# Stress axis : x y z
#
# Youngs Moduli (GPa) = 149.58672 137.38530 119.75285
#
# Poissons Ratio (x) = 0.35473 -0.07428
# Poissons Ratio (y) = 0.38623 0.38146
# Poissons Ratio (z) = -0.09279 0.43763
#
# Static dielectric constant tensor:
#      x y z
#    x 2.131650 -0.034770 -0.023990 
#    y -0.034770 2.197580 0.060610 
#    z -0.023990 0.060610 2.109020 
# 
# From -- ./inp_files/213971.got.cif
#   From: 2010.05.17/outbox.cif.g08.bks.cpg/sg2_107_cif.got.tgz:213971.got - 2010.06.03 11:33:40.
