data_PCOD9012037
_publ_section_title
;
Structure prediction by ZEFSAII (Michael W. Deem and Ramdas Pophale) SiO2 
 PCOD9012037
Probable space group: P -1
;
_chemical_formula_sum "Si O2"
_cell_formula_units_Z 16
_cell_length_a 5.306150
_cell_length_b 8.534698
_cell_length_c 19.228878
_cell_angle_alpha 109.169875
_cell_angle_beta 73.639126
_cell_angle_gamma 91.056662
_cell_volume 786.573648
_symmetry_space_group_name_H-M "P -1"
_symmetry_group_IT_number 2
_symmetry_cell_setting 'triclinic'
loop_
_space_group_symop_operation_xyz
x,y,z
-x,-y,-z
loop_
_atom_site_type_symbol
_atom_site_label
_atom_site_fract_x
_atom_site_fract_y
_atom_site_fract_z
Si Si1 0.842853 0.375558 0.577609
Si Si2 0.600848 0.295374 0.155351
Si Si3 0.516689 0.326642 0.735028
Si Si4 0.763947 0.095526 0.989139
Si Si5 0.330992 0.353176 0.468555
Si Si6 0.928432 0.900699 0.822109
Si Si7 0.982661 0.885951 0.284402
Si Si8 0.685291 0.088450 0.446654
O O1 0.664519 0.353342 0.654061
O O2 0.808541 0.563261 0.576401
O O3 0.788530 0.238041 0.504136
O O4 0.156096 0.336638 0.549469
O O5 0.559206 0.489913 0.202704
O O6 0.828191 0.206049 0.174629
O O7 0.327521 0.206846 0.174512
O O8 0.693775 0.262248 0.063043
O O9 0.258257 0.226396 0.730716
O O10 0.739187 0.222749 0.748175
O O11 0.855697 0.068131 0.898762
O O12 0.500000 0.000000 0.000000
O O13 0.000000 0.000000 0.000000
O O14 0.500000 0.500000 0.500000
O O15 0.497627 0.181225 0.416387
O O16 0.000825 0.967119 0.751147
O O17 0.910721 0.970142 0.376733
O O18 0.500000 0.000000 0.500000
#
# Coordination Sequence:
#
# PCOD9012037 Si02
#       8
#     2   2   2   2   2   2   2   2
#     4  10  22  39  60  81 115 154 204 261 299 361
#     4  10  21  40  68  92 123 166 204 245 307 368
#     4  12  26  42  60  89 131 163 202 251 318 365
#     4   8  16  34  63  94 120 154 202 249 295 359
#     4   9  21  37  57  85 107 142 203 259 302 354
#     4  10  21  41  66  95 123 158 209 256 295 363
#     4  12  27  41  61  92 128 162 206 259 311 363
#     4  11  22  39  60  80 115 161 207 243 313 360
#
# _framework density 20.341387000000001
#
# number of rings (size 3 to 8) (size 9 to 14) (size 15 to 20)
#    0.000    1.750    1.250    2.250    5.250    4.000 
#    0.000    1.250    0.000    0.000    0.000    0.000 
#    0.000    0.000    0.000    0.000    0.000    0.000 
#
# Total GULP energy -89184.526326 kJ/mol
# GULP energy per Si atom -5574.032895 kJ/mol
# Density = 2.029509 g / cm^3
# Si number density = 20.341387 Si / 1000 Ang^3
#
#
#
# Elastic Constant Matrix: (Units=GPa)
#
#
# Indices 1 2 3 4 5 6 
#
# 1 110.0738 25.4167 3.5614 13.1557 -6.3483 -4.4417
# 2 25.4167 78.3915 19.3637 21.5284 -2.8722 -8.6460
# 3 3.5614 19.3637 72.7595 26.5115 -6.7572 -2.6988
# 4 13.1557 21.5284 26.5115 36.5435 -2.0416 -3.5883
# 5 -6.3483 -2.8722 -6.7572 -2.0416 20.7996 1.3236
# 6 -4.4417 -8.6460 -2.6988 -3.5883 1.3236 33.9649
#
#
#
# Elastic Compliance Matrix: (Units=1/GPa)
#
#
# Indices 1 2 3 4 5 6 
#
# 1 0.010210 -0.002730 0.001623 -0.003048 0.002946 0.000332
# 2 -0.002730 0.016325 -0.001437 -0.007303 0.000052 0.002911
# 3 0.001623 -0.001437 0.019487 -0.013603 0.005308 -0.000249
# 4 -0.003048 -0.007303 -0.013603 0.042630 -0.002254 0.001253
# 5 0.002946 0.000052 0.005308 -0.002254 0.050576 -0.001389
# 6 0.000332 0.002911 -0.000249 0.001253 -0.001389 0.030393
#
#
# Mechanical properties :
#
#
# Convention : Reuss Voigt Hill
#
# Bulk Modulus (GPa) = 24.42858 39.76759 32.09809
# Shear Modulus (GPa) = 26.54562 32.45380 29.49971
#
# Velocity S-wave (km/s) = 3.61641 3.99865 3.81232
# Velocity P-wave (km/s) = 5.42892 6.39621 5.93231
#
# Compressibility (1/GPa) = 0.04093566
#
# Stress axis : x y z
#
# Youngs Moduli (GPa) = 97.94098 61.25506 51.31543
#
# Poissons Ratio (x) = 0.16721 -0.08330
# Poissons Ratio (y) = 0.26735 0.07374
# Poissons Ratio (z) = -0.15898 0.08803
#
# Static dielectric constant tensor:
#      x y z
#    x 1.032290 -0.127920 0.001380 
#    y -0.127920 1.700000 0.001010 
#    z 0.001380 0.001010 1.751190 
# 
# From -- ./inp_files/548220.got.cif
#   From: 2010.05.17/outbox.cif.g08.bks.cpg/sg2_275_cif.got.tgz:548220.got - 2010.06.03 11:33:40.
