data_PCOD9012486
_publ_section_title
;
Structure prediction by ZEFSAII (Michael W. Deem and Ramdas Pophale) SiO2 
 PCOD9012486
Probable space group: P -1
;
_chemical_formula_sum "Si O2"
_cell_formula_units_Z 16
_cell_length_a 19.412390
_cell_length_b 8.083318
_cell_length_c 12.076062
_cell_angle_alpha 133.969612
_cell_angle_beta 152.494248
_cell_angle_gamma 48.380637
_cell_volume 623.146158
_symmetry_space_group_name_H-M "P -1"
_symmetry_group_IT_number 2
_symmetry_cell_setting 'triclinic'
loop_
_space_group_symop_operation_xyz
x,y,z
-x,-y,-z
loop_
_atom_site_type_symbol
_atom_site_label
_atom_site_fract_x
_atom_site_fract_y
_atom_site_fract_z
Si Si1 0.105077 0.285305 0.731836
Si Si2 0.389183 0.986615 0.076594
Si Si3 0.832757 0.632769 0.451025
Si Si4 0.642907 0.301039 0.899966
Si Si5 0.330454 0.543890 0.653602
Si Si6 0.626632 0.286331 0.610499
Si Si7 0.088770 0.889652 0.181020
Si Si8 0.968647 0.173046 0.708198
O O1 0.008009 0.514618 0.650720
O O2 0.052955 0.289775 0.787336
O O3 0.040975 0.078698 0.476980
O O4 0.281637 0.187957 0.950112
O O5 0.547694 0.067244 0.360741
O O6 0.320744 0.918181 0.066017
O O7 0.399066 0.747826 0.912089
O O8 0.754640 0.588364 0.436436
O O9 0.833687 0.902014 0.557081
O O10 0.741183 0.497021 0.171133
O O11 0.466159 0.392660 0.713747
O O12 0.663027 0.261674 0.780733
O O13 0.199433 0.682514 0.457313
O O14 0.500000 0.500000 0.500000
O O15 0.777567 0.295277 0.761080
O O16 0.978377 0.825565 0.089576
O O17 0.000000 0.000000 0.000000
#
# Coordination Sequence:
#
# PCOD9012486 Si02
#       8
#     2   2   2   2   2   2   2   2
#     4   9  20  39  71  96 119 168 224 278 309 372
#     4  10  21  40  70  94 132 160 224 274 326 375
#     4  10  22  41  67  97 129 166 228 265 330 386
#     4  11  21  39  70  93 126 170 226 272 314 383
#     4   9  18  39  68  96 121 167 222 276 316 377
#     4  12  28  44  61  97 139 176 212 260 338 394
#     4  12  28  43  63  94 143 176 209 265 337 396
#     4   9  19  40  63  95 130 166 216 267 322 385
#
# _framework density 25.676158999999998
#
# number of rings (size 3 to 8) (size 9 to 14) (size 15 to 20)
#    0.000    1.750    0.000    6.375    5.250    2.500 
#    0.000    5.625    0.000    0.000    0.000    0.000 
#    0.000    0.000    0.000    0.000    0.000    0.000 
#
# Total GULP energy -89602.274283 kJ/mol
# GULP energy per Si atom -5600.142143 kJ/mol
# Density = 2.561772 g / cm^3
# Si number density = 25.676159 Si / 1000 Ang^3
#
#
#
# Elastic Constant Matrix: (Units=GPa)
#
#
# Indices 1 2 3 4 5 6 
#
# 1 150.7697 14.8552 12.1550 -11.0513 -11.8459 -5.6570
# 2 14.8552 104.8042 10.4771 -25.0632 10.3565 -8.6612
# 3 12.1550 10.4771 67.5305 1.6071 3.1557 -0.6761
# 4 -11.0513 -25.0632 1.6071 37.8255 7.8249 10.2388
# 5 -11.8459 10.3565 3.1557 7.8249 29.5307 -15.2455
# 6 -5.6570 -8.6612 -0.6761 10.2388 -15.2455 22.8065
#
#
#
# Elastic Compliance Matrix: (Units=1/GPa)
#
#
# Indices 1 2 3 4 5 6 
#
# 1 0.007773 -0.001967 -0.001367 -0.003377 0.009498 0.009006
# 2 -0.001967 0.014455 -0.001614 0.016401 -0.017218 -0.013919
# 3 -0.001367 -0.001614 0.015412 -0.001494 -0.001745 -0.000991
# 4 -0.003377 0.016401 -0.001494 0.064029 -0.054959 -0.060137
# 5 0.009498 -0.017218 -0.001745 -0.054959 0.105380 0.090882
# 6 0.009006 -0.013919 -0.000991 -0.060137 0.090882 0.128516
#
#
# Mechanical properties :
#
#
# Convention : Reuss Voigt Hill
#
# Bulk Modulus (GPa) = 36.04350 44.23098 40.13724
# Shear Modulus (GPa) = 14.09605 37.07370 25.58487
#
# Velocity S-wave (km/s) = 2.34560 3.80399 3.16008
# Velocity P-wave (km/s) = 4.62645 6.04629 5.38338
#
# Compressibility (1/GPa) = 0.02774426
#
# Stress axis : x y z
#
# Youngs Moduli (GPa) = 128.64471 69.17965 64.88542
#
# Poissons Ratio (x) = 0.13608 0.08872
# Poissons Ratio (y) = 0.25304 0.10470
# Poissons Ratio (z) = 0.17590 0.11163
#
# Static dielectric constant tensor:
#      x y z
#    x 2.049280 0.060570 -0.002610 
#    y 0.060570 2.076910 0.021850 
#    z -0.002610 0.021850 2.013360 
# 
# From -- ./inp_files/462515.got.cif
#   From: 2010.05.17/outbox.cif.g08.bks.cpg/sg2_232_cif.got.tgz:462515.got - 2010.06.03 11:33:40.
