data_PCOD9012686
_publ_section_title
;
Structure prediction by ZEFSAII (Michael W. Deem and Ramdas Pophale) SiO2 
 PCOD9012686
Probable space group: P -1
;
_chemical_formula_sum "Si O2"
_cell_formula_units_Z 14
_cell_length_a 12.955318
_cell_length_b 16.376985
_cell_length_c 8.665341
_cell_angle_alpha 123.852882
_cell_angle_beta 45.839670
_cell_angle_gamma 153.205622
_cell_volume 582.504649
_symmetry_space_group_name_H-M "P -1"
_symmetry_group_IT_number 2
_symmetry_cell_setting 'triclinic'
loop_
_space_group_symop_operation_xyz
x,y,z
-x,-y,-z
loop_
_atom_site_type_symbol
_atom_site_label
_atom_site_fract_x
_atom_site_fract_y
_atom_site_fract_z
Si Si1 0.908137 0.019029 0.748175
Si Si2 0.494551 0.852060 0.541796
Si Si3 0.176061 0.472141 0.553050
Si Si4 0.010609 0.672964 0.729558
Si Si5 0.711310 0.706530 0.104211
Si Si6 0.483319 0.259327 0.898480
Si Si7 0.794795 0.131800 0.783319
O O1 0.913423 0.130730 0.790736
O O2 0.617927 0.827246 0.919807
O O3 0.000000 0.000000 0.500000
O O4 0.100403 0.118498 0.799778
O O5 0.322705 0.663186 0.600224
O O6 0.573736 0.855507 0.294571
O O7 0.288278 0.821037 0.685856
O O8 0.731291 0.026598 0.588801
O O9 0.968792 0.342461 0.488651
O O10 0.423245 0.541923 0.320433
O O11 0.009622 0.339756 0.733544
O O12 0.797306 0.468524 0.796062
O O13 0.864832 0.692958 0.917737
O O14 0.658038 0.726692 0.016873
O O15 0.500000 0.000000 0.000000
#
# Coordination Sequence:
#
# PCOD9012686 Si02
#       7
#     2   2   2   2   2   2   2
#     4  12  27  43  65 101 139 176 219 273 341 402
#     4  10  23  47  71  97 130 183 225 275 331 387
#     4  10  23  44  69  96 140 170 227 277 327 399
#     4  10  21  40  75  99 126 171 231 282 326 380
#     4  10  22  44  69  99 125 178 225 279 332 380
#     4  10  22  43  71  97 132 170 229 277 328 394
#     4  12  29  45  65 103 142 177 220 272 337 406
#
# _framework density 24.034141999999999
#
# number of rings (size 3 to 8) (size 9 to 14) (size 15 to 20)
#    0.000    1.714    0.000    6.429   10.000    1.714 
#    5.143    0.000    0.000    0.000    0.000    0.000 
#    0.000    0.000    0.000    0.000    0.000    0.000 
#
# Total GULP energy -78342.934499 kJ/mol
# GULP energy per Si atom -5595.923893 kJ/mol
# Density = 2.397944 g / cm^3
# Si number density = 24.034142 Si / 1000 Ang^3
#
#
#
# Elastic Constant Matrix: (Units=GPa)
#
#
# Indices 1 2 3 4 5 6 
#
# 1 72.1534 10.8000 9.8369 -22.0375 -20.2279 -12.2205
# 2 10.8000 59.7574 14.7677 -9.4108 13.7508 -15.3158
# 3 9.8369 14.7677 77.1021 -5.4023 -6.3753 -38.0679
# 4 -22.0375 -9.4108 -5.4023 43.2872 -14.2703 17.8841
# 5 -20.2279 13.7508 -6.3753 -14.2703 41.4549 -4.9243
# 6 -12.2205 -15.3158 -38.0679 17.8841 -4.9243 39.4501
#
#
#
# Elastic Compliance Matrix: (Units=1/GPa)
#
#
# Indices 1 2 3 4 5 6 
#
# 1 0.027316 -0.007220 0.001910 0.019499 0.022910 0.001521
# 2 -0.007220 0.021868 -0.002179 -0.005345 -0.012354 0.005032
# 3 0.001910 -0.002179 0.028836 -0.006364 0.007630 0.031409
# 4 0.019499 -0.005345 -0.006364 0.047635 0.024242 -0.020744
# 5 0.022910 -0.012354 0.007630 0.024242 0.049494 0.004851
# 6 0.001521 0.005032 0.031409 -0.020744 0.004851 0.068091
#
#
# Mechanical properties :
#
#
# Convention : Reuss Voigt Hill
#
# Bulk Modulus (GPa) = 15.86254 31.09134 23.47694
# Shear Modulus (GPa) = 17.90617 36.41232 27.15925
#
# Velocity S-wave (km/s) = 2.73249 3.89655 3.36524
# Velocity P-wave (km/s) = 4.07058 5.76269 4.98890
#
# Compressibility (1/GPa) = 0.06304159
#
# Stress axis : x y z
#
# Youngs Moduli (GPa) = 36.60878 45.72809 34.67884
#
# Poissons Ratio (x) = 0.33015 -0.06623
# Poissons Ratio (y) = 0.26431 0.07557
# Poissons Ratio (z) = -0.06991 0.09965
#
# Static dielectric constant tensor:
#      x y z
#    x 1.897980 -0.009110 -0.023340 
#    y -0.009110 1.952490 0.006280 
#    z -0.023340 0.006280 1.958770 
# 
# From -- ./inp_files/274006.got.cif
#   From: 2010.05.17/outbox.cif.g08.bks.cpg/sg2_138_cif.got.tgz:274006.got - 2010.06.03 11:33:40.
