data_PCOD9012147
_publ_section_title
;
Structure prediction by ZEFSAII (Michael W. Deem and Ramdas Pophale) SiO2 
 PCOD9012147
Probable space group: P -1
;
_chemical_formula_sum "Si O2"
_cell_formula_units_Z 10
_cell_length_a 7.832234
_cell_length_b 5.170668
_cell_length_c 9.834284
_cell_angle_alpha 73.765179
_cell_angle_beta 73.658329
_cell_angle_gamma 95.920685
_cell_volume 359.722656
_symmetry_space_group_name_H-M "P -1"
_symmetry_group_IT_number 2
_symmetry_cell_setting 'triclinic'
loop_
_space_group_symop_operation_xyz
x,y,z
-x,-y,-z
loop_
_atom_site_type_symbol
_atom_site_label
_atom_site_fract_x
_atom_site_fract_y
_atom_site_fract_z
Si Si1 0.905263 0.389639 0.832376
Si Si2 0.322202 0.161373 0.126603
Si Si3 0.168877 0.639634 0.530516
Si Si4 0.302582 0.974841 0.868639
Si Si5 0.333914 0.158336 0.533609
O O1 0.808286 0.138774 0.794009
O O2 0.099909 0.534234 0.713331
O O3 0.777356 0.610423 0.829327
O O4 0.875598 0.237671 0.007336
O O5 0.516877 0.157305 0.148973
O O6 0.345758 0.190624 0.952385
O O7 0.000000 0.500000 0.500000
O O8 0.797639 0.033326 0.514593
O O9 0.328745 0.480266 0.471974
O O10 0.275664 0.089776 0.711801
O O11 0.500000 0.000000 0.500000
#
# Coordination Sequence:
#
# PCOD9012147 Si02
#       5
#     2   2   2   2   2
#     4  10  21  40  68  97 132 178 223 272 339 407
#     4   9  20  37  67 104 135 178 210 285 335 427
#     4  12  29  48  71  99 141 188 229 282 354 404
#     4   9  23  38  71  99 141 167 235 267 357 386
#     4  12  29  47  71 103 139 183 232 290 334 414
#
# _framework density 27.799198000000001
#
# number of rings (size 3 to 8) (size 9 to 14) (size 15 to 20)
#    1.200    0.400    0.000    3.000    8.400    1.600 
#    0.000    0.000    0.000    0.000    0.000    0.000 
#    0.000    0.000    0.000    0.000    0.000    0.000 
#
# Total GULP energy -55944.906791 kJ/mol
# GULP energy per Si atom -5594.490679 kJ/mol
# Density = 2.773593 g / cm^3
# Si number density = 27.799198 Si / 1000 Ang^3
#
#
#
# Elastic Constant Matrix: (Units=GPa)
#
#
# Indices 1 2 3 4 5 6 
#
# 1 52.2571 20.0042 -27.0470 4.4339 7.2098 -14.5301
# 2 20.0042 179.4121 14.3353 -8.0659 6.8101 -16.3966
# 3 -27.0470 14.3353 89.1456 10.6843 11.6763 5.0229
# 4 4.4339 -8.0659 10.6843 25.0028 8.3991 -9.0005
# 5 7.2098 6.8101 11.6763 8.3991 46.0696 6.8282
# 6 -14.5301 -16.3966 5.0229 -9.0005 6.8282 46.4473
#
#
#
# Elastic Compliance Matrix: (Units=1/GPa)
#
#
# Indices 1 2 3 4 5 6 
#
# 1 0.029305 -0.003571 0.010728 -0.006396 -0.006571 0.006473
# 2 -0.003571 0.006735 -0.002822 0.005384 -0.001114 0.002773
# 3 0.010728 -0.002822 0.016507 -0.008816 -0.003752 -0.000582
# 4 -0.006396 0.005384 -0.008816 0.054376 -0.009367 0.012767
# 5 -0.006571 -0.001114 -0.003752 -0.009367 0.026712 -0.007785
# 6 0.006473 0.002773 -0.000582 0.012767 -0.007785 0.028215
#
#
# Mechanical properties :
#
#
# Convention : Reuss Voigt Hill
#
# Bulk Modulus (GPa) = 16.33562 37.26664 26.80113
# Shear Modulus (GPa) = 28.80407 44.40546 36.60476
#
# Velocity S-wave (km/s) = 3.22242 4.00104 3.63265
# Velocity P-wave (km/s) = 4.44233 5.89739 5.22080
#
# Compressibility (1/GPa) = 0.06121591
#
# Stress axis : x y z
#
# Youngs Moduli (GPa) = 34.12422 148.47350 60.57991
#
# Poissons Ratio (x) = 0.53022 -0.64989
# Poissons Ratio (y) = 0.12186 0.17097
# Poissons Ratio (z) = -0.36608 0.41902
#
# Static dielectric constant tensor:
#      x y z
#    x 2.336320 0.003380 -0.058670 
#    y 0.003380 2.112390 0.026660 
#    z -0.058670 0.026660 2.327030 
# 
# From -- ./inp_files/60224.got.cif
#   From: 2010.05.17/outbox.cif.g08.bks.cpg/sg2_31_cif.got.tgz:60224.got - 2010.06.03 11:33:40.
