data_PCOD9012975
_publ_section_title
;
Structure prediction by ZEFSAII (Michael W. Deem and Ramdas Pophale) SiO2 
 PCOD9012975
Probable space group: P -1
;
_chemical_formula_sum "Si O2"
_cell_formula_units_Z 14
_cell_length_a 8.846886
_cell_length_b 5.135597
_cell_length_c 24.179359
_cell_angle_alpha 92.054895
_cell_angle_beta 134.718115
_cell_angle_gamma 59.103421
_cell_volume 566.451556
_symmetry_space_group_name_H-M "P -1"
_symmetry_group_IT_number 2
_symmetry_cell_setting 'triclinic'
loop_
_space_group_symop_operation_xyz
x,y,z
-x,-y,-z
loop_
_atom_site_type_symbol
_atom_site_label
_atom_site_fract_x
_atom_site_fract_y
_atom_site_fract_z
Si Si1 0.282709 0.114269 0.547477
Si Si2 0.898420 0.899020 0.924680
Si Si3 0.534620 0.827545 0.895904
Si Si4 0.908103 0.708495 0.724401
Si Si5 0.878245 0.999506 0.285451
Si Si6 0.192086 0.804718 0.892383
Si Si7 0.758483 0.373549 0.526227
O O1 0.305499 0.271617 0.499638
O O2 0.000000 0.500000 0.500000
O O3 0.572603 0.934740 0.655634
O O4 0.253838 0.832403 0.526952
O O5 0.944619 0.999288 0.878037
O O6 0.609041 0.007950 0.876032
O O7 0.165626 0.459480 0.994091
O O8 0.000000 0.000000 0.000000
O O9 0.280167 0.977875 0.877427
O O10 0.442347 0.701287 0.822202
O O11 0.010515 0.362577 0.716669
O O12 0.096478 0.661324 0.823530
O O13 0.932492 0.922510 0.688466
O O14 0.935416 0.921575 0.364308
O O15 0.500000 0.500000 0.000000
O O16 0.500000 0.500000 0.500000
#
# Coordination Sequence:
#
# PCOD9012975 Si02
#       7
#     2   2   2   2   2   2   2
#     4  12  25  42  66  99 142 174 222 286 352 404
#     4  10  21  41  62  92 133 166 225 279 335 408
#     4   9  22  40  59  96 125 173 218 280 330 406
#     4  11  22  43  63  99 131 174 224 281 332 415
#     4  11  23  39  71  95 129 172 234 274 331 404
#     4   9  21  41  64  93 125 179 217 271 348 394
#     4  12  22  43  69  96 127 181 226 274 337 409
#
# _framework density 24.715267000000001
#
# number of rings (size 3 to 8) (size 9 to 14) (size 15 to 20)
#    0.000    1.429    2.857    1.714    6.000    1.714 
#   15.429    0.000    0.000    0.000    0.000    0.000 
#    0.000    0.000    0.000    0.000    0.000    0.000 
#
# Total GULP energy -77961.079893 kJ/mol
# GULP energy per Si atom -5568.648564 kJ/mol
# Density = 2.465901 g / cm^3
# Si number density = 24.715267 Si / 1000 Ang^3
#
#
#
# Elastic Constant Matrix: (Units=GPa)
#
#
# Indices 1 2 3 4 5 6 
#
# 1 183.2547 39.0137 3.2916 16.8723 19.0463 9.9346
# 2 39.0137 107.1601 12.2378 18.0430 17.3226 10.5946
# 3 3.2916 12.2378 128.4273 7.3259 1.7060 5.5107
# 4 16.8723 18.0430 7.3259 25.6299 -3.4862 4.0360
# 5 19.0463 17.3226 1.7060 -3.4862 30.1810 -4.9433
# 6 9.9346 10.5946 5.5107 4.0360 -4.9433 30.5482
#
#
#
# Elastic Compliance Matrix: (Units=1/GPa)
#
#
# Indices 1 2 3 4 5 6 
#
# 1 0.006589 -0.000790 0.000294 -0.004152 -0.004546 -0.002109
# 2 -0.000790 0.013032 -0.000401 -0.009032 -0.008724 -0.004409
# 3 0.000294 -0.000401 0.008003 -0.002117 -0.000859 -0.001259
# 4 -0.004152 -0.009032 -0.002117 0.050528 0.013830 0.000427
# 5 -0.004546 -0.008724 -0.000859 0.013830 0.044293 0.009999
# 6 -0.002109 -0.004409 -0.001259 0.000427 0.009999 0.036739
#
#
# Mechanical properties :
#
#
# Convention : Reuss Voigt Hill
#
# Bulk Modulus (GPa) = 38.71430 58.65870 48.68650
# Shear Modulus (GPa) = 29.48306 41.55842 35.52074
#
# Velocity S-wave (km/s) = 3.45760 4.10504 3.79515
# Velocity P-wave (km/s) = 5.62478 6.80102 6.24067
#
# Compressibility (1/GPa) = 0.02583025
#
# Stress axis : x y z
#
# Youngs Moduli (GPa) = 151.77118 76.73317 124.94653
#
# Poissons Ratio (x) = 0.06061 -0.03675
# Poissons Ratio (y) = 0.11989 0.05014
# Poissons Ratio (z) = -0.04464 0.03079
#
# Static dielectric constant tensor:
#      x y z
#    x 1.239090 -0.307780 0.107670 
#    y -0.307780 1.973590 -0.115090 
#    z 0.107670 -0.115090 2.146850 
# 
# From -- ./inp_files/616189.got.cif
#   From: 2010.05.17/outbox.cif.g08.bks.cpg/sg2_309_cif.got.tgz:616189.got - 2010.06.03 11:33:40.
