data_PCOD9012762
_publ_section_title
;
Structure prediction by ZEFSAII (Michael W. Deem and Ramdas Pophale) SiO2 
 PCOD9012762
Probable space group: P -1
;
_chemical_formula_sum "Si O2"
_cell_formula_units_Z 16
_cell_length_a 5.344867
_cell_length_b 25.423741
_cell_length_c 5.504574
_cell_angle_alpha 90.554175
_cell_angle_beta 60.665072
_cell_angle_gamma 104.129363
_cell_volume 626.986682
_symmetry_space_group_name_H-M "P -1"
_symmetry_group_IT_number 2
_symmetry_cell_setting 'triclinic'
loop_
_space_group_symop_operation_xyz
x,y,z
-x,-y,-z
loop_
_atom_site_type_symbol
_atom_site_label
_atom_site_fract_x
_atom_site_fract_y
_atom_site_fract_z
Si Si1 0.191661 0.570327 0.657009
Si Si2 0.364447 0.101523 0.059055
Si Si3 0.977667 0.663652 0.526210
Si Si4 0.243627 0.206261 0.961072
Si Si5 0.569266 0.309663 0.058247
Si Si6 0.637752 0.065207 0.424486
Si Si7 0.681293 0.226912 0.371944
Si Si8 0.297053 0.539903 0.121053
O O1 0.390194 0.575495 0.320760
O O2 0.012813 0.615995 0.692992
O O3 0.025767 0.504616 0.718553
O O4 0.315494 0.571830 0.865249
O O5 0.504779 0.084129 0.237604
O O6 0.000799 0.077174 0.234418
O O7 0.400386 0.166856 0.030785
O O8 0.520747 0.087143 0.734683
O O9 0.645254 0.668167 0.663872
O O10 0.157718 0.726206 0.507394
O O11 0.140411 0.652549 0.206191
O O12 0.352592 0.199991 0.635003
O O13 0.343044 0.271640 0.969521
O O14 0.900062 0.190175 0.205749
O O15 0.674123 0.264686 0.151269
O O16 0.500000 0.000000 0.500000
O O17 0.500000 0.500000 0.000000
#
# Coordination Sequence:
#
# PCOD9012762 Si02
#       8
#     2   2   2   2   2   2   2   2
#     4  10  23  39  61  92 121 156 217 254 324 395
#     4  12  26  44  75 109 140 199 242 293 368 427
#     4  10  23  38  60  94 118 168 211 260 326 404
#     4  10  23  38  62  94 131 169 229 275 330 409
#     4  10  22  41  61  89 129 165 213 269 333 382
#     4  12  26  49  73 108 150 189 244 304 361 427
#     4  10  21  41  60  90 128 170 210 280 332 391
#     4  10  22  42  61  89 120 162 199 273 320 377
#
# _framework density 25.518884
#
# number of rings (size 3 to 8) (size 9 to 14) (size 15 to 20)
#    0.000    1.500    0.000    3.750    7.000    0.000 
#    0.000    0.000    0.000    0.000    0.000    0.000 
#    0.000    0.000    0.000    0.000    0.000    0.000 
#
# Total GULP energy -89229.427016 kJ/mol
# GULP energy per Si atom -5576.839189 kJ/mol
# Density = 2.546080 g / cm^3
# Si number density = 25.518884 Si / 1000 Ang^3
#
#
#
# Elastic Constant Matrix: (Units=GPa)
#
#
# Indices 1 2 3 4 5 6 
#
# 1 96.5576 19.7805 74.4514 3.1861 10.1444 -23.2334
# 2 19.7805 93.5491 39.2358 2.9939 9.4393 -17.1682
# 3 74.4514 39.2358 214.0748 20.4072 9.9298 -17.8444
# 4 3.1861 2.9939 20.4072 43.4036 -13.1752 -4.0694
# 5 10.1444 9.4393 9.9298 -13.1752 38.0404 -18.1120
# 6 -23.2334 -17.1682 -17.8444 -4.0694 -18.1120 50.6547
#
#
#
# Elastic Compliance Matrix: (Units=1/GPa)
#
#
# Indices 1 2 3 4 5 6 
#
# 1 0.015584 -0.000236 -0.005125 0.002000 0.000621 0.005645
# 2 -0.000236 0.012170 -0.001852 0.000012 -0.001045 0.002991
# 3 -0.005125 -0.001852 0.007102 -0.003568 -0.001960 -0.001464
# 4 0.002000 0.000012 -0.003568 0.029458 0.013937 0.007014
# 5 0.000621 -0.001045 -0.001960 0.013937 0.038435 0.014102
# 6 0.005645 0.002991 -0.001464 0.007014 0.014102 0.028435
#
#
# Mechanical properties :
#
#
# Convention : Reuss Voigt Hill
#
# Bulk Modulus (GPa) = 48.94849 74.56854 61.75851
# Shear Modulus (GPa) = 32.80406 44.46734 38.63570
#
# Velocity S-wave (km/s) = 3.58925 4.17889 3.89524
# Velocity P-wave (km/s) = 6.03323 7.25041 6.66965
#
# Compressibility (1/GPa) = 0.02042964
#
# Stress axis : x y z
#
# Youngs Moduli (GPa) = 64.16871 82.16785 140.80229
#
# Poissons Ratio (x) = 0.01941 0.72167
# Poissons Ratio (y) = 0.01516 0.26072
# Poissons Ratio (z) = 0.32889 0.15215
#
# Static dielectric constant tensor:
#      x y z
#    x 1.936560 -0.126740 0.029140 
#    y -0.126740 1.716140 0.026360 
#    z 0.029140 0.026360 2.126350 
# 
# From -- ./inp_files/14471.got.cif
#   From: 2010.05.17/outbox.cif.g08.bks.cpg/sg2_8_cif.got.tgz:14471.got - 2010.06.03 11:33:40.
