data_PCOD9012108
_publ_section_title
;
Structure prediction by ZEFSAII (Michael W. Deem and Ramdas Pophale) SiO2 
 PCOD9012108
Probable space group: P -1
;
_chemical_formula_sum "Si O2"
_cell_formula_units_Z 14
_cell_length_a 26.200570
_cell_length_b 8.573212
_cell_length_c 5.924177
_cell_angle_alpha 69.498914
_cell_angle_beta 119.550026
_cell_angle_gamma 148.559472
_cell_volume 596.484770
_symmetry_space_group_name_H-M "P -1"
_symmetry_group_IT_number 2
_symmetry_cell_setting 'triclinic'
loop_
_space_group_symop_operation_xyz
x,y,z
-x,-y,-z
loop_
_atom_site_type_symbol
_atom_site_label
_atom_site_fract_x
_atom_site_fract_y
_atom_site_fract_z
Si Si1 0.666051 0.855663 0.374682
Si Si2 0.542360 0.456886 0.908436
Si Si3 0.876990 0.892303 0.358738
Si Si4 0.582856 0.059387 0.733641
Si Si5 0.249764 0.676683 0.356112
Si Si6 0.704265 0.647386 0.863418
Si Si7 0.071964 0.260097 0.837057
O O1 0.638741 0.775465 0.092710
O O2 0.708356 0.778774 0.592018
O O3 0.738790 0.168882 0.488319
O O4 0.547147 0.623873 0.322048
O O5 0.475979 0.187458 0.079744
O O6 0.603023 0.480452 0.860460
O O7 0.801145 0.614548 0.511781
O O8 0.898669 0.810655 0.246954
O O9 0.811956 0.893300 0.117805
O O10 0.991684 0.196837 0.569333
O O11 0.636016 0.090007 0.625029
O O12 0.677825 0.394352 0.875868
O O13 0.500000 0.000000 0.500000
O O14 0.173365 0.561829 0.047375
O O15 0.000000 0.000000 0.000000
#
# Coordination Sequence:
#
# PCOD9012108 Si02
#       7
#     2   2   2   2   2   2   2
#     4  11  26  39  59  88 131 173 205 246 310 370
#     4  11  25  41  58  86 133 176 207 246 305 365
#     4  10  21  40  68  96 118 158 205 262 313 363
#     4  12  22  38  62  91 123 163 215 256 294 356
#     4  11  23  40  63  93 126 163 205 251 314 375
#     4  12  23  40  63  92 123 164 214 261 300 355
#     4   9  20  40  68  94 122 152 206 257 317 373
#
# _framework density 23.470841
#
# number of rings (size 3 to 8) (size 9 to 14) (size 15 to 20)
#    0.000    1.143    2.857    3.429    4.000    0.000 
#    0.000    0.714    0.000    8.571    0.000    0.000 
#    0.000    0.000    0.000    0.000    0.000    0.000 
#
# Total GULP energy -78229.772759 kJ/mol
# GULP energy per Si atom -5587.840911 kJ/mol
# Density = 2.341742 g / cm^3
# Si number density = 23.470841 Si / 1000 Ang^3
#
#
#
# Elastic Constant Matrix: (Units=GPa)
#
#
# Indices 1 2 3 4 5 6 
#
# 1 50.5665 12.7485 11.0173 2.6606 5.8687 3.1070
# 2 12.7485 53.1484 23.5573 8.4993 9.1285 4.3625
# 3 11.0173 23.5573 122.4368 29.4298 44.4555 1.7015
# 4 2.6606 8.4993 29.4298 45.8581 5.3288 -8.2386
# 5 5.8687 9.1285 44.4555 5.3288 51.0983 8.4505
# 6 3.1070 4.3625 1.7015 -8.2386 8.4505 36.3455
#
#
#
# Elastic Compliance Matrix: (Units=1/GPa)
#
#
# Indices 1 2 3 4 5 6 
#
# 1 0.021240 -0.004545 -0.000716 -0.000023 -0.000829 -0.001049
# 2 -0.004545 0.021904 -0.003298 -0.002164 0.000135 -0.002608
# 3 -0.000716 -0.003298 0.014843 -0.007383 -0.011602 0.000786
# 4 -0.000023 -0.002164 -0.007383 0.027728 0.002892 0.006220
# 5 -0.000829 0.000135 -0.011602 0.002892 0.030395 -0.005814
# 6 -0.001049 -0.002608 0.000786 0.006220 -0.005814 0.030641
#
#
# Mechanical properties :
#
#
# Convention : Reuss Voigt Hill
#
# Bulk Modulus (GPa) = 24.46904 35.64421 30.05662
# Shear Modulus (GPa) = 28.17024 38.58228 33.37626
#
# Velocity S-wave (km/s) = 3.46818 4.05883 3.77507
# Velocity P-wave (km/s) = 5.14642 6.09795 5.64228
#
# Compressibility (1/GPa) = 0.04086798
#
# Stress axis : x y z
#
# Youngs Moduli (GPa) = 47.08168 45.65316 67.37297
#
# Poissons Ratio (x) = 0.20751 0.04822
# Poissons Ratio (y) = 0.21400 0.22222
# Poissons Ratio (z) = 0.03370 0.15058
#
# Static dielectric constant tensor:
#      x y z
#    x 1.854250 -0.026450 -0.027530 
#    y -0.026450 1.925480 0.053860 
#    z -0.027530 0.053860 1.971750 
# 
# From -- ./inp_files/35734.got.cif
#   From: 2010.05.17/outbox.cif.g08.bks.cpg/sg2_18_cif.got.tgz:35734.got - 2010.06.03 11:33:40.
