data_PCOD9012096
_publ_section_title
;
Structure prediction by ZEFSAII (Michael W. Deem and Ramdas Pophale) SiO2 
 PCOD9012096
Probable space group: P -1
;
_chemical_formula_sum "Si O2"
_cell_formula_units_Z 12
_cell_length_a 8.410447
_cell_length_b 12.627246
_cell_length_c 8.174104
_cell_angle_alpha 79.167258
_cell_angle_beta 125.311870
_cell_angle_gamma 131.619142
_cell_volume 501.500935
_symmetry_space_group_name_H-M "P -1"
_symmetry_group_IT_number 2
_symmetry_cell_setting 'triclinic'
loop_
_space_group_symop_operation_xyz
x,y,z
-x,-y,-z
loop_
_atom_site_type_symbol
_atom_site_label
_atom_site_fract_x
_atom_site_fract_y
_atom_site_fract_z
Si Si1 0.506993 0.177232 0.372532
Si Si2 0.252636 0.171546 0.563124
Si Si3 0.207526 0.670779 0.008423
Si Si4 0.524429 0.618833 0.868979
Si Si5 0.845034 0.169701 0.803060
Si Si6 0.215334 0.399536 0.460174
O O1 0.379075 0.188900 0.454946
O O2 0.525358 0.269672 0.208469
O O3 0.775314 0.220795 0.591597
O O4 0.318288 0.003651 0.263030
O O5 0.139903 0.247758 0.483427
O O6 0.492131 0.261857 0.815927
O O7 0.000000 0.000000 0.500000
O O8 0.039096 0.643555 0.761729
O O9 0.236695 0.787686 0.104891
O O10 0.000000 0.500000 0.000000
O O11 0.310771 0.503360 0.638841
O O12 0.500000 0.500000 0.000000
O O13 0.846422 0.739428 0.006161
O O14 0.500000 0.500000 0.500000
#
# Coordination Sequence:
#
# PCOD9012096 Si02
#       6
#     2   2   2   2   2   2
#     4  10  22  43  66  93 137 174 216 274 340 396
#     4  11  24  40  69 103 131 169 224 280 331 395
#     4  11  20  41  73  96 127 176 223 273 336 395
#     4  12  25  40  66  98 132 177 225 273 327 398
#     4  10  21  40  68  95 128 175 218 272 342 393
#     4  12  21  42  67  93 127 176 225 271 330 392
#
# _framework density 23.928169
#
# number of rings (size 3 to 8) (size 9 to 14) (size 15 to 20)
#    0.000    1.000    5.000    1.500    2.333    1.333 
#    0.000    0.000    0.000    0.000    0.000    0.000 
#    0.000    0.000    0.000    0.000    0.000    0.000 
#
# Total GULP energy -66907.204402 kJ/mol
# GULP energy per Si atom -5575.600367 kJ/mol
# Density = 2.387371 g / cm^3
# Si number density = 23.928169 Si / 1000 Ang^3
#
#
#
# Elastic Constant Matrix: (Units=GPa)
#
#
# Indices 1 2 3 4 5 6 
#
# 1 49.9043 24.2485 16.6824 -18.9127 17.4397 -6.5967
# 2 24.2485 167.2609 51.3311 -21.2274 18.0848 -22.4663
# 3 16.6824 51.3311 161.7745 -32.6477 20.7839 3.5558
# 4 -18.9127 -21.2274 -32.6477 41.3081 -15.1915 13.3136
# 5 17.4397 18.0848 20.7839 -15.1915 33.2745 5.4757
# 6 -6.5967 -22.4663 3.5558 13.3136 5.4757 32.3101
#
#
#
# Elastic Compliance Matrix: (Units=1/GPa)
#
#
# Indices 1 2 3 4 5 6 
#
# 1 0.027721 -0.001547 0.000398 0.006832 -0.011420 0.003660
# 2 -0.001547 0.008128 -0.002528 -0.002536 -0.004404 0.007405
# 3 0.000398 -0.002528 0.008577 0.007621 0.000242 -0.005802
# 4 0.006832 -0.002536 0.007621 0.046150 0.017936 -0.023263
# 5 -0.011420 -0.004404 0.000242 0.017936 0.049971 -0.021280
# 6 0.003660 0.007405 -0.005802 -0.023263 -0.021280 0.050677
#
#
# Mechanical properties :
#
#
# Convention : Reuss Voigt Hill
#
# Bulk Modulus (GPa) = 26.97606 62.60708 44.79157
# Shear Modulus (GPa) = 23.70388 40.49039 32.09713
#
# Velocity S-wave (km/s) = 3.15084 4.11805 3.66648
# Velocity P-wave (km/s) = 4.95331 6.98803 6.05672
#
# Compressibility (1/GPa) = 0.03706990
#
# Stress axis : x y z
#
# Youngs Moduli (GPa) = 36.07382 123.03337 116.59133
#
# Poissons Ratio (x) = 0.19039 -0.04638
# Poissons Ratio (y) = 0.05582 0.29477
# Poissons Ratio (z) = -0.01435 0.31105
#
# Static dielectric constant tensor:
#      x y z
#    x 2.010830 -0.069340 -0.098780 
#    y -0.069340 1.817930 -0.066880 
#    z -0.098780 -0.066880 1.912650 
# 
# From -- ./inp_files/156484.got.cif
#   From: 2010.05.17/outbox.cif.g08.bks.cpg/sg2_79_cif.got.tgz:156484.got - 2010.06.03 11:33:40.
