data_PCOD9012758
_publ_section_title
;
Structure prediction by ZEFSAII (Michael W. Deem and Ramdas Pophale) SiO2 
 PCOD9012758
Probable space group: P -1
;
_chemical_formula_sum "Si O2"
_cell_formula_units_Z 15
_cell_length_a 13.343242
_cell_length_b 6.635348
_cell_length_c 12.575651
_cell_angle_alpha 83.612315
_cell_angle_beta 43.533723
_cell_angle_gamma 61.453342
_cell_volume 620.686249
_symmetry_space_group_name_H-M "P -1"
_symmetry_group_IT_number 2
_symmetry_cell_setting 'triclinic'
loop_
_space_group_symop_operation_xyz
x,y,z
-x,-y,-z
loop_
_atom_site_type_symbol
_atom_site_label
_atom_site_fract_x
_atom_site_fract_y
_atom_site_fract_z
Si Si1 0.702020 0.493378 0.307546
Si Si2 0.675485 0.221444 0.517228
Si Si3 0.063450 0.757452 0.033983
Si Si4 0.600021 0.741278 0.874264
Si Si5 0.000000 0.500000 0.500000
Si Si6 0.715706 0.250615 0.944354
Si Si7 0.192429 0.294088 0.616048
Si Si8 0.033386 0.794267 0.587682
O O1 0.767749 0.246023 0.339422
O O2 0.529014 0.576001 0.367380
O O3 0.681223 0.670762 0.408920
O O4 0.841194 0.455989 0.116502
O O5 0.778849 0.249000 0.530066
O O6 0.702662 0.960649 0.513459
O O7 0.200841 0.745460 0.010802
O O8 0.935154 0.722151 0.204580
O O9 0.000000 0.000000 0.000000
O O10 0.784614 0.667029 0.687439
O O11 0.648340 0.511028 0.925468
O O12 0.448836 0.769948 0.911726
O O13 0.500000 0.000000 0.000000
O O14 0.001535 0.239014 0.503956
O O15 0.871030 0.016772 0.767212
O O16 0.072024 0.525682 0.613859
#
# Coordination Sequence:
#
# PCOD9012758 Si02
#       8
#     2   2   2   2   1   2   2   2
#     4  10  22  37  60  93 131 174 232 277 333 423
#     4  10  21  41  60  89 138 176 220 286 350 399
#     4  12  22  41  67 100 132 184 230 280 349 426
#     4  11  26  52  74 107 142 186 239 305 362 422
#     4  12  26  46  76 104 134 184 250 294 360 434
#     4  11  25  48  74 100 150 185 230 303 362 414
#     4  11  21  42  64  92 138 185 222 287 349 410
#     4  11  24  44  69 100 135 184 232 290 360 423
#
# _framework density 24.166799000000001
#
# number of rings (size 3 to 8) (size 9 to 14) (size 15 to 20)
#    0.000    1.067    4.000    2.400    1.867    0.533 
#    2.400    0.000    0.000    0.000    0.000    0.000 
#    0.000    0.000    0.000    0.000    0.000    0.000 
#
# Total GULP energy -83610.564159 kJ/mol
# GULP energy per Si atom -5574.037611 kJ/mol
# Density = 2.411179 g / cm^3
# Si number density = 24.166799 Si / 1000 Ang^3
#
#
#
# Elastic Constant Matrix: (Units=GPa)
#
#
# Indices 1 2 3 4 5 6 
#
# 1 128.6670 26.1440 15.7514 -1.1532 -33.3498 18.2181
# 2 26.1440 97.0415 15.6613 11.8742 -2.7786 -1.7274
# 3 15.7514 15.6613 93.7079 -1.5386 -12.3976 11.9551
# 4 -1.1532 11.8742 -1.5386 41.5416 11.9287 6.7662
# 5 -33.3498 -2.7786 -12.3976 11.9287 36.0153 -9.1602
# 6 18.2181 -1.7274 11.9551 6.7662 -9.1602 41.6297
#
#
#
# Elastic Compliance Matrix: (Units=1/GPa)
#
#
# Indices 1 2 3 4 5 6 
#
# 1 0.011262 -0.002656 0.000200 -0.001381 0.010075 -0.002655
# 2 -0.002656 0.011868 -0.001989 -0.003940 -0.000206 0.002821
# 3 0.000200 -0.001989 0.011772 0.000591 0.003136 -0.002957
# 4 -0.001381 -0.003940 0.000591 0.030242 -0.013323 -0.007576
# 5 0.010075 -0.000206 0.003136 -0.013323 0.044246 0.006583
# 6 -0.002655 0.002821 -0.002957 -0.007576 0.006583 0.028829
#
#
# Mechanical properties :
#
#
# Convention : Reuss Voigt Hill
#
# Bulk Modulus (GPa) = 38.44443 48.28111 43.36277
# Shear Modulus (GPa) = 32.09673 41.29464 36.69568
#
# Velocity S-wave (km/s) = 3.64831 4.13817 3.90094
# Velocity P-wave (km/s) = 5.80425 6.54631 6.18642
#
# Compressibility (1/GPa) = 0.02601157
#
# Stress axis : x y z
#
# Youngs Moduli (GPa) = 88.79383 84.26130 84.94670
#
# Poissons Ratio (x) = 0.22381 -0.01697
# Poissons Ratio (y) = 0.23585 0.16895
# Poissons Ratio (z) = -0.01774 0.16758
#
# Static dielectric constant tensor:
#      x y z
#    x 1.248900 0.183160 -0.080240 
#    y 0.183160 1.985770 0.035490 
#    z -0.080240 0.035490 1.916070 
# 
# From -- ./inp_files/525764.got.cif
#   From: 2010.05.17/outbox.cif.g08.bks.cpg/sg2_263_cif.got.tgz:525764.got - 2010.06.03 11:33:40.
