data_PCOD9012507
_publ_section_title
;
Structure prediction by ZEFSAII (Michael W. Deem and Ramdas Pophale) SiO2 
 PCOD9012507
Probable space group: P -1
;
_chemical_formula_sum "Si O2"
_cell_formula_units_Z 16
_cell_length_a 8.615553
_cell_length_b 21.139807
_cell_length_c 15.661731
_cell_angle_alpha 161.230511
_cell_angle_beta 50.888367
_cell_angle_gamma 129.607884
_cell_volume 702.841210
_symmetry_space_group_name_H-M "P -1"
_symmetry_group_IT_number 2
_symmetry_cell_setting 'triclinic'
loop_
_space_group_symop_operation_xyz
x,y,z
-x,-y,-z
loop_
_atom_site_type_symbol
_atom_site_label
_atom_site_fract_x
_atom_site_fract_y
_atom_site_fract_z
Si Si1 0.642509 0.842598 0.224412
Si Si2 0.900771 0.579957 0.343330
Si Si3 0.347274 0.938771 0.898792
Si Si4 0.848101 0.784879 0.783045
Si Si5 0.629089 0.917698 0.637523
Si Si6 0.722524 0.629887 0.095659
Si Si7 0.495806 0.288114 0.065196
Si Si8 0.924094 0.015119 0.812762
O O1 0.727756 0.759294 0.173579
O O2 0.500000 0.000000 0.500000
O O3 0.519928 0.693260 0.007552
O O4 0.840150 0.937959 0.225923
O O5 0.940921 0.630976 0.495121
O O6 0.686277 0.439166 0.226851
O O7 0.885349 0.786214 0.564485
O O8 0.089284 0.488617 0.123877
O O9 0.442817 0.821581 0.641572
O O10 0.500000 0.000000 0.000000
O O11 0.331092 0.146593 0.123863
O O12 0.146207 0.860649 0.923398
O O13 0.720671 0.697750 0.797609
O O14 0.000000 0.000000 0.000000
O O15 0.724460 0.762332 0.349118
O O16 0.793757 0.029131 0.790075
O O17 0.545377 0.069152 0.794720
O O18 0.500000 0.500000 0.000000
#
# Coordination Sequence:
#
# PCOD9012507 Si02
#       8
#     2   2   2   2   2   2   2   2
#     4  12  25  44  67  94 134 178 229 269 333 406
#     4  11  25  42  66 103 138 170 224 281 334 397
#     4   8  17  36  64  96 120 161 218 263 314 389
#     4  10  21  40  70  96 133 177 221 270 337 400
#     4  10  22  41  70  93 132 182 217 268 338 399
#     4  12  28  44  65  97 138 174 230 279 335 398
#     4  11  23  42  69 100 133 176 225 279 332 391
#     4  10  22  42  69  99 129 175 225 270 336 403
#
# _framework density 22.764742999999999
#
# number of rings (size 3 to 8) (size 9 to 14) (size 15 to 20)
#    0.000    1.500    1.250    3.375    7.000    1.500 
#    0.000    1.875    0.000    0.000    0.000    0.000 
#    0.000    0.000    0.000    0.000    0.000    0.000 
#
# Total GULP energy -89266.598194 kJ/mol
# GULP energy per Si atom -5579.162387 kJ/mol
# Density = 2.271293 g / cm^3
# Si number density = 22.764743 Si / 1000 Ang^3
#
#
#
# Elastic Constant Matrix: (Units=GPa)
#
#
# Indices 1 2 3 4 5 6 
#
# 1 63.7306 20.3390 10.5609 -8.5772 3.4480 5.6534
# 2 20.3390 108.5768 47.2381 -27.9339 11.3703 24.4995
# 3 10.5609 47.2381 97.3051 -40.3167 9.2683 11.0730
# 4 -8.5772 -27.9339 -40.3167 40.2473 -0.0033 2.4354
# 5 3.4480 11.3703 9.2683 -0.0033 36.1600 -0.9789
# 6 5.6534 24.4995 11.0730 2.4354 -0.9789 51.7224
#
#
#
# Elastic Compliance Matrix: (Units=1/GPa)
#
#
# Indices 1 2 3 4 5 6 
#
# 1 0.016855 -0.002443 0.000640 0.002596 -0.001029 -0.000964
# 2 -0.002443 0.014578 -0.002684 0.007300 -0.003838 -0.006480
# 3 0.000640 -0.002684 0.020154 0.018709 -0.004491 -0.004079
# 4 0.002596 0.007300 0.018709 0.049826 -0.007611 -0.010237
# 5 -0.001029 -0.003838 -0.004491 -0.007611 0.030214 0.003822
# 6 -0.000964 -0.006480 -0.004079 -0.010237 0.003822 0.023936
#
#
# Mechanical properties :
#
#
# Convention : Reuss Voigt Hill
#
# Bulk Modulus (GPa) = 23.46723 47.32095 35.39409
# Shear Modulus (GPa) = 27.97336 38.39091 33.18213
#
# Velocity S-wave (km/s) = 3.50923 4.11106 3.82201
# Velocity P-wave (km/s) = 5.17209 6.58532 5.92102
#
# Compressibility (1/GPa) = 0.04261262
#
# Stress axis : x y z
#
# Youngs Moduli (GPa) = 59.32923 68.59885 49.61710
#
# Poissons Ratio (x) = 0.16756 -0.03174
# Poissons Ratio (y) = 0.14492 0.13318
# Poissons Ratio (z) = -0.03795 0.18413
#
# Static dielectric constant tensor:
#      x y z
#    x 1.972210 0.018050 0.013530 
#    y 0.018050 2.020960 -0.049230 
#    z 0.013530 -0.049230 1.870870 
# 
# From -- ./inp_files/508170.got.cif
#   From: 2010.05.17/outbox.cif.g08.bks.cpg/sg2_255_cif.got.tgz:508170.got - 2010.06.03 11:33:40.
