data_PCOD9012496
_publ_section_title
;
Structure prediction by ZEFSAII (Michael W. Deem and Ramdas Pophale) SiO2 
 PCOD9012496
Probable space group: P -1
;
_chemical_formula_sum "Si O2"
_cell_formula_units_Z 12
_cell_length_a 6.727370
_cell_length_b 14.213382
_cell_length_c 7.003344
_cell_angle_alpha 52.341320
_cell_angle_beta 88.502479
_cell_angle_gamma 116.571430
_cell_volume 429.661195
_symmetry_space_group_name_H-M "P -1"
_symmetry_group_IT_number 2
_symmetry_cell_setting 'triclinic'
loop_
_space_group_symop_operation_xyz
x,y,z
-x,-y,-z
loop_
_atom_site_type_symbol
_atom_site_label
_atom_site_fract_x
_atom_site_fract_y
_atom_site_fract_z
Si Si1 0.000000 0.500000 0.500000
Si Si2 0.500000 0.000000 0.000000
Si Si3 0.624020 0.814738 0.587358
Si Si4 0.683215 0.468631 0.794408
Si Si5 0.039372 0.781867 0.020034
Si Si6 0.426716 0.308737 0.634254
Si Si7 0.176077 0.932987 0.452612
O O1 0.969704 0.550050 0.676510
O O2 0.017821 0.371802 0.743065
O O3 0.284201 0.906410 0.960986
O O4 0.291906 0.932888 0.257051
O O5 0.546163 0.786995 0.399627
O O6 0.917855 0.904980 0.443502
O O7 0.628878 0.919460 0.615354
O O8 0.476422 0.655414 0.892223
O O9 0.648388 0.385785 0.686608
O O10 0.594776 0.572096 0.624233
O O11 0.810268 0.777588 0.116022
O O12 0.074914 0.803602 0.766902
#
# Coordination Sequence:
#
# PCOD9012496 Si02
#       7
#     1   1   2   2   2   2   2
#     4  10  24  44  68  96 136 172 220 284 344 386
#     4  12  24  44  68  98 144 182 216 290 340 394
#     4  11  22  41  66 101 131 179 226 278 326 417
#     4  10  21  41  66  97 133 175 225 281 330 409
#     4  11  23  45  67  99 136 181 222 284 335 409
#     4  10  21  40  70  95 133 177 228 273 340 393
#     4  11  25  40  68  98 139 178 230 272 341 400
#
# _framework density 27.928982999999999
#
# number of rings (size 3 to 8) (size 9 to 14) (size 15 to 20)
#    0.000    1.333    3.333    2.000    0.000    3.333 
#    0.000    1.667    0.000    0.000    0.000    0.000 
#    0.000    0.000    0.000    0.000    0.000    0.000 
#
# Total GULP energy -66843.046299 kJ/mol
# GULP energy per Si atom -5570.253858 kJ/mol
# Density = 2.786542 g / cm^3
# Si number density = 27.928983 Si / 1000 Ang^3
#
#
#
# Elastic Constant Matrix: (Units=GPa)
#
#
# Indices 1 2 3 4 5 6 
#
# 1 111.7306 29.8810 13.0055 3.9491 -41.7688 -3.7776
# 2 29.8810 81.3234 27.1965 34.9622 -9.6228 -13.6397
# 3 13.0055 27.1965 176.2618 14.5472 -36.8808 -31.3971
# 4 3.9491 34.9622 14.5472 54.6170 -5.0853 -10.6698
# 5 -41.7688 -9.6228 -36.8808 -5.0853 36.0649 5.6564
# 6 -3.7776 -13.6397 -31.3971 -10.6698 5.6564 53.2443
#
#
#
# Elastic Compliance Matrix: (Units=1/GPa)
#
#
# Indices 1 2 3 4 5 6 
#
# 1 0.020784 -0.008163 0.005236 0.005024 0.027875 0.000516
# 2 -0.008163 0.020907 -0.003283 -0.012520 -0.009203 0.001310
# 3 0.005236 -0.003283 0.009364 0.001305 0.014354 0.003789
# 4 0.005024 -0.012520 0.001305 0.026775 0.007193 0.002520
# 5 0.027875 -0.009203 0.014354 0.007193 0.072971 0.001774
# 6 0.000516 0.001310 0.003789 0.002520 0.001774 0.021705
#
#
# Mechanical properties :
#
#
# Convention : Reuss Voigt Hill
#
# Bulk Modulus (GPa) = 25.88260 56.60908 41.24584
# Shear Modulus (GPa) = 25.27766 48.73408 37.00587
#
# Velocity S-wave (km/s) = 3.01170 4.18177 3.64400
# Velocity P-wave (km/s) = 4.62398 6.60524 5.70133
#
# Compressibility (1/GPa) = 0.03863599
#
# Stress axis : x y z
#
# Youngs Moduli (GPa) = 48.11312 47.83151 106.79022
#
# Poissons Ratio (x) = 0.39044 -0.55914
# Poissons Ratio (y) = 0.39274 0.35055
# Poissons Ratio (z) = -0.25191 0.15701
#
# Static dielectric constant tensor:
#      x y z
#    x 2.427490 -0.013650 -0.005130 
#    y -0.013650 2.604410 -0.669150 
#    z -0.005130 -0.669150 3.585830 
# 
# From -- ./inp_files/18401.got.cif
#   From: 2010.05.17/outbox.cif.g08.bks.cpg/sg2_10_cif.got.tgz:18401.got - 2010.06.03 11:33:40.
