data_PCOD9012278
_publ_section_title
;
Structure prediction by ZEFSAII (Michael W. Deem and Ramdas Pophale) SiO2 
 PCOD9012278
Probable space group: P -1
;
_chemical_formula_sum "Si O2"
_cell_formula_units_Z 16
_cell_length_a 8.455275
_cell_length_b 16.119211
_cell_length_c 9.518801
_cell_angle_alpha 64.469644
_cell_angle_beta 94.291369
_cell_angle_gamma 141.835971
_cell_volume 637.126033
_symmetry_space_group_name_H-M "P -1"
_symmetry_group_IT_number 2
_symmetry_cell_setting 'triclinic'
loop_
_space_group_symop_operation_xyz
x,y,z
-x,-y,-z
loop_
_atom_site_type_symbol
_atom_site_label
_atom_site_fract_x
_atom_site_fract_y
_atom_site_fract_z
Si Si1 0.758146 0.304499 0.609412
Si Si2 0.858228 0.019725 0.146065
Si Si3 0.762051 0.056315 0.421175
Si Si4 0.262368 0.368512 0.407024
Si Si5 0.190610 0.710013 0.971333
Si Si6 0.060013 0.293135 0.807521
Si Si7 0.166823 0.984979 0.261641
Si Si8 0.002480 0.581252 0.736313
O O1 0.000000 0.500000 0.500000
O O2 0.864659 0.259715 0.713908
O O3 0.728655 0.287891 0.449947
O O4 0.455871 0.178011 0.756304
O O5 0.792150 0.042500 0.271420
O O6 0.075702 0.040715 0.164154
O O7 0.967092 0.143653 0.945780
O O8 0.903745 0.342970 0.157803
O O9 0.762517 0.974507 0.595503
O O10 0.083212 0.253624 0.338408
O O11 0.500000 0.000000 0.500000
O O12 0.602627 0.522519 0.334066
O O13 0.207753 0.450859 0.335933
O O14 0.086556 0.216043 0.613501
O O15 0.528338 0.899751 0.865131
O O16 0.136523 0.585013 0.128803
O O17 0.997229 0.686099 0.061137
#
# Coordination Sequence:
#
# PCOD9012278 Si02
#       8
#     2   2   2   2   2   2   2   2
#     4  12  26  48  70 100 144 193 235 287 359 426
#     4  12  24  42  71  98 144 189 236 287 351 420
#     4  10  21  40  69 107 143 181 230 287 359 416
#     4  10  24  42  70 106 142 184 229 292 349 429
#     4  11  24  43  72 107 140 177 237 297 344 420
#     4  12  26  46  70 107 143 184 238 293 351 415
#     4  10  23  40  65 106 140 181 225 288 352 416
#     4  11  24  43  73  99 140 185 234 282 363 407
#
# _framework density 25.112770000000001
#
# number of rings (size 3 to 8) (size 9 to 14) (size 15 to 20)
#    0.750    0.250    1.250    6.000    1.750    4.500 
#    0.000    0.625    0.000    0.000    0.000    0.000 
#    0.000    0.000    0.000    0.000    0.000    0.000 
#
# Total GULP energy -89415.091534 kJ/mol
# GULP energy per Si atom -5588.443221 kJ/mol
# Density = 2.505561 g / cm^3
# Si number density = 25.112770 Si / 1000 Ang^3
#
#
#
# Elastic Constant Matrix: (Units=GPa)
#
#
# Indices 1 2 3 4 5 6 
#
# 1 84.1753 1.3716 36.0147 -6.3719 16.9385 13.5285
# 2 1.3716 63.2674 20.4839 7.7524 0.4819 7.7037
# 3 36.0147 20.4839 177.1801 5.4864 19.7510 13.6302
# 4 -6.3719 7.7524 5.4864 49.3006 6.6306 -5.4791
# 5 16.9385 0.4819 19.7510 6.6306 55.3728 -3.2702
# 6 13.5285 7.7037 13.6302 -5.4791 -3.2702 36.2353
#
#
#
# Elastic Compliance Matrix: (Units=1/GPa)
#
#
# Indices 1 2 3 4 5 6 
#
# 1 0.014622 0.000794 -0.002288 0.002046 -0.004194 -0.004837
# 2 0.000794 0.017170 -0.001819 -0.002853 0.000382 -0.003659
# 3 -0.002288 -0.001819 0.006642 -0.000694 -0.001660 -0.001512
# 4 0.002046 -0.002853 -0.000694 0.021798 -0.002778 0.003149
# 5 -0.004194 0.000382 -0.001660 -0.002778 0.020473 0.003537
# 6 -0.004837 -0.003659 -0.001512 0.003149 0.003537 0.031545
#
#
# Mechanical properties :
#
#
# Convention : Reuss Voigt Hill
#
# Bulk Modulus (GPa) = 31.43840 48.92922 40.18381
# Shear Modulus (GPa) = 38.61647 45.96526 42.29086
#
# Velocity S-wave (km/s) = 3.92563 4.28290 4.10816
# Velocity P-wave (km/s) = 5.75270 6.63203 6.20795
#
# Compressibility (1/GPa) = 0.03180823
#
# Stress axis : x y z
#
# Youngs Moduli (GPa) = 68.38969 58.24128 150.55402
#
# Poissons Ratio (x) = -0.04623 0.34442
# Poissons Ratio (y) = -0.05429 0.27388
# Poissons Ratio (z) = 0.15645 0.10595
#
# Static dielectric constant tensor:
#      x y z
#    x 1.988020 -0.107320 -0.018480 
#    y -0.107320 2.118270 0.001810 
#    z -0.018480 0.001810 1.986680 
# 
# From -- ./inp_files/403016.got.cif
#   From: 2010.05.17/outbox.cif.g08.bks.cpg/sg2_202_cif.got.tgz:403016.got - 2010.06.03 11:33:40.
