data_PCOD9012221
_publ_section_title
;
Structure prediction by ZEFSAII (Michael W. Deem and Ramdas Pophale) SiO2 
 PCOD9012221
Probable space group: P -1
;
_chemical_formula_sum "Si O2"
_cell_formula_units_Z 14
_cell_length_a 9.389893
_cell_length_b 10.192713
_cell_length_c 15.117313
_cell_angle_alpha 141.726309
_cell_angle_beta 64.923042
_cell_angle_gamma 138.254723
_cell_volume 548.808573
_symmetry_space_group_name_H-M "P -1"
_symmetry_group_IT_number 2
_symmetry_cell_setting 'triclinic'
loop_
_space_group_symop_operation_xyz
x,y,z
-x,-y,-z
loop_
_atom_site_type_symbol
_atom_site_label
_atom_site_fract_x
_atom_site_fract_y
_atom_site_fract_z
Si Si1 0.131870 0.926282 0.960598
Si Si2 0.194844 0.377215 0.399854
Si Si3 0.270462 0.678237 0.157626
Si Si4 0.615946 0.937003 0.498308
Si Si5 0.618700 0.273448 0.043263
Si Si6 0.776976 0.113227 0.269322
Si Si7 0.031514 0.045062 0.619597
O O1 0.135445 0.772529 0.793814
O O2 0.975402 0.678056 0.948948
O O3 0.405757 0.226633 0.060360
O O4 0.000000 0.000000 0.000000
O O5 0.418601 0.572396 0.383796
O O6 0.214765 0.643893 0.563675
O O7 0.957179 0.132461 0.277129
O O8 0.188917 0.215844 0.398811
O O9 0.287795 0.873194 0.333454
O O10 0.507084 0.777534 0.167949
O O11 0.309518 0.763338 0.088464
O O12 0.811003 0.006710 0.430459
O O13 0.500000 0.000000 0.500000
O O14 0.836516 0.613763 0.205457
O O15 0.500000 0.000000 0.000000
O O16 0.000000 0.000000 0.500000
#
# Coordination Sequence:
#
# PCOD9012221 Si02
#       7
#     2   2   2   2   2   2   2
#     4  11  25  40  72 103 138 175 237 289 354 422
#     4  10  21  40  69 100 140 181 228 288 355 413
#     4  10  23  44  72 100 141 190 230 291 364 418
#     4  11  24  45  77 109 141 182 239 294 358 428
#     4  11  30  51  68 100 150 192 241 292 355 421
#     4   9  20  38  68 102 142 172 223 291 359 416
#     4  12  29  46  73 103 143 191 243 296 350 419
#
# _framework density 25.509806999999999
#
# number of rings (size 3 to 8) (size 9 to 14) (size 15 to 20)
#    0.000    1.429    0.000    4.286   16.000    2.286 
#    0.000    0.000    0.000    0.000    0.000    0.000 
#    0.000    0.000    0.000    0.000    0.000    0.000 
#
# Total GULP energy -78320.236382 kJ/mol
# GULP energy per Si atom -5594.302599 kJ/mol
# Density = 2.545175 g / cm^3
# Si number density = 25.509807 Si / 1000 Ang^3
#
#
#
# Elastic Constant Matrix: (Units=GPa)
#
#
# Indices 1 2 3 4 5 6 
#
# 1 44.7119 7.2793 9.6414 2.3143 7.3142 -0.2464
# 2 7.2793 192.6555 31.6796 -13.1606 12.0497 -8.9446
# 3 9.6414 31.6796 101.7682 -33.1127 2.8119 -7.4775
# 4 2.3143 -13.1606 -33.1127 36.0754 -1.0918 5.9576
# 5 7.3142 12.0497 2.8119 -1.0918 32.9279 -4.1488
# 6 -0.2464 -8.9446 -7.4775 5.9576 -4.1488 42.1424
#
#
#
# Elastic Compliance Matrix: (Units=1/GPa)
#
#
# Indices 1 2 3 4 5 6 
#
# 1 0.024360 -0.000349 -0.003799 -0.005272 -0.005180 -0.000370
# 2 -0.000349 0.005620 -0.001422 0.000602 -0.001752 0.000681
# 3 -0.003799 -0.001422 0.015026 0.013453 0.000590 0.000498
# 4 -0.005272 0.000602 0.013453 0.041187 0.000756 -0.003264
# 5 -0.005180 -0.001752 0.000590 0.000756 0.032488 0.002794
# 6 -0.000370 0.000681 0.000498 -0.003264 0.002794 0.024696
#
#
# Mechanical properties :
#
#
# Convention : Reuss Voigt Hill
#
# Bulk Modulus (GPa) = 29.52812 48.48182 39.00497
# Shear Modulus (GPa) = 30.15568 41.59815 35.87691
#
# Velocity S-wave (km/s) = 3.44193 4.04254 3.75426
# Velocity P-wave (km/s) = 5.23413 6.39030 5.84089
#
# Compressibility (1/GPa) = 0.03386602
#
# Stress axis : x y z
#
# Youngs Moduli (GPa) = 41.05148 177.93763 66.54980
#
# Poissons Ratio (x) = 0.06212 0.25280
# Poissons Ratio (y) = 0.01433 0.09464
# Poissons Ratio (z) = 0.15594 0.25305
#
# Static dielectric constant tensor:
#      x y z
#    x 2.102870 0.002470 0.039320 
#    y 0.002470 1.979680 0.008880 
#    z 0.039320 0.008880 2.018540 
# 
# From -- ./inp_files/494079.got.cif
#   From: 2010.05.17/outbox.cif.g08.bks.cpg/sg2_248_cif.got.tgz:494079.got - 2010.06.03 11:33:40.
