data_PCOD9012170
_publ_section_title
;
Structure prediction by ZEFSAII (Michael W. Deem and Ramdas Pophale) SiO2 
 PCOD9012170
Probable space group: P -1
;
_chemical_formula_sum "Si O2"
_cell_formula_units_Z 12
_cell_length_a 11.831969
_cell_length_b 15.397638
_cell_length_c 9.706543
_cell_angle_alpha 137.719172
_cell_angle_beta 48.245608
_cell_angle_gamma 151.063524
_cell_volume 574.700909
_symmetry_space_group_name_H-M "P -1"
_symmetry_group_IT_number 2
_symmetry_cell_setting 'triclinic'
loop_
_space_group_symop_operation_xyz
x,y,z
-x,-y,-z
loop_
_atom_site_type_symbol
_atom_site_label
_atom_site_fract_x
_atom_site_fract_y
_atom_site_fract_z
Si Si1 0.915723 0.562063 0.049828
Si Si2 0.448343 0.394184 0.270416
Si Si3 0.924954 0.052601 0.928066
Si Si4 0.826511 0.011101 0.657563
Si Si5 0.069980 0.419651 0.264099
Si Si6 0.438472 0.316207 0.708050
O O1 0.642524 0.410001 0.113779
O O2 0.038819 0.774824 0.246620
O O3 0.972276 0.585223 0.869403
O O4 0.000000 0.500000 0.000000
O O5 0.500000 0.500000 0.500000
O O6 0.494009 0.527100 0.269309
O O7 0.201902 0.160881 0.172393
O O8 0.779360 0.989779 0.832308
O O9 0.194989 0.194394 0.837133
O O10 0.942192 0.203660 0.163571
O O11 0.614986 0.840931 0.530456
O O12 0.000000 0.000000 0.500000
O O13 0.346486 0.572638 0.237899
O O14 0.000000 0.500000 0.500000
#
# Coordination Sequence:
#
# PCOD9012170 Si02
#       6
#     2   2   2   2   2   2
#     4  11  25  44  68 101 141 174 229 285 333 409
#     4  12  22  39  75 107 125 173 235 278 336 407
#     4  10  21  40  68  98 132 174 224 273 338 402
#     4   9  16  39  66  93 128 175 216 269 333 394
#     4  11  26  46  64  93 143 186 216 277 353 391
#     4  11  21  43  70  96 137 170 225 290 327 401
#
# _framework density 20.880427000000001
#
# number of rings (size 3 to 8) (size 9 to 14) (size 15 to 20)
#    0.000    1.333    6.667    1.500    2.333    2.000 
#    0.000    5.000    0.000    0.000    0.000    0.000 
#    0.000    0.000    0.000    0.000    0.000    0.000 
#
# Total GULP energy -66973.474571 kJ/mol
# GULP energy per Si atom -5581.122881 kJ/mol
# Density = 2.083290 g / cm^3
# Si number density = 20.880427 Si / 1000 Ang^3
#
#
#
# Elastic Constant Matrix: (Units=GPa)
#
#
# Indices 1 2 3 4 5 6 
#
# 1 106.3032 41.0971 29.8696 10.9244 -4.0908 -16.3236
# 2 41.0971 159.0825 51.9545 25.3793 -11.6863 -17.4067
# 3 29.8696 51.9545 120.6196 22.7976 -14.5972 -1.5958
# 4 10.9244 25.3793 22.7976 37.1289 0.7840 3.8602
# 5 -4.0908 -11.6863 -14.5972 0.7840 22.0861 10.2649
# 6 -16.3236 -17.4067 -1.5958 3.8602 10.2649 21.8963
#
#
#
# Elastic Compliance Matrix: (Units=1/GPa)
#
#
# Indices 1 2 3 4 5 6 
#
# 1 0.012271 -0.001157 -0.002572 -0.002254 -0.004962 0.010764
# 2 -0.001157 0.008971 -0.002587 -0.004934 -0.000297 0.007090
# 3 -0.002572 -0.002587 0.011883 -0.004270 0.009275 -0.006704
# 4 -0.002254 -0.004934 -0.004270 0.034791 -0.001900 -0.011157
# 5 -0.004962 -0.000297 0.009275 -0.001900 0.066177 -0.033948
# 6 0.010764 0.007090 -0.006704 -0.011157 -0.033948 0.076724
#
#
# Mechanical properties :
#
#
# Convention : Reuss Voigt Hill
#
# Bulk Modulus (GPa) = 48.80107 70.20531 59.50319
# Shear Modulus (GPa) = 21.71280 33.76122 27.73701
#
# Velocity S-wave (km/s) = 3.22819 4.02541 3.64864
# Velocity P-wave (km/s) = 6.10879 7.43645 6.80508
#
# Compressibility (1/GPa) = 0.02049135
#
# Stress axis : x y z
#
# Youngs Moduli (GPa) = 81.49436 111.47139 84.15600
#
# Poissons Ratio (x) = 0.12897 0.21648
# Poissons Ratio (y) = 0.09429 0.21773
# Poissons Ratio (z) = 0.20963 0.28840
#
# Static dielectric constant tensor:
#      x y z
#    x 1.740370 0.003540 0.037030 
#    y 0.003540 1.805970 0.013930 
#    z 0.037030 0.013930 1.809700 
# 
# From -- ./inp_files/265806.got.cif
#   From: 2010.05.17/outbox.cif.g08.bks.cpg/sg2_133_cif.got.tgz:265806.got - 2010.06.03 11:33:40.
