data_PCOD9012206
_publ_section_title
;
Structure prediction by ZEFSAII (Michael W. Deem and Ramdas Pophale) SiO2 
 PCOD9012206
Probable space group: P -1
;
_chemical_formula_sum "Si O2"
_cell_formula_units_Z 12
_cell_length_a 16.453785
_cell_length_b 7.515335
_cell_length_c 5.124442
_cell_angle_alpha 71.164554
_cell_angle_beta 122.054414
_cell_angle_gamma 112.237679
_cell_volume 491.067204
_symmetry_space_group_name_H-M "P -1"
_symmetry_group_IT_number 2
_symmetry_cell_setting 'triclinic'
loop_
_space_group_symop_operation_xyz
x,y,z
-x,-y,-z
loop_
_atom_site_type_symbol
_atom_site_label
_atom_site_fract_x
_atom_site_fract_y
_atom_site_fract_z
Si Si1 0.404605 0.797064 0.664202
Si Si2 0.885729 0.978166 0.885155
Si Si3 0.201165 0.258384 0.654225
Si Si4 0.116712 0.596900 0.165529
Si Si5 0.622931 0.864179 0.864781
Si Si6 0.282721 0.721481 0.004901
O O1 0.519098 0.798668 0.866814
O O2 0.353389 0.679820 0.378374
O O3 0.401217 0.022967 0.488861
O O4 0.339403 0.716066 0.837860
O O5 0.819639 0.840066 0.620676
O O6 0.864448 0.190111 0.773286
O O7 0.865606 0.880266 0.179662
O O8 0.000000 0.000000 0.000000
O O9 0.164082 0.451954 0.476597
O O10 0.312575 0.289963 0.943214
O O11 0.172332 0.623009 0.966062
O O12 0.000000 0.500000 0.000000
O O13 0.700737 0.046231 0.044604
#
# Coordination Sequence:
#
# PCOD9012206 Si02
#       6
#     2   2   2   2   2   2
#     4   9  20  38  72 102 136 195 228 295 363 425
#     4  12  27  50  73 100 149 192 245 301 360 420
#     4  12  28  46  75 109 142 195 239 301 361 434
#     4  12  28  49  73 109 147 193 245 301 359 435
#     4   9  21  39  73 101 144 183 241 285 373 417
#     4  10  21  40  68  99 143 185 235 292 357 417
#
# _framework density 24.436575000000001
#
# number of rings (size 3 to 8) (size 9 to 14) (size 15 to 20)
#    1.000    0.333    3.333    1.000    4.667    3.333 
#    0.000    1.667    0.000    0.000    0.000    2.333 
#    0.000    0.000    0.000    0.000    0.000    0.000 
#
# Total GULP energy -67044.891727 kJ/mol
# GULP energy per Si atom -5587.074311 kJ/mol
# Density = 2.438096 g / cm^3
# Si number density = 24.436575 Si / 1000 Ang^3
#
#
#
# Elastic Constant Matrix: (Units=GPa)
#
#
# Indices 1 2 3 4 5 6 
#
# 1 222.9244 64.0794 97.1175 -21.2841 8.0292 40.1902
# 2 64.0794 103.8492 35.6203 -27.8916 -4.0075 -4.7577
# 3 97.1175 35.6203 104.2200 -21.5643 -2.2618 -2.3727
# 4 -21.2841 -27.8916 -21.5643 35.6149 -12.2309 14.0856
# 5 8.0292 -4.0075 -2.2618 -12.2309 58.5654 0.1243
# 6 40.1902 -4.7577 -2.3727 14.0856 0.1243 49.8343
#
#
#
# Elastic Compliance Matrix: (Units=1/GPa)
#
#
# Indices 1 2 3 4 5 6 
#
# 1 0.012364 -0.004329 -0.009978 0.001767 -0.001984 -0.011354
# 2 -0.004329 0.014896 0.001204 0.010305 0.003807 0.002049
# 3 -0.009978 0.001204 0.019767 0.005030 0.003248 0.007674
# 4 0.001767 0.010305 0.005030 0.049696 0.011066 -0.014275
# 5 -0.001984 0.003807 0.003248 0.011066 0.020046 -0.001060
# 6 -0.011354 0.002049 0.007674 -0.014275 -0.001060 0.033822
#
#
# Mechanical properties :
#
#
# Convention : Reuss Voigt Hill
#
# Bulk Modulus (GPa) = 48.02592 91.62533 69.82562
# Shear Modulus (GPa) = 27.21265 44.41466 35.81366
#
# Velocity S-wave (km/s) = 3.34069 4.26790 3.83244
# Velocity P-wave (km/s) = 5.88016 7.86531 6.94404
#
# Compressibility (1/GPa) = 0.02082209
#
# Stress axis : x y z
#
# Youngs Moduli (GPa) = 80.87755 67.13242 50.58817
#
# Poissons Ratio (x) = 0.29062 0.50478
# Poissons Ratio (y) = 0.35013 -0.06093
# Poissons Ratio (z) = 0.80701 -0.08086
#
# Static dielectric constant tensor:
#      x y z
#    x 1.916530 -0.066710 0.003220 
#    y -0.066710 2.064090 0.036070 
#    z 0.003220 0.036070 2.009800 
# 
# From -- ./inp_files/103691.got.cif
#   From: 2010.05.17/outbox.cif.g08.bks.cpg/sg2_52_cif.got.tgz:103691.got - 2010.06.03 11:33:40.
