data_PCOD9012884
_publ_section_title
;
Structure prediction by ZEFSAII (Michael W. Deem and Ramdas Pophale) SiO2 
 PCOD9012884
Probable space group: P -1
;
_chemical_formula_sum "Si O2"
_cell_formula_units_Z 14
_cell_length_a 7.540370
_cell_length_b 20.805555
_cell_length_c 5.403774
_cell_angle_alpha 84.026769
_cell_angle_beta 60.086640
_cell_angle_gamma 53.268741
_cell_volume 565.441456
_symmetry_space_group_name_H-M "P -1"
_symmetry_group_IT_number 2
_symmetry_cell_setting 'triclinic'
loop_
_space_group_symop_operation_xyz
x,y,z
-x,-y,-z
loop_
_atom_site_type_symbol
_atom_site_label
_atom_site_fract_x
_atom_site_fract_y
_atom_site_fract_z
Si Si1 0.175717 0.685098 0.370000
Si Si2 0.695297 0.550919 0.218488
Si Si3 0.238334 0.137031 0.203678
Si Si4 0.504345 0.834210 0.344285
Si Si5 0.242594 0.018993 0.545823
Si Si6 0.658747 0.148862 0.049998
Si Si7 0.292066 0.598996 0.824176
O O1 0.488284 0.638348 0.189019
O O2 0.139781 0.645774 0.652851
O O3 0.983777 0.782715 0.513733
O O4 0.145923 0.656221 0.140193
O O5 0.578204 0.572964 0.570230
O O6 0.654750 0.487308 0.160750
O O7 0.000000 0.500000 0.000000
O O8 0.212240 0.066830 0.293587
O O9 0.518477 0.106409 0.131667
O O10 0.250813 0.168621 0.912477
O O11 0.481263 0.798616 0.625539
O O12 0.285544 0.934966 0.494576
O O13 0.436081 0.804744 0.166332
O O14 0.500000 0.000000 0.500000
O O15 0.972697 0.083925 0.858145
#
# Coordination Sequence:
#
# PCOD9012884 Si02
#       7
#     2   2   2   2   2   2   2
#     4  10  21  41  62  85 131 158 195 248 299 355
#     4   9  20  39  66  95 118 158 200 243 289 359
#     4  10  25  39  63  88 126 160 209 249 314 354
#     4  10  22  42  62  84 120 159 208 255 307 360
#     4  12  22  41  65  91 116 164 212 260 305 362
#     4  10  24  40  61  87 118 154 207 257 310 359
#     4   9  21  39  62  90 120 160 198 237 298 356
#
# _framework density 24.759418
#
# number of rings (size 3 to 8) (size 9 to 14) (size 15 to 20)
#    1.714    0.286    1.429    1.714    2.000    1.714 
#    2.571    0.000    0.000    0.000    0.000    0.000 
#    0.000    0.000    0.000    0.000    0.000    0.000 
#
# Total GULP energy -77968.869452 kJ/mol
# GULP energy per Si atom -5569.204961 kJ/mol
# Density = 2.470306 g / cm^3
# Si number density = 24.759418 Si / 1000 Ang^3
#
#
#
# Elastic Constant Matrix: (Units=GPa)
#
#
# Indices 1 2 3 4 5 6 
#
# 1 64.9085 26.4087 48.2213 -5.5898 -12.0960 -11.0816
# 2 26.4087 67.9552 30.8513 7.4807 6.4648 4.1324
# 3 48.2213 30.8513 184.4898 -6.0096 21.9981 -10.9400
# 4 -5.5898 7.4807 -6.0096 31.3377 -11.6439 4.8177
# 5 -12.0960 6.4648 21.9981 -11.6439 50.3621 -2.5970
# 6 -11.0816 4.1324 -10.9400 4.8177 -2.5970 18.0528
#
#
#
# Elastic Compliance Matrix: (Units=1/GPa)
#
#
# Indices 1 2 3 4 5 6 
#
# 1 0.033300 -0.013731 -0.006874 0.011060 0.016290 0.018810
# 2 -0.013731 0.022784 -0.000204 -0.009315 -0.008935 -0.012568
# 3 -0.006874 -0.000204 0.007860 -0.001735 -0.005445 0.000270
# 4 0.011060 -0.009315 -0.001735 0.041171 0.014073 -0.001092
# 5 0.016290 -0.008935 -0.005445 0.014073 0.031035 0.009454
# 6 0.018810 -0.012568 0.000270 -0.001092 0.009454 0.071631
#
#
# Mechanical properties :
#
#
# Convention : Reuss Voigt Hill
#
# Bulk Modulus (GPa) = 44.79410 58.70178 51.74794
# Shear Modulus (GPa) = 19.46715 34.07534 26.77124
#
# Velocity S-wave (km/s) = 2.80706 3.71382 3.29181
# Velocity P-wave (km/s) = 5.35137 6.49232 5.94926
#
# Compressibility (1/GPa) = 0.02232437
#
# Stress axis : x y z
#
# Youngs Moduli (GPa) = 30.03041 43.88988 127.22520
#
# Poissons Ratio (x) = 0.60266 0.87458
# Poissons Ratio (y) = 0.41235 0.02600
# Poissons Ratio (z) = 0.20644 0.00897
#
# Static dielectric constant tensor:
#      x y z
#    x 2.047680 -0.133090 0.028470 
#    y -0.133090 2.077870 -0.041010 
#    z 0.028470 -0.041010 2.138810 
# 
# From -- ./inp_files/55472.got.cif
#   From: 2010.05.17/outbox.cif.g08.bks.cpg/sg2_28_cif.got.tgz:55472.got - 2010.06.03 11:33:40.
