data_PCOD9012329
_publ_section_title
;
Structure prediction by ZEFSAII (Michael W. Deem and Ramdas Pophale) SiO2 
 PCOD9012329
Probable space group: P -1
;
_chemical_formula_sum "Si O2"
_cell_formula_units_Z 14
_cell_length_a 15.956420
_cell_length_b 11.021590
_cell_length_c 7.845730
_cell_angle_alpha 88.673487
_cell_angle_beta 121.758043
_cell_angle_gamma 43.903205
_cell_volume 594.657655
_symmetry_space_group_name_H-M "P -1"
_symmetry_group_IT_number 2
_symmetry_cell_setting 'triclinic'
loop_
_space_group_symop_operation_xyz
x,y,z
-x,-y,-z
loop_
_atom_site_type_symbol
_atom_site_label
_atom_site_fract_x
_atom_site_fract_y
_atom_site_fract_z
Si Si1 0.020058 0.571311 0.214872
Si Si2 0.503952 0.692434 0.576446
Si Si3 0.220859 0.747282 0.689168
Si Si4 0.821487 0.480004 0.273667
Si Si5 0.521339 0.420554 0.762610
Si Si6 0.355503 0.203769 0.194329
Si Si7 0.879518 0.794011 0.703276
O O1 0.080645 0.582812 0.442717
O O2 0.166470 0.300869 0.368850
O O3 0.816279 0.714159 0.998112
O O4 0.999146 0.667172 0.014265
O O5 0.581123 0.479866 0.725595
O O6 0.449277 0.725840 0.320284
O O7 0.647199 0.652293 0.749544
O O8 0.315355 0.926612 0.477649
O O9 0.264726 0.562251 0.796678
O O10 0.298899 0.668373 0.581654
O O11 0.344061 0.717489 0.923076
O O12 0.000000 0.000000 0.500000
O O13 0.993331 0.300322 0.319602
O O14 0.654130 0.749866 0.019512
O O15 0.500000 0.000000 0.500000
#
# Coordination Sequence:
#
# PCOD9012329 Si02
#       7
#     2   2   2   2   2   2   2
#     4  10  23  42  64 102 143 182 238 284 343 433
#     4  11  22  45  67  98 140 184 228 296 358 404
#     4  11  24  45  71 101 137 184 236 294 356 415
#     4  11  24  45  68 102 143 183 236 292 348 427
#     4  10  25  46  68 102 141 177 241 298 341 423
#     4  11  21  40  67  96 140 183 224 284 349 419
#     4  10  21  40  69  93 141 184 229 284 345 422
#
# _framework density 23.542956
#
# number of rings (size 3 to 8) (size 9 to 14) (size 15 to 20)
#    0.000    1.429    2.857    2.571    2.000    3.429 
#    0.000    5.000    0.000    0.000    0.000    0.000 
#    0.000    0.000    0.000    0.000    0.000    0.000 
#
# Total GULP energy -77970.011743 kJ/mol
# GULP energy per Si atom -5569.286553 kJ/mol
# Density = 2.348937 g / cm^3
# Si number density = 23.542956 Si / 1000 Ang^3
#
#
#
# Elastic Constant Matrix: (Units=GPa)
#
#
# Indices 1 2 3 4 5 6 
#
# 1 99.7977 9.5476 19.3935 10.4812 -0.1327 -0.8846
# 2 9.5476 75.0169 33.6899 25.2945 9.4829 -16.7251
# 3 19.3935 33.6899 106.7527 35.1975 3.1761 -4.8763
# 4 10.4812 25.2945 35.1975 51.0950 0.6757 -4.2388
# 5 -0.1327 9.4829 3.1761 0.6757 33.0028 -2.1702
# 6 -0.8846 -16.7251 -4.8763 -4.2388 -2.1702 30.9069
#
#
#
# Elastic Compliance Matrix: (Units=1/GPa)
#
#
# Indices 1 2 3 4 5 6 
#
# 1 0.010445 -0.000460 -0.001468 -0.000932 0.000316 -0.000287
# 2 -0.000460 0.019685 -0.003451 -0.006476 -0.004609 0.008883
# 3 -0.001468 -0.003451 0.013003 -0.007015 -0.000177 -0.000832
# 4 -0.000932 -0.006476 -0.007015 0.027717 0.001918 -0.000702
# 5 0.000316 -0.004609 -0.000177 0.001918 0.031602 -0.000031
# 6 -0.000287 0.008883 -0.000832 -0.000702 -0.000031 0.036924
#
#
# Mechanical properties :
#
#
# Convention : Reuss Voigt Hill
#
# Bulk Modulus (GPa) = 30.88628 45.20324 38.04476
# Shear Modulus (GPa) = 31.07015 37.59669 34.33342
#
# Velocity S-wave (km/s) = 3.63674 4.00051 3.82295
# Velocity P-wave (km/s) = 5.54816 6.37030 5.97339
#
# Compressibility (1/GPa) = 0.03237683
#
# Stress axis : x y z
#
# Youngs Moduli (GPa) = 95.73750 50.79922 76.90415
#
# Poissons Ratio (x) = 0.02337 0.11287
# Poissons Ratio (y) = 0.04404 0.26539
# Poissons Ratio (z) = 0.14051 0.17530
#
# Static dielectric constant tensor:
#      x y z
#    x 1.945400 -0.052510 -0.056660 
#    y -0.052510 1.977360 -0.073390 
#    z -0.056660 -0.073390 2.015170 
# 
# From -- ./inp_files/331046.got.cif
#   From: 2010.05.17/outbox.cif.g08.bks.cpg/sg2_166_cif.got.tgz:331046.got - 2010.06.03 11:33:40.
