data_PCOD9012015
_publ_section_title
;
Structure prediction by ZEFSAII (Michael W. Deem and Ramdas Pophale) SiO2 
 PCOD9012015
Probable space group: P -1
;
_chemical_formula_sum "Si O2"
_cell_formula_units_Z 12
_cell_length_a 8.140590
_cell_length_b 8.496781
_cell_length_c 10.435399
_cell_angle_alpha 46.776794
_cell_angle_beta 103.202905
_cell_angle_gamma 93.040194
_cell_volume 506.603277
_symmetry_space_group_name_H-M "P -1"
_symmetry_group_IT_number 2
_symmetry_cell_setting 'triclinic'
loop_
_space_group_symop_operation_xyz
x,y,z
-x,-y,-z
loop_
_atom_site_type_symbol
_atom_site_label
_atom_site_fract_x
_atom_site_fract_y
_atom_site_fract_z
Si Si1 0.073413 0.751947 0.630991
Si Si2 0.174281 0.389635 0.162202
Si Si3 0.335813 0.056607 0.165836
Si Si4 0.835286 0.805169 0.214803
Si Si5 0.208864 0.630524 0.442097
Si Si6 0.694377 0.222998 0.106472
O O1 0.151155 0.700954 0.536636
O O2 0.225798 0.707217 0.785719
O O3 0.903860 0.649145 0.692687
O O4 0.000000 0.000000 0.500000
O O5 0.244783 0.180586 0.205014
O O6 0.311249 0.555775 0.099455
O O7 0.000000 0.500000 0.000000
O O8 0.520622 0.130095 0.148682
O O9 0.333726 0.796726 0.324064
O O10 0.243034 0.144830 0.967811
O O11 0.748427 0.629810 0.382216
O O12 0.032347 0.702429 0.294337
O O13 0.817613 0.031750 0.162878
#
# Coordination Sequence:
#
# PCOD9012015 Si02
#       6
#     2   2   2   2   2   2
#     4  11  20  43  64  93 123 161 221 257 305 378
#     4  10  21  40  68  89 122 168 214 258 308 378
#     4  12  24  43  64  97 133 163 211 266 324 373
#     4  11  24  43  62  93 131 171 216 251 316 386
#     4  11  24  42  69  93 124 173 216 262 307 382
#     4  11  24  41  65  95 129 167 207 268 325 370
#
# _framework density 23.687175
#
# number of rings (size 3 to 8) (size 9 to 14) (size 15 to 20)
#    0.000    1.000    3.333    4.500    0.000    4.000 
#    3.000    0.000    0.000    0.000    0.000    0.000 
#    0.000    0.000    0.000    0.000    0.000    0.000 
#
# Total GULP energy -67050.952605 kJ/mol
# GULP energy per Si atom -5587.579384 kJ/mol
# Density = 2.363326 g / cm^3
# Si number density = 23.687175 Si / 1000 Ang^3
#
#
#
# Elastic Constant Matrix: (Units=GPa)
#
#
# Indices 1 2 3 4 5 6 
#
# 1 72.9540 18.0157 18.3104 3.3466 -33.6060 24.7768
# 2 18.0157 82.7781 29.1103 -5.3942 -9.1763 -1.1603
# 3 18.3104 29.1103 91.8307 -11.0467 -37.2448 18.5387
# 4 3.3466 -5.3942 -11.0467 46.2051 7.8209 -9.7576
# 5 -33.6060 -9.1763 -37.2448 7.8209 27.3727 -25.1117
# 6 24.7768 -1.1603 18.5387 -9.7576 -25.1117 40.7293
#
#
#
# Elastic Compliance Matrix: (Units=1/GPa)
#
#
# Indices 1 2 3 4 5 6 
#
# 1 -0.070714 0.013725 -0.087297 0.015503 -0.289481 -0.091622
# 2 0.013725 0.011260 0.012894 -0.001927 0.058814 0.021903
# 3 -0.087297 0.012894 -0.069800 0.021092 -0.278596 -0.081472
# 4 0.015503 -0.001927 0.021092 0.019764 0.065090 0.025780
# 5 -0.289481 0.058814 -0.278596 0.065090 -0.927975 -0.251967
# 6 -0.091622 0.021903 -0.081472 0.025780 -0.251967 -0.031178
#
#
# Mechanical properties :
#
#
# Convention : Reuss Voigt Hill
#
# Bulk Modulus (GPa) = -3.99028 42.04839 19.02906
# Shear Modulus (GPa) = -4.85049 35.00318 15.07635
#
# Velocity S-wave (km/s) = -1.43254 3.84829 2.52559
# Velocity P-wave (km/s) = 2.10344 6.12665 4.06887
#
# Compressibility (1/GPa) = -0.25060919
#
# Stress axis : x y z
#
# Youngs Moduli (GPa) = -14.14140 88.80896 -14.32670
#
# Poissons Ratio (x) = -1.21894 -1.25068
# Poissons Ratio (y) = 0.19410 0.18473
# Poissons Ratio (z) = -1.23451 -1.14513
#
# Static dielectric constant tensor:
#      x y z
#    x 1.893190 0.030550 -0.047900 
#    y 0.030550 2.362550 0.396660 
#    z -0.047900 0.396660 2.393980 
# 
# From -- ./inp_files/198437.got.cif
#   From: 2010.05.17/outbox.cif.g08.bks.cpg/sg2_100_cif.got.tgz:198437.got - 2010.06.03 11:33:40.
