data_PCOD9012501
_publ_section_title
;
Structure prediction by ZEFSAII (Michael W. Deem and Ramdas Pophale) SiO2 
 PCOD9012501
Probable space group: P -1
;
_chemical_formula_sum "Si O2"
_cell_formula_units_Z 14
_cell_length_a 7.176332
_cell_length_b 7.002610
_cell_length_c 15.749116
_cell_angle_alpha 79.341012
_cell_angle_beta 130.042194
_cell_angle_gamma 89.681365
_cell_volume 587.232777
_symmetry_space_group_name_H-M "P -1"
_symmetry_group_IT_number 2
_symmetry_cell_setting 'triclinic'
loop_
_space_group_symop_operation_xyz
x,y,z
-x,-y,-z
loop_
_atom_site_type_symbol
_atom_site_label
_atom_site_fract_x
_atom_site_fract_y
_atom_site_fract_z
Si Si1 0.274190 0.419515 0.394562
Si Si2 0.159442 0.206868 0.015208
Si Si3 0.621138 0.990265 0.246287
Si Si4 0.653627 0.398331 0.915422
Si Si5 0.079930 0.215185 0.509843
Si Si6 0.841080 0.766749 0.180269
Si Si7 0.439749 0.637778 0.679929
O O1 0.500000 0.500000 0.500000
O O2 0.183240 0.271195 0.446017
O O3 0.379422 0.321945 0.345241
O O4 0.051656 0.595184 0.291533
O O5 0.347483 0.027123 0.124771
O O6 0.293702 0.401351 0.040822
O O7 0.102545 0.174856 0.903036
O O8 0.919844 0.263210 0.998756
O O9 0.619544 0.189368 0.282237
O O10 0.714218 0.815458 0.354011
O O11 0.800378 0.944881 0.221620
O O12 0.422792 0.311766 0.892182
O O13 0.572315 0.458866 0.789883
O O14 0.826836 0.366233 0.439926
O O15 0.000000 0.000000 0.500000
#
# Coordination Sequence:
#
# PCOD9012501 Si02
#       7
#     2   2   2   2   2   2   2
#     4  12  26  41  74 107 134 181 239 288 337 410
#     4  10  22  43  63  98 135 176 230 280 341 408
#     4  10  24  40  65  95 140 178 217 280 349 406
#     4  10  21  40  70  96 129 179 228 282 340 401
#     4  10  23  45  68  98 141 182 228 282 349 409
#     4  12  23  41  69 102 132 177 232 286 338 407
#     4  10  21  45  66  95 138 179 226 282 345 405
#
# _framework density 23.840633
#
# number of rings (size 3 to 8) (size 9 to 14) (size 15 to 20)
#    0.000    1.429    2.857    1.714    2.000    4.000 
#    0.000    5.714    0.000    0.000    0.000    0.000 
#    0.000    0.000    0.000    0.000    0.000    0.000 
#
# Total GULP energy -78279.816828 kJ/mol
# GULP energy per Si atom -5591.415488 kJ/mol
# Density = 2.378637 g / cm^3
# Si number density = 23.840633 Si / 1000 Ang^3
#
#
#
# Elastic Constant Matrix: (Units=GPa)
#
#
# Indices 1 2 3 4 5 6 
#
# 1 141.8793 43.3835 49.6369 -8.7263 -8.2067 -14.6624
# 2 43.3835 85.3713 35.3940 9.6119 3.0067 -10.1428
# 3 49.6369 35.3940 165.4829 -32.7307 0.2161 -26.2968
# 4 -8.7263 9.6119 -32.7307 42.0418 -7.7991 -0.9657
# 5 -8.2067 3.0067 0.2161 -7.7991 45.2040 -2.5692
# 6 -14.6624 -10.1428 -26.2968 -0.9657 -2.5692 39.0223
#
#
#
# Elastic Compliance Matrix: (Units=1/GPa)
#
#
# Indices 1 2 3 4 5 6 
#
# 1 0.009271 -0.004466 -0.000998 0.002685 0.002555 0.001885
# 2 -0.004466 0.016641 -0.003959 -0.008451 -0.003383 -0.000452
# 3 -0.000998 -0.003959 0.009811 0.008810 0.001871 0.005549
# 4 0.002685 -0.008451 0.008810 0.034634 0.007329 0.006089
# 5 0.002555 -0.003383 0.001871 0.007329 0.024244 0.003119
# 6 0.001885 -0.000452 0.005549 0.006089 0.003119 0.030312
#
#
# Mechanical properties :
#
#
# Convention : Reuss Voigt Hill
#
# Bulk Modulus (GPa) = 59.25171 72.17358 65.71264
# Shear Modulus (GPa) = 33.47073 42.87489 38.17281
#
# Velocity S-wave (km/s) = 3.75098 4.24535 4.00580
# Velocity P-wave (km/s) = 6.60810 7.37358 7.00131
#
# Compressibility (1/GPa) = 0.01687715
#
# Stress axis : x y z
#
# Youngs Moduli (GPa) = 107.86600 60.09218 101.92625
#
# Poissons Ratio (x) = 0.26835 0.10176
# Poissons Ratio (y) = 0.48169 0.40351
# Poissons Ratio (z) = 0.10769 0.23789
#
# Static dielectric constant tensor:
#      x y z
#    x 1.880360 0.026500 0.048690 
#    y 0.026500 2.030070 0.075360 
#    z 0.048690 0.075360 1.955020 
# 
# From -- ./inp_files/480372.got.cif
#   From: 2010.05.17/outbox.cif.g08.bks.cpg/sg2_241_cif.got.tgz:480372.got - 2010.06.03 11:33:40.
