data_PCOD9012476
_publ_section_title
;
Structure prediction by ZEFSAII (Michael W. Deem and Ramdas Pophale) SiO2 
 PCOD9012476
Probable space group: P -1
;
_chemical_formula_sum "Si O2"
_cell_formula_units_Z 14
_cell_length_a 11.371270
_cell_length_b 9.149914
_cell_length_c 10.816401
_cell_angle_alpha 115.773858
_cell_angle_beta 142.351227
_cell_angle_gamma 58.633328
_cell_volume 586.399418
_symmetry_space_group_name_H-M "P -1"
_symmetry_group_IT_number 2
_symmetry_cell_setting 'triclinic'
loop_
_space_group_symop_operation_xyz
x,y,z
-x,-y,-z
loop_
_atom_site_type_symbol
_atom_site_label
_atom_site_fract_x
_atom_site_fract_y
_atom_site_fract_z
Si Si1 0.645078 0.808640 0.076896
Si Si2 0.279316 0.319075 0.632854
Si Si3 0.049719 0.032427 0.691645
Si Si4 0.272054 0.390101 0.378162
Si Si5 0.816866 0.318838 0.215594
Si Si6 0.324156 0.713802 0.432462
Si Si7 0.792975 0.434017 0.972267
O O1 0.647859 0.787850 0.220566
O O2 0.649519 0.627037 0.956404
O O3 0.849300 0.820993 0.185336
O O4 0.500000 0.000000 0.000000
O O5 0.341261 0.295258 0.532016
O O6 0.046590 0.320279 0.429662
O O7 0.302415 0.503030 0.754156
O O8 0.194833 0.854932 0.800870
O O9 0.000000 0.000000 0.500000
O O10 0.839796 0.102764 0.616122
O O11 0.294709 0.580458 0.461350
O O12 0.443945 0.289215 0.385773
O O13 0.036086 0.413380 0.162776
O O14 0.775381 0.325164 0.038181
O O15 0.268146 0.638499 0.230178
#
# Coordination Sequence:
#
# PCOD9012476 Si02
#       7
#     2   2   2   2   2   2   2
#     4  11  24  40  66  99 132 172 218 276 328 376
#     4   9  18  41  63  93 128 172 218 259 330 395
#     4  12  23  41  64  98 131 162 222 279 319 387
#     4  10  21  40  70  93 126 179 217 262 324 397
#     4   9  19  36  68  91 127 174 211 270 328 382
#     4  11  24  40  67 100 130 175 220 267 333 394
#     4  10  22  45  66  95 136 176 218 267 328 400
#
# _framework density 23.874511999999999
#
# number of rings (size 3 to 8) (size 9 to 14) (size 15 to 20)
#    0.000    1.714    2.857    2.143    0.000    5.143 
#    0.000    5.714    0.000    0.000    0.000    0.000 
#    0.000    0.000    0.000    0.000    0.000    0.000 
#
# Total GULP energy -78156.597878 kJ/mol
# GULP energy per Si atom -5582.614134 kJ/mol
# Density = 2.382017 g / cm^3
# Si number density = 23.874512 Si / 1000 Ang^3
#
#
#
# Elastic Constant Matrix: (Units=GPa)
#
#
# Indices 1 2 3 4 5 6 
#
# 1 101.3696 33.5183 47.4153 -17.6469 0.0107 13.4920
# 2 33.5183 103.3587 39.9462 -24.1429 -18.5864 8.0089
# 3 47.4153 39.9462 108.3726 -15.1049 -17.4786 -4.5250
# 4 -17.6469 -24.1429 -15.1049 36.1011 3.4423 -0.6801
# 5 0.0107 -18.5864 -17.4786 3.4423 47.9573 -11.3576
# 6 13.4920 8.0089 -4.5250 -0.6801 -11.3576 45.6978
#
#
#
# Elastic Compliance Matrix: (Units=1/GPa)
#
#
# Indices 1 2 3 4 5 6 
#
# 1 0.014840 -0.001923 -0.006263 0.003683 -0.004662 -0.005768
# 2 -0.001923 0.013638 -0.002729 0.006679 0.003549 -0.001111
# 3 -0.006263 -0.002729 0.014114 0.000614 0.005236 0.005036
# 4 0.003683 0.006679 0.000614 0.034197 -0.000045 -0.001700
# 5 -0.004662 0.003549 0.005236 -0.000045 0.025970 0.007727
# 6 -0.005768 -0.001111 0.005036 -0.001700 0.007727 0.026174
#
#
# Mechanical properties :
#
#
# Convention : Reuss Voigt Hill
#
# Bulk Modulus (GPa) = 48.16506 61.65116 54.90811
# Shear Modulus (GPa) = 31.70934 38.76599 35.23766
#
# Velocity S-wave (km/s) = 3.64836 4.03394 3.84598
# Velocity P-wave (km/s) = 6.16161 6.89753 6.53993
#
# Compressibility (1/GPa) = 0.02076194
#
# Stress axis : x y z
#
# Youngs Moduli (GPa) = 67.38669 73.32679 70.85172
#
# Poissons Ratio (x) = 0.14098 0.44377
# Poissons Ratio (y) = 0.12956 0.19333
# Poissons Ratio (z) = 0.42206 0.20009
#
# Static dielectric constant tensor:
#      x y z
#    x 1.947100 -0.021170 0.071750 
#    y -0.021170 1.833840 -0.038990 
#    z 0.071750 -0.038990 1.959910 
# 
# From -- ./inp_files/319852.got.cif
#   From: 2010.05.17/outbox.cif.g08.bks.cpg/sg2_160_cif.got.tgz:319852.got - 2010.06.03 11:33:40.
