data_PCOD9012651
_publ_section_title
;
Structure prediction by ZEFSAII (Michael W. Deem and Ramdas Pophale) SiO2 
 PCOD9012651
Probable space group: P -1
;
_chemical_formula_sum "Si O2"
_cell_formula_units_Z 14
_cell_length_a 6.018707
_cell_length_b 21.141020
_cell_length_c 13.075613
_cell_angle_alpha 23.470017
_cell_angle_beta 84.531867
_cell_angle_gamma 73.679633
_cell_volume 575.616468
_symmetry_space_group_name_H-M "P -1"
_symmetry_group_IT_number 2
_symmetry_cell_setting 'triclinic'
loop_
_space_group_symop_operation_xyz
x,y,z
-x,-y,-z
loop_
_atom_site_type_symbol
_atom_site_label
_atom_site_fract_x
_atom_site_fract_y
_atom_site_fract_z
Si Si1 0.286172 0.892551 0.349361
Si Si2 0.421794 0.672081 0.178421
Si Si3 0.129142 0.451992 0.820897
Si Si4 0.206185 0.148115 0.801405
Si Si5 0.558966 0.485571 0.137523
Si Si6 0.766039 0.944634 0.290627
Si Si7 0.908221 0.207782 0.174014
O O1 0.412856 0.709364 0.545897
O O2 0.540942 0.885549 0.401977
O O3 0.145444 0.078680 0.012843
O O4 0.044682 0.879119 0.431958
O O5 0.500000 0.500000 0.500000
O O6 0.645964 0.602342 0.188805
O O7 0.168995 0.741308 0.016752
O O8 0.390925 0.842216 0.992808
O O9 0.193034 0.506060 0.847846
O O10 0.893433 0.637152 0.512223
O O11 0.108255 0.272299 0.098854
O O12 0.131898 0.106333 0.755037
O O13 0.500000 0.000000 0.000000
O O14 0.500000 0.500000 0.000000
O O15 0.334537 0.656035 0.950759
O O16 0.000000 0.000000 0.500000
#
# Coordination Sequence:
#
# PCOD9012651 Si02
#       7
#     2   2   2   2   2   2   2
#     4  11  24  42  72 109 144 191 246 319 377 452
#     4  11  28  44  72 110 151 203 254 311 383 461
#     4  11  25  49  74 105 153 194 252 319 385 459
#     4  10  21  40  73 104 144 187 245 311 387 440
#     4  11  27  46  74 107 142 197 259 315 383 457
#     4  11  24  40  71 106 145 188 246 302 382 449
#     4  11  28  48  73 105 151 204 256 313 384 462
#
# _framework density 24.321749000000001
#
# number of rings (size 3 to 8) (size 9 to 14) (size 15 to 20)
#    0.000    1.143    1.429    3.000   12.000    4.571 
#    0.000    0.000    0.000    0.000    0.000    0.000 
#    0.000    0.000    0.000    0.000    0.000    0.000 
#
# Total GULP energy -78014.374530 kJ/mol
# GULP energy per Si atom -5572.455324 kJ/mol
# Density = 2.426639 g / cm^3
# Si number density = 24.321749 Si / 1000 Ang^3
#
#
#
# Elastic Constant Matrix: (Units=GPa)
#
#
# Indices 1 2 3 4 5 6 
#
# 1 159.5938 24.8189 52.0465 -4.2771 -11.3908 15.5066
# 2 24.8189 97.8893 58.4091 -12.7681 -5.7443 14.7709
# 3 52.0465 58.4091 154.3224 -20.8237 -14.7989 25.2971
# 4 -4.2771 -12.7681 -20.8237 44.8523 5.2829 -3.2361
# 5 -11.3908 -5.7443 -14.7989 5.2829 31.5233 -17.9161
# 6 15.5066 14.7709 25.2971 -3.2361 -17.9161 27.8667
#
#
#
# Elastic Compliance Matrix: (Units=1/GPa)
#
#
# Indices 1 2 3 4 5 6 
#
# 1 0.007176 -0.000419 -0.002018 -0.000576 0.000829 -0.001473
# 2 -0.000419 0.013650 -0.004277 0.001834 -0.002570 -0.004559
# 3 -0.002018 -0.004277 0.010064 0.002911 -0.000544 -0.005758
# 4 -0.000576 0.001834 0.002911 0.024403 -0.004505 -0.003357
# 5 0.000829 -0.002570 -0.000544 -0.004505 0.051290 0.033848
# 6 -0.001473 -0.004559 -0.005758 -0.003357 0.033848 0.065720
#
#
# Mechanical properties :
#
#
# Convention : Reuss Voigt Hill
#
# Bulk Modulus (GPa) = 57.26927 75.81717 66.54322
# Shear Modulus (GPa) = 26.10259 39.28387 32.69323
#
# Velocity S-wave (km/s) = 3.27956 4.02328 3.67031
# Velocity P-wave (km/s) = 6.15941 7.26792 6.73650
#
# Compressibility (1/GPa) = 0.01746137
#
# Stress axis : x y z
#
# Youngs Moduli (GPa) = 139.35059 73.25961 99.36705
#
# Poissons Ratio (x) = 0.03073 0.20055
# Poissons Ratio (y) = 0.05844 0.42495
# Poissons Ratio (z) = 0.28125 0.31330
#
# Static dielectric constant tensor:
#      x y z
#    x 2.061620 0.023730 0.027360 
#    y 0.023730 2.019540 0.115220 
#    z 0.027360 0.115220 2.019110 
# 
# From -- ./inp_files/485909.got.cif
#   From: 2010.05.17/outbox.cif.g08.bks.cpg/sg2_243_cif.got.tgz:485909.got - 2010.06.03 11:33:40.
