data_PCOD9012441
_publ_section_title
;
Structure prediction by ZEFSAII (Michael W. Deem and Ramdas Pophale) SiO2 
 PCOD9012441
Probable space group: P -1
;
_chemical_formula_sum "Si O2"
_cell_formula_units_Z 16
_cell_length_a 8.670320
_cell_length_b 20.668861
_cell_length_c 7.692331
_cell_angle_alpha 143.967062
_cell_angle_beta 111.460410
_cell_angle_gamma 55.199396
_cell_volume 652.680186
_symmetry_space_group_name_H-M "P -1"
_symmetry_group_IT_number 2
_symmetry_cell_setting 'triclinic'
loop_
_space_group_symop_operation_xyz
x,y,z
-x,-y,-z
loop_
_atom_site_type_symbol
_atom_site_label
_atom_site_fract_x
_atom_site_fract_y
_atom_site_fract_z
Si Si1 0.973245 0.270831 0.559247
Si Si2 0.801159 0.000750 0.957983
Si Si3 0.702400 0.740832 0.116060
Si Si4 0.053292 0.814799 0.095457
Si Si5 0.741182 0.564671 0.067829
Si Si6 0.672553 0.251302 0.605399
Si Si7 0.107071 0.371944 0.383633
Si Si8 0.279393 0.939194 0.333092
O O1 0.105093 0.256793 0.750643
O O2 0.787180 0.264192 0.520828
O O3 0.125896 0.140332 0.241186
O O4 0.876565 0.415362 0.773822
O O5 0.713361 0.018464 0.768350
O O6 0.667008 0.122302 0.284219
O O7 0.000000 0.000000 0.000000
O O8 0.723259 0.633654 0.027552
O O9 0.493282 0.859443 0.320536
O O10 0.715151 0.713082 0.856359
O O11 0.190132 0.777097 0.237152
O O12 0.172951 0.855130 0.103663
O O13 0.856019 0.940370 0.341524
O O14 0.013431 0.699961 0.794174
O O15 0.523167 0.621277 0.161510
O O16 0.824964 0.603957 0.352174
O O17 0.000000 0.500000 0.500000
#
# Coordination Sequence:
#
# PCOD9012441 Si02
#       8
#     2   2   2   2   2   2   2   2
#     4  11  23  43  72  99 147 190 231 306 364 425
#     4  10  21  40  70 104 136 182 245 296 360 425
#     4  12  25  45  70 107 142 187 243 295 361 431
#     4  11  23  46  70 100 147 184 235 303 358 423
#     4  12  26  46  74 103 146 190 244 294 365 439
#     4  11  21  46  71 100 136 188 237 293 366 424
#     4  12  26  47  71 103 148 192 236 294 365 433
#     4  11  23  43  72 101 142 185 239 301 357 430
#
# _framework density 24.514305
#
# number of rings (size 3 to 8) (size 9 to 14) (size 15 to 20)
#    0.000    0.750    6.250    1.500    0.000    5.000 
#    0.000    1.875    0.000    0.000    0.000    0.000 
#    0.000    0.000    0.000    0.000    0.000    0.000 
#
# Total GULP energy -89440.910410 kJ/mol
# GULP energy per Si atom -5590.056901 kJ/mol
# Density = 2.445851 g / cm^3
# Si number density = 24.514305 Si / 1000 Ang^3
#
#
#
# Elastic Constant Matrix: (Units=GPa)
#
#
# Indices 1 2 3 4 5 6 
#
# 1 101.7717 48.3423 50.9590 16.5035 -9.7696 -5.8263
# 2 48.3423 139.8752 68.1416 35.2026 -2.9946 -3.8841
# 3 50.9590 68.1416 121.2577 15.7298 2.0277 10.7328
# 4 16.5035 35.2026 15.7298 32.9365 6.8492 -16.1202
# 5 -9.7696 -2.9946 2.0277 6.8492 33.7009 18.5648
# 6 -5.8263 -3.8841 10.7328 -16.1202 18.5648 34.1929
#
#
#
# Elastic Compliance Matrix: (Units=1/GPa)
#
#
# Indices 1 2 3 4 5 6 
#
# 1 0.014254 -0.000401 -0.004069 -0.009968 0.009900 -0.006414
# 2 -0.000401 0.016873 -0.003331 -0.032468 0.021429 -0.024048
# 3 -0.004069 -0.003331 0.014187 -0.009558 0.007332 -0.014012
# 4 -0.009968 -0.032468 -0.009558 0.166697 -0.115643 0.138990
# 5 0.009900 0.021429 0.007332 -0.115643 0.123467 -0.119735
# 6 -0.006414 -0.024048 -0.014012 0.138990 -0.119735 0.160356
#
#
# Mechanical properties :
#
#
# Convention : Reuss Voigt Hill
#
# Bulk Modulus (GPa) = 33.65948 77.53226 55.59587
# Shear Modulus (GPa) = 9.59066 33.19684 21.39375
#
# Velocity S-wave (km/s) = 1.98009 3.68391 2.95736
# Velocity P-wave (km/s) = 4.35753 7.05627 5.86426
#
# Compressibility (1/GPa) = 0.02970931
#
# Stress axis : x y z
#
# Youngs Moduli (GPa) = 70.15672 59.26623 70.48846
#
# Poissons Ratio (x) = 0.02378 0.28685
# Poissons Ratio (y) = 0.02815 0.23482
# Poissons Ratio (z) = 0.28550 0.19744
#
# Static dielectric constant tensor:
#      x y z
#    x 2.009300 0.081240 0.037960 
#    y 0.081240 1.953320 -0.035770 
#    z 0.037960 -0.035770 2.079330 
# 
# From -- ./inp_files/226809.got.cif
#   From: 2010.05.17/outbox.cif.g08.bks.cpg/sg2_114_cif.got.tgz:226809.got - 2010.06.03 11:33:40.
