data_PCOD9012716
_publ_section_title
;
Structure prediction by ZEFSAII (Michael W. Deem and Ramdas Pophale) SiO2 
 PCOD9012716
Probable space group: P -1
;
_chemical_formula_sum "Si O2"
_cell_formula_units_Z 16
_cell_length_a 9.965598
_cell_length_b 11.771671
_cell_length_c 9.182342
_cell_angle_alpha 41.113781
_cell_angle_beta 73.916168
_cell_angle_gamma 66.758257
_cell_volume 650.470265
_symmetry_space_group_name_H-M "P -1"
_symmetry_group_IT_number 2
_symmetry_cell_setting 'triclinic'
loop_
_space_group_symop_operation_xyz
x,y,z
-x,-y,-z
loop_
_atom_site_type_symbol
_atom_site_label
_atom_site_fract_x
_atom_site_fract_y
_atom_site_fract_z
Si Si1 0.895036 0.868342 0.016084
Si Si2 0.783886 0.267178 0.530825
Si Si3 0.650138 0.625494 0.711412
Si Si4 0.950978 0.664340 0.474363
Si Si5 0.215355 0.766586 0.922599
Si Si6 0.608177 0.861192 0.986914
Si Si7 0.411686 0.613845 0.267381
Si Si8 0.646425 0.111535 0.469609
O O1 0.764399 0.788031 0.088186
O O2 0.046878 0.780290 0.972838
O O3 0.836710 0.070133 0.779757
O O4 0.922606 0.837556 0.209050
O O5 0.646234 0.377430 0.560945
O O6 0.727060 0.232013 0.424842
O O7 0.919966 0.344074 0.442506
O O8 0.801124 0.664837 0.595394
O O9 0.589025 0.571847 0.628336
O O10 0.513443 0.786631 0.646611
O O11 0.691857 0.434723 0.968616
O O12 0.000000 0.500000 0.500000
O O13 0.248013 0.924911 0.666962
O O14 0.280807 0.752749 0.078169
O O15 0.628067 0.964092 0.732977
O O16 0.541084 0.701092 0.125103
O O17 0.500000 0.000000 0.000000
#
# Coordination Sequence:
#
# PCOD9012716 Si02
#       8
#     2   2   2   2   2   2   2   2
#     4  11  22  38  66  87 134 150 198 261 301 353
#     4  11  23  38  62  97 119 156 202 255 305 352
#     4  10  23  40  63  86 126 160 205 247 298 358
#     4  12  20  38  62  96 117 158 205 247 304 359
#     4  10  23  43  61  87 127 163 202 243 309 355
#     4  11  22  39  62  97 122 154 203 253 305 352
#     4  10  21  41  58  93 126 152 203 248 305 353
#     4  11  24  42  65  85 125 166 202 247 302 364
#
# _framework density 24.59759
#
# number of rings (size 3 to 8) (size 9 to 14) (size 15 to 20)
#    0.750    0.500    6.250    1.500    0.000    4.000 
#    0.000    1.875    0.000    0.000    0.000    0.000 
#    0.000    0.000    0.000    0.000    0.000    0.000 
#
# Total GULP energy -89436.314153 kJ/mol
# GULP energy per Si atom -5589.769635 kJ/mol
# Density = 2.454160 g / cm^3
# Si number density = 24.597590 Si / 1000 Ang^3
#
#
#
# Elastic Constant Matrix: (Units=GPa)
#
#
# Indices 1 2 3 4 5 6 
#
# 1 198.4975 16.7137 14.0782 -2.6791 -17.8611 -11.0537
# 2 16.7137 35.7687 9.1349 -7.0756 1.1986 2.6396
# 3 14.0782 9.1349 118.2919 0.0197 -7.5219 -11.5809
# 4 -2.6791 -7.0756 0.0197 25.6763 -2.8857 -2.0775
# 5 -17.8611 1.1986 -7.5219 -2.8857 33.9469 0.3394
# 6 -11.0537 2.6396 -11.5809 -2.0775 0.3394 33.8865
#
#
#
# Elastic Compliance Matrix: (Units=1/GPa)
#
#
# Indices 1 2 3 4 5 6 
#
# 1 0.005675 -0.002826 -0.000062 0.000325 0.003079 0.002039
# 2 -0.002826 0.031885 -0.002658 0.007906 -0.002491 -0.003804
# 3 -0.000062 -0.002658 0.009115 -0.000254 0.002027 0.003266
# 4 0.000325 0.007906 -0.000254 0.041693 0.003360 0.001926
# 5 0.003079 -0.002491 0.002027 0.003360 0.031883 0.001778
# 6 0.002039 -0.003804 0.003266 0.001926 0.001778 0.031688
#
#
# Mechanical properties :
#
#
# Convention : Reuss Voigt Hill
#
# Bulk Modulus (GPa) = 28.10263 48.04573 38.07418
# Shear Modulus (GPa) = 28.58929 39.54403 34.06666
#
# Velocity S-wave (km/s) = 3.41292 4.01389 3.72554
# Velocity P-wave (km/s) = 5.19427 6.40756 5.83255
#
# Compressibility (1/GPa) = 0.03558386
#
# Stress axis : x y z
#
# Youngs Moduli (GPa) = 176.20633 31.36303 109.70963
#
# Poissons Ratio (x) = 0.08862 0.00678
# Poissons Ratio (y) = 0.49787 0.29162
# Poissons Ratio (z) = 0.01089 0.08337
#
# Static dielectric constant tensor:
#      x y z
#    x 1.967950 0.017730 0.003050 
#    y 0.017730 2.054350 -0.086840 
#    z 0.003050 -0.086840 1.947770 
# 
# From -- ./inp_files/205148.got.cif
#   From: 2010.05.17/outbox.cif.g08.bks.cpg/sg2_103_cif.got.tgz:205148.got - 2010.06.03 11:33:40.
