data_PCOD9012675
_publ_section_title
;
Structure prediction by ZEFSAII (Michael W. Deem and Ramdas Pophale) SiO2 
 PCOD9012675
Probable space group: P -1
;
_chemical_formula_sum "Si O2"
_cell_formula_units_Z 12
_cell_length_a 7.872678
_cell_length_b 5.094302
_cell_length_c 16.987766
_cell_angle_alpha 121.198573
_cell_angle_beta 91.897951
_cell_angle_gamma 94.929610
_cell_volume 578.205461
_symmetry_space_group_name_H-M "P -1"
_symmetry_group_IT_number 2
_symmetry_cell_setting 'triclinic'
loop_
_space_group_symop_operation_xyz
x,y,z
-x,-y,-z
loop_
_atom_site_type_symbol
_atom_site_label
_atom_site_fract_x
_atom_site_fract_y
_atom_site_fract_z
Si Si1 0.557653 0.282905 0.633331
Si Si2 0.919130 0.376115 0.898352
Si Si3 0.057204 0.903880 0.726046
Si Si4 0.127050 0.099069 0.445559
Si Si5 0.779233 0.715119 0.810677
Si Si6 0.661309 0.304752 0.397562
O O1 0.716942 0.107463 0.584036
O O2 0.617827 0.493778 0.742337
O O3 0.494526 0.511082 0.603013
O O4 0.407420 0.012377 0.610067
O O5 0.840661 0.624373 0.882635
O O6 0.774512 0.081922 0.863213
O O7 0.058710 0.223309 0.823502
O O8 0.000000 0.500000 0.000000
O O9 0.235585 0.783705 0.691804
O O10 0.966222 0.932992 0.645018
O O11 0.930921 0.676446 0.743563
O O12 0.208349 0.453222 0.515041
O O13 0.000000 0.000000 0.500000
#
# Coordination Sequence:
#
# PCOD9012675 Si02
#       6
#     2   2   2   2   2   2
#     4  12  24  43  60  93 135 172 208 260 318 376
#     4  10  21  40  74  97 116 156 222 272 315 374
#     4  10  24  41  66  94 130 165 221 267 312 362
#     4  12  24  44  64  93 132 178 225 257 302 372
#     4  10  21  41  67  91 127 161 214 257 326 365
#     4  12  26  38  63  94 134 174 212 255 315 377
#
# _framework density 20.753869999999999
#
# number of rings (size 3 to 8) (size 9 to 14) (size 15 to 20)
#    1.000    0.000    1.667    6.000    2.333    2.667 
#    0.000    0.000    0.000    6.000    0.000    0.000 
#    0.000    0.000    0.000    0.000    0.000    0.000 
#
# Total GULP energy -67077.472496 kJ/mol
# GULP energy per Si atom -5589.789375 kJ/mol
# Density = 2.070663 g / cm^3
# Si number density = 20.753870 Si / 1000 Ang^3
#
#
#
# Elastic Constant Matrix: (Units=GPa)
#
#
# Indices 1 2 3 4 5 6 
#
# 1 56.4280 6.4345 17.5910 -3.4742 -2.3647 -1.0870
# 2 6.4345 102.6127 27.1368 -12.9804 12.1376 4.6314
# 3 17.5910 27.1368 141.3124 -11.3661 12.9188 8.4875
# 4 -3.4742 -12.9804 -11.3661 32.4367 -8.0044 8.5080
# 5 -2.3647 12.1376 12.9188 -8.0044 22.4914 2.2957
# 6 -1.0870 4.6314 8.4875 8.5080 2.2957 29.8573
#
#
#
# Elastic Compliance Matrix: (Units=1/GPa)
#
#
# Indices 1 2 3 4 5 6 
#
# 1 0.018903 -0.000864 -0.002496 0.001711 0.004425 0.000704
# 2 -0.000864 0.011135 -0.001265 0.003505 -0.003912 -0.002097
# 3 -0.002496 -0.001265 0.008247 0.001951 -0.003363 -0.002536
# 4 0.001711 0.003505 0.001951 0.039720 0.012664 -0.013328
# 5 0.004425 -0.003912 -0.003363 0.012664 0.054093 -0.006044
# 6 0.000704 -0.002097 -0.002536 -0.013328 -0.006044 0.038827
#
#
# Mechanical properties :
#
#
# Convention : Reuss Voigt Hill
#
# Bulk Modulus (GPa) = 34.44260 44.74195 39.59227
# Shear Modulus (GPa) = 26.33604 33.56980 29.95292
#
# Velocity S-wave (km/s) = 3.56613 4.02620 3.80313
# Velocity P-wave (km/s) = 5.79552 6.57411 6.19706
#
# Compressibility (1/GPa) = 0.02903381
#
# Stress axis : x y z
#
# Youngs Moduli (GPa) = 52.90236 89.80813 121.25589
#
# Poissons Ratio (x) = 0.07758 0.30269
# Poissons Ratio (y) = 0.04570 0.15342
# Poissons Ratio (z) = 0.13206 0.11363
#
# Static dielectric constant tensor:
#      x y z
#    x 1.751320 -0.008280 -0.009470 
#    y -0.008280 1.765500 0.016320 
#    z -0.009470 0.016320 1.726000 
# 
# From -- ./inp_files/487309.got.cif
#   From: 2010.05.17/outbox.cif.g08.bks.cpg/sg2_244_cif.got.tgz:487309.got - 2010.06.03 11:33:40.
