data_PCOD9012673
_publ_section_title
;
Structure prediction by ZEFSAII (Michael W. Deem and Ramdas Pophale) SiO2 
 PCOD9012673
Probable space group: P -1
;
_chemical_formula_sum "Si O2"
_cell_formula_units_Z 16
_cell_length_a 5.239211
_cell_length_b 29.423701
_cell_length_c 8.706658
_cell_angle_alpha 41.157253
_cell_angle_beta 123.809760
_cell_angle_gamma 104.410638
_cell_volume 697.551740
_symmetry_space_group_name_H-M "P -1"
_symmetry_group_IT_number 2
_symmetry_cell_setting 'triclinic'
loop_
_space_group_symop_operation_xyz
x,y,z
-x,-y,-z
loop_
_atom_site_type_symbol
_atom_site_label
_atom_site_fract_x
_atom_site_fract_y
_atom_site_fract_z
Si Si1 0.574783 0.075074 0.873520
Si Si2 0.408530 0.266086 0.845779
Si Si3 0.130814 0.646529 0.353544
Si Si4 0.712800 0.566766 0.304219
Si Si5 0.359392 0.155192 0.324283
Si Si6 0.277077 0.865685 0.913163
Si Si7 0.230422 0.980282 0.364644
Si Si8 0.335938 0.488364 0.225210
O O1 0.346917 0.143614 0.530328
O O2 0.581421 0.100167 0.987619
O O3 0.500000 0.000000 0.000000
O O4 0.961018 0.050033 0.035869
O O5 0.664999 0.305678 0.775926
O O6 0.449116 0.201406 0.900571
O O7 0.057710 0.321364 0.633923
O O8 0.494113 0.218579 0.151911
O O9 0.389379 0.565985 0.651149
O O10 0.848152 0.634708 0.179852
O O11 0.415047 0.561767 0.113662
O O12 0.655776 0.550418 0.505708
O O13 0.000000 0.500000 0.500000
O O14 0.605822 0.077545 0.560553
O O15 0.030934 0.163549 0.098240
O O16 0.114095 0.931921 0.572659
O O17 0.500000 0.000000 0.500000
O O18 0.000000 0.500000 0.000000
#
# Coordination Sequence:
#
# PCOD9012673 Si02
#       8
#     2   2   2   2   2   2   2   2
#     4  12  23  40  69 100 132 165 229 289 367 423
#     4  11  24  44  72  90 136 197 238 271 343 414
#     4  11  21  43  76  99 135 198 234 271 340 417
#     4   9  20  38  70 106 146 178 217 282 345 382
#     4  11  23  41  66  96 132 176 225 291 344 408
#     4  11  23  42  66  92 138 174 221 291 351 411
#     4  11  21  38  63  96 129 167 211 281 360 422
#     4  10  21  40  74 113 148 175 226 288 348 390
#
# _framework density 22.937367999999999
#
# number of rings (size 3 to 8) (size 9 to 14) (size 15 to 20)
#    0.000    1.250    5.000    1.500    0.000    2.000 
#    0.000    0.000   16.500    0.000    0.000    0.000 
#    0.000    0.000    0.000    0.000    0.000    0.000 
#
# Total GULP energy -89155.612249 kJ/mol
# GULP energy per Si atom -5572.225766 kJ/mol
# Density = 2.288516 g / cm^3
# Si number density = 22.937368 Si / 1000 Ang^3
#
#
#
# Elastic Constant Matrix: (Units=GPa)
#
#
# Indices 1 2 3 4 5 6 
#
# 1 121.1121 57.0894 24.8497 -4.8983 10.2929 1.3301
# 2 57.0894 130.5584 58.8737 9.5676 20.9483 -8.2128
# 3 24.8497 58.8737 53.3469 12.3464 6.5389 2.6819
# 4 -4.8983 9.5676 12.3464 37.9358 0.5290 9.5161
# 5 10.2929 20.9483 6.5389 0.5290 33.1363 -8.7132
# 6 1.3301 -8.2128 2.6819 9.5161 -8.7132 50.1182
#
#
#
# Elastic Compliance Matrix: (Units=1/GPa)
#
#
# Indices 1 2 3 4 5 6 
#
# 1 0.010797 -0.004833 -0.000240 0.003153 -0.000775 -0.001799
# 2 -0.004833 0.019269 -0.018362 -0.000232 -0.006203 0.003234
# 3 -0.000240 -0.018362 0.040752 -0.007908 0.002933 -0.003172
# 4 0.003153 -0.000232 -0.007908 0.030868 -0.001286 -0.005783
# 5 -0.000775 -0.006203 0.002933 -0.001286 0.035150 0.005202
# 6 -0.001799 0.003234 -0.003172 -0.005783 0.005202 0.022703
#
#
# Mechanical properties :
#
#
# Convention : Reuss Voigt Hill
#
# Bulk Modulus (GPa) = 41.75898 65.18256 53.47077
# Shear Modulus (GPa) = 23.32179 35.18503 29.25341
#
# Velocity S-wave (km/s) = 3.19213 3.92083 3.57509
# Velocity P-wave (km/s) = 5.64193 6.99832 6.35641
#
# Compressibility (1/GPa) = 0.02394695
#
# Stress axis : x y z
#
# Youngs Moduli (GPa) = 92.61480 51.89789 24.53885
#
# Poissons Ratio (x) = 0.25082 0.00590
# Poissons Ratio (y) = 0.44761 0.45058
# Poissons Ratio (z) = 0.02225 0.95295
#
# Static dielectric constant tensor:
#      x y z
#    x 2.174990 0.061140 -0.133510 
#    y 0.061140 1.912850 -0.035970 
#    z -0.133510 -0.035970 1.959080 
# 
# From -- ./inp_files/143381.got.cif
#   From: 2010.05.17/outbox.cif.g08.bks.cpg/sg2_72_cif.got.tgz:143381.got - 2010.06.03 11:33:40.
