data_PCOD9012527
_publ_section_title
;
Structure prediction by ZEFSAII (Michael W. Deem and Ramdas Pophale) SiO2 
 PCOD9012527
Probable space group: P -1
;
_chemical_formula_sum "Si O2"
_cell_formula_units_Z 14
_cell_length_a 8.166514
_cell_length_b 10.975756
_cell_length_c 9.337399
_cell_angle_alpha 80.646250
_cell_angle_beta 85.224899
_cell_angle_gamma 126.155318
_cell_volume 649.707924
_symmetry_space_group_name_H-M "P -1"
_symmetry_group_IT_number 2
_symmetry_cell_setting 'triclinic'
loop_
_space_group_symop_operation_xyz
x,y,z
-x,-y,-z
loop_
_atom_site_type_symbol
_atom_site_label
_atom_site_fract_x
_atom_site_fract_y
_atom_site_fract_z
Si Si1 0.581301 0.166291 0.906972
Si Si2 0.287041 0.971168 0.463503
Si Si3 0.624920 0.822498 0.342782
Si Si4 0.814210 0.347324 0.462066
Si Si5 0.741272 0.904088 0.861560
Si Si6 0.126933 0.221333 0.899551
Si Si7 0.043456 0.458138 0.854487
O O1 0.460220 0.120579 0.776736
O O2 0.817341 0.312241 0.838323
O O3 0.484093 0.209716 0.026424
O O4 0.500000 0.000000 0.000000
O O5 0.157567 0.786350 0.486351
O O6 0.500000 0.000000 0.500000
O O7 0.227680 0.038911 0.582101
O O8 0.288712 0.055999 0.303733
O O9 0.409149 0.696973 0.466876
O O10 0.732190 0.771206 0.241815
O O11 0.844603 0.393738 0.284987
O O12 0.000000 0.500000 0.500000
O O13 0.842536 0.825277 0.935414
O O14 0.894894 0.074343 0.895111
O O15 0.160820 0.382271 0.873241
O O16 0.000000 0.500000 0.000000
#
# Coordination Sequence:
#
# PCOD9012527 Si02
#       7
#     2   2   2   2   2   2   2
#     4  11  20  39  70  93 125 178 231 269 324 389
#     4  10  22  39  71 104 124 173 234 276 315 392
#     4  10  23  41  69  97 131 178 221 280 335 385
#     4  11  22  42  66 100 141 175 219 270 334 405
#     4  10  21  40  70  98 131 169 228 280 326 382
#     4  10  23  44  65 100 138 174 221 277 347 390
#     4  12  27  41  68 100 132 180 225 273 334 408
#
# _framework density 21.548143
#
# number of rings (size 3 to 8) (size 9 to 14) (size 15 to 20)
#    0.000    1.429    2.857    2.571    6.000    1.143 
#    0.000    4.286    3.143    0.000    0.000    0.000 
#    0.000    0.000    0.000    0.000    0.000    0.000 
#
# Total GULP energy -77934.098973 kJ/mol
# GULP energy per Si atom -5566.721355 kJ/mol
# Density = 2.149910 g / cm^3
# Si number density = 21.548143 Si / 1000 Ang^3
#
#
#
# Elastic Constant Matrix: (Units=GPa)
#
#
# Indices 1 2 3 4 5 6 
#
# 1 72.8323 21.5629 55.1738 1.5072 -6.4870 -5.8901
# 2 21.5629 62.9409 31.3948 7.9376 -9.3347 -8.1768
# 3 55.1738 31.3948 191.9684 -4.1325 10.5301 -15.4835
# 4 1.5072 7.9376 -4.1325 32.5538 7.0569 -8.8307
# 5 -6.4870 -9.3347 10.5301 7.0569 37.7314 -0.7836
# 6 -5.8901 -8.1768 -15.4835 -8.8307 -0.7836 31.4480
#
#
#
# Elastic Compliance Matrix: (Units=1/GPa)
#
#
# Indices 1 2 3 4 5 6 
#
# 1 0.019024 -0.003055 -0.005261 -0.001799 0.004315 -0.000219
# 2 -0.003055 0.020271 -0.002776 -0.006063 0.006436 0.001789
# 3 -0.005261 -0.002776 0.007738 0.003672 -0.004375 0.003025
# 4 -0.001799 -0.006063 0.003672 0.037610 -0.009656 0.010215
# 5 0.004315 0.006436 -0.004375 -0.009656 0.031831 -0.001591
# 6 -0.000219 0.001789 0.003025 0.010215 -0.001591 0.036541
#
#
# Mechanical properties :
#
#
# Convention : Reuss Voigt Hill
#
# Bulk Modulus (GPa) = 40.24389 60.44498 50.34443
# Shear Modulus (GPa) = 27.25041 34.98731 31.11886
#
# Velocity S-wave (km/s) = 3.56002 4.03386 3.80433
# Velocity P-wave (km/s) = 5.96784 7.05749 6.53541
#
# Compressibility (1/GPa) = 0.02484849
#
# Stress axis : x y z
#
# Youngs Moduli (GPa) = 52.56502 49.33171 129.22607
#
# Poissons Ratio (x) = 0.15070 0.67989
# Poissons Ratio (y) = 0.16058 0.35878
# Poissons Ratio (z) = 0.27656 0.13696
#
# Static dielectric constant tensor:
#      x y z
#    x 1.886070 0.024380 -0.012310 
#    y 0.024380 1.822310 0.013030 
#    z -0.012310 0.013030 1.828260 
# 
# From -- ./inp_files/177892.got.cif
#   From: 2010.05.17/outbox.cif.g08.bks.cpg/sg2_89_cif.got.tgz:177892.got - 2010.06.03 11:33:40.
