data_PCOD9012448
_publ_section_title
;
Structure prediction by ZEFSAII (Michael W. Deem and Ramdas Pophale) SiO2 
 PCOD9012448
Probable space group: P -1
;
_chemical_formula_sum "Si O2"
_cell_formula_units_Z 16
_cell_length_a 7.170556
_cell_length_b 15.731779
_cell_length_c 14.435471
_cell_angle_alpha 154.042872
_cell_angle_beta 74.204036
_cell_angle_gamma 107.876937
_cell_volume 678.308047
_symmetry_space_group_name_H-M "P -1"
_symmetry_group_IT_number 2
_symmetry_cell_setting 'triclinic'
loop_
_space_group_symop_operation_xyz
x,y,z
-x,-y,-z
loop_
_atom_site_type_symbol
_atom_site_label
_atom_site_fract_x
_atom_site_fract_y
_atom_site_fract_z
Si Si1 0.658028 0.234723 0.911757
Si Si2 0.222089 0.503141 0.201024
Si Si3 0.222033 0.465010 0.957518
Si Si4 0.075708 0.243923 0.494696
Si Si5 0.896583 0.865578 0.233285
Si Si6 0.531642 0.150310 0.038156
Si Si7 0.504073 0.830023 0.580698
Si Si8 0.830387 0.939816 0.890178
O O1 0.588848 0.282634 0.070922
O O2 0.880522 0.184981 0.839342
O O3 0.533915 0.020880 0.695907
O O4 0.650234 0.412271 0.016995
O O5 0.348760 0.648570 0.395140
O O6 0.003166 0.552424 0.292072
O O7 0.281439 0.557572 0.140121
O O8 0.204105 0.267925 0.968995
O O9 0.208056 0.232597 0.755827
O O10 0.000000 0.500000 0.000000
O O11 0.286498 0.241301 0.507464
O O12 0.087138 0.160624 0.308279
O O13 0.923874 0.091308 0.425763
O O14 0.465240 0.936479 0.787414
O O15 0.722332 0.117135 0.038445
O O16 0.351779 0.195600 0.167710
O O17 0.000000 0.000000 0.000000
#
# Coordination Sequence:
#
# PCOD9012448 Si02
#       8
#     2   2   2   2   2   2   2   2
#     4   8  14  33  53  76 113 148 177 223 279 319
#     4  10  19  32  60  81 108 153 183 223 277 322
#     4   8  16  31  57  80 107 152 184 218 275 324
#     4  10  19  36  57  83 113 142 185 231 277 329
#     4   8  17  33  53  81 113 144 183 224 269 327
#     4   8  17  30  52  81 106 146 176 224 285 313
#     4   8  17  32  52  81 112 139 186 226 269 323
#     4  10  17  29  56  84 103 136 191 224 267 339
#
# _framework density 23.588101999999999
#
# number of rings (size 3 to 8) (size 9 to 14) (size 15 to 20)
#    1.500    1.750    1.250    0.750    0.000    0.500 
#    0.000    8.125    0.000    5.250    0.000    0.000 
#    0.000    0.000    0.000    0.000    0.000    0.000 
#
# Total GULP energy -89203.600800 kJ/mol
# GULP energy per Si atom -5575.225050 kJ/mol
# Density = 2.353441 g / cm^3
# Si number density = 23.588102 Si / 1000 Ang^3
#
#
#
# Elastic Constant Matrix: (Units=GPa)
#
#
# Indices 1 2 3 4 5 6 
#
# 1 86.1666 15.1521 24.3577 1.0484 3.6458 -11.4489
# 2 15.1521 72.8526 -11.4058 -16.9714 -12.5086 6.0855
# 3 24.3577 -11.4058 54.7850 9.0955 5.0725 -13.8796
# 4 1.0484 -16.9714 9.0955 21.3192 2.0365 7.7325
# 5 3.6458 -12.5086 5.0725 2.0365 26.1627 -4.7237
# 6 -11.4489 6.0855 -13.8796 7.7325 -4.7237 16.8670
#
#
#
# Elastic Compliance Matrix: (Units=1/GPa)
#
#
# Indices 1 2 3 4 5 6 
#
# 1 0.016328 -0.008537 -0.002225 -0.012937 -0.001707 0.017785
# 2 -0.008537 0.027381 -0.006681 0.037864 0.005974 -0.036857
# 3 -0.002225 -0.006681 0.036699 -0.039026 0.001984 0.049546
# 4 -0.012937 0.037864 -0.039026 0.138014 -0.004787 -0.119168
# 5 -0.001707 0.005974 0.001984 -0.004787 0.043602 0.012724
# 6 0.017785 -0.036857 0.049546 -0.119168 0.012724 0.183622
#
#
# Mechanical properties :
#
#
# Convention : Reuss Voigt Hill
#
# Bulk Modulus (GPa) = 21.96709 30.00135 25.98422
# Shear Modulus (GPa) = 10.08659 25.24977 17.66818
#
# Velocity S-wave (km/s) = 2.07012 3.27532 2.73981
# Velocity P-wave (km/s) = 3.87903 5.20097 4.58786
#
# Compressibility (1/GPa) = 0.04552263
#
# Stress axis : x y z
#
# Youngs Moduli (GPa) = 61.24294 36.52153 27.24834
#
# Poissons Ratio (x) = 0.31178 0.06064
# Poissons Ratio (y) = 0.52283 0.18204
# Poissons Ratio (z) = 0.13629 0.24400
#
# Static dielectric constant tensor:
#      x y z
#    x 1.944310 0.008910 0.018980 
#    y 0.008910 1.924450 0.006500 
#    z 0.018980 0.006500 1.875480 
# 
# From -- ./inp_files/506405.got.cif
#   From: 2010.05.17/outbox.cif.g08.bks.cpg/sg2_254_cif.got.tgz:506405.got - 2010.06.03 11:33:40.
