data_PCOD9012251
_publ_section_title
;
Structure prediction by ZEFSAII (Michael W. Deem and Ramdas Pophale) SiO2 
 PCOD9012251
Probable space group: P -1
;
_chemical_formula_sum "Si O2"
_cell_formula_units_Z 16
_cell_length_a 5.424895
_cell_length_b 28.252237
_cell_length_c 12.114306
_cell_angle_alpha 152.931100
_cell_angle_beta 132.019543
_cell_angle_gamma 59.007921
_cell_volume 609.354116
_symmetry_space_group_name_H-M "P -1"
_symmetry_group_IT_number 2
_symmetry_cell_setting 'triclinic'
loop_
_space_group_symop_operation_xyz
x,y,z
-x,-y,-z
loop_
_atom_site_type_symbol
_atom_site_label
_atom_site_fract_x
_atom_site_fract_y
_atom_site_fract_z
Si Si1 0.765708 0.810365 0.935121
Si Si2 0.221125 0.200875 0.632967
Si Si3 0.770558 0.891038 0.773262
Si Si4 0.096773 0.979130 0.706786
Si Si5 0.411417 0.699785 0.381842
Si Si6 0.668238 0.293625 0.206821
Si Si7 0.022755 0.511131 0.160877
Si Si8 0.637044 0.414321 0.229270
O O1 0.503570 0.746443 0.629767
O O2 0.618101 0.769926 0.926597
O O3 0.110053 0.775235 0.934313
O O4 0.832570 0.938920 0.203971
O O5 0.084210 0.113872 0.314433
O O6 0.929815 0.264570 0.682660
O O7 0.564368 0.292787 0.902602
O O8 0.202472 0.127782 0.585311
O O9 0.689489 0.766568 0.522947
O O10 0.436882 0.936785 0.744746
O O11 0.948937 0.942390 0.044046
O O12 0.305965 0.574825 0.072272
O O13 0.933732 0.373952 0.533558
O O14 0.567522 0.373544 0.251048
O O15 0.361666 0.472860 0.219173
O O16 0.000000 0.500000 0.000000
O O17 0.000000 0.500000 0.500000
#
# Coordination Sequence:
#
# PCOD9012251 Si02
#       8
#     2   2   2   2   2   2   2   2
#     4  11  25  43  72 102 148 192 243 302 372 433
#     4  10  21  40  69 102 142 194 249 300 374 449
#     4   9  18  34  64 102 145 180 238 306 385 424
#     4   9  20  37  63 106 140 188 241 315 367 430
#     4   9  21  37  61 109 137 183 237 317 363 434
#     4  12  27  48  69 105 152 202 243 296 378 453
#     4  11  23  45  76 106 143 186 258 312 370 431
#     4  11  27  49  73 106 151 200 243 300 382 453
#
# _framework density 26.257307999999998
#
# number of rings (size 3 to 8) (size 9 to 14) (size 15 to 20)
#    0.000    1.750    1.250    2.250    7.000    0.500 
#    6.750    1.250    0.000    0.000    0.000    0.000 
#    0.000    0.000    0.000    0.000    0.000    0.000 
#
# Total GULP energy -89357.594419 kJ/mol
# GULP energy per Si atom -5584.849651 kJ/mol
# Density = 2.619755 g / cm^3
# Si number density = 26.257308 Si / 1000 Ang^3
#
#
#
# Elastic Constant Matrix: (Units=GPa)
#
#
# Indices 1 2 3 4 5 6 
#
# 1 108.3369 67.1560 41.2461 15.2912 17.8749 26.7366
# 2 67.1560 173.8364 50.5936 7.7220 13.5601 16.8724
# 3 41.2461 50.5936 85.6114 2.4843 16.3507 1.3551
# 4 15.2912 7.7220 2.4843 46.7408 11.0109 -2.0302
# 5 17.8749 13.5601 16.3507 11.0109 46.3680 0.1074
# 6 26.7366 16.8724 1.3551 -2.0302 0.1074 51.1225
#
#
#
# Elastic Compliance Matrix: (Units=1/GPa)
#
#
# Indices 1 2 3 4 5 6 
#
# 1 0.016199 -0.003757 -0.004887 -0.004165 -0.002417 -0.007263
# 2 -0.003757 0.008133 -0.003012 -0.000014 0.000137 -0.000640
# 3 -0.004887 -0.003012 0.016376 0.002199 -0.003540 0.003210
# 4 -0.004165 -0.000014 0.002199 0.023920 -0.004853 0.003085
# 5 -0.002417 0.000137 -0.003540 -0.004853 0.024856 0.001068
# 6 -0.007263 -0.000640 0.003210 0.003085 0.001068 0.023606
#
#
# Mechanical properties :
#
#
# Convention : Reuss Voigt Hill
#
# Bulk Modulus (GPa) = 57.48129 76.19736 66.83932
# Shear Modulus (GPa) = 35.16190 42.76553 38.96371
#
# Velocity S-wave (km/s) = 3.66338 4.04011 3.85635
# Velocity P-wave (km/s) = 6.31133 7.13062 6.73345
#
# Compressibility (1/GPa) = 0.01739697
#
# Stress axis : x y z
#
# Youngs Moduli (GPa) = 61.73231 122.96195 61.06463
#
# Poissons Ratio (x) = 0.46201 0.29839
# Poissons Ratio (y) = 0.23195 0.18390
# Poissons Ratio (z) = 0.30166 0.37030
#
# Static dielectric constant tensor:
#      x y z
#    x 2.070530 0.051130 0.024140 
#    y 0.051130 2.122930 0.002010 
#    z 0.024140 0.002010 2.174780 
# 
# From -- ./inp_files/371504.got.cif
#   From: 2010.05.17/outbox.cif.g08.bks.cpg/sg2_186_cif.got.tgz:371504.got - 2010.06.03 11:33:40.
