data_PCOD9012467
_publ_section_title
;
Structure prediction by ZEFSAII (Michael W. Deem and Ramdas Pophale) SiO2 
 PCOD9012467
Probable space group: P -1
;
_chemical_formula_sum "Si O2"
_cell_formula_units_Z 16
_cell_length_a 15.939595
_cell_length_b 8.558845
_cell_length_c 9.928878
_cell_angle_alpha 148.217069
_cell_angle_beta 68.793843
_cell_angle_gamma 100.685693
_cell_volume 644.252489
_symmetry_space_group_name_H-M "P -1"
_symmetry_group_IT_number 2
_symmetry_cell_setting 'triclinic'
loop_
_space_group_symop_operation_xyz
x,y,z
-x,-y,-z
loop_
_atom_site_type_symbol
_atom_site_label
_atom_site_fract_x
_atom_site_fract_y
_atom_site_fract_z
Si Si1 0.683850 0.251434 0.401974
Si Si2 0.881303 0.372052 0.442216
Si Si3 0.918114 0.401865 0.898598
Si Si4 0.220371 0.385328 0.063241
Si Si5 0.355580 0.489609 0.682182
Si Si6 0.502875 0.341764 0.701227
Si Si7 0.031909 0.150356 0.385713
Si Si8 0.323906 0.831139 0.215280
O O1 0.789094 0.278758 0.383657
O O2 0.655099 0.379645 0.364923
O O3 0.604422 0.399362 0.663891
O O4 0.693374 0.892753 0.158292
O O5 0.918833 0.577053 0.464621
O O6 0.970334 0.126360 0.271805
O O7 0.845865 0.587964 0.750357
O O8 0.960878 0.234719 0.613293
O O9 0.896008 0.158130 0.836966
O O10 0.833169 0.656381 0.074117
O O11 0.000000 0.500000 0.000000
O O12 0.253542 0.693172 0.242385
O O13 0.459520 0.376009 0.598944
O O14 0.317235 0.186367 0.494079
O O15 0.310072 0.748444 0.006813
O O16 0.500000 0.000000 0.500000
O O17 0.428341 0.614231 0.020489
#
# Coordination Sequence:
#
# PCOD9012467 Si02
#       8
#     2   2   2   2   2   2   2   2
#     4  12  24  43  67 103 134 185 231 294 350 426
#     4  10  24  39  67  94 141 177 225 296 351 421
#     4  10  21  40  70  91 133 181 228 289 348 431
#     4  11  25  39  66 102 135 175 246 282 355 419
#     4  10  26  44  70  99 140 186 234 294 350 415
#     4  10  23  46  68 100 138 188 231 293 348 424
#     4   9  21  44  60 100 133 178 227 282 362 414
#     4  10  25  47  69 101 139 188 237 287 353 419
#
# _framework density 24.834983999999999
#
# number of rings (size 3 to 8) (size 9 to 14) (size 15 to 20)
#    0.750    1.000    1.250    1.125    7.000    4.000 
#    0.000    3.750    0.000    0.000    0.000    0.000 
#    0.000    0.000    0.000    0.000    0.000    0.000 
#
# Total GULP energy -89373.457465 kJ/mol
# GULP energy per Si atom -5585.841092 kJ/mol
# Density = 2.477846 g / cm^3
# Si number density = 24.834984 Si / 1000 Ang^3
#
#
#
# Elastic Constant Matrix: (Units=GPa)
#
#
# Indices 1 2 3 4 5 6 
#
# 1 106.5301 50.8522 12.9935 11.1142 4.2096 -5.1835
# 2 50.8522 132.2291 14.7618 17.2804 -9.9158 -9.4274
# 3 12.9935 14.7618 44.5168 3.9701 5.2575 -6.8611
# 4 11.1142 17.2804 3.9701 26.8543 3.2854 -6.6102
# 5 4.2096 -9.9158 5.2575 3.2854 33.1020 4.4436
# 6 -5.1835 -9.4274 -6.8611 -6.6102 4.4436 51.4901
#
#
#
# Elastic Compliance Matrix: (Units=1/GPa)
#
#
# Indices 1 2 3 4 5 6 
#
# 1 0.011939 -0.004385 -0.001572 -0.001536 -0.002457 0.000204
# 2 -0.004385 0.010527 -0.002271 -0.005151 0.004566 0.000128
# 3 -0.001572 -0.002271 0.024740 -0.000191 -0.004809 0.003113
# 4 -0.001536 -0.005151 -0.000191 0.043206 -0.006272 0.004965
# 5 -0.002457 0.004566 -0.004809 -0.006272 0.033782 -0.003773
# 6 0.000204 0.000128 0.003113 0.004965 -0.003773 0.020843
#
#
# Mechanical properties :
#
#
# Convention : Reuss Voigt Hill
#
# Bulk Modulus (GPa) = 32.51998 48.94346 40.73172
# Shear Modulus (GPa) = 29.11310 35.93385 32.52347
#
# Velocity S-wave (km/s) = 3.42754 3.80795 3.62274
# Velocity P-wave (km/s) = 5.36535 6.25173 5.82542
#
# Compressibility (1/GPa) = 0.03075032
#
# Stress axis : x y z
#
# Youngs Moduli (GPa) = 83.75740 94.99254 40.42021
#
# Poissons Ratio (x) = 0.41654 0.06354
# Poissons Ratio (y) = 0.36727 0.09180
# Poissons Ratio (z) = 0.13167 0.21574
#
# Static dielectric constant tensor:
#      x y z
#    x 2.095760 -0.017130 -0.034790 
#    y -0.017130 1.912300 -0.011970 
#    z -0.034790 -0.011970 2.047700 
# 
# From -- ./inp_files/461724.got.cif
#   From: 2010.05.17/outbox.cif.g08.bks.cpg/sg2_231_cif.got.tgz:461724.got - 2010.06.03 11:33:40.
