data_PCOD9012838
_publ_section_title
;
Structure prediction by ZEFSAII (Michael W. Deem and Ramdas Pophale) SiO2 
 PCOD9012838
Probable space group: P -1
;
_chemical_formula_sum "Si O2"
_cell_formula_units_Z 9
_cell_length_a 8.916137
_cell_length_b 8.079380
_cell_length_c 8.262488
_cell_angle_alpha 90.746253
_cell_angle_beta 91.729984
_cell_angle_gamma 146.603544
_cell_volume 326.676624
_symmetry_space_group_name_H-M "P -1"
_symmetry_group_IT_number 2
_symmetry_cell_setting 'triclinic'
loop_
_space_group_symop_operation_xyz
x,y,z
-x,-y,-z
loop_
_atom_site_type_symbol
_atom_site_label
_atom_site_fract_x
_atom_site_fract_y
_atom_site_fract_z
Si Si1 0.227903 0.346914 0.546995
Si Si2 0.336671 0.864735 0.212735
Si Si3 0.000000 0.500000 0.500000
Si Si4 0.853319 0.193404 0.130886
Si Si5 0.237505 0.240620 0.881128
O O1 0.500000 0.500000 0.500000
O O2 0.165702 0.471284 0.475655
O O3 0.236622 0.373560 0.743174
O O4 0.000000 0.000000 0.500000
O O5 0.207081 0.783737 0.378760
O O6 0.163155 0.541428 0.142381
O O7 0.664293 0.143450 0.230296
O O8 0.264095 0.913324 0.057208
O O9 0.784194 0.957454 0.205548
O O10 0.500000 0.500000 0.000000
O O11 0.000000 0.000000 0.000000
#
# Coordination Sequence:
#
# PCOD9012838 Si02
#       5
#     2   2   1   2   2
#     4  12  28  49  74 108 151 194 240 303 372 436
#     4  10  22  38  65  93 130 174 227 286 344 415
#     4  12  26  46  74 108 144 190 244 298 364 438
#     4  10  21  41  61  92 132 178 226 283 348 412
#     4  12  24  42  69 100 139 188 242 296 354 429
#
# _framework density 27.550180999999998
#
# number of rings (size 3 to 8) (size 9 to 14) (size 15 to 20)
#    0.000    0.889    0.000    6.667    0.000    7.111 
#    0.000    0.000    0.000    0.000    0.000    0.000 
#    0.000    0.000    0.000    0.000    0.000    0.000 
#
# Total GULP energy -50175.416159 kJ/mol
# GULP energy per Si atom -5575.046240 kJ/mol
# Density = 2.748748 g / cm^3
# Si number density = 27.550181 Si / 1000 Ang^3
#
#
#
# Elastic Constant Matrix: (Units=GPa)
#
#
# Indices 1 2 3 4 5 6 
#
# 1 178.0925 54.0479 33.7838 -13.9331 21.1319 -0.5794
# 2 54.0479 162.6007 5.7769 -2.2487 2.1259 23.9467
# 3 33.7838 5.7769 150.3184 -38.7465 9.1715 7.4575
# 4 -13.9331 -2.2487 -38.7465 50.2806 2.2614 -19.6040
# 5 21.1319 2.1259 9.1715 2.2614 51.6260 -22.9182
# 6 -0.5794 23.9467 7.4575 -19.6040 -22.9182 54.2351
#
#
#
# Elastic Compliance Matrix: (Units=1/GPa)
#
#
# Indices 1 2 3 4 5 6 
#
# 1 0.006893 -0.002326 -0.000985 0.001466 -0.002254 0.000814
# 2 -0.002326 0.007605 0.000014 -0.002068 -0.001363 -0.004708
# 3 -0.000985 0.000014 0.008637 0.006733 -0.001084 0.000771
# 4 0.001466 -0.002068 0.006733 0.029861 0.002184 0.011720
# 5 -0.002254 -0.001363 -0.001084 0.002184 0.025995 0.012501
# 6 0.000814 -0.004708 0.000771 0.011720 0.012501 0.029939
#
#
# Mechanical properties :
#
#
# Convention : Reuss Voigt Hill
#
# Bulk Modulus (GPa) = 60.45516 75.35877 67.90696
# Shear Modulus (GPa) = 41.30973 57.72186 49.51580
#
# Velocity S-wave (km/s) = 3.87646 4.58225 4.24405
# Velocity P-wave (km/s) = 6.48284 7.44370 6.97982
#
# Compressibility (1/GPa) = 0.01654119
#
# Stress axis : x y z
#
# Youngs Moduli (GPa) = 145.08457 131.48601 115.78577
#
# Poissons Ratio (x) = 0.30586 0.11402
# Poissons Ratio (y) = 0.33749 -0.00165
# Poissons Ratio (z) = 0.14287 -0.00187
#
# Static dielectric constant tensor:
#      x y z
#    x 2.207130 -0.018750 -0.218640 
#    y -0.018750 1.958590 0.035310 
#    z -0.218640 0.035310 2.212060 
# 
# From -- ./inp_files/149754.got.cif
#   From: 2010.05.17/outbox.cif.g08.bks.cpg/sg2_75_cif.got.tgz:149754.got - 2010.06.03 11:33:40.
