data_PCOD9012696
_publ_section_title
;
Structure prediction by ZEFSAII (Michael W. Deem and Ramdas Pophale) SiO2 
 PCOD9012696
Probable space group: P -1
;
_chemical_formula_sum "Si O2"
_cell_formula_units_Z 12
_cell_length_a 9.283708
_cell_length_b 11.735677
_cell_length_c 9.417987
_cell_angle_alpha 62.033537
_cell_angle_beta 99.180189
_cell_angle_gamma 141.633638
_cell_volume 520.386434
_symmetry_space_group_name_H-M "P -1"
_symmetry_group_IT_number 2
_symmetry_cell_setting 'triclinic'
loop_
_space_group_symop_operation_xyz
x,y,z
-x,-y,-z
loop_
_atom_site_type_symbol
_atom_site_label
_atom_site_fract_x
_atom_site_fract_y
_atom_site_fract_z
Si Si1 0.057639 0.445993 0.667410
Si Si2 0.565336 0.494602 0.245530
Si Si3 0.238402 0.803262 0.660251
Si Si4 0.074258 0.175465 0.506370
Si Si5 0.726009 0.828123 0.887807
Si Si6 0.470182 0.054828 0.108263
O O1 0.298275 0.528636 0.648304
O O2 0.096549 0.568621 0.735755
O O3 0.000000 0.500000 0.500000
O O4 0.819787 0.185048 0.772327
O O5 0.365271 0.406676 0.377605
O O6 0.419515 0.333265 0.178587
O O7 0.751574 0.732989 0.063354
O O8 0.076264 0.808086 0.582528
O O9 0.500000 0.000000 0.500000
O O10 0.330228 0.863616 0.800410
O O11 0.000000 0.000000 0.500000
O O12 0.976386 0.066378 0.712185
O O13 0.540703 0.799910 0.949180
O O14 0.500000 0.000000 0.000000
#
# Coordination Sequence:
#
# PCOD9012696 Si02
#       6
#     2   2   2   2   2   2
#     4  12  25  46  75 109 144 197 248 299 375 448
#     4  10  23  43  76 109 145 195 245 306 383 440
#     4  12  22  48  76  99 157 193 243 315 361 445
#     4  10  21  40  78 107 134 203 242 297 386 432
#     4  10  21  46  71 107 149 190 244 312 369 435
#     4  12  28  44  72 113 148 196 251 305 375 443
#
# _framework density 23.059785999999999
#
# number of rings (size 3 to 8) (size 9 to 14) (size 15 to 20)
#    0.000    1.000    5.000    1.000    2.333    5.333 
#    0.000    5.000    0.000    0.000    0.000    0.000 
#    0.000    0.000    0.000    0.000    0.000    0.000 
#
# Total GULP energy -66984.433716 kJ/mol
# GULP energy per Si atom -5582.036143 kJ/mol
# Density = 2.300730 g / cm^3
# Si number density = 23.059786 Si / 1000 Ang^3
#
#
#
# Elastic Constant Matrix: (Units=GPa)
#
#
# Indices 1 2 3 4 5 6 
#
# 1 176.9998 20.5368 68.8186 11.7158 8.2214 14.3488
# 2 20.5368 92.3526 34.0278 24.0783 4.5362 -2.9823
# 3 68.8186 34.0278 119.0104 23.0500 0.0754 5.3423
# 4 11.7158 24.0783 23.0500 40.0089 -1.3218 1.8460
# 5 8.2214 4.5362 0.0754 -1.3218 26.5570 8.7784
# 6 14.3488 -2.9823 5.3423 1.8460 8.7784 42.1112
#
#
#
# Elastic Compliance Matrix: (Units=1/GPa)
#
#
# Indices 1 2 3 4 5 6 
#
# 1 0.007535 -0.000161 -0.004311 0.000395 -0.001714 -0.001692
# 2 -0.000161 0.013915 -0.002628 -0.007039 -0.003465 0.002404
# 3 -0.004311 -0.002628 0.012495 -0.004277 0.001689 -0.000467
# 4 0.000395 -0.007039 -0.004277 0.031792 0.003399 -0.002193
# 5 -0.001714 -0.003465 0.001689 0.003399 0.041832 -0.008745
# 6 -0.001692 0.002404 -0.000467 -0.002193 -0.008745 0.026472
#
#
# Mechanical properties :
#
#
# Convention : Reuss Voigt Hill
#
# Bulk Modulus (GPa) = 50.64338 70.56991 60.60664
# Shear Modulus (GPa) = 32.29490 39.40073 35.84782
#
# Velocity S-wave (km/s) = 3.74637 4.13805 3.94707
# Velocity P-wave (km/s) = 6.38147 7.31442 6.86381
#
# Compressibility (1/GPa) = 0.01974592
#
# Stress axis : x y z
#
# Youngs Moduli (GPa) = 132.71347 71.86421 80.03126
#
# Poissons Ratio (x) = 0.01155 0.34499
# Poissons Ratio (y) = 0.02134 0.21034
# Poissons Ratio (z) = 0.57209 0.18887
#
# Static dielectric constant tensor:
#      x y z
#    x 28.351110 5.431100 0.053160 
#    y 5.431100 3.059710 0.027380 
#    z 0.053160 0.027380 1.927320 
# 
# From -- ./inp_files/171268.got.cif
#   From: 2010.05.17/outbox.cif.g08.bks.cpg/sg2_86_cif.got.tgz:171268.got - 2010.06.03 11:33:40.
