data_PCOD9012081
_publ_section_title
;
Structure prediction by ZEFSAII (Michael W. Deem and Ramdas Pophale) SiO2 
 PCOD9012081
Probable space group: P -1
;
_chemical_formula_sum "Si O2"
_cell_formula_units_Z 16
_cell_length_a 26.278362
_cell_length_b 11.248719
_cell_length_c 9.220623
_cell_angle_alpha 44.131362
_cell_angle_beta 42.620438
_cell_angle_gamma 22.484195
_cell_volume 698.242384
_symmetry_space_group_name_H-M "P -1"
_symmetry_group_IT_number 2
_symmetry_cell_setting 'triclinic'
loop_
_space_group_symop_operation_xyz
x,y,z
-x,-y,-z
loop_
_atom_site_type_symbol
_atom_site_label
_atom_site_fract_x
_atom_site_fract_y
_atom_site_fract_z
Si Si1 0.120666 0.374167 0.276177
Si Si2 0.436354 0.787076 0.708313
Si Si3 0.624080 0.831789 0.288841
Si Si4 0.162308 0.507676 0.333547
Si Si5 0.284695 0.830402 0.171033
Si Si6 0.996812 0.700206 0.772721
Si Si7 0.929622 0.218880 0.177181
Si Si8 0.444113 0.069903 0.214157
O O1 0.207746 0.301024 0.285754
O O2 0.000000 0.500000 0.500000
O O3 0.209025 0.094604 0.221268
O O4 0.055691 0.651421 0.076719
O O5 0.587191 0.488653 0.727107
O O6 0.338926 0.076866 0.771741
O O7 0.451614 0.867449 0.457731
O O8 0.360748 0.752037 0.929975
O O9 0.769947 0.462798 0.284262
O O10 0.500000 0.000000 0.500000
O O11 0.539795 0.009949 0.162686
O O12 0.280595 0.400394 0.248099
O O13 0.104287 0.503269 0.588319
O O14 0.036823 0.865276 0.231774
O O15 0.155374 0.970249 0.260024
O O16 0.037736 0.762099 0.751232
O O17 0.000000 0.500000 0.000000
O O18 0.500000 0.000000 0.000000
#
# Coordination Sequence:
#
# PCOD9012081 Si02
#       8
#     2   2   2   2   2   2   2   2
#     4  12  24  45  67  99 140 184 220 287 356 413
#     4  10  23  43  71  94 135 179 239 276 344 415
#     4  10  21  40  68  94 137 179 220 277 350 410
#     4  12  27  42  68 104 140 180 231 284 349 410
#     4  11  23  42  73  99 132 187 233 285 343 418
#     4  12  22  42  70 102 138 172 238 289 341 399
#     4  12  25  43  69 104 140 178 232 288 341 420
#     4  11  25  43  66  99 138 179 225 287 347 413
#
# _framework density 22.914680000000001
#
# number of rings (size 3 to 8) (size 9 to 14) (size 15 to 20)
#    0.000    0.750    3.750    3.750    5.250    1.000 
#    0.000    0.625    0.000    0.000    0.000    0.000 
#    0.000    0.000    0.000    0.000    0.000    0.000 
#
# Total GULP energy -89185.374215 kJ/mol
# GULP energy per Si atom -5574.085888 kJ/mol
# Density = 2.286252 g / cm^3
# Si number density = 22.914680 Si / 1000 Ang^3
#
#
#
# Elastic Constant Matrix: (Units=GPa)
#
#
# Indices 1 2 3 4 5 6 
#
# 1 95.9119 19.2260 13.6353 7.4713 24.8969 -10.1931
# 2 19.2260 121.5870 37.4489 9.5712 -6.0004 -22.2977
# 3 13.6353 37.4489 160.4049 21.7429 16.9391 4.8555
# 4 7.4713 9.5712 21.7429 28.6579 -7.5220 -8.7424
# 5 24.8969 -6.0004 16.9391 -7.5220 37.0499 3.4210
# 6 -10.1931 -22.2977 4.8555 -8.7424 3.4210 36.8654
#
#
#
# Elastic Compliance Matrix: (Units=1/GPa)
#
#
# Indices 1 2 3 4 5 6 
#
# 1 0.014716 -0.002541 0.001550 -0.006899 -0.012582 0.001859
# 2 -0.002541 0.010921 -0.003474 0.002993 0.005063 0.006600
# 3 0.001550 -0.003474 0.009087 -0.009392 -0.007257 -0.004423
# 4 -0.006899 0.002993 -0.009392 0.051268 0.018756 0.011557
# 5 -0.012582 0.005063 -0.007257 0.018756 0.043302 0.000969
# 6 0.001859 0.006600 -0.004423 0.011557 0.000969 0.034865
#
#
# Mechanical properties :
#
#
# Convention : Reuss Voigt Hill
#
# Bulk Modulus (GPa) = 38.76914 57.61378 48.19146
# Shear Modulus (GPa) = 27.51978 41.02086 34.27032
#
# Velocity S-wave (km/s) = 3.46926 4.23561 3.87145
# Velocity P-wave (km/s) = 5.74485 7.00842 6.40785
#
# Compressibility (1/GPa) = 0.02579371
#
# Stress axis : x y z
#
# Youngs Moduli (GPa) = 67.95220 91.56675 110.04892
#
# Poissons Ratio (x) = 0.23269 -0.17056
# Poissons Ratio (y) = 0.17268 0.38229
# Poissons Ratio (z) = -0.10531 0.31808
#
# Static dielectric constant tensor:
#      x y z
#    x 2.103820 0.131850 -0.076930 
#    y 0.131850 1.938210 -0.037380 
#    z -0.076930 -0.037380 1.966140 
# 
# From -- ./inp_files/357054.got.cif
#   From: 2010.05.17/outbox.cif.g08.bks.cpg/sg2_179_cif.got.tgz:357054.got - 2010.06.03 11:33:40.
