data_PCOD9012610
_publ_section_title
;
Structure prediction by ZEFSAII (Michael W. Deem and Ramdas Pophale) SiO2 
 PCOD9012610
Probable space group: P -1
;
_chemical_formula_sum "Si O2"
_cell_formula_units_Z 12
_cell_length_a 8.724993
_cell_length_b 15.672253
_cell_length_c 12.077022
_cell_angle_alpha 154.420706
_cell_angle_beta 49.617167
_cell_angle_gamma 139.007563
_cell_volume 464.537374
_symmetry_space_group_name_H-M "P -1"
_symmetry_group_IT_number 2
_symmetry_cell_setting 'triclinic'
loop_
_space_group_symop_operation_xyz
x,y,z
-x,-y,-z
loop_
_atom_site_type_symbol
_atom_site_label
_atom_site_fract_x
_atom_site_fract_y
_atom_site_fract_z
Si Si1 0.582657 0.023994 0.637595
Si Si2 0.135799 0.621318 0.245361
Si Si3 0.559760 0.139790 0.250800
Si Si4 0.751079 0.712070 0.098679
Si Si5 0.988938 0.121401 0.035765
Si Si6 0.684350 0.653643 0.498946
O O1 0.319020 0.834107 0.491839
O O2 0.560507 0.020194 0.774121
O O3 0.750256 0.927846 0.406201
O O4 0.704044 0.274816 0.818079
O O5 0.882891 0.592052 0.313533
O O6 0.089817 0.378169 0.028006
O O7 0.835768 0.241073 0.260573
O O8 0.467309 0.316324 0.489875
O O9 0.500000 0.000000 0.000000
O O10 0.500000 0.500000 0.000000
O O11 0.784769 0.732258 0.974730
O O12 0.841202 0.908432 0.773406
O O13 0.000000 0.000000 0.000000
O O14 0.500000 0.500000 0.500000
#
# Coordination Sequence:
#
# PCOD9012610 Si02
#       6
#     2   2   2   2   2   2
#     4  10  21  43  71  97 137 180 236 292 337 410
#     4  10  21  40  72 101 134 180 236 282 345 411
#     4  10  24  42  64  97 138 182 226 284 356 409
#     4  10  22  40  69 106 133 171 237 290 343 403
#     4  11  23  43  72  98 141 185 235 294 340 409
#     4  11  23  42  64  98 145 181 226 279 357 421
#
# _framework density 25.832151
#
# number of rings (size 3 to 8) (size 9 to 14) (size 15 to 20)
#    0.000    1.667    1.667    2.000    4.667    3.333 
#    3.000    6.667    0.000    0.000    0.000    0.000 
#    0.000    0.000    0.000    0.000    0.000    0.000 
#
# Total GULP energy -67079.849528 kJ/mol
# GULP energy per Si atom -5589.987461 kJ/mol
# Density = 2.577336 g / cm^3
# Si number density = 25.832151 Si / 1000 Ang^3
#
#
#
# Elastic Constant Matrix: (Units=GPa)
#
#
# Indices 1 2 3 4 5 6 
#
# 1 157.4128 76.3263 62.0367 -25.6217 -37.2570 -2.1502
# 2 76.3263 197.7007 22.4479 -25.3209 3.1802 -22.2292
# 3 62.0367 22.4479 76.9019 -4.8457 -3.5275 3.4984
# 4 -25.6217 -25.3209 -4.8457 37.1872 2.4329 0.9118
# 5 -37.2570 3.1802 -3.5275 2.4329 47.7248 -10.7716
# 6 -2.1502 -22.2292 3.4984 0.9118 -10.7716 56.2488
#
#
#
# Elastic Compliance Matrix: (Units=1/GPa)
#
#
# Indices 1 2 3 4 5 6 
#
# 1 0.017369 -0.004528 -0.011774 0.006442 0.013117 0.002014
# 2 -0.004528 0.007184 0.001442 0.002150 -0.003599 0.001852
# 3 -0.011774 0.001442 0.021598 -0.003718 -0.008115 -0.002717
# 4 0.006442 0.002150 -0.003718 0.032057 0.003302 0.001440
# 5 0.013117 -0.003599 -0.008115 0.003302 0.031940 0.005647
# 6 0.002014 0.001852 -0.002717 0.001440 0.005647 0.019814
#
#
# Mechanical properties :
#
#
# Convention : Reuss Voigt Hill
#
# Bulk Modulus (GPa) = 60.86167 83.73744 72.29956
# Shear Modulus (GPa) = 30.27364 46.31246 38.29305
#
# Velocity S-wave (km/s) = 3.42707 4.23877 3.85435
# Velocity P-wave (km/s) = 6.26668 7.51283 6.91787
#
# Compressibility (1/GPa) = 0.01643070
#
# Stress axis : x y z
#
# Youngs Moduli (GPa) = 57.57287 139.19535 46.30106
#
# Poissons Ratio (x) = 0.63032 0.54515
# Poissons Ratio (y) = 0.26071 -0.06677
# Poissons Ratio (z) = 0.67786 -0.20072
#
# Static dielectric constant tensor:
#      x y z
#    x 2.168040 0.018600 -0.096610 
#    y 0.018600 2.050950 0.063600 
#    z -0.096610 0.063600 2.158530 
# 
# From -- ./inp_files/158139.got.cif
#   From: 2010.05.17/outbox.cif.g08.bks.cpg/sg2_80_cif.got.tgz:158139.got - 2010.06.03 11:33:40.
