data_PCOD9012743
_publ_section_title
;
Structure prediction by ZEFSAII (Michael W. Deem and Ramdas Pophale) SiO2 
 PCOD9012743
Probable space group: P -1
;
_chemical_formula_sum "Si O2"
_cell_formula_units_Z 8
_cell_length_a 6.163427
_cell_length_b 8.712317
_cell_length_c 7.792516
_cell_angle_alpha 128.058271
_cell_angle_beta 87.446933
_cell_angle_gamma 69.404627
_cell_volume 288.369276
_symmetry_space_group_name_H-M "P -1"
_symmetry_group_IT_number 2
_symmetry_cell_setting 'triclinic'
loop_
_space_group_symop_operation_xyz
x,y,z
-x,-y,-z
loop_
_atom_site_type_symbol
_atom_site_label
_atom_site_fract_x
_atom_site_fract_y
_atom_site_fract_z
Si Si1 0.151051 0.674308 0.513549
Si Si2 0.895618 0.434814 0.199783
Si Si3 0.562050 0.789666 0.966807
Si Si4 0.581455 0.184600 0.659914
O O1 0.118745 0.710742 0.742143
O O2 0.373655 0.420773 0.301075
O O3 0.218443 0.821348 0.486882
O O4 0.926110 0.637100 0.427645
O O5 0.655303 0.569039 0.187353
O O6 0.166538 0.287955 0.007454
O O7 0.362262 0.836972 0.154025
O O8 0.500000 0.000000 0.000000
O O9 0.500000 0.000000 0.500000
#
# Coordination Sequence:
#
# PCOD9012743 Si02
#       4
#     2   2   2   2
#     4   9  21  41  63  82 122 151 193 243 291 339
#     4   9  21  41  63  83 119 152 197 239 292 338
#     4  10  21  41  60  86 119 154 195 239 292 343
#     4  12  23  37  62  91 117 153 198 236 289 352
#
# _framework density 27.742204999999998
#
# number of rings (size 3 to 8) (size 9 to 14) (size 15 to 20)
#    1.500    0.500    0.000    3.750    0.000    1.000 
#    0.000    2.500    0.000    0.000    0.000    0.000 
#    0.000    0.000    0.000    0.000    0.000    0.000 
#
# Total GULP energy -44728.173331 kJ/mol
# GULP energy per Si atom -5591.021666 kJ/mol
# Density = 2.767906 g / cm^3
# Si number density = 27.742205 Si / 1000 Ang^3
#
#
#
# Elastic Constant Matrix: (Units=GPa)
#
#
# Indices 1 2 3 4 5 6 
#
# 1 64.0495 37.3432 -6.0743 -8.1982 -17.6696 8.2368
# 2 37.3432 218.0543 55.5890 -37.3678 -11.9556 41.4122
# 3 -6.0743 55.5890 97.9234 -21.6642 -4.9063 23.7123
# 4 -8.1982 -37.3678 -21.6642 69.2203 15.8459 -16.0174
# 5 -17.6696 -11.9556 -4.9063 15.8459 41.0531 1.5301
# 6 8.2368 41.4122 23.7123 -16.0174 1.5301 61.9144
#
#
#
# Elastic Compliance Matrix: (Units=1/GPa)
#
#
# Indices 1 2 3 4 5 6 
#
# 1 0.020911 -0.003915 0.004323 -0.000812 0.008774 -0.002246
# 2 -0.003915 0.006776 -0.003160 0.001834 -0.000711 -0.002309
# 3 0.004323 -0.003160 0.013564 0.001855 0.001966 -0.003225
# 4 -0.000812 0.001834 0.001855 0.018161 -0.006717 0.003035
# 5 0.008774 -0.000711 0.001966 -0.006717 0.030903 -0.003946
# 6 -0.002246 -0.002309 -0.003225 0.003035 -0.003946 0.020112
#
#
# Mechanical properties :
#
#
# Convention : Reuss Voigt Hill
#
# Bulk Modulus (GPa) = 27.97403 61.52700 44.75052
# Shear Modulus (GPa) = 39.10970 53.98219 46.54594
#
# Velocity S-wave (km/s) = 3.75874 4.41597 4.10054
# Velocity P-wave (km/s) = 5.37987 6.94459 6.21169
#
# Compressibility (1/GPa) = 0.03574744
#
# Stress axis : x y z
#
# Youngs Moduli (GPa) = 47.82215 147.58318 73.72455
#
# Poissons Ratio (x) = 0.57776 -0.31873
# Poissons Ratio (y) = 0.18721 0.23298
# Poissons Ratio (z) = -0.20675 0.46639
#
# Static dielectric constant tensor:
#      x y z
#    x 2.323570 0.003540 0.030440 
#    y 0.003540 2.119370 -0.002850 
#    z 0.030440 -0.002850 2.115790 
# 
# From -- ./inp_files/16119.got.cif
#   From: 2010.05.17/outbox.cif.g08.bks.cpg/sg2_9_cif.got.tgz:16119.got - 2010.06.03 11:33:40.
