data_PCOD9012490
_publ_section_title
;
Structure prediction by ZEFSAII (Michael W. Deem and Ramdas Pophale) SiO2 
 PCOD9012490
Probable space group: P -1
;
_chemical_formula_sum "Si O2"
_cell_formula_units_Z 16
_cell_length_a 13.727400
_cell_length_b 9.547716
_cell_length_c 15.076896
_cell_angle_alpha 74.260590
_cell_angle_beta 35.429190
_cell_angle_gamma 98.831675
_cell_volume 817.192350
_symmetry_space_group_name_H-M "P -1"
_symmetry_group_IT_number 2
_symmetry_cell_setting 'triclinic'
loop_
_space_group_symop_operation_xyz
x,y,z
-x,-y,-z
loop_
_atom_site_type_symbol
_atom_site_label
_atom_site_fract_x
_atom_site_fract_y
_atom_site_fract_z
Si Si1 0.009011 0.402994 0.240118
Si Si2 0.259287 0.014241 0.566508
Si Si3 0.083695 0.027654 0.032554
Si Si4 0.235368 0.595871 0.857229
Si Si5 0.050524 0.308709 0.701214
Si Si6 0.541531 0.552930 0.356082
Si Si7 0.759220 0.692572 0.786469
Si Si8 0.976260 0.901771 0.403238
O O1 0.121513 0.363658 0.235519
O O2 0.814861 0.191063 0.373316
O O3 0.946060 0.518745 0.312511
O O4 0.181337 0.545784 0.009318
O O5 0.083234 0.973793 0.779349
O O6 0.524491 0.177748 0.369297
O O7 0.201073 0.090239 0.514750
O O8 0.339897 0.231434 0.800682
O O9 0.076154 0.857737 0.100363
O O10 0.000000 0.000000 0.000000
O O11 0.291288 0.473562 0.795033
O O12 0.000000 0.500000 0.000000
O O13 0.307175 0.403849 0.505469
O O14 0.967704 0.196391 0.688677
O O15 0.500000 0.500000 0.500000
O O16 0.872918 0.780789 0.591130
O O17 0.500000 0.500000 0.000000
O O18 0.808876 0.871734 0.771572
#
# Coordination Sequence:
#
# PCOD9012490 Si02
#       8
#     2   2   2   2   2   2   2   2
#     4  11  25  41  63  98 131 167 216 269 330 380
#     4  10  21  42  63  90 130 171 217 266 320 391
#     4  11  21  38  64  86 121 175 220 261 322 379
#     4  12  24  39  64  92 130 171 221 272 315 385
#     4  11  24  41  63  93 135 167 216 272 318 387
#     4  12  22  41  64  91 125 177 220 263 320 378
#     4  10  21  40  70  95 123 167 214 265 330 396
#     4   9  20  40  66  92 124 169 213 260 328 386
#
# _framework density 19.579235000000001
#
# number of rings (size 3 to 8) (size 9 to 14) (size 15 to 20)
#    0.000    1.250    5.000    1.500    0.000    2.000 
#    0.000    0.625    0.000    0.000    0.000    0.000 
#    0.000    0.000    0.000    0.000    0.000    0.000 
#
# Total GULP energy -89247.763893 kJ/mol
# GULP energy per Si atom -5577.985243 kJ/mol
# Density = 1.953467 g / cm^3
# Si number density = 19.579235 Si / 1000 Ang^3
#
#
#
# Elastic Constant Matrix: (Units=GPa)
#
#
# Indices 1 2 3 4 5 6 
#
# 1 91.3878 43.6502 47.0650 -1.9277 13.5193 10.7040
# 2 43.6502 127.2703 29.1303 -11.2854 6.9711 -0.5033
# 3 47.0650 29.1303 83.0998 -25.6958 2.2687 -0.7229
# 4 -1.9277 -11.2854 -25.6958 47.3120 9.0400 -1.9371
# 5 13.5193 6.9711 2.2687 9.0400 29.9936 -1.4280
# 6 10.7040 -0.5033 -0.7229 -1.9371 -1.4280 27.0434
#
#
#
# Elastic Compliance Matrix: (Units=1/GPa)
#
#
# Indices 1 2 3 4 5 6 
#
# 1 0.021512 -0.004800 -0.012320 -0.006162 -0.006253 -0.009705
# 2 -0.004800 0.009746 0.000085 0.002405 -0.000727 0.002218
# 3 -0.012320 0.000085 0.022747 0.012040 0.000487 0.006374
# 4 -0.006162 0.002405 0.012040 0.029597 -0.007397 0.004535
# 5 -0.006253 -0.000727 0.000487 -0.007397 0.038711 0.003989
# 6 -0.009705 0.002218 0.006374 0.004535 0.003989 0.041566
#
#
# Mechanical properties :
#
#
# Convention : Reuss Voigt Hill
#
# Bulk Modulus (GPa) = 50.16498 60.16101 55.16299
# Shear Modulus (GPa) = 24.43868 32.99727 28.71798
#
# Velocity S-wave (km/s) = 3.53681 4.10972 3.83398
# Velocity P-wave (km/s) = 6.50814 7.30160 6.91626
#
# Compressibility (1/GPa) = 0.01993423
#
# Stress axis : x y z
#
# Youngs Moduli (GPa) = 46.48593 102.60545 43.96240
#
# Poissons Ratio (x) = 0.49255 0.54162
# Poissons Ratio (y) = 0.22315 -0.00375
# Poissons Ratio (z) = 0.57271 -0.00874
#
# Static dielectric constant tensor:
#      x y z
#    x 1.652020 0.033660 -0.092990 
#    y 0.033660 1.772120 -0.075240 
#    z -0.092990 -0.075240 1.587640 
# 
# From -- ./inp_files/529624.got.cif
#   From: 2010.05.17/outbox.cif.g08.bks.cpg/sg2_265_cif.got.tgz:529624.got - 2010.06.03 11:33:40.
