data_PCOD9012679
_publ_section_title
;
Structure prediction by ZEFSAII (Michael W. Deem and Ramdas Pophale) SiO2 
 PCOD9012679
Probable space group: P -1
;
_chemical_formula_sum "Si O2"
_cell_formula_units_Z 16
_cell_length_a 12.164159
_cell_length_b 12.878187
_cell_length_c 7.440785
_cell_angle_alpha 48.096042
_cell_angle_beta 128.648866
_cell_angle_gamma 130.053295
_cell_volume 624.034875
_symmetry_space_group_name_H-M "P -1"
_symmetry_group_IT_number 2
_symmetry_cell_setting 'triclinic'
loop_
_space_group_symop_operation_xyz
x,y,z
-x,-y,-z
loop_
_atom_site_type_symbol
_atom_site_label
_atom_site_fract_x
_atom_site_fract_y
_atom_site_fract_z
Si Si1 0.055367 0.880237 0.413260
Si Si2 0.113090 0.428085 0.274536
Si Si3 0.691986 0.890553 0.443804
Si Si4 0.610765 0.388714 0.096560
Si Si5 0.556106 0.398480 0.438817
Si Si6 0.164041 0.948582 0.059539
Si Si7 0.866381 0.693426 0.939022
Si Si8 0.507924 0.063730 0.234230
O O1 0.983142 0.700593 0.537419
O O2 0.169279 0.933983 0.297667
O O3 0.149317 0.961921 0.593004
O O4 0.917608 0.935058 0.188557
O O5 0.274234 0.541855 0.379991
O O6 0.144403 0.333018 0.254229
O O7 0.000000 0.500000 0.000000
O O8 0.563852 0.736795 0.409728
O O9 0.771779 0.798856 0.759258
O O10 0.585658 0.978110 0.291610
O O11 0.558645 0.340268 0.303983
O O12 0.599224 0.243710 0.138932
O O13 0.503494 0.466385 0.807311
O O14 0.776245 0.526680 0.118561
O O15 0.328943 0.014444 0.060458
O O16 0.041340 0.784818 0.063723
O O17 0.500000 0.000000 0.500000
#
# Coordination Sequence:
#
# PCOD9012679 Si02
#       8
#     2   2   2   2   2   2   2   2
#     4  10  21  44  68  98 132 174 228 283 340 398
#     4  12  28  43  65  96 146 188 227 268 331 417
#     4  10  22  40  67  97 130 162 221 289 340 394
#     4  10  21  40  74  99 127 173 228 289 340 392
#     4  10  21  44  68  98 132 174 228 283 340 398
#     4  10  21  40  74  99 127 173 228 289 340 392
#     4  10  25  44  64  95 135 185 222 265 341 414
#     4  12  21  35  66 107 133 155 219 297 346 387
#
# _framework density 25.639590999999999
#
# number of rings (size 3 to 8) (size 9 to 14) (size 15 to 20)
#    0.000    1.500    2.500    1.500    3.500    6.000 
#    0.000    3.750    0.000    0.000    0.000    0.000 
#    0.000    0.000    0.000    0.000    0.000    0.000 
#
# Total GULP energy -89424.845118 kJ/mol
# GULP energy per Si atom -5589.052820 kJ/mol
# Density = 2.558123 g / cm^3
# Si number density = 25.639591 Si / 1000 Ang^3
#
#
#
# Elastic Constant Matrix: (Units=GPa)
#
#
# Indices 1 2 3 4 5 6 
#
# 1 93.1473 33.3986 27.1217 -3.8360 14.7055 8.7275
# 2 33.3986 183.9952 56.2975 3.8872 25.7255 23.1436
# 3 27.1217 56.2975 74.6466 8.5941 24.4320 5.4147
# 4 -3.8360 3.8872 8.5941 43.8623 2.2448 3.7196
# 5 14.7055 25.7255 24.4320 2.2448 37.0374 7.6656
# 6 8.7275 23.1436 5.4147 3.7196 7.6656 49.3573
#
#
#
# Elastic Compliance Matrix: (Units=1/GPa)
#
#
# Indices 1 2 3 4 5 6 
#
# 1 0.012552 -0.000832 -0.003419 0.002054 -0.002007 -0.001298
# 2 -0.000832 0.007578 -0.004889 0.000505 -0.001175 -0.002726
# 3 -0.003419 -0.004889 0.021840 -0.003835 -0.009903 0.002328
# 4 0.002054 0.000505 -0.003835 0.023840 0.000339 -0.002028
# 5 -0.002007 -0.001175 -0.009903 0.000339 0.035871 -0.003604
# 6 -0.001298 -0.002726 0.002328 -0.002028 -0.003604 0.022225
#
#
# Mechanical properties :
#
#
# Convention : Reuss Voigt Hill
#
# Bulk Modulus (GPa) = 42.21049 65.04719 53.62884
# Shear Modulus (GPa) = 33.31497 41.71614 37.51556
#
# Velocity S-wave (km/s) = 3.60857 4.03801 3.82931
# Velocity P-wave (km/s) = 5.81903 6.86772 6.36501
#
# Compressibility (1/GPa) = 0.02369079
#
# Stress axis : x y z
#
# Youngs Moduli (GPa) = 79.66573 131.95589 45.78789
#
# Poissons Ratio (x) = 0.10980 0.15654
# Poissons Ratio (y) = 0.06629 0.22386
# Poissons Ratio (z) = 0.27236 0.64514
#
# Static dielectric constant tensor:
#      x y z
#    x 2.092370 -0.008830 -0.125330 
#    y -0.008830 2.105910 0.052330 
#    z -0.125330 0.052330 2.137320 
# 
# From -- ./inp_files/314503.got.cif
#   From: 2010.05.17/outbox.cif.g08.bks.cpg/sg2_158_cif.got.tgz:314503.got - 2010.06.03 11:33:40.
