data_PCOD9012895
_publ_section_title
;
Structure prediction by ZEFSAII (Michael W. Deem and Ramdas Pophale) SiO2 
 PCOD9012895
Probable space group: P -1
;
_chemical_formula_sum "Si O2"
_cell_formula_units_Z 16
_cell_length_a 12.331609
_cell_length_b 7.952648
_cell_length_c 16.870536
_cell_angle_alpha 43.530838
_cell_angle_beta 133.559901
_cell_angle_gamma 134.347920
_cell_volume 756.984816
_symmetry_space_group_name_H-M "P -1"
_symmetry_group_IT_number 2
_symmetry_cell_setting 'triclinic'
loop_
_space_group_symop_operation_xyz
x,y,z
-x,-y,-z
loop_
_atom_site_type_symbol
_atom_site_label
_atom_site_fract_x
_atom_site_fract_y
_atom_site_fract_z
Si Si1 0.061681 0.267129 0.495631
Si Si2 0.425973 0.735899 0.494681
Si Si3 0.573369 0.482149 0.767743
Si Si4 0.429459 0.125922 0.236757
Si Si5 0.231611 0.039521 0.758677
Si Si6 0.768004 0.333820 0.252304
Si Si7 0.840579 0.869896 0.018403
Si Si8 0.165729 0.746999 0.985178
O O1 0.238617 0.514560 0.485941
O O2 0.920033 0.370944 0.373584
O O3 0.090711 0.147132 0.634488
O O4 0.000000 0.000000 0.500000
O O5 0.539172 0.582465 0.630807
O O6 0.500000 0.000000 0.500000
O O7 0.433877 0.861680 0.369302
O O8 0.628019 0.726081 0.773535
O O9 0.691841 0.331011 0.882464
O O10 0.398183 0.282884 0.779966
O O11 0.609722 0.293524 0.237391
O O12 0.305097 0.094662 0.114323
O O13 0.264929 0.922268 0.732668
O O14 0.191043 0.824008 0.880049
O O15 0.807637 0.571577 0.128413
O O16 0.850950 0.014577 0.057228
O O17 0.000000 0.000000 0.000000
O O18 0.000000 0.500000 0.000000
#
# Coordination Sequence:
#
# PCOD9012895 Si02
#       8
#     2   2   2   2   2   2   2   2
#     4   9  20  39  63  90 124 165 208 256 310 368
#     4   9  20  39  63  90 124 165 208 256 310 368
#     4  10  21  41  62  87 123 161 201 248 303 368
#     4  11  22  39  63  93 124 163 206 256 310 367
#     4  10  21  41  62  87 123 161 201 248 303 368
#     4  11  22  39  63  93 124 163 206 256 310 367
#     4  12  25  42  61  88 122 160 206 260 312 373
#     4  12  25  40  61  88 116 158 204 252 309 365
#
# _framework density 21.136489000000001
#
# number of rings (size 3 to 8) (size 9 to 14) (size 15 to 20)
#    0.000    1.500    0.000    5.250    0.000    3.000 
#    0.000   20.000    0.000    0.000    0.000    0.000 
#    0.000    0.000    0.000    0.000    0.000    0.000 
#
# Total GULP energy -89247.968690 kJ/mol
# GULP energy per Si atom -5577.998043 kJ/mol
# Density = 2.108838 g / cm^3
# Si number density = 21.136489 Si / 1000 Ang^3
#
#
#
# Elastic Constant Matrix: (Units=GPa)
#
#
# Indices 1 2 3 4 5 6 
#
# 1 35.6352 12.5704 24.0251 -1.8116 52.7734 -5.4068
# 2 12.5704 85.7082 30.7871 4.2360 -8.0276 10.4065
# 3 24.0251 30.7871 164.3604 -0.7225 6.1396 34.3229
# 4 -1.8116 4.2360 -0.7225 38.4322 17.7667 -1.8365
# 5 52.7734 -8.0276 6.1396 17.7667 -74.4276 17.5522
# 6 -5.4068 10.4065 34.3229 -1.8365 17.5522 33.7702
#
#
#
# Elastic Compliance Matrix: (Units=1/GPa)
#
#
# Indices 1 2 3 4 5 6 
#
# 1 0.015270 -0.000213 -0.002538 -0.003795 0.009698 -0.000157
# 2 -0.000213 0.012373 -0.002056 -0.000541 -0.001965 -0.000766
# 3 -0.002538 -0.002056 0.008405 0.000996 -0.002312 -0.007060
# 4 -0.003795 -0.000541 0.000996 0.024495 0.002911 -0.001635
# 5 0.009698 -0.001965 -0.002312 0.002911 -0.004225 0.006862
# 6 -0.000157 -0.000766 -0.007060 -0.001635 0.006862 0.033343
#
#
# Mechanical properties :
#
#
# Convention : Reuss Voigt Hill
#
# Bulk Modulus (GPa) = 37.82946 46.71881 42.27413
# Shear Modulus (GPa) = 46.25929 14.10971 30.18450
#
# Velocity S-wave (km/s) = 4.68332 2.58651 3.78309
# Velocity P-wave (km/s) = 6.86886 5.57417 6.25510
#
# Compressibility (1/GPa) = 0.02643443
#
# Stress axis : x y z
#
# Youngs Moduli (GPa) = 65.48821 80.82261 118.97175
#
# Poissons Ratio (x) = 0.01720 0.30200
# Poissons Ratio (y) = 0.01394 0.24455
# Poissons Ratio (z) = 0.16624 0.16613
#
# Static dielectric constant tensor:
#      x y z
#    x 1.799130 -0.012400 0.069670 
#    y -0.012400 1.743700 0.027870 
#    z 0.069670 0.027870 1.815610 
# 
# From -- ./inp_files/189283.got.cif
#   From: 2010.05.17/outbox.cif.g08.bks.cpg/sg2_95_cif.got.tgz:189283.got - 2010.06.03 11:33:40.
