data_PCOD9012188
_publ_section_title
;
Structure prediction by ZEFSAII (Michael W. Deem and Ramdas Pophale) SiO2 
 PCOD9012188
Probable space group: P -1
;
_chemical_formula_sum "Si O2"
_cell_formula_units_Z 16
_cell_length_a 9.889193
_cell_length_b 9.614219
_cell_length_c 13.809280
_cell_angle_alpha 87.975483
_cell_angle_beta 32.092783
_cell_angle_gamma 98.714829
_cell_volume 655.152468
_symmetry_space_group_name_H-M "P -1"
_symmetry_group_IT_number 2
_symmetry_cell_setting 'triclinic'
loop_
_space_group_symop_operation_xyz
x,y,z
-x,-y,-z
loop_
_atom_site_type_symbol
_atom_site_label
_atom_site_fract_x
_atom_site_fract_y
_atom_site_fract_z
Si Si1 0.557306 0.915747 0.374734
Si Si2 0.391302 0.137178 0.047939
Si Si3 0.518467 0.605220 0.369238
Si Si4 0.908209 0.832074 0.967094
Si Si5 0.607949 0.415642 0.015864
Si Si6 0.850796 0.606338 0.550084
Si Si7 0.908373 0.112310 0.490312
Si Si8 0.890293 0.424110 0.171990
O O1 0.877772 0.998831 0.158287
O O2 0.500000 0.000000 0.500000
O O3 0.468929 0.738817 0.454825
O O4 0.376124 0.931621 0.392285
O O5 0.289099 0.159301 0.002266
O O6 0.623240 0.273224 0.954435
O O7 0.131154 0.143823 0.268365
O O8 0.500000 0.000000 0.000000
O O9 0.272161 0.474300 0.472870
O O10 0.683703 0.509795 0.317399
O O11 0.699815 0.718636 0.172025
O O12 0.125022 0.744614 0.827618
O O13 0.407290 0.387903 0.230628
O O14 0.500000 0.500000 0.000000
O O15 0.888720 0.520526 0.880775
O O16 0.000000 0.500000 0.500000
O O17 0.065896 0.763962 0.446312
O O18 0.000000 0.000000 0.500000
O O19 0.000000 0.500000 0.000000
#
# Coordination Sequence:
#
# PCOD9012188 Si02
#       8
#     2   2   2   2   2   2   2   2
#     4  12  26  46  68  98 148 178 222 282 352 406
#     4  11  25  41  67 100 137 177 229 276 337 405
#     4  11  24  44  72 103 130 185 235 279 338 414
#     4  11  23  44  70 100 136 180 225 286 339 402
#     4  11  21  40  68  96 133 172 221 285 333 390
#     4  11  22  43  69  96 132 176 230 276 337 398
#     4  11  27  44  69  99 140 184 222 280 344 405
#     4  10  21  40  68  99 131 168 230 278 331 393
#
# _framework density 24.421797000000002
#
# number of rings (size 3 to 8) (size 9 to 14) (size 15 to 20)
#    0.000    1.000    6.250    0.375    5.250    2.000 
#    0.000    0.625    0.000    0.000    0.000    0.000 
#    0.000    0.000    0.000    0.000    0.000    0.000 
#
# Total GULP energy -89175.529836 kJ/mol
# GULP energy per Si atom -5573.470615 kJ/mol
# Density = 2.436621 g / cm^3
# Si number density = 24.421797 Si / 1000 Ang^3
#
#
#
# Elastic Constant Matrix: (Units=GPa)
#
#
# Indices 1 2 3 4 5 6 
#
# 1 104.4564 44.5587 -6.4760 -5.1981 -24.9937 -4.4953
# 2 44.5587 184.5904 -18.1206 10.4895 -3.4214 -0.7062
# 3 -6.4760 -18.1206 56.9853 9.3306 10.3250 12.5942
# 4 -5.1981 10.4895 9.3306 40.7640 5.4230 -7.0872
# 5 -24.9937 -3.4214 10.3250 5.4230 34.6130 -0.6956
# 6 -4.4953 -0.7062 12.5942 -7.0872 -0.6956 53.1377
#
#
#
# Elastic Compliance Matrix: (Units=1/GPa)
#
#
# Indices 1 2 3 4 5 6 
#
# 1 0.013384 -0.003369 -0.002087 0.002112 0.009663 0.001990
# 2 -0.003369 0.006618 0.002848 -0.002707 -0.002229 -0.001262
# 3 -0.002087 0.002848 0.021854 -0.006166 -0.006904 -0.006231
# 4 0.002112 -0.002707 -0.006166 0.027991 -0.001182 0.005322
# 5 0.009663 -0.002229 -0.006904 -0.001182 0.037948 0.002763
# 6 0.001990 -0.001262 -0.006231 0.005322 0.002763 0.021193
#
#
# Mechanical properties :
#
#
# Convention : Reuss Voigt Hill
#
# Bulk Modulus (GPa) = 27.29229 42.88400 35.08814
# Shear Modulus (GPa) = 34.14868 47.44093 40.79481
#
# Velocity S-wave (km/s) = 3.74342 4.41224 4.09152
# Velocity P-wave (km/s) = 5.46662 6.59962 6.05966
#
# Compressibility (1/GPa) = 0.03664039
#
# Stress axis : x y z
#
# Youngs Moduli (GPa) = 74.71637 151.10606 45.75732
#
# Poissons Ratio (x) = 0.50906 0.09548
# Poissons Ratio (y) = 0.25171 -0.13030
# Poissons Ratio (z) = 0.15591 -0.43030
#
# Static dielectric constant tensor:
#      x y z
#    x 1.737520 0.098380 0.207260 
#    y 0.098380 2.126850 -0.005960 
#    z 0.207260 -0.005960 2.092120 
# 
# From -- ./inp_files/495028.got.cif
#   From: 2010.05.17/outbox.cif.g08.bks.cpg/sg2_248_cif.got.tgz:495028.got - 2010.06.03 11:33:40.
