data_PCOD9012500
_publ_section_title
;
Structure prediction by ZEFSAII (Michael W. Deem and Ramdas Pophale) SiO2 
 PCOD9012500
Probable space group: P -1
;
_chemical_formula_sum "Si O2"
_cell_formula_units_Z 16
_cell_length_a 13.823671
_cell_length_b 6.626990
_cell_length_c 9.078548
_cell_angle_alpha 98.829896
_cell_angle_beta 105.810254
_cell_angle_gamma 103.728939
_cell_volume 755.882437
_symmetry_space_group_name_H-M "P -1"
_symmetry_group_IT_number 2
_symmetry_cell_setting 'triclinic'
loop_
_space_group_symop_operation_xyz
x,y,z
-x,-y,-z
loop_
_atom_site_type_symbol
_atom_site_label
_atom_site_fract_x
_atom_site_fract_y
_atom_site_fract_z
Si Si1 0.600951 0.120789 0.462595
Si Si2 0.884293 0.345227 0.402349
Si Si3 0.958963 0.145606 0.885398
Si Si4 0.551131 0.862317 0.111757
Si Si5 0.204314 0.000481 0.442251
Si Si6 0.310411 0.482888 0.609709
Si Si7 0.139412 0.559299 0.928712
Si Si8 0.644238 0.522147 0.029536
O O1 0.609074 0.363165 0.450973
O O2 0.500000 0.000000 0.500000
O O3 0.597786 0.003066 0.289034
O O4 0.709480 0.116687 0.583736
O O5 0.797110 0.452250 0.434793
O O6 0.866251 0.331487 0.218973
O O7 0.000000 0.500000 0.500000
O O8 0.857328 0.122783 0.454149
O O9 0.055604 0.324134 0.870792
O O10 0.882191 0.004649 0.716643
O O11 0.893955 0.288728 0.952759
O O12 0.000000 0.000000 0.000000
O O13 0.631442 0.760240 0.046750
O O14 0.457478 0.652257 0.096529
O O15 0.500000 0.000000 0.000000
O O16 0.275914 0.236272 0.532219
O O17 0.351731 0.519922 0.797746
O O18 0.251558 0.519144 0.995151
#
# Coordination Sequence:
#
# PCOD9012500 Si02
#       8
#     2   2   2   2   2   2   2   2
#     4  11  25  44  67  96 135 180 221 281 347 404
#     4  10  21  40  70  96 124 176 221 276 328 391
#     4  11  26  44  65 101 142 181 221 278 346 411
#     4  11  22  42  70  96 134 169 227 281 332 402
#     4  11  24  44  67  97 137 175 226 282 336 405
#     4  10  22  41  65  97 131 167 225 276 323 403
#     4  10  24  45  67  97 136 175 234 274 337 415
#     4  10  22  42  68  99 127 176 224 281 334 393
#
# _framework density 21.167311000000002
#
# number of rings (size 3 to 8) (size 9 to 14) (size 15 to 20)
#    0.000    1.500    3.750    0.000    3.500    5.000 
#    0.000    0.000    0.000    0.000    0.000    0.000 
#    0.000    0.000    0.000    0.000    0.000    0.000 
#
# Total GULP energy -89369.943743 kJ/mol
# GULP energy per Si atom -5585.621484 kJ/mol
# Density = 2.111913 g / cm^3
# Si number density = 21.167311 Si / 1000 Ang^3
#
#
#
# Elastic Constant Matrix: (Units=GPa)
#
#
# Indices 1 2 3 4 5 6 
#
# 1 95.0977 25.5056 13.2234 -9.8583 12.6076 5.2546
# 2 25.5056 126.0619 29.9442 -10.5913 3.6804 11.3328
# 3 13.2234 29.9442 46.9802 -9.0729 20.2949 -0.1995
# 4 -9.8583 -10.5913 -9.0729 32.5059 -0.1554 3.9552
# 5 12.6076 3.6804 20.2949 -0.1554 26.5375 -5.4977
# 6 5.2546 11.3328 -0.1995 3.9552 -5.4977 37.8483
#
#
#
# Elastic Compliance Matrix: (Units=1/GPa)
#
#
# Indices 1 2 3 4 5 6 
#
# 1 0.012375 -0.002181 0.001891 0.003845 -0.007529 -0.002550
# 2 -0.002181 0.010432 -0.008271 0.000716 0.005475 -0.002144
# 3 0.001891 -0.008271 0.041922 0.009826 -0.032438 -0.003304
# 4 0.003845 0.000716 0.009826 0.035578 -0.010462 -0.005934
# 5 -0.007529 0.005475 -0.032438 -0.010462 0.067341 0.010110
# 6 -0.002550 -0.002144 -0.003304 -0.005934 0.010110 0.029489
#
#
# Mechanical properties :
#
#
# Convention : Reuss Voigt Hill
#
# Bulk Modulus (GPa) = 21.00560 45.05403 33.02981
# Shear Modulus (GPa) = 21.72729 32.67610 27.20169
#
# Velocity S-wave (km/s) = 3.20731 3.93326 3.58869
# Velocity P-wave (km/s) = 4.86425 6.47753 5.72797
#
# Compressibility (1/GPa) = 0.04760636
#
# Stress axis : x y z
#
# Youngs Moduli (GPa) = 80.80761 95.86343 23.85410
#
# Poissons Ratio (x) = 0.20906 -0.04510
# Poissons Ratio (y) = 0.17623 0.19729
# Poissons Ratio (z) = -0.15279 0.79286
#
# Static dielectric constant tensor:
#      x y z
#    x 1.780020 -0.018260 0.002760 
#    y -0.018260 1.802070 -0.005620 
#    z 0.002760 -0.005620 1.749070 
# 
# From -- ./inp_files/81403.got.cif
#   From: 2010.05.17/outbox.cif.g08.bks.cpg/sg2_41_cif.got.tgz:81403.got - 2010.06.03 11:33:40.
