data_PCOD9012230
_publ_section_title
;
Structure prediction by ZEFSAII (Michael W. Deem and Ramdas Pophale) SiO2 
 PCOD9012230
Probable space group: P -1
;
_chemical_formula_sum "Si O2"
_cell_formula_units_Z 15
_cell_length_a 14.858550
_cell_length_b 10.595358
_cell_length_c 15.434831
_cell_angle_alpha 134.301701
_cell_angle_beta 18.514513
_cell_angle_gamma 136.781156
_cell_volume 528.082874
_symmetry_space_group_name_H-M "P -1"
_symmetry_group_IT_number 2
_symmetry_cell_setting 'triclinic'
loop_
_space_group_symop_operation_xyz
x,y,z
-x,-y,-z
loop_
_atom_site_type_symbol
_atom_site_label
_atom_site_fract_x
_atom_site_fract_y
_atom_site_fract_z
Si Si1 0.906961 0.054507 0.917351
Si Si2 0.313026 0.496819 0.584090
Si Si3 0.272147 0.844077 0.388690
Si Si4 0.691634 0.279904 0.074082
Si Si5 0.425964 0.563948 0.194388
Si Si6 0.755749 0.313191 0.841460
Si Si7 0.701771 0.301038 0.461673
Si Si8 0.000000 0.000000 0.000000
O O1 0.163327 0.002348 0.605945
O O2 0.773517 0.175521 0.031154
O O3 0.622578 0.872639 0.093271
O O4 0.966180 0.101498 0.985441
O O5 0.500000 0.500000 0.500000
O O6 0.425905 0.667824 0.499766
O O7 0.972181 0.464442 0.902744
O O8 0.384547 0.325829 0.387765
O O9 0.164820 0.659136 0.455413
O O10 0.202563 0.810607 0.335803
O O11 0.711575 0.212447 0.925702
O O12 0.537050 0.702803 0.246166
O O13 0.500000 0.500000 0.000000
O O14 0.467877 0.382702 0.118024
O O15 0.026073 0.506707 0.685064
O O16 0.814115 0.124482 0.279160
#
# Coordination Sequence:
#
# PCOD9012230 Si02
#       8
#     2   2   2   2   2   2   2   1
#     4  12  27  47  67 106 145 192 232 286 355 423
#     4  11  23  43  70 100 135 188 240 287 334 415
#     4  11  26  44  73 102 144 184 236 290 353 419
#     4  11  24  44  70 101 140 180 234 290 355 414
#     4  10  21  40  69 101 134 183 230 297 342 417
#     4  10  24  43  73 103 136 180 239 296 350 416
#     4  11  23  44  71 103 141 183 236 291 358 421
#     4  12  26  48  68 102 150 190 230 288 356 426
#
# _framework density 28.404634000000001
#
# number of rings (size 3 to 8) (size 9 to 14) (size 15 to 20)
#    0.000    1.067    2.667    2.800    3.733    3.733 
#    4.800    0.000    0.000    0.000    0.000    0.000 
#    0.000    0.000    0.000    0.000    0.000    0.000 
#
# Total GULP energy -83545.890692 kJ/mol
# GULP energy per Si atom -5569.726046 kJ/mol
# Density = 2.833998 g / cm^3
# Si number density = 28.404634 Si / 1000 Ang^3
#
#
#
# Elastic Constant Matrix: (Units=GPa)
#
#
# Indices 1 2 3 4 5 6 
#
# 1 232.3422 15.7547 46.3102 18.1041 21.8421 -34.0926
# 2 15.7547 186.9705 43.0326 14.1061 151.7077 -25.0698
# 3 46.3102 43.0326 144.9779 29.5465 21.1617 2.4310
# 4 18.1041 14.1061 29.5465 59.6539 -1.5247 -7.4719
# 5 21.8421 151.7077 21.1617 -1.5247 205.5584 -14.2744
# 6 -34.0926 -25.0698 2.4310 -7.4719 -14.2744 57.6376
#
#
#
# Elastic Compliance Matrix: (Units=1/GPa)
#
#
# Indices 1 2 3 4 5 6 
#
# 1 0.005246 0.001504 -0.001873 -0.000620 -0.001240 0.003449
# 2 0.001504 0.015911 -0.003167 -0.002330 -0.011257 0.004854
# 3 -0.001873 -0.003167 0.008992 -0.003474 0.001378 -0.002973
# 4 -0.000620 -0.002330 -0.003474 0.019523 0.002420 0.001896
# 5 -0.001240 -0.011257 0.001378 0.002420 0.013031 -0.002147
# 6 0.003449 0.004854 -0.002973 0.001896 -0.002147 0.021341
#
#
# Mechanical properties :
#
#
# Convention : Reuss Voigt Hill
#
# Bulk Modulus (GPa) = 43.32891 86.05396 64.69143
# Shear Modulus (GPa) = 50.60357 95.18287 72.89322
#
# Velocity S-wave (km/s) = 4.22539 5.79503 5.07131
# Velocity P-wave (km/s) = 6.25240 8.66822 7.55746
#
# Compressibility (1/GPa) = 0.02307928
#
# Stress axis : x y z
#
# Youngs Moduli (GPa) = 190.61276 62.85055 111.20432
#
# Poissons Ratio (x) = -0.09455 0.20826
# Poissons Ratio (y) = -0.28674 0.35214
# Poissons Ratio (z) = 0.35698 0.19902
#
# Static dielectric constant tensor:
#      x y z
#    x 1.516570 -0.702370 0.002460 
#    y -0.702370 2.171220 -0.420540 
#    z 0.002460 -0.420540 2.324320 
# 
# From -- ./inp_files/531923.got.cif
#   From: 2010.05.17/outbox.cif.g08.bks.cpg/sg2_266_cif.got.tgz:531923.got - 2010.06.03 11:33:40.
