data_PCOD9012956
_publ_section_title
;
Structure prediction by ZEFSAII (Michael W. Deem and Ramdas Pophale) SiO2 
 PCOD9012956
Probable space group: P -1
;
_chemical_formula_sum "Si O2"
_cell_formula_units_Z 16
_cell_length_a 15.395988
_cell_length_b 12.373247
_cell_length_c 9.246949
_cell_angle_alpha 101.069437
_cell_angle_beta 27.305990
_cell_angle_gamma 107.006395
_cell_volume 763.442409
_symmetry_space_group_name_H-M "P -1"
_symmetry_group_IT_number 2
_symmetry_cell_setting 'triclinic'
loop_
_space_group_symop_operation_xyz
x,y,z
-x,-y,-z
loop_
_atom_site_type_symbol
_atom_site_label
_atom_site_fract_x
_atom_site_fract_y
_atom_site_fract_z
Si Si1 0.240753 0.417384 0.704003
Si Si2 0.277826 0.500592 0.351780
Si Si3 0.520394 0.353427 0.484409
Si Si4 0.596491 0.908034 0.407610
Si Si5 0.839708 0.664113 0.765304
Si Si6 0.566763 0.043481 0.753029
Si Si7 0.129615 0.715178 0.609792
Si Si8 0.184056 0.095043 0.191550
O O1 0.216634 0.436572 0.576729
O O2 0.425786 0.374114 0.476021
O O3 0.287158 0.544108 0.741514
O O4 0.049826 0.328258 0.025289
O O5 0.160220 0.434997 0.372454
O O6 0.262919 0.629139 0.413935
O O7 0.500000 0.500000 0.000000
O O8 0.532995 0.223822 0.442869
O O9 0.356323 0.365286 0.850196
O O10 0.500000 0.000000 0.500000
O O11 0.622536 0.948677 0.544675
O O12 0.786552 0.911679 0.028128
O O13 0.834734 0.778834 0.717594
O O14 0.027193 0.694091 0.599516
O O15 0.747772 0.155697 0.518698
O O16 0.381357 0.077226 0.964698
O O17 0.500000 0.000000 0.000000
O O18 0.000000 0.000000 0.500000
#
# Coordination Sequence:
#
# PCOD9012956 Si02
#       8
#     2   2   2   2   2   2   2   2
#     4  10  22  40  64  96 129 175 211 271 327 391
#     4  12  23  39  64  98 128 169 216 268 333 383
#     4   9  19  41  65  92 132 164 219 264 327 393
#     4   9  21  39  67  92 125 174 214 266 329 387
#     4  10  21  41  62  91 129 170 213 269 324 386
#     4  11  24  44  64  96 131 172 222 276 331 393
#     4  11  25  43  62  92 135 169 218 272 327 398
#     4  10  21  42  66  93 127 172 219 274 326 392
#
# _framework density 20.957702000000001
#
# number of rings (size 3 to 8) (size 9 to 14) (size 15 to 20)
#    0.000    1.750    1.250    2.250    3.500    3.000 
#    6.750    8.750    0.000    0.000    0.000    0.000 
#    0.000    0.000    0.000    0.000    0.000    0.000 
#
# Total GULP energy -89399.676642 kJ/mol
# GULP energy per Si atom -5587.479790 kJ/mol
# Density = 2.091000 g / cm^3
# Si number density = 20.957702 Si / 1000 Ang^3
#
#
#
# Elastic Constant Matrix: (Units=GPa)
#
#
# Indices 1 2 3 4 5 6 
#
# 1 89.2788 20.8772 28.2168 -5.7547 12.8733 9.8026
# 2 20.8772 101.2184 35.5135 -26.3528 20.8598 1.7674
# 3 28.2168 35.5135 75.5435 -30.6549 2.6773 16.2566
# 4 -5.7547 -26.3528 -30.6549 36.6810 1.4103 -3.3133
# 5 12.8733 20.8598 2.6773 1.4103 28.6323 3.2471
# 6 9.8026 1.7674 16.2566 -3.3133 3.2471 34.9498
#
#
#
# Elastic Compliance Matrix: (Units=1/GPa)
#
#
# Indices 1 2 3 4 5 6 
#
# 1 0.013762 -0.000553 -0.005643 -0.002854 -0.005002 -0.001013
# 2 -0.000553 0.016116 -0.004029 0.008867 -0.011911 0.003162
# 3 -0.005643 -0.004029 0.025939 0.016963 0.003229 -0.008971
# 4 -0.002854 0.008867 0.016963 0.047501 -0.008852 -0.002213
# 5 -0.005002 -0.011911 0.003229 -0.008852 0.046514 -0.004658
# 6 -0.001013 0.003162 -0.008971 -0.002213 -0.004658 0.033132
#
#
# Mechanical properties :
#
#
# Convention : Reuss Voigt Hill
#
# Bulk Modulus (GPa) = 28.27637 48.36175 38.31906
# Shear Modulus (GPa) = 23.23374 32.14815 27.69094
#
# Velocity S-wave (km/s) = 3.33318 3.92082 3.63888
# Velocity P-wave (km/s) = 5.32305 6.60478 5.99825
#
# Compressibility (1/GPa) = 0.03536522
#
# Stress axis : x y z
#
# Youngs Moduli (GPa) = 72.66284 62.05186 38.55223
#
# Poissons Ratio (x) = 0.03432 0.21755
# Poissons Ratio (y) = 0.04019 0.15534
# Poissons Ratio (z) = 0.41004 0.25004
#
# Static dielectric constant tensor:
#      x y z
#    x 1.818870 0.009900 0.005020 
#    y 0.009900 1.761470 0.017260 
#    z 0.005020 0.017260 1.752880 
# 
# From -- ./inp_files/205849.got.cif
#   From: 2010.05.17/outbox.cif.g08.bks.cpg/sg2_103_cif.got.tgz:205849.got - 2010.06.03 11:33:40.
