data_PCOD9012435
_publ_section_title
;
Structure prediction by ZEFSAII (Michael W. Deem and Ramdas Pophale) SiO2 
 PCOD9012435
Probable space group: P -1
;
_chemical_formula_sum "Si O2"
_cell_formula_units_Z 16
_cell_length_a 16.744069
_cell_length_b 14.004964
_cell_length_c 11.030742
_cell_angle_alpha 159.630006
_cell_angle_beta 49.379763
_cell_angle_gamma 127.938071
_cell_volume 683.331181
_symmetry_space_group_name_H-M "P -1"
_symmetry_group_IT_number 2
_symmetry_cell_setting 'triclinic'
loop_
_space_group_symop_operation_xyz
x,y,z
-x,-y,-z
loop_
_atom_site_type_symbol
_atom_site_label
_atom_site_fract_x
_atom_site_fract_y
_atom_site_fract_z
Si Si1 0.189618 0.658820 0.452326
Si Si2 0.184037 0.071774 0.636553
Si Si3 0.989543 0.247432 0.439184
Si Si4 0.646176 0.210049 0.740703
Si Si5 0.081942 0.248572 0.730717
Si Si6 0.186327 0.349361 0.499595
Si Si7 0.717311 0.211265 0.232756
Si Si8 0.484779 0.322238 0.682138
O O1 0.074668 0.741103 0.610713
O O2 0.283684 0.835220 0.504391
O O3 0.209492 0.678794 0.597630
O O4 0.210337 0.349511 0.015478
O O5 0.179797 0.136807 0.577343
O O6 0.070670 0.978905 0.689829
O O7 0.261273 0.822221 0.290766
O O8 0.113261 0.232447 0.321520
O O9 0.963887 0.532209 0.870331
O O10 0.566823 0.964486 0.563248
O O11 0.586972 0.493641 0.116567
O O12 0.114766 0.373447 0.718583
O O13 0.000000 0.000000 0.500000
O O14 0.240181 0.627794 0.734233
O O15 0.267199 0.112785 0.169936
O O16 0.597629 0.279257 0.460069
O O17 0.500000 0.500000 0.000000
#
# Coordination Sequence:
#
# PCOD9012435 Si02
#       8
#     2   2   2   2   2   2   2   2
#     4  10  23  41  64 101 133 171 222 266 327 396
#     4  10  21  40  70 103 124 166 233 279 313 377
#     4  10  23  40  70  95 130 175 228 267 314 391
#     4  11  21  39  67  97 124 160 227 280 323 365
#     4  11  22  43  71  97 129 175 231 274 311 386
#     4  12  27  43  63  99 141 178 209 267 341 386
#     4  12  28  42  63  98 142 175 214 267 338 405
#     4  12  23  40  69  92 129 176 226 274 319 387
#
# _framework density 23.414709999999999
#
# number of rings (size 3 to 8) (size 9 to 14) (size 15 to 20)
#    0.000    1.000    3.750    2.250    8.750    1.000 
#    0.000    0.000    0.000    4.500    0.000    0.000 
#    0.000    0.000    0.000    0.000    0.000    0.000 
#
# Total GULP energy -89509.421098 kJ/mol
# GULP energy per Si atom -5594.338819 kJ/mol
# Density = 2.336142 g / cm^3
# Si number density = 23.414710 Si / 1000 Ang^3
#
#
#
# Elastic Constant Matrix: (Units=GPa)
#
#
# Indices 1 2 3 4 5 6 
#
# 1 59.4631 15.0956 17.4602 5.0788 -35.0100 -18.1684
# 2 15.0956 131.0435 27.0189 28.8849 -13.1390 -7.2963
# 3 17.4602 27.0189 73.0311 15.9881 -17.4259 -8.4784
# 4 5.0788 28.8849 15.9881 35.7872 0.7724 -6.1109
# 5 -35.0100 -13.1390 -17.4259 0.7724 50.2280 -0.9482
# 6 -18.1684 -7.2963 -8.4784 -6.1109 -0.9482 39.4252
#
#
#
# Elastic Compliance Matrix: (Units=1/GPa)
#
#
# Indices 1 2 3 4 5 6 
#
# 1 0.038680 -0.000065 0.000043 -0.002969 0.027344 0.018020
# 2 -0.000065 0.009761 -0.001471 -0.007190 0.002116 0.000397
# 3 0.000043 -0.001471 0.017272 -0.006210 0.005783 0.002639
# 4 -0.002969 -0.007190 -0.006210 0.037358 -0.006649 0.001596
# 5 0.027344 0.002116 0.005783 -0.006649 0.041899 0.014213
# 6 0.018020 0.000397 0.002639 0.001596 0.014213 0.034899
#
#
# Mechanical properties :
#
#
# Convention : Reuss Voigt Hill
#
# Bulk Modulus (GPa) = 15.94192 42.52077 29.23135
# Shear Modulus (GPa) = 24.53829 38.68561 31.61195
#
# Velocity S-wave (km/s) = 3.24077 4.06913 3.67834
# Velocity P-wave (km/s) = 4.56364 6.34636 5.52735
#
# Compressibility (1/GPa) = 0.06272769
#
# Stress axis : x y z
#
# Youngs Moduli (GPa) = 25.85325 102.45040 57.89627
#
# Poissons Ratio (x) = 0.00668 -0.00250
# Poissons Ratio (y) = 0.00169 0.08515
# Poissons Ratio (z) = -0.00112 0.15067
#
# Static dielectric constant tensor:
#      x y z
#    x 2.003400 -0.028050 -0.048390 
#    y -0.028050 1.889440 0.006500 
#    z -0.048390 0.006500 1.917310 
# 
# From -- ./inp_files/465992.got.cif
#   From: 2010.05.17/outbox.cif.g08.bks.cpg/sg2_233_cif.got.tgz:465992.got - 2010.06.03 11:33:40.
