data_PCOD9012063
_publ_section_title
;
Structure prediction by ZEFSAII (Michael W. Deem and Ramdas Pophale) SiO2 
 PCOD9012063
Probable space group: P -1
;
_chemical_formula_sum "Si O2"
_cell_formula_units_Z 12
_cell_length_a 5.265229
_cell_length_b 21.710209
_cell_length_c 17.412414
_cell_angle_alpha 162.261523
_cell_angle_beta 89.079029
_cell_angle_gamma 83.623932
_cell_volume 551.717451
_symmetry_space_group_name_H-M "P -1"
_symmetry_group_IT_number 2
_symmetry_cell_setting 'triclinic'
loop_
_space_group_symop_operation_xyz
x,y,z
-x,-y,-z
loop_
_atom_site_type_symbol
_atom_site_label
_atom_site_fract_x
_atom_site_fract_y
_atom_site_fract_z
Si Si1 0.421447 0.575181 0.176178
Si Si2 0.701415 0.091124 0.652531
Si Si3 0.878830 0.975088 0.687996
Si Si4 0.905245 0.686921 0.655128
Si Si5 0.352118 0.784244 0.679570
Si Si6 0.590487 0.075744 0.315535
O O1 0.536300 0.756525 0.413188
O O2 0.099684 0.717766 0.369359
O O3 0.500000 0.500000 0.000000
O O4 0.552884 0.353746 0.959296
O O5 0.500000 0.000000 0.500000
O O6 0.758489 0.047053 0.689902
O O7 0.000000 0.000000 0.500000
O O8 0.632586 0.026977 0.812549
O O9 0.094513 0.073618 0.836909
O O10 0.638903 0.690140 0.613985
O O11 0.000000 0.500000 0.500000
O O12 0.155069 0.671875 0.578873
O O13 0.797802 0.944132 0.990188
O O14 0.408936 0.770142 0.571994
#
# Coordination Sequence:
#
# PCOD9012063 Si02
#       6
#     2   2   2   2   2   2
#     4  10  22  39  60  79 116 157 200 243 296 343
#     4  12  23  36  58  81 108 149 206 253 293 348
#     4  10  22  39  55  82 115 153 197 246 298 348
#     4  10  21  40  68  94 122 163 199 241 308 369
#     4  10  21  41  63  93 129 156 201 253 294 371
#     4  10  22  41  59  84 124 155 194 248 303 340
#
# _framework density 21.750263
#
# number of rings (size 3 to 8) (size 9 to 14) (size 15 to 20)
#    1.000    0.667    1.667    3.500    2.333    1.333 
#    6.000    0.000    0.000    0.000    0.000    0.000 
#    0.000    0.000    0.000    0.000    0.000    0.000 
#
# Total GULP energy -66827.231500 kJ/mol
# GULP energy per Si atom -5568.935958 kJ/mol
# Density = 2.170076 g / cm^3
# Si number density = 21.750263 Si / 1000 Ang^3
#
#
#
# Elastic Constant Matrix: (Units=GPa)
#
#
# Indices 1 2 3 4 5 6 
#
# 1 165.7964 49.2706 18.2972 20.8524 -26.4936 18.0177
# 2 49.2706 144.2580 21.1890 34.6689 -19.9981 3.5767
# 3 18.2972 21.1890 33.8438 27.5187 -10.3102 -6.6492
# 4 20.8524 34.6689 27.5187 44.0701 -7.8816 -5.0745
# 5 -26.4936 -19.9981 -10.3102 -7.8816 16.6856 3.7907
# 6 18.0177 3.5767 -6.6492 -5.0745 3.7907 37.6342
#
#
#
# Elastic Compliance Matrix: (Units=1/GPa)
#
#
# Indices 1 2 3 4 5 6 
#
# 1 0.009530 -0.000482 0.000556 -0.002491 0.015147 -0.006280
# 2 -0.000482 0.010003 0.003145 -0.008102 0.009850 -0.002249
# 3 0.000556 0.003145 0.069567 -0.040852 0.027559 0.003442
# 4 -0.002491 -0.008102 -0.040852 0.053575 -0.014378 0.003417
# 5 0.015147 0.009850 0.027559 -0.014378 0.109731 -0.016310
# 6 -0.006280 -0.002249 0.003442 0.003417 -0.016310 0.032504
#
#
# Mechanical properties :
#
#
# Convention : Reuss Voigt Hill
#
# Bulk Modulus (GPa) = 10.46723 57.93461 34.20092
# Shear Modulus (GPa) = 16.11253 36.68739 26.39996
#
# Velocity S-wave (km/s) = 2.72471 4.11147 3.48771
# Velocity P-wave (km/s) = 3.83688 7.01662 5.65485
#
# Compressibility (1/GPa) = 0.09553626
#
# Stress axis : x y z
#
# Youngs Moduli (GPa) = 104.93582 99.96732 14.37468
#
# Poissons Ratio (x) = 0.04822 -0.00799
# Poissons Ratio (y) = 0.05062 -0.04521
# Poissons Ratio (z) = -0.05833 -0.31438
#
# Static dielectric constant tensor:
#      x y z
#    x 1.958550 0.122370 0.066690 
#    y 0.122370 1.660270 -0.126650 
#    z 0.066690 -0.126650 1.759930 
# 
# From -- ./inp_files/40726.got.cif
#   From: 2010.05.17/outbox.cif.g08.bks.cpg/sg2_21_cif.got.tgz:40726.got - 2010.06.03 11:33:40.
