data_PCOD9012931
_publ_section_title
;
Structure prediction by ZEFSAII (Michael W. Deem and Ramdas Pophale) SiO2 
 PCOD9012931
Probable space group: P -1
;
_chemical_formula_sum "Si O2"
_cell_formula_units_Z 16
_cell_length_a 15.044751
_cell_length_b 14.401697
_cell_length_c 14.059871
_cell_angle_alpha 150.820542
_cell_angle_beta 153.133214
_cell_angle_gamma 38.149654
_cell_volume 670.811808
_symmetry_space_group_name_H-M "P -1"
_symmetry_group_IT_number 2
_symmetry_cell_setting 'triclinic'
loop_
_space_group_symop_operation_xyz
x,y,z
-x,-y,-z
loop_
_atom_site_type_symbol
_atom_site_label
_atom_site_fract_x
_atom_site_fract_y
_atom_site_fract_z
Si Si1 0.944993 0.901288 0.729421
Si Si2 0.550544 0.698041 0.446528
Si Si3 0.591050 0.133150 0.865474
Si Si4 0.627069 0.438759 0.658489
Si Si5 0.483423 0.178666 0.022805
Si Si6 0.702113 0.586296 0.170335
Si Si7 0.964765 0.711031 0.773843
Si Si8 0.800730 0.125059 0.435469
O O1 0.826623 0.775021 0.429776
O O2 0.882909 0.825643 0.706306
O O3 0.176739 0.857460 0.909122
O O4 0.929518 0.129881 0.918551
O O5 0.499761 0.679585 0.492915
O O6 0.777199 0.637345 0.585173
O O7 0.530035 0.918960 0.592960
O O8 0.408044 0.555904 0.131165
O O9 0.478150 0.299202 0.846416
O O10 0.536045 0.173155 0.958194
O O11 0.500000 0.500000 0.500000
O O12 0.653646 0.637766 0.915108
O O13 0.809479 0.311776 0.678168
O O14 0.688850 0.179897 0.279143
O O15 0.360008 0.001167 0.778254
O O16 0.878847 0.449546 0.253997
O O17 0.000000 0.000000 0.500000
#
# Coordination Sequence:
#
# PCOD9012931 Si02
#       8
#     2   2   2   2   2   2   2   2
#     4  10  24  44  66  97 133 175 212 274 322 387
#     4  11  23  43  64  94 132 174 213 274 323 386
#     4  11  23  41  65  93 135 173 214 266 329 381
#     4  10  21  42  65  89 131 169 212 264 326 378
#     4  10  21  41  62  90 127 170 208 267 324 385
#     4  12  23  40  66  99 128 169 227 261 328 382
#     4  10  24  45  66  96 134 170 222 263 329 385
#     4  10  22  41  66  92 122 164 218 267 322 384
#
# _framework density 23.851697000000001
#
# number of rings (size 3 to 8) (size 9 to 14) (size 15 to 20)
#    0.000    1.500    2.500    1.875    0.000    3.500 
#    6.750    3.750    0.000    0.000    0.000    0.000 
#    0.000    0.000    0.000    0.000    0.000    0.000 
#
# Total GULP energy -89317.922660 kJ/mol
# GULP energy per Si atom -5582.370166 kJ/mol
# Density = 2.379741 g / cm^3
# Si number density = 23.851697 Si / 1000 Ang^3
#
#
#
# Elastic Constant Matrix: (Units=GPa)
#
#
# Indices 1 2 3 4 5 6 
#
# 1 98.2664 34.6796 45.1002 -9.7508 -5.5142 -9.9399
# 2 34.6796 135.7104 46.2815 9.5818 -5.6774 -36.1321
# 3 45.1002 46.2815 157.5345 4.8787 -12.9011 -13.4610
# 4 -9.7508 9.5818 4.8787 37.4642 -12.5499 2.2523
# 5 -5.5142 -5.6774 -12.9011 -12.5499 18.9240 8.5353
# 6 -9.9399 -36.1321 -13.4610 2.2523 8.5353 40.8589
#
#
#
# Elastic Compliance Matrix: (Units=1/GPa)
#
#
# Indices 1 2 3 4 5 6 
#
# 1 0.013479 -0.003388 -0.002729 0.007202 0.006937 -0.002462
# 2 -0.003388 0.012168 -0.002120 -0.007376 -0.008858 0.011495
# 3 -0.002729 -0.002120 0.008050 0.000428 0.004748 -0.000902
# 4 0.007202 -0.007376 0.000428 0.043053 0.035205 -0.014357
# 5 0.006937 -0.008858 0.004748 0.035205 0.090234 -0.025371
# 6 -0.002462 0.011495 -0.000902 -0.014357 -0.025371 0.039835
#
#
# Mechanical properties :
#
#
# Convention : Reuss Voigt Hill
#
# Bulk Modulus (GPa) = 58.05526 71.51487 64.78507
# Shear Modulus (GPa) = 21.83085 37.14609 29.48847
#
# Velocity S-wave (km/s) = 3.02863 3.95064 3.51996
# Velocity P-wave (km/s) = 6.05170 7.13150 6.61368
#
# Compressibility (1/GPa) = 0.01722497
#
# Stress axis : x y z
#
# Youngs Moduli (GPa) = 74.18755 82.18446 124.21845
#
# Poissons Ratio (x) = 0.27840 0.33899
# Poissons Ratio (y) = 0.25131 0.26330
# Poissons Ratio (z) = 0.20246 0.17420
#
# Static dielectric constant tensor:
#      x y z
#    x 1.910260 0.021430 -0.046560 
#    y 0.021430 2.001490 0.007710 
#    z -0.046560 0.007710 1.955470 
# 
# From -- ./inp_files/533504.got.cif
#   From: 2010.05.17/outbox.cif.g08.bks.cpg/sg2_267_cif.got.tgz:533504.got - 2010.06.03 11:33:40.
