data_PCOD9012012
_publ_section_title
;
Structure prediction by ZEFSAII (Michael W. Deem and Ramdas Pophale) SiO2 
 PCOD9012012
Probable space group: P -1
;
_chemical_formula_sum "Si O2"
_cell_formula_units_Z 16
_cell_length_a 13.530477
_cell_length_b 9.882247
_cell_length_c 11.231842
_cell_angle_alpha 101.494152
_cell_angle_beta 31.399111
_cell_angle_gamma 86.503052
_cell_volume 683.718954
_symmetry_space_group_name_H-M "P -1"
_symmetry_group_IT_number 2
_symmetry_cell_setting 'triclinic'
loop_
_space_group_symop_operation_xyz
x,y,z
-x,-y,-z
loop_
_atom_site_type_symbol
_atom_site_label
_atom_site_fract_x
_atom_site_fract_y
_atom_site_fract_z
Si Si1 0.800222 0.588988 0.307872
Si Si2 0.961194 0.891702 0.613983
Si Si3 0.526707 0.448371 0.645432
Si Si4 0.203050 0.893646 0.593516
Si Si5 0.142138 0.384784 0.072645
Si Si6 0.729550 0.876453 0.288552
Si Si7 0.606014 0.805872 0.001989
Si Si8 0.606116 0.355113 0.950959
O O1 0.635952 0.517364 0.454600
O O2 0.712019 0.766432 0.391500
O O3 0.000000 0.500000 0.000000
O O4 0.915385 0.531249 0.308449
O O5 0.020433 0.923304 0.690999
O O6 0.731113 0.899415 0.849372
O O7 0.147193 0.726439 0.353164
O O8 0.000000 0.000000 0.500000
O O9 0.702854 0.280246 0.481344
O O10 0.324559 0.417272 0.827919
O O11 0.439806 0.580962 0.858964
O O12 0.153165 0.027951 0.763849
O O13 0.404397 0.889983 0.311407
O O14 0.154828 0.236581 0.960940
O O15 0.221666 0.333101 0.116102
O O16 0.500000 0.000000 0.500000
O O17 0.508454 0.749511 0.985209
O O18 0.500000 0.500000 0.000000
#
# Coordination Sequence:
#
# PCOD9012012 Si02
#       8
#     2   2   2   2   2   2   2   2
#     4  10  25  41  64  97 124 161 221 266 318 379
#     4  11  25  41  62  96 132 167 214 266 321 385
#     4  11  21  42  69  91 130 168 213 272 315 387
#     4  10  22  43  65  94 129 170 218 258 329 386
#     4  10  21  41  67  92 124 169 217 262 324 376
#     4  11  21  43  65  90 129 169 209 263 321 385
#     4  10  21  40  68  88 130 170 210 266 324 376
#     4  11  22  41  63  97 123 168 217 259 322 389
#
# _framework density 23.401427999999999
#
# number of rings (size 3 to 8) (size 9 to 14) (size 15 to 20)
#    0.000    1.500    6.250    0.750    0.000    8.500 
#    0.000    8.125    0.000    0.000    0.000    0.000 
#    0.000    0.000    0.000    0.000    0.000    0.000 
#
# Total GULP energy -89418.329051 kJ/mol
# GULP energy per Si atom -5588.645566 kJ/mol
# Density = 2.334817 g / cm^3
# Si number density = 23.401428 Si / 1000 Ang^3
#
#
#
# Elastic Constant Matrix: (Units=GPa)
#
#
# Indices 1 2 3 4 5 6 
#
# 1 87.0016 31.5042 19.2135 3.8478 -0.7597 30.8086
# 2 31.5042 121.4989 45.3814 -13.6314 1.5395 10.1967
# 3 19.2135 45.3814 81.0315 -25.0562 -9.1671 21.7324
# 4 3.8478 -13.6314 -25.0562 46.6305 3.3379 -7.6698
# 5 -0.7597 1.5395 -9.1671 3.3379 32.2494 3.3388
# 6 30.8086 10.1967 21.7324 -7.6698 3.3388 46.7240
#
#
#
# Elastic Compliance Matrix: (Units=1/GPa)
#
#
# Indices 1 2 3 4 5 6 
#
# 1 0.017225 -0.004094 0.000112 -0.004603 0.002293 -0.011436
# 2 -0.004094 0.011567 -0.006480 0.001037 -0.002968 0.003571
# 3 0.000112 -0.006480 0.021098 0.007723 0.006302 -0.007655
# 4 -0.004603 0.001037 0.007723 0.026972 -0.001140 0.003726
# 5 0.002293 -0.002968 0.006302 -0.001140 0.033776 -0.006397
# 6 -0.011436 0.003571 -0.007655 0.003726 -0.006397 0.032793
#
#
# Mechanical properties :
#
#
# Convention : Reuss Voigt Hill
#
# Bulk Modulus (GPa) = 34.52505 53.52558 44.02531
# Shear Modulus (GPa) = 28.73405 38.01629 33.37517
#
# Velocity S-wave (km/s) = 3.50791 4.03492 3.78061
# Velocity P-wave (km/s) = 5.58504 6.68056 6.15721
#
# Compressibility (1/GPa) = 0.02896447
#
# Stress axis : x y z
#
# Youngs Moduli (GPa) = 58.05509 86.45542 47.39876
#
# Poissons Ratio (x) = 0.35393 -0.00529
# Poissons Ratio (y) = 0.23767 0.30715
# Poissons Ratio (z) = -0.00648 0.56024
#
# Static dielectric constant tensor:
#      x y z
#    x 1.963400 -0.010470 0.028170 
#    y -0.010470 1.916720 -0.013310 
#    z 0.028170 -0.013310 1.881160 
# 
# From -- ./inp_files/447592.got.cif
#   From: 2010.05.17/outbox.cif.g08.bks.cpg/sg2_224_cif.got.tgz:447592.got - 2010.06.03 11:33:40.
