data_PCOD9012085
_publ_section_title
;
Structure prediction by ZEFSAII (Michael W. Deem and Ramdas Pophale) SiO2 
 PCOD9012085
Probable space group: P -1
;
_chemical_formula_sum "Si O2"
_cell_formula_units_Z 14
_cell_length_a 10.214671
_cell_length_b 8.112842
_cell_length_c 12.109106
_cell_angle_alpha 144.485475
_cell_angle_beta 118.866895
_cell_angle_gamma 65.244903
_cell_volume 509.843210
_symmetry_space_group_name_H-M "P -1"
_symmetry_group_IT_number 2
_symmetry_cell_setting 'triclinic'
loop_
_space_group_symop_operation_xyz
x,y,z
-x,-y,-z
loop_
_atom_site_type_symbol
_atom_site_label
_atom_site_fract_x
_atom_site_fract_y
_atom_site_fract_z
Si Si1 0.469364 0.734893 0.980254
Si Si2 0.856188 0.910194 0.325114
Si Si3 0.679699 0.479407 0.562274
Si Si4 0.694589 0.071884 0.773224
Si Si5 0.284647 0.220006 0.056412
Si Si6 0.263239 0.242811 0.578766
Si Si7 0.011888 0.946538 0.201526
O O1 0.639549 0.696433 0.983863
O O2 0.366536 0.508636 0.755735
O O3 0.413886 0.040574 0.076713
O O4 0.424274 0.767031 0.108809
O O5 0.758674 0.785299 0.314733
O O6 0.758030 0.187666 0.391910
O O7 0.940068 0.772142 0.177448
O O8 0.000000 0.000000 0.500000
O O9 0.500000 0.500000 0.500000
O O10 0.722156 0.753691 0.660323
O O11 0.740278 0.506061 0.726825
O O12 0.656233 0.016254 0.599469
O O13 0.140949 0.807465 0.100910
O O14 0.143158 0.022895 0.909427
O O15 0.097023 0.207913 0.435918
#
# Coordination Sequence:
#
# PCOD9012085 Si02
#       7
#     2   2   2   2   2   2   2
#     4  10  21  40  68  94 146 174 230 287 354 410
#     4  10  23  44  68 100 143 185 230 283 361 416
#     4  11  24  42  72 103 138 185 233 291 348 418
#     4   9  22  40  69 103 132 177 244 282 339 405
#     4  10  23  40  65 107 134 178 234 295 344 407
#     4   9  21  44  65  99 135 186 224 287 347 418
#     4   9  22  39  66  99 132 180 230 286 338 411
#
# _framework density 27.459422
#
# number of rings (size 3 to 8) (size 9 to 14) (size 15 to 20)
#    0.857    1.429    0.000    0.857    8.000    8.000 
#    2.571    5.714    0.000    0.000    0.000    0.000 
#    0.000    0.000    0.000    0.000    0.000    0.000 
#
# Total GULP energy -78042.773084 kJ/mol
# GULP energy per Si atom -5574.483792 kJ/mol
# Density = 2.739692 g / cm^3
# Si number density = 27.459422 Si / 1000 Ang^3
#
#
#
# Elastic Constant Matrix: (Units=GPa)
#
#
# Indices 1 2 3 4 5 6 
#
# 1 232.7837 54.8096 76.6232 -2.4452 8.4702 30.5568
# 2 54.8096 77.2146 8.2901 17.7506 -5.7345 11.6798
# 3 76.6232 8.2901 107.1161 28.4376 1.6098 6.0272
# 4 -2.4452 17.7506 28.4376 31.9922 8.9092 1.6371
# 5 8.4702 -5.7345 1.6098 8.9092 66.7993 -8.8814
# 6 30.5568 11.6798 6.0272 1.6371 -8.8814 50.1419
#
#
#
# Elastic Compliance Matrix: (Units=1/GPa)
#
#
# Indices 1 2 3 4 5 6 
#
# 1 0.012774 -0.012294 -0.013599 0.021794 -0.005925 -0.005047
# 2 -0.012294 0.027757 0.014903 -0.031922 0.008067 0.001706
# 3 -0.013599 0.014903 0.027038 -0.035683 0.007655 0.004086
# 4 0.021794 -0.031922 -0.035683 0.087559 -0.017317 -0.007482
# 5 -0.005925 0.008067 0.007655 -0.017317 0.019174 0.004773
# 6 -0.005047 0.001706 0.004086 -0.007482 0.004773 0.023220
#
#
# Mechanical properties :
#
#
# Convention : Reuss Voigt Hill
#
# Bulk Modulus (GPa) = 21.93449 77.39557 49.66503
# Shear Modulus (GPa) = 21.30412 48.27943 34.79178
#
# Velocity S-wave (km/s) = 2.78841 4.19765 3.56339
# Velocity P-wave (km/s) = 4.28629 7.19307 5.92084
#
# Compressibility (1/GPa) = 0.04559030
#
# Stress axis : x y z
#
# Youngs Moduli (GPa) = 78.28631 36.02721 36.98484
#
# Poissons Ratio (x) = 0.44291 0.50294
# Poissons Ratio (y) = 0.96244 -0.55120
# Poissons Ratio (z) = 1.06459 -0.53693
#
# Static dielectric constant tensor:
#      x y z
#    x 2.500530 -0.389630 0.022580 
#    y -0.389630 2.645140 -0.175350 
#    z 0.022580 -0.175350 2.307760 
# 
# From -- ./inp_files/424558.got.cif
#   From: 2010.05.17/outbox.cif.g08.bks.cpg/sg2_213_cif.got.tgz:424558.got - 2010.06.03 11:33:40.
