data_PCOD9012941
_publ_section_title
;
Structure prediction by ZEFSAII (Michael W. Deem and Ramdas Pophale) SiO2 
 PCOD9012941
Probable space group: P -1
;
_chemical_formula_sum "Si O2"
_cell_formula_units_Z 16
_cell_length_a 10.108822
_cell_length_b 9.067088
_cell_length_c 17.959677
_cell_angle_alpha 149.445701
_cell_angle_beta 88.160579
_cell_angle_gamma 91.315549
_cell_volume 836.356531
_symmetry_space_group_name_H-M "P -1"
_symmetry_group_IT_number 2
_symmetry_cell_setting 'triclinic'
loop_
_space_group_symop_operation_xyz
x,y,z
-x,-y,-z
loop_
_atom_site_type_symbol
_atom_site_label
_atom_site_fract_x
_atom_site_fract_y
_atom_site_fract_z
Si Si1 0.244502 0.546096 0.832634
Si Si2 0.319725 0.444149 0.540651
Si Si3 0.477911 0.882354 0.032535
Si Si4 0.180290 0.891293 0.507762
Si Si5 0.243085 0.959288 0.865492
Si Si6 0.397675 0.452581 0.370306
Si Si7 0.980056 0.570235 0.944608
Si Si8 0.099003 0.984396 0.382310
O O1 0.238657 0.750349 0.847805
O O2 0.117573 0.605239 0.912836
O O3 0.236359 0.212567 0.662227
O O4 0.376756 0.620536 0.909092
O O5 0.263296 0.753443 0.704079
O O6 0.355058 0.431670 0.447915
O O7 0.455745 0.408784 0.569801
O O8 0.211710 0.205852 0.455450
O O9 0.626019 0.840757 0.043206
O O10 0.412593 0.140169 0.194872
O O11 0.500000 0.000000 0.000000
O O12 0.290461 0.652310 0.418623
O O13 0.131661 0.873646 0.416396
O O14 0.046479 0.865927 0.547922
O O15 0.112370 0.150387 0.944169
O O16 0.908820 0.291827 0.790034
O O17 0.000000 0.500000 0.000000
#
# Coordination Sequence:
#
# PCOD9012941 Si02
#       8
#     2   2   2   2   2   2   2   2
#     4  10  21  41  62  91 121 159 201 243 298 361
#     4  10  22  42  61  91 122 159 201 244 305 355
#     4   9  21  39  62  90 118 156 203 240 297 361
#     4  10  22  40  62  91 121 156 205 250 288 353
#     4  10  21  42  63  86 122 161 198 249 295 359
#     4  10  23  39  64  91 122 157 201 249 296 357
#     4  11  26  40  60  91 124 158 201 247 304 356
#     4  10  23  41  59  90 123 156 204 245 297 359
#
# _framework density 19.130596000000001
#
# number of rings (size 3 to 8) (size 9 to 14) (size 15 to 20)
#    0.000    2.000    1.250    0.375    8.750    3.000 
#    0.000    0.625    0.000    0.000    0.000    0.000 
#    0.000    0.000    0.000    0.000    0.000    0.000 
#
# Total GULP energy -89324.912528 kJ/mol
# GULP energy per Si atom -5582.807033 kJ/mol
# Density = 1.908705 g / cm^3
# Si number density = 19.130596 Si / 1000 Ang^3
#
#
#
# Elastic Constant Matrix: (Units=GPa)
#
#
# Indices 1 2 3 4 5 6 
#
# 1 -83.9187 56.8899 -170.4057 -27.1485 -95.2877 -26.0568
# 2 56.8899 11.7518 88.0146 -7.0587 42.5183 4.4891
# 3 -170.4057 88.0146 -185.3592 -72.9344 -133.9603 -26.4864
# 4 -27.1485 -7.0587 -72.9344 20.9896 -19.0239 -8.2518
# 5 -95.2877 42.5183 -133.9603 -19.0239 -48.0401 -14.0159
# 6 -26.0568 4.4891 -26.4864 -8.2518 -14.0159 9.7444
#
#
#
# Elastic Compliance Matrix: (Units=1/GPa)
#
#
# Indices 1 2 3 4 5 6 
#
# 1 0.028163 -0.016300 -0.020917 -0.038824 0.003824 -0.001412
# 2 -0.016300 0.089565 0.031031 0.107072 -0.030739 0.045957
# 3 -0.020917 0.031031 0.026033 0.052569 -0.026487 0.006953
# 4 -0.038824 0.107072 0.052569 0.180899 -0.062095 0.053619
# 5 0.003824 -0.030739 -0.026487 -0.062095 0.050768 -0.027169
# 6 -0.001412 0.045957 0.006953 0.053619 -0.027169 0.102903
#
#
# Mechanical properties :
#
#
# Convention : Reuss Voigt Hill
#
# Bulk Modulus (GPa) = 7.61087 -34.28094 -13.33504
# Shear Modulus (GPa) = 9.35456 -18.92956 -4.78750
#
# Velocity S-wave (km/s) = 2.21370 -3.14903 -1.58366
# Velocity P-wave (km/s) = 3.24360 5.58392 3.21397
#
# Compressibility (1/GPa) = 0.13139108
#
# Stress axis : x y z
#
# Youngs Moduli (GPa) = 35.50708 11.16511 38.41253
#
# Poissons Ratio (x) = 0.18199 0.80346
# Poissons Ratio (y) = 0.57876 -1.19199
# Poissons Ratio (z) = 0.74269 -0.34647
#
# Static dielectric constant tensor:
#      x y z
#    x 1.684850 0.005280 0.002720 
#    y 0.005280 1.649890 -0.006900 
#    z 0.002720 -0.006900 1.654080 
# 
# From -- ./inp_files/187785.got.cif
#   From: 2010.05.17/outbox.cif.g08.bks.cpg/sg2_94_cif.got.tgz:187785.got - 2010.06.03 11:33:40.
