data_PCOD9012194
_publ_section_title
;
Structure prediction by ZEFSAII (Michael W. Deem and Ramdas Pophale) SiO2 
 PCOD9012194
Probable space group: P -1
;
_chemical_formula_sum "Si O2"
_cell_formula_units_Z 16
_cell_length_a 9.154568
_cell_length_b 18.360114
_cell_length_c 4.903864
_cell_angle_alpha 113.090213
_cell_angle_beta 56.432678
_cell_angle_gamma 103.992705
_cell_volume 631.429589
_symmetry_space_group_name_H-M "P -1"
_symmetry_group_IT_number 2
_symmetry_cell_setting 'triclinic'
loop_
_space_group_symop_operation_xyz
x,y,z
-x,-y,-z
loop_
_atom_site_type_symbol
_atom_site_label
_atom_site_fract_x
_atom_site_fract_y
_atom_site_fract_z
Si Si1 0.302957 0.645326 0.745784
Si Si2 0.667334 0.723200 0.436800
Si Si3 0.040061 0.322472 0.571002
Si Si4 0.564336 0.812278 0.165457
Si Si5 0.127027 0.486585 0.594205
Si Si6 0.823045 0.211975 0.304660
Si Si7 0.338760 0.026168 0.389971
Si Si8 0.849887 0.033279 0.006717
O O1 0.506954 0.664423 0.611677
O O2 0.276502 0.555475 0.532345
O O3 0.233802 0.718528 0.740748
O O4 0.159162 0.648063 0.139542
O O5 0.857414 0.694518 0.281059
O O6 0.631716 0.743145 0.191637
O O7 0.638754 0.800360 0.770635
O O8 0.159058 0.393303 0.423199
O O9 0.993261 0.242781 0.339415
O O10 0.354081 0.801536 0.355107
O O11 0.628414 0.890127 0.374372
O O12 0.000000 0.500000 0.500000
O O13 0.000000 0.500000 0.000000
O O14 0.864091 0.124463 0.025789
O O15 0.302986 0.970552 0.608178
O O16 0.500000 0.000000 0.000000
O O17 0.188991 0.019097 0.299417
O O18 0.000000 0.000000 0.000000
#
# Coordination Sequence:
#
# PCOD9012194 Si02
#       8
#     2   2   2   2   2   2   2   2
#     4  10  23  45  69  98 140 177 227 278 339 407
#     4  11  26  41  68 104 132 179 226 279 332 404
#     4  11  24  41  70  98 139 178 226 279 340 401
#     4  11  25  45  67  96 134 174 234 275 337 406
#     4  10  21  40  68  99 133 179 223 272 338 404
#     4  11  24  42  72  91 138 178 223 274 350 396
#     4  12  26  47  70  93 132 184 229 282 348 410
#     4  12  29  45  67 104 138 177 231 290 345 409
#
# _framework density 25.339327000000001
#
# number of rings (size 3 to 8) (size 9 to 14) (size 15 to 20)
#    0.000    1.000    3.750    1.500    8.750    0.500 
#    0.000    0.000    0.000    5.250    0.000    0.000 
#    0.000    0.000    0.000    0.000    0.000    0.000 
#
# Total GULP energy -89390.853337 kJ/mol
# GULP energy per Si atom -5586.928334 kJ/mol
# Density = 2.528165 g / cm^3
# Si number density = 25.339327 Si / 1000 Ang^3
#
#
#
# Elastic Constant Matrix: (Units=GPa)
#
#
# Indices 1 2 3 4 5 6 
#
# 1 147.8483 40.3858 17.3284 1.6337 10.1466 20.3267
# 2 40.3858 152.6949 25.3441 20.7737 15.0668 18.7518
# 3 17.3284 25.3441 72.4300 2.3717 15.0153 10.1328
# 4 1.6337 20.7737 2.3717 34.2121 0.4489 12.6489
# 5 10.1466 15.0668 15.0153 0.4489 47.2857 -2.7219
# 6 20.3267 18.7518 10.1328 12.6489 -2.7219 46.6676
#
#
#
# Elastic Compliance Matrix: (Units=1/GPa)
#
#
# Indices 1 2 3 4 5 6 
#
# 1 0.007797 -0.001714 -0.000656 0.001891 -0.001117 -0.003142
# 2 -0.001714 0.008193 -0.001815 -0.004349 -0.001687 -0.001071
# 3 -0.000656 -0.001815 0.015921 0.001211 -0.004523 -0.003034
# 4 0.001891 -0.004349 0.001211 0.034964 -0.000244 -0.008830
# 5 -0.001117 -0.001687 -0.004523 -0.000244 0.023570 0.003587
# 6 -0.003142 -0.001071 -0.003034 -0.008830 0.003587 0.026488
#
#
# Mechanical properties :
#
#
# Convention : Reuss Voigt Hill
#
# Bulk Modulus (GPa) = 42.48055 59.89887 51.18971
# Shear Modulus (GPa) = 37.55156 44.96076 41.25616
#
# Velocity S-wave (km/s) = 3.85378 4.21687 4.03941
# Velocity P-wave (km/s) = 6.05006 6.88472 6.48084
#
# Compressibility (1/GPa) = 0.02354019
#
# Stress axis : x y z
#
# Youngs Moduli (GPa) = 128.26027 122.05069 62.81098
#
# Poissons Ratio (x) = 0.20923 0.04121
# Poissons Ratio (y) = 0.21987 0.11399
# Poissons Ratio (z) = 0.08416 0.22150
#
# Static dielectric constant tensor:
#      x y z
#    x 2.007990 0.027660 -0.060480 
#    y 0.027660 2.168100 -0.039140 
#    z -0.060480 -0.039140 2.151850 
# 
# From -- ./inp_files/48823.got.cif
#   From: 2010.05.17/outbox.cif.g08.bks.cpg/sg2_25_cif.got.tgz:48823.got - 2010.06.03 11:33:40.
