data_PCOD9012356
_publ_section_title
;
Structure prediction by ZEFSAII (Michael W. Deem and Ramdas Pophale) SiO2 
 PCOD9012356
Probable space group: P -1
;
_chemical_formula_sum "Si O2"
_cell_formula_units_Z 15
_cell_length_a 9.322494
_cell_length_b 9.768677
_cell_length_c 14.578540
_cell_angle_alpha 71.433402
_cell_angle_beta 81.402773
_cell_angle_gamma 136.490950
_cell_volume 704.050262
_symmetry_space_group_name_H-M "P -1"
_symmetry_group_IT_number 2
_symmetry_cell_setting 'triclinic'
loop_
_space_group_symop_operation_xyz
x,y,z
-x,-y,-z
loop_
_atom_site_type_symbol
_atom_site_label
_atom_site_fract_x
_atom_site_fract_y
_atom_site_fract_z
Si Si1 0.598143 0.949381 0.602332
Si Si2 0.903932 0.036938 0.710675
Si Si3 0.033405 0.364820 0.781803
Si Si4 0.429015 0.823336 0.122826
Si Si5 0.500000 0.500000 0.500000
Si Si6 0.970164 0.307436 0.017161
Si Si7 0.187356 0.358548 0.154631
Si Si8 0.653722 0.953939 0.393944
O O1 0.323993 0.647758 0.675226
O O2 0.743529 0.041737 0.473136
O O3 0.737398 0.993380 0.665556
O O4 0.531816 0.061985 0.600532
O O5 0.947929 0.157387 0.775783
O O6 0.185041 0.241786 0.597894
O O7 0.772737 0.774878 0.797353
O O8 0.837124 0.332298 0.780852
O O9 0.018463 0.328622 0.900207
O O10 0.383697 0.630948 0.123362
O O11 0.673076 0.021348 0.122968
O O12 0.500000 0.000000 0.000000
O O13 0.506726 0.683553 0.451899
O O14 0.161009 0.371340 0.047024
O O15 0.000000 0.500000 0.000000
O O16 0.906613 0.169649 0.261817
#
# Coordination Sequence:
#
# PCOD9012356 Si02
#       8
#     2   2   2   2   1   2   2   2
#     4  11  23  45  69  99 132 182 218 288 337 392
#     4  11  27  43  67  98 145 176 222 284 338 398
#     4  11  23  42  67 104 133 171 236 272 334 412
#     4  10  21  40  69  96 130 177 229 272 328 403
#     4  10  22  46  62 100 140 172 224 272 332 404
#     4  11  22  41  73  98 134 177 222 283 332 397
#     4  11  23  44  64 103 133 179 226 277 335 404
#     4  10  22  44  69  99 136 168 235 275 331 415
#
# _framework density 21.305295000000001
#
# number of rings (size 3 to 8) (size 9 to 14) (size 15 to 20)
#    0.000    1.333    5.333    0.000    3.733    4.267 
#    4.800    4.667    0.000    0.000    0.000    0.000 
#    0.000    0.000    0.000    0.000    0.000    0.000 
#
# Total GULP energy -83585.859361 kJ/mol
# GULP energy per Si atom -5572.390624 kJ/mol
# Density = 2.125680 g / cm^3
# Si number density = 21.305295 Si / 1000 Ang^3
#
#
#
# Elastic Constant Matrix: (Units=GPa)
#
#
# Indices 1 2 3 4 5 6 
#
# 1 93.6602 67.8018 24.1292 4.9829 30.9467 -14.0050
# 2 67.8018 150.6333 36.6856 -19.5298 23.4878 -11.9073
# 3 24.1292 36.6856 53.1431 3.7230 11.2202 0.9764
# 4 4.9829 -19.5298 3.7230 32.5049 -3.8962 11.6776
# 5 30.9467 23.4878 11.2202 -3.8962 34.7074 -12.5357
# 6 -14.0050 -11.9073 0.9764 11.6776 -12.5357 32.7275
#
#
#
# Elastic Compliance Matrix: (Units=1/GPa)
#
#
# Indices 1 2 3 4 5 6 
#
# 1 0.024223 -0.009881 -0.000375 -0.013528 -0.014061 0.006223
# 2 -0.009881 0.013537 -0.006040 0.011458 0.002006 -0.002443
# 3 -0.000375 -0.006040 0.024757 -0.005964 -0.005340 -0.003014
# 4 -0.013528 0.011458 -0.005964 0.046825 0.005730 -0.015955
# 5 -0.014061 0.002006 -0.005340 0.005730 0.046157 0.010507
# 6 0.006223 -0.002443 -0.003014 -0.015955 0.010507 0.042137
#
#
# Mechanical properties :
#
#
# Convention : Reuss Voigt Hill
#
# Bulk Modulus (GPa) = 33.41621 61.62997 47.52309
# Shear Modulus (GPa) = 20.81583 31.24260 26.02922
#
# Velocity S-wave (km/s) = 3.12913 3.83355 3.49911
# Velocity P-wave (km/s) = 5.36412 6.97027 6.21926
#
# Compressibility (1/GPa) = 0.02992559
#
# Stress axis : x y z
#
# Youngs Moduli (GPa) = 41.28335 73.87276 40.39230
#
# Poissons Ratio (x) = 0.72995 0.01514
# Poissons Ratio (y) = 0.40793 0.24395
# Poissons Ratio (z) = 0.01548 0.44616
#
# Static dielectric constant tensor:
#      x y z
#    x 1.770360 -0.002650 -0.034940 
#    y -0.002650 1.750410 -0.002020 
#    z -0.034940 -0.002020 1.827450 
# 
# From -- ./inp_files/492507.got.cif
#   From: 2010.05.17/outbox.cif.g08.bks.cpg/sg2_247_cif.got.tgz:492507.got - 2010.06.03 11:33:40.
