data_PCOD9012125
_publ_section_title
;
Structure prediction by ZEFSAII (Michael W. Deem and Ramdas Pophale) SiO2 
 PCOD9012125
Probable space group: P -1
;
_chemical_formula_sum "Si O2"
_cell_formula_units_Z 15
_cell_length_a 22.661149
_cell_length_b 12.154251
_cell_length_c 12.429255
_cell_angle_alpha 142.760632
_cell_angle_beta 152.707765
_cell_angle_gamma 25.823193
_cell_volume 683.637596
_symmetry_space_group_name_H-M "P -1"
_symmetry_group_IT_number 2
_symmetry_cell_setting 'triclinic'
loop_
_space_group_symop_operation_xyz
x,y,z
-x,-y,-z
loop_
_atom_site_type_symbol
_atom_site_label
_atom_site_fract_x
_atom_site_fract_y
_atom_site_fract_z
Si Si1 0.568845 0.111737 0.136907
Si Si2 0.988435 0.715168 0.248892
Si Si3 0.112124 0.875331 0.745596
Si Si4 0.394826 0.277316 0.502657
Si Si5 0.089572 0.055049 0.323489
Si Si6 0.303307 0.255062 0.113180
Si Si7 0.500000 0.500000 0.000000
Si Si8 0.767777 0.412454 0.943539
O O1 0.757052 0.987849 0.397083
O O2 0.412621 0.408335 0.138629
O O3 0.500000 0.000000 0.000000
O O4 0.593242 0.021686 0.983918
O O5 0.993721 0.856943 0.464666
O O6 0.187491 0.467063 0.347249
O O7 0.901088 0.911139 0.161180
O O8 0.874008 0.657785 0.056272
O O9 0.313777 0.615721 0.849855
O O10 0.026619 0.946368 0.779626
O O11 0.404374 0.260698 0.375788
O O12 0.464248 0.390755 0.758649
O O13 0.500000 0.000000 0.500000
O O14 0.186966 0.828196 0.219540
O O15 0.937297 0.311714 0.210425
O O16 0.259943 0.429942 0.080956
#
# Coordination Sequence:
#
# PCOD9012125 Si02
#       8
#     2   2   2   2   2   2   1   2
#     4  10  23  44  68 100 136 181 234 293 343 404
#     4  10  21  40  68  96 137 178 228 281 342 423
#     4  10  21  41  69 100 136 187 225 281 354 419
#     4  11  24  42  65 100 137 177 228 284 348 420
#     4  11  22  46  68  99 138 188 231 285 353 414
#     4  11  22  44  67  98 133 179 228 283 348 411
#     4  10  24  44  64 106 138 174 230 282 348 424
#     4  10  25  43  69 102 136 184 237 290 346 411
#
# _framework density 21.941448999999999
#
# number of rings (size 3 to 8) (size 9 to 14) (size 15 to 20)
#    0.000    1.600    1.333    2.400    0.000    6.400 
#   21.600    0.000    0.000    0.000    0.000    0.000 
#    0.000    0.000    0.000    0.000    0.000    0.000 
#
# Total GULP energy -83554.333602 kJ/mol
# GULP energy per Si atom -5570.288907 kJ/mol
# Density = 2.189151 g / cm^3
# Si number density = 21.941449 Si / 1000 Ang^3
#
#
#
# Elastic Constant Matrix: (Units=GPa)
#
#
# Indices 1 2 3 4 5 6 
#
# 1 82.0554 36.9588 47.5925 -8.6041 -22.7804 -11.4557
# 2 36.9588 65.5758 21.7644 -11.0956 -33.4018 -8.2031
# 3 47.5925 21.7644 139.6315 3.5301 -24.3640 -17.1088
# 4 -8.6041 -11.0956 3.5301 19.7997 -7.2719 -6.8499
# 5 -22.7804 -33.4018 -24.3640 -7.2719 33.9190 7.9882
# 6 -11.4557 -8.2031 -17.1088 -6.8499 7.9882 30.9649
#
#
#
# Elastic Compliance Matrix: (Units=1/GPa)
#
#
# Indices 1 2 3 4 5 6 
#
# 1 0.021026 -0.000722 -0.004668 0.015906 0.012200 0.005379
# 2 -0.000722 0.077018 0.004291 0.081696 0.091988 0.016849
# 3 -0.004668 0.004291 0.009813 0.002708 0.007922 0.003387
# 4 0.015906 0.081696 0.002708 0.157964 0.119116 0.033238
# 5 0.012200 0.091988 0.007922 0.119116 0.154858 0.019660
# 6 0.005379 0.016849 0.003387 0.033238 0.019660 0.042901
#
#
# Mechanical properties :
#
#
# Convention : Reuss Voigt Hill
#
# Bulk Modulus (GPa) = 9.46451 55.54381 32.50416
# Shear Modulus (GPa) = 9.98008 28.99985 19.48997
#
# Velocity S-wave (km/s) = 2.13504 3.63945 2.98362
# Velocity P-wave (km/s) = 3.22502 6.55975 5.16871
#
# Compressibility (1/GPa) = 0.10565785
#
# Stress axis : x y z
#
# Youngs Moduli (GPa) = 47.56104 12.98392 101.90803
#
# Poissons Ratio (x) = 0.00938 0.47572
# Poissons Ratio (y) = 0.03436 -0.43731
# Poissons Ratio (z) = 0.22202 -0.05572
#
# Static dielectric constant tensor:
#      x y z
#    x 1.746350 0.006350 -0.020210 
#    y 0.006350 1.872310 0.005620 
#    z -0.020210 0.005620 1.792930 
# 
# From -- ./inp_files/471245.got.cif
#   From: 2010.05.17/outbox.cif.g08.bks.cpg/sg2_236_cif.got.tgz:471245.got - 2010.06.03 11:33:40.
