data_PCOD9012559
_publ_section_title
;
Structure prediction by ZEFSAII (Michael W. Deem and Ramdas Pophale) SiO2 
 PCOD9012559
Probable space group: P -1
;
_chemical_formula_sum "Si O2"
_cell_formula_units_Z 14
_cell_length_a 8.942456
_cell_length_b 11.635211
_cell_length_c 15.181963
_cell_angle_alpha 26.729747
_cell_angle_beta 115.716306
_cell_angle_gamma 124.054282
_cell_volume 579.282148
_symmetry_space_group_name_H-M "P -1"
_symmetry_group_IT_number 2
_symmetry_cell_setting 'triclinic'
loop_
_space_group_symop_operation_xyz
x,y,z
-x,-y,-z
loop_
_atom_site_type_symbol
_atom_site_label
_atom_site_fract_x
_atom_site_fract_y
_atom_site_fract_z
Si Si1 0.173717 0.258760 0.904425
Si Si2 0.800381 0.472874 0.438323
Si Si3 0.857905 0.505066 0.085532
Si Si4 0.364927 0.140586 0.537049
Si Si5 0.764299 0.489434 0.875902
Si Si6 0.717696 0.624481 0.480665
Si Si7 0.569730 0.010012 0.911168
O O1 0.184226 0.514221 0.671842
O O2 0.163523 0.306037 0.971555
O O3 0.335393 0.188045 0.958637
O O4 0.000000 0.000000 0.000000
O O5 0.582497 0.249932 0.542966
O O6 0.795823 0.711155 0.343479
O O7 0.000000 0.500000 0.500000
O O8 0.056872 0.501681 0.134047
O O9 0.714306 0.183717 0.287273
O O10 0.818152 0.592839 0.918671
O O11 0.326628 0.333617 0.321154
O O12 0.242152 0.173051 0.564937
O O13 0.623911 0.156728 0.073374
O O14 0.500000 0.500000 0.500000
O O15 0.720918 0.326019 0.712394
O O16 0.500000 0.000000 0.000000
#
# Coordination Sequence:
#
# PCOD9012559 Si02
#       7
#     2   2   2   2   2   2   2
#     4  12  27  47  69 105 146 188 244 313 370 434
#     4  11  24  44  69 108 142 188 242 305 369 430
#     4  11  28  46  71 106 147 196 250 301 376 441
#     4  11  23  48  73 104 147 193 243 305 366 443
#     4  11  23  47  73 105 143 201 246 302 368 442
#     4  10  21  40  71 103 135 181 241 295 358 430
#     4  12  21  43  75 101 142 188 243 299 360 431
#
# _framework density 24.167843000000001
#
# number of rings (size 3 to 8) (size 9 to 14) (size 15 to 20)
#    0.000    0.857    2.857    4.714    2.000    3.429 
#    5.143    0.000    0.000    0.000    0.000    0.000 
#    0.000    0.000    0.000    0.000    0.000    0.000 
#
# Total GULP energy -78009.167698 kJ/mol
# GULP energy per Si atom -5572.083407 kJ/mol
# Density = 2.411284 g / cm^3
# Si number density = 24.167843 Si / 1000 Ang^3
#
#
#
# Elastic Constant Matrix: (Units=GPa)
#
#
# Indices 1 2 3 4 5 6 
#
# 1 149.6866 73.5015 23.8483 12.6664 -7.0408 -1.0927
# 2 73.5015 121.4738 25.0301 2.6116 -1.4692 -17.3872
# 3 23.8483 25.0301 69.3975 6.7724 0.1376 5.2524
# 4 12.6664 2.6116 6.7724 36.6839 6.0538 -10.3164
# 5 -7.0408 -1.4692 0.1376 6.0538 33.4266 5.1138
# 6 -1.0927 -17.3872 5.2524 -10.3164 5.1138 54.2320
#
#
#
# Elastic Compliance Matrix: (Units=1/GPa)
#
#
# Indices 1 2 3 4 5 6 
#
# 1 0.010467 -0.006497 -0.000608 -0.004391 0.003168 -0.002947
# 2 -0.006497 0.013548 -0.003439 0.003837 -0.002294 0.005492
# 3 -0.000608 -0.003439 0.016485 -0.003715 0.000861 -0.003499
# 4 -0.004391 0.003837 -0.003715 0.032904 -0.008003 0.008515
# 5 0.003168 -0.002294 0.000861 -0.008003 0.032749 -0.005365
# 6 -0.002947 0.005492 -0.003499 0.008515 -0.005365 0.022605
#
#
# Mechanical properties :
#
#
# Convention : Reuss Voigt Hill
#
# Bulk Modulus (GPa) = 51.51870 65.03528 58.27699
# Shear Modulus (GPa) = 31.98608 39.41369 35.69989
#
# Velocity S-wave (km/s) = 3.64194 4.04274 3.84756
# Velocity P-wave (km/s) = 6.24886 6.98283 6.62602
#
# Compressibility (1/GPa) = 0.01941043
#
# Stress axis : x y z
#
# Youngs Moduli (GPa) = 95.53955 73.81145 60.66156
#
# Poissons Ratio (x) = 0.47956 0.03690
# Poissons Ratio (y) = 0.62073 0.20863
# Poissons Ratio (z) = 0.05812 0.25386
#
# Static dielectric constant tensor:
#      x y z
#    x 2.251060 0.050040 -0.142870 
#    y 0.050040 1.922700 -0.122110 
#    z -0.142870 -0.122110 1.530510 
# 
# From -- ./inp_files/499795.got.cif
#   From: 2010.05.17/outbox.cif.g08.bks.cpg/sg2_250_cif.got.tgz:499795.got - 2010.06.03 11:33:40.
