data_PCOD9012336
_publ_section_title
;
Structure prediction by ZEFSAII (Michael W. Deem and Ramdas Pophale) SiO2 
 PCOD9012336
Probable space group: P -1
;
_chemical_formula_sum "Si O2"
_cell_formula_units_Z 12
_cell_length_a 11.695119
_cell_length_b 8.855846
_cell_length_c 14.628160
_cell_angle_alpha 95.967236
_cell_angle_beta 149.156346
_cell_angle_gamma 105.801935
_cell_volume 544.751695
_symmetry_space_group_name_H-M "P -1"
_symmetry_group_IT_number 2
_symmetry_cell_setting 'triclinic'
loop_
_space_group_symop_operation_xyz
x,y,z
-x,-y,-z
loop_
_atom_site_type_symbol
_atom_site_label
_atom_site_fract_x
_atom_site_fract_y
_atom_site_fract_z
Si Si1 0.837288 0.330792 0.959467
Si Si2 0.042545 0.934146 0.927718
Si Si3 0.363868 0.319297 0.712291
Si Si4 0.700959 0.001398 0.567012
Si Si5 0.626465 0.334844 0.249420
Si Si6 0.171489 0.154366 0.769636
O O1 0.681476 0.372611 0.925290
O O2 0.536647 0.120288 0.687598
O O3 0.026509 0.278329 0.123321
O O4 0.000000 0.500000 0.000000
O O5 0.816876 0.909095 0.697429
O O6 0.403681 0.125629 0.149385
O O7 0.000000 0.000000 0.000000
O O8 0.416304 0.515948 0.729963
O O9 0.257750 0.273128 0.741677
O O10 0.081942 0.099578 0.448010
O O11 0.500000 0.000000 0.500000
O O12 0.017439 0.194843 0.740654
O O13 0.000000 0.500000 0.500000
O O14 0.468335 0.236174 0.034685
#
# Coordination Sequence:
#
# PCOD9012336 Si02
#       6
#     2   2   2   2   2   2
#     4  11  24  43  67  97 134 175 226 283 339 395
#     4  11  23  43  67  97 136 176 228 275 336 408
#     4  10  22  43  66  94 136 176 224 277 340 399
#     4  10  21  40  69  94 131 175 216 276 335 395
#     4  11  25  41  67 102 134 175 228 275 340 409
#     4   9  22  42  67  93 135 175 222 272 340 397
#
# _framework density 22.028383999999999
#
# number of rings (size 3 to 8) (size 9 to 14) (size 15 to 20)
#    0.000    1.667    1.667    1.500    9.333    1.333 
#    9.000    0.000    0.000    0.000    0.000    0.000 
#    0.000    0.000    0.000    0.000    0.000    0.000 
#
# Total GULP energy -66852.108581 kJ/mol
# GULP energy per Si atom -5571.009048 kJ/mol
# Density = 2.197825 g / cm^3
# Si number density = 22.028384 Si / 1000 Ang^3
#
#
#
# Elastic Constant Matrix: (Units=GPa)
#
#
# Indices 1 2 3 4 5 6 
#
# 1 125.6884 36.5207 27.1807 -13.6320 16.1899 1.7024
# 2 36.5207 121.3524 13.5478 -9.6340 14.0261 -1.3817
# 3 27.1807 13.5478 87.0411 -13.2732 8.4386 6.4882
# 4 -13.6320 -9.6340 -13.2732 31.1725 -2.0624 3.9314
# 5 16.1899 14.0261 8.4386 -2.0624 39.6435 -2.5992
# 6 1.7024 -1.3817 6.4882 3.9314 -2.5992 34.4631
#
#
#
# Elastic Compliance Matrix: (Units=1/GPa)
#
#
# Indices 1 2 3 4 5 6 
#
# 1 0.009650 -0.002177 -0.001965 0.002622 -0.002662 -0.000694
# 2 -0.002177 0.009322 -0.000320 0.001620 -0.002244 0.000187
# 3 -0.001965 -0.000320 0.013328 0.004988 -0.001867 -0.003135
# 4 0.002622 0.001620 0.004988 0.036436 -0.001154 -0.005247
# 5 -0.002662 -0.002244 -0.001867 -0.001154 0.027614 0.002607
# 6 -0.000694 0.000187 -0.003135 -0.005247 0.002607 0.030444
#
#
# Mechanical properties :
#
#
# Convention : Reuss Voigt Hill
#
# Bulk Modulus (GPa) = 42.78131 54.28670 48.53400
# Shear Modulus (GPa) = 34.84070 38.17800 36.50935
#
# Velocity S-wave (km/s) = 3.98128 4.16760 4.07551
# Velocity P-wave (km/s) = 6.37160 6.91780 6.65031
#
# Compressibility (1/GPa) = 0.02337469
#
# Stress axis : x y z
#
# Youngs Moduli (GPa) = 103.62350 107.27841 75.03159
#
# Poissons Ratio (x) = 0.23354 0.14744
# Poissons Ratio (y) = 0.22558 0.02404
# Poissons Ratio (z) = 0.20363 0.03437
#
# Static dielectric constant tensor:
#      x y z
#    x 1.877010 -0.071060 0.006990 
#    y -0.071060 1.838980 -0.064240 
#    z 0.006990 -0.064240 1.785360 
# 
# From -- ./inp_files/188968.got.cif
#   From: 2010.05.17/outbox.cif.g08.bks.cpg/sg2_95_cif.got.tgz:188968.got - 2010.06.03 11:33:40.
