data_PCOD9012660
_publ_section_title
;
Structure prediction by ZEFSAII (Michael W. Deem and Ramdas Pophale) SiO2 
 PCOD9012660
Probable space group: P -1
;
_chemical_formula_sum "Si O2"
_cell_formula_units_Z 16
_cell_length_a 9.255788
_cell_length_b 5.513141
_cell_length_c 20.293715
_cell_angle_alpha 116.774796
_cell_angle_beta 135.788841
_cell_angle_gamma 74.560430
_cell_volume 642.001346
_symmetry_space_group_name_H-M "P -1"
_symmetry_group_IT_number 2
_symmetry_cell_setting 'triclinic'
loop_
_space_group_symop_operation_xyz
x,y,z
-x,-y,-z
loop_
_atom_site_type_symbol
_atom_site_label
_atom_site_fract_x
_atom_site_fract_y
_atom_site_fract_z
Si Si1 0.107680 0.855520 0.417820
Si Si2 0.236504 0.390447 0.326828
Si Si3 0.830193 0.486024 0.118886
Si Si4 0.761495 0.002210 0.939556
Si Si5 0.460530 0.881548 0.704068
Si Si6 0.533173 0.254348 0.092466
Si Si7 0.081262 0.963671 0.748056
Si Si8 0.781432 0.668037 0.392018
O O1 0.267532 0.682954 0.409098
O O2 0.993939 0.687438 0.420823
O O3 0.185973 0.143969 0.509439
O O4 0.935759 0.905073 0.312532
O O5 0.419835 0.267524 0.333255
O O6 0.038210 0.398451 0.212446
O O7 0.138714 0.194606 0.327863
O O8 0.639842 0.486348 0.108612
O O9 0.888521 0.797366 0.158101
O O10 0.758931 0.283937 0.013055
O O11 0.622159 0.976447 0.825941
O O12 0.668351 0.762413 0.929610
O O13 0.000000 0.000000 0.000000
O O14 0.302943 0.634749 0.651326
O O15 0.367889 0.150548 0.677664
O O16 0.723311 0.204909 0.197807
O O17 0.500000 0.000000 0.000000
#
# Coordination Sequence:
#
# PCOD9012660 Si02
#       8
#     2   2   2   2   2   2   2   2
#     4  10  25  47  77 102 137 189 238 299 363 428
#     4  10  23  42  72 103 143 183 239 289 357 433
#     4   9  20  41  63  98 131 183 234 287 343 423
#     4  11  22  41  64  95 142 189 231 285 357 415
#     4  12  28  48  70 109 150 188 236 300 361 426
#     4   9  20  37  62  92 130 173 232 287 334 420
#     4  10  21  40  73  98 134 183 236 291 348 426
#     4  11  29  49  75 108 145 181 243 304 362 425
#
# _framework density 24.922066000000001
#
# number of rings (size 3 to 8) (size 9 to 14) (size 15 to 20)
#    0.000    1.750    1.250    0.750   12.250    4.000 
#    6.750    1.250    0.000    0.000    0.000    0.000 
#    0.000    0.000    0.000    0.000    0.000    0.000 
#
# Total GULP energy -89493.739457 kJ/mol
# GULP energy per Si atom -5593.358716 kJ/mol
# Density = 2.486534 g / cm^3
# Si number density = 24.922066 Si / 1000 Ang^3
#
#
#
# Elastic Constant Matrix: (Units=GPa)
#
#
# Indices 1 2 3 4 5 6 
#
# 1 111.4608 16.4913 -2.0166 0.6093 -10.5460 -11.1261
# 2 16.4913 77.8545 15.5016 2.7315 0.2839 0.4957
# 3 -2.0166 15.5016 108.0322 12.7540 -29.4901 7.5823
# 4 0.6093 2.7315 12.7540 40.0108 -1.1792 -0.7788
# 5 -10.5460 0.2839 -29.4901 -1.1792 41.8953 7.7499
# 6 -11.1261 0.4957 7.5823 -0.7788 7.7499 25.2838
#
#
#
# Elastic Compliance Matrix: (Units=1/GPa)
#
#
# Indices 1 2 3 4 5 6 
#
# 1 0.009912 -0.002328 0.001023 -0.000177 0.002617 0.003293
# 2 -0.002328 0.013905 -0.002796 -0.000096 -0.002720 0.000372
# 3 0.001023 -0.002796 0.013683 -0.003998 0.011114 -0.007128
# 4 -0.000177 -0.000096 -0.003998 0.026253 -0.002625 0.002736
# 5 0.002617 -0.002720 0.011114 -0.002625 0.034670 -0.012836
# 6 0.003293 0.000372 -0.007128 0.002736 -0.012836 0.047149
#
#
# Mechanical properties :
#
#
# Convention : Reuss Voigt Hill
#
# Bulk Modulus (GPa) = 34.13091 39.70001 36.91546
# Shear Modulus (GPa) = 30.57381 39.26271 34.91826
#
# Velocity S-wave (km/s) = 3.50634 3.97346 3.74719
# Velocity P-wave (km/s) = 5.48792 6.08403 5.79365
#
# Compressibility (1/GPa) = 0.02929895
#
# Stress axis : x y z
#
# Youngs Moduli (GPa) = 100.88858 71.91593 73.08428
#
# Poissons Ratio (x) = 0.16739 -0.07477
# Poissons Ratio (y) = 0.23483 0.20434
# Poissons Ratio (z) = -0.10322 0.20108
#
# Static dielectric constant tensor:
#      x y z
#    x 1.968540 -0.022270 -0.023550 
#    y -0.022270 2.047950 0.010550 
#    z -0.023550 0.010550 1.998530 
# 
# From -- ./inp_files/585894.got.cif
#   From: 2010.05.17/outbox.cif.g08.bks.cpg/sg2_293_cif.got.tgz:585894.got - 2010.06.03 11:33:40.
