data_PCOD9012269
_publ_section_title
;
Structure prediction by ZEFSAII (Michael W. Deem and Ramdas Pophale) SiO2 
 PCOD9012269
Probable space group: P -1
;
_chemical_formula_sum "Si O2"
_cell_formula_units_Z 16
_cell_length_a 13.971654
_cell_length_b 9.297669
_cell_length_c 7.809993
_cell_angle_alpha 51.479073
_cell_angle_beta 78.357445
_cell_angle_gamma 107.177131
_cell_volume 649.580326
_symmetry_space_group_name_H-M "P -1"
_symmetry_group_IT_number 2
_symmetry_cell_setting 'triclinic'
loop_
_space_group_symop_operation_xyz
x,y,z
-x,-y,-z
loop_
_atom_site_type_symbol
_atom_site_label
_atom_site_fract_x
_atom_site_fract_y
_atom_site_fract_z
Si Si1 0.198578 0.520462 0.723341
Si Si2 0.569822 0.746124 0.859921
Si Si3 0.419118 0.509747 0.659868
Si Si4 0.985208 0.252968 0.494383
Si Si5 0.448392 0.985324 0.836081
Si Si6 0.965447 0.064067 0.140673
Si Si7 0.194666 0.869728 0.660148
Si Si8 0.178516 0.720415 0.223305
O O1 0.292788 0.460550 0.707476
O O2 0.223552 0.685989 0.748137
O O3 0.196601 0.623265 0.466808
O O4 0.074902 0.304347 0.964564
O O5 0.488133 0.839351 0.836069
O O6 0.685877 0.907097 0.595288
O O7 0.500000 0.500000 0.000000
O O8 0.607336 0.696666 0.062044
O O9 0.500000 0.500000 0.500000
O O10 0.492006 0.779091 0.457217
O O11 0.908443 0.201116 0.390634
O O12 0.893668 0.186127 0.735057
O O13 0.086823 0.508557 0.298536
O O14 0.044160 0.115383 0.591133
O O15 0.308879 0.868689 0.989421
O O16 0.500000 0.000000 0.000000
O O17 0.854784 0.085004 0.185046
O O18 0.000000 0.000000 0.000000
#
# Coordination Sequence:
#
# PCOD9012269 Si02
#       8
#     2   2   2   2   2   2   2   2
#     4  11  22  44  69 103 148 187 244 289 364 441
#     4  12  28  49  71 107 150 189 247 307 367 436
#     4  12  25  43  79 109 139 201 247 290 364 437
#     4  10  22  42  67 100 139 190 235 285 365 433
#     4  12  22  46  75 108 148 194 241 301 360 436
#     4  12  25  41  69 105 136 180 249 303 359 435
#     4  11  25  49  69  96 149 196 230 306 375 429
#     4  10  21  40  69 104 147 182 231 305 355 414
#
# _framework density 24.631285999999999
#
# number of rings (size 3 to 8) (size 9 to 14) (size 15 to 20)
#    0.000    0.750    5.000    2.250    3.500    1.500 
#    0.000    0.000    0.000    0.000    0.000    0.000 
#    0.000    0.000    0.000    0.000    0.000    0.000 
#
# Total GULP energy -89433.527139 kJ/mol
# GULP energy per Si atom -5589.595446 kJ/mol
# Density = 2.457522 g / cm^3
# Si number density = 24.631286 Si / 1000 Ang^3
#
#
#
# Elastic Constant Matrix: (Units=GPa)
#
#
# Indices 1 2 3 4 5 6 
#
# 1 159.9727 30.0041 35.9559 -1.0573 -26.7519 -38.3340
# 2 30.0041 106.3252 29.2208 -0.2456 -20.6862 -31.7708
# 3 35.9559 29.2208 105.7411 -16.8588 -37.2789 -17.9373
# 4 -1.0573 -0.2456 -16.8588 41.5903 -3.5223 7.2435
# 5 -26.7519 -20.6862 -37.2789 -3.5223 56.3851 -7.0902
# 6 -38.3340 -31.7708 -17.9373 7.2435 -7.0902 43.4114
#
#
#
# Elastic Compliance Matrix: (Units=1/GPa)
#
#
# Indices 1 2 3 4 5 6 
#
# 1 0.009694 0.001917 0.000405 -0.000980 0.006947 0.011429
# 2 0.001917 0.014556 0.000353 -0.001482 0.008161 0.014072
# 3 0.000405 0.000353 0.015886 0.006065 0.012230 0.008166
# 4 -0.000980 -0.001482 0.006065 0.027410 0.004297 -0.003316
# 5 0.006947 0.008161 0.012230 0.004297 0.035170 0.022187
# 6 0.011429 0.014072 0.008166 -0.003316 0.022187 0.050978
#
#
# Mechanical properties :
#
#
# Convention : Reuss Voigt Hill
#
# Bulk Modulus (GPa) = 21.98358 62.48895 42.23627
# Shear Modulus (GPa) = 30.58024 46.73458 38.65741
#
# Velocity S-wave (km/s) = 3.52734 4.36060 3.96592
# Velocity P-wave (km/s) = 5.05312 7.12587 6.17705
#
# Compressibility (1/GPa) = 0.04548849
#
# Stress axis : x y z
#
# Youngs Moduli (GPa) = 103.15249 68.70007 62.94993
#
# Poissons Ratio (x) = -0.13173 -0.02552
# Poissons Ratio (y) = -0.19779 -0.02225
# Poissons Ratio (z) = -0.04182 -0.02428
#
# Static dielectric constant tensor:
#      x y z
#    x 1.900770 0.015400 0.037320 
#    y 0.015400 2.066650 0.064710 
#    z 0.037320 0.064710 1.923200 
# 
# From -- ./inp_files/297397.got.cif
#   From: 2010.05.17/outbox.cif.g08.bks.cpg/sg2_149_cif.got.tgz:297397.got - 2010.06.03 11:33:40.
