data_PCOD9012517
_publ_section_title
;
Structure prediction by ZEFSAII (Michael W. Deem and Ramdas Pophale) SiO2 
 PCOD9012517
Probable space group: P -1
;
_chemical_formula_sum "Si O2"
_cell_formula_units_Z 15
_cell_length_a 5.599852
_cell_length_b 8.050133
_cell_length_c 18.036578
_cell_angle_alpha 63.883592
_cell_angle_beta 113.948995
_cell_angle_gamma 92.386767
_cell_volume 657.843203
_symmetry_space_group_name_H-M "P -1"
_symmetry_group_IT_number 2
_symmetry_cell_setting 'triclinic'
loop_
_space_group_symop_operation_xyz
x,y,z
-x,-y,-z
loop_
_atom_site_type_symbol
_atom_site_label
_atom_site_fract_x
_atom_site_fract_y
_atom_site_fract_z
Si Si1 0.449156 0.540553 0.740775
Si Si2 0.937324 0.203700 0.855121
Si Si3 0.080846 0.212897 0.026230
Si Si4 0.594151 0.504184 0.927095
Si Si5 0.888253 0.788086 0.441351
Si Si6 0.008345 0.328383 0.682890
Si Si7 0.500000 0.500000 0.500000
Si Si8 0.630029 0.134638 0.435525
O O1 0.682482 0.365822 0.792933
O O2 0.417296 0.563421 0.821060
O O3 0.171675 0.497069 0.683715
O O4 0.528491 0.710974 0.669106
O O5 0.051373 0.208176 0.786673
O O6 0.862778 0.002683 0.903396
O O7 0.134581 0.238918 0.940122
O O8 0.218999 0.336815 0.075028
O O9 0.771002 0.301502 0.975015
O O10 0.500000 0.500000 0.000000
O O11 0.873011 0.785035 0.352104
O O12 0.724676 0.637351 0.483172
O O13 0.202347 0.750771 0.510374
O O14 0.793293 0.989505 0.426776
O O15 0.701052 0.395449 0.611314
O O16 0.500000 0.000000 0.500000
#
# Coordination Sequence:
#
# PCOD9012517 Si02
#       8
#     2   2   2   2   2   2   1   2
#     4  11  25  42  65 102 134 182 241 279 355 423
#     4  10  23  41  69  97 140 176 227 293 339 428
#     4   9  21  43  64 103 136 178 223 275 362 413
#     4  10  21  40  70  97 140 177 217 288 346 427
#     4  11  26  43  68  96 132 183 235 287 357 409
#     4  12  25  41  68 101 130 183 234 291 349 420
#     4  12  24  44  68  92 138 178 228 298 344 412
#     4  11  26  46  66  98 139 184 234 297 348 421
#
# _framework density 22.801787000000001
#
# number of rings (size 3 to 8) (size 9 to 14) (size 15 to 20)
#    0.000    1.333    1.333    2.800    5.600    5.333 
#    0.000    4.000    0.000    0.000    0.000    0.000 
#    0.000    0.000    0.000    0.000    0.000    0.000 
#
# Total GULP energy -83559.288932 kJ/mol
# GULP energy per Si atom -5570.619262 kJ/mol
# Density = 2.274989 g / cm^3
# Si number density = 22.801787 Si / 1000 Ang^3
#
#
#
# Elastic Constant Matrix: (Units=GPa)
#
#
# Indices 1 2 3 4 5 6 
#
# 1 54.2607 22.4008 49.4202 4.9318 -17.9832 14.8998
# 2 22.4008 92.7671 66.2300 2.5613 -1.9338 4.8048
# 3 49.4202 66.2300 173.8635 3.6666 -36.3141 0.8656
# 4 4.9318 2.5613 3.6666 53.3617 -2.0237 -3.3065
# 5 -17.9832 -1.9338 -36.3141 -2.0237 42.8858 13.8563
# 6 14.8998 4.8048 0.8656 -3.3065 13.8563 37.4378
#
#
#
# Elastic Compliance Matrix: (Units=1/GPa)
#
#
# Indices 1 2 3 4 5 6 
#
# 1 0.036216 -0.003507 -0.005222 -0.003441 0.017054 -0.020459
# 2 -0.003507 0.016093 -0.006606 -0.000132 -0.007012 0.002067
# 3 -0.005222 -0.006606 0.011202 0.000301 0.006976 0.000112
# 4 -0.003441 -0.000132 0.000301 0.019213 -0.001455 0.003615
# 5 0.017054 -0.007012 0.006976 -0.001455 0.043147 -0.022147
# 6 -0.020459 0.002067 0.000112 0.003615 -0.022147 0.043102
#
#
# Mechanical properties :
#
#
# Convention : Reuss Voigt Hill
#
# Bulk Modulus (GPa) = 30.44810 66.33256 48.39033
# Shear Modulus (GPa) = 23.74285 38.92642 31.33463
#
# Velocity S-wave (km/s) = 3.23037 4.13627 3.71107
# Velocity P-wave (km/s) = 5.22457 7.20873 6.29531
#
# Compressibility (1/GPa) = 0.03284277
#
# Stress axis : x y z
#
# Youngs Moduli (GPa) = 27.61179 62.13911 89.26614
#
# Poissons Ratio (x) = 0.21792 0.46615
# Poissons Ratio (y) = 0.09683 0.58965
# Poissons Ratio (z) = 0.14419 0.41046
#
# Static dielectric constant tensor:
#      x y z
#    x 2.102600 -0.094700 0.069070 
#    y -0.094700 1.884950 -0.037800 
#    z 0.069070 -0.037800 1.836960 
# 
# From -- ./inp_files/116290.got.cif
#   From: 2010.05.17/outbox.cif.g08.bks.cpg/sg2_59_cif.got.tgz:116290.got - 2010.06.03 11:33:40.
