data_PCOD9012572
_publ_section_title
;
Structure prediction by ZEFSAII (Michael W. Deem and Ramdas Pophale) SiO2 
 PCOD9012572
Probable space group: P -1
;
_chemical_formula_sum "Si O2"
_cell_formula_units_Z 16
_cell_length_a 11.396109
_cell_length_b 11.985724
_cell_length_c 15.217492
_cell_angle_alpha 48.503986
_cell_angle_beta 27.514014
_cell_angle_gamma 41.814802
_cell_volume 640.198629
_symmetry_space_group_name_H-M "P -1"
_symmetry_group_IT_number 2
_symmetry_cell_setting 'triclinic'
loop_
_space_group_symop_operation_xyz
x,y,z
-x,-y,-z
loop_
_atom_site_type_symbol
_atom_site_label
_atom_site_fract_x
_atom_site_fract_y
_atom_site_fract_z
Si Si1 0.532960 0.170136 0.395923
Si Si2 0.808528 0.033677 0.441841
Si Si3 0.077227 0.564788 0.290331
Si Si4 0.684241 0.616132 0.116164
Si Si5 0.693174 0.314442 0.511584
Si Si6 0.281204 0.323284 0.141269
Si Si7 0.182233 0.651997 0.355048
Si Si8 0.342203 0.904828 0.836324
O O1 0.794013 0.124025 0.311610
O O2 0.574406 0.208129 0.248981
O O3 0.246524 0.295869 0.568250
O O4 0.500000 0.000000 0.500000
O O5 0.807150 0.158732 0.451066
O O6 0.519642 0.012725 0.658045
O O7 0.058814 0.845418 0.363433
O O8 0.207366 0.504486 0.139867
O O9 0.215606 0.628699 0.240588
O O10 0.465913 0.807121 0.896607
O O11 0.506820 0.714536 0.268294
O O12 0.477915 0.534001 0.268421
O O13 0.680326 0.693831 0.981426
O O14 0.000000 0.500000 0.000000
O O15 0.500000 0.500000 0.500000
O O16 0.981629 0.312744 0.358076
O O17 0.047241 0.408491 0.433497
O O18 0.000000 0.000000 0.000000
#
# Coordination Sequence:
#
# PCOD9012572 Si02
#       8
#     2   2   2   2   2   2   2   2
#     4  10  21  40  71 110 142 192 251 295 378 461
#     4  11  24  48  80 110 147 208 260 305 386 467
#     4  11  20  45  78 104 146 204 243 311 394 448
#     4  12  28  48  75 116 148 197 269 307 382 466
#     4  12  26  54  81 104 156 211 258 321 375 451
#     4  12  26  49  80 109 152 207 256 312 391 451
#     4  11  23  44  78 106 148 193 255 313 384 459
#     4  11  24  46  71 117 162 186 248 327 394 453
#
# _framework density 24.992243999999999
#
# number of rings (size 3 to 8) (size 9 to 14) (size 15 to 20)
#    0.000    0.750    6.250    1.500    1.750    2.500 
#    6.750    1.250    0.000    0.000    0.000    0.000 
#    0.000    0.000    0.000    0.000    0.000    0.000 
#
# Total GULP energy -89233.250812 kJ/mol
# GULP energy per Si atom -5577.078176 kJ/mol
# Density = 2.493536 g / cm^3
# Si number density = 24.992244 Si / 1000 Ang^3
#
#
#
# Elastic Constant Matrix: (Units=GPa)
#
#
# Indices 1 2 3 4 5 6 
#
# 1 207.2421 72.8999 64.9726 19.2426 10.3537 -16.0965
# 2 72.8999 130.2761 42.4673 29.7127 10.4016 -0.2450
# 3 64.9726 42.4673 136.0605 21.4443 9.2077 -15.4713
# 4 19.2426 29.7127 21.4443 31.0608 -3.8042 1.1681
# 5 10.3537 10.4016 9.2077 -3.8042 54.2986 10.7343
# 6 -16.0965 -0.2450 -15.4713 1.1681 10.7343 55.1236
#
#
#
# Elastic Compliance Matrix: (Units=1/GPa)
#
#
# Indices 1 2 3 4 5 6 
#
# 1 0.006671 -0.003022 -0.002034 0.000029 -0.000640 0.001488
# 2 -0.003022 0.011878 -0.000709 -0.009248 -0.002145 -0.000415
# 3 -0.002034 -0.000709 0.009797 -0.005174 -0.002025 0.002656
# 4 0.000029 -0.009248 -0.005174 0.045541 0.006571 -0.003729
# 5 -0.000640 -0.002145 -0.002025 0.006571 0.020730 -0.004941
# 6 0.001488 -0.000415 0.002656 -0.003729 -0.004941 0.020360
#
#
# Mechanical properties :
#
#
# Convention : Reuss Voigt Hill
#
# Bulk Modulus (GPa) = 59.46990 92.69534 76.08262
# Shear Modulus (GPa) = 37.84646 47.64587 42.74617
#
# Velocity S-wave (km/s) = 3.89566 4.37100 4.14016
# Velocity P-wave (km/s) = 6.63942 7.91482 7.30501
#
# Compressibility (1/GPa) = 0.01681523
#
# Stress axis : x y z
#
# Youngs Moduli (GPa) = 149.89992 84.18955 102.07449
#
# Poissons Ratio (x) = 0.25446 0.20765
# Poissons Ratio (y) = 0.45307 0.07232
# Poissons Ratio (z) = 0.30494 0.05965
#
# Static dielectric constant tensor:
#      x y z
#    x 2.124910 0.000210 0.076540 
#    y 0.000210 2.039080 -0.030270 
#    z 0.076540 -0.030270 2.115680 
# 
# From -- ./inp_files/518830.got.cif
#   From: 2010.05.17/outbox.cif.g08.bks.cpg/sg2_260_cif.got.tgz:518830.got - 2010.06.03 11:33:40.
