data_PCOD9012059
_publ_section_title
;
Structure prediction by ZEFSAII (Michael W. Deem and Ramdas Pophale) SiO2 
 PCOD9012059
Probable space group: P -1
;
_chemical_formula_sum "Si O2"
_cell_formula_units_Z 16
_cell_length_a 12.723086
_cell_length_b 13.064299
_cell_length_c 7.126203
_cell_angle_alpha 128.209512
_cell_angle_beta 49.766498
_cell_angle_gamma 134.317467
_cell_volume 615.897340
_symmetry_space_group_name_H-M "P -1"
_symmetry_group_IT_number 2
_symmetry_cell_setting 'triclinic'
loop_
_space_group_symop_operation_xyz
x,y,z
-x,-y,-z
loop_
_atom_site_type_symbol
_atom_site_label
_atom_site_fract_x
_atom_site_fract_y
_atom_site_fract_z
Si Si1 0.663654 0.654387 0.505683
Si Si2 0.640368 0.266303 0.746989
Si Si3 0.836113 0.594300 0.773356
Si Si4 0.068403 0.393701 0.741674
Si Si5 0.677070 0.768549 0.045958
Si Si6 0.753697 0.134084 0.923533
Si Si7 0.827371 0.105311 0.215931
Si Si8 0.495126 0.181727 0.238733
O O1 0.500000 0.500000 0.500000
O O2 0.808301 0.621571 0.280251
O O3 0.693908 0.729075 0.763133
O O4 0.623017 0.753648 0.526951
O O5 0.781529 0.439160 0.768408
O O6 0.703928 0.154222 0.493076
O O7 0.498540 0.253193 0.764120
O O8 0.563509 0.227526 0.998720
O O9 0.854614 0.559591 0.496746
O O10 0.706817 0.648908 0.987100
O O11 0.001377 0.744872 0.798739
O O12 0.910469 0.231528 0.735877
O O13 0.000000 0.500000 0.000000
O O14 0.797499 0.945636 0.147140
O O15 0.626066 0.993471 0.796182
O O16 0.792839 0.076586 0.001603
O O17 0.660202 0.221727 0.192772
#
# Coordination Sequence:
#
# PCOD9012059 Si02
#       8
#     2   2   2   2   2   2   2   2
#     4  10  21  40  68  93 134 177 223 277 335 406
#     4  11  22  43  72  97 134 178 230 277 336 408
#     4  11  25  44  70 101 138 180 224 281 344 411
#     4  11  24  44  67 101 139 178 228 278 342 408
#     4  10  23  44  66  99 141 173 225 280 344 406
#     4  11  23  41  67  94 137 176 226 278 335 400
#     4  12  23  42  69 106 135 178 225 283 343 407
#     4  10  23  44  66  96 133 179 231 277 337 399
#
# _framework density 25.978354
#
# number of rings (size 3 to 8) (size 9 to 14) (size 15 to 20)
#    0.000    1.250    2.500    3.750    0.000    5.500 
#    0.000    1.250    0.000    0.000    0.000    0.000 
#    0.000    0.000    0.000    0.000    0.000    0.000 
#
# Total GULP energy -89548.830126 kJ/mol
# GULP energy per Si atom -5596.801883 kJ/mol
# Density = 2.591923 g / cm^3
# Si number density = 25.978354 Si / 1000 Ang^3
#
#
#
# Elastic Constant Matrix: (Units=GPa)
#
#
# Indices 1 2 3 4 5 6 
#
# 1 71.1714 19.4181 8.6779 6.4915 -35.5004 2.1182
# 2 19.4181 157.0383 40.2306 15.2610 -9.9150 10.9622
# 3 8.6779 40.2306 137.5411 2.8118 -18.0917 -7.8235
# 4 6.4915 15.2610 2.8118 41.6360 -6.9559 -0.2615
# 5 -35.5004 -9.9150 -18.0917 -6.9559 44.7222 -5.5104
# 6 2.1182 10.9622 -7.8235 -0.2615 -5.5104 47.6657
#
#
#
# Elastic Compliance Matrix: (Units=1/GPa)
#
#
# Indices 1 2 3 4 5 6 
#
# 1 0.024259 -0.002407 0.001888 0.000291 0.019788 0.002075
# 2 -0.002407 0.007564 -0.002383 -0.002564 -0.001874 -0.002255
# 3 0.001888 -0.002383 0.008613 0.000829 0.004886 0.002447
# 4 0.000291 -0.002564 0.000829 0.025555 0.004137 0.001331
# 5 0.019788 -0.001874 0.004886 0.004137 0.040901 0.005105
# 6 0.002075 -0.002255 0.002447 0.001331 0.005105 0.022405
#
#
# Mechanical properties :
#
#
# Convention : Reuss Voigt Hill
#
# Bulk Modulus (GPa) = 28.87422 55.82268 42.34845
# Shear Modulus (GPa) = 34.09565 46.63306 40.36435
#
# Velocity S-wave (km/s) = 3.62672 4.24143 3.94606
# Velocity P-wave (km/s) = 5.35503 6.74693 6.09087
#
# Compressibility (1/GPa) = 0.03463297
#
# Stress axis : x y z
#
# Youngs Moduli (GPa) = 41.22159 132.20181 116.09909
#
# Poissons Ratio (x) = 0.31825 -0.21925
# Poissons Ratio (y) = 0.09923 0.27667
# Poissons Ratio (z) = -0.07785 0.31504
#
# Static dielectric constant tensor:
#      x y z
#    x 2.115520 -0.025700 -0.032120 
#    y -0.025700 2.015640 0.062190 
#    z -0.032120 0.062190 2.185770 
# 
# From -- ./inp_files/316037.got.cif
#   From: 2010.05.17/outbox.cif.g08.bks.cpg/sg2_159_cif.got.tgz:316037.got - 2010.06.03 11:33:40.
