data_PCOD9012163
_publ_section_title
;
Structure prediction by ZEFSAII (Michael W. Deem and Ramdas Pophale) SiO2 
 PCOD9012163
Probable space group: P -1
;
_chemical_formula_sum "Si O2"
_cell_formula_units_Z 16
_cell_length_a 11.960695
_cell_length_b 18.618908
_cell_length_c 15.882986
_cell_angle_alpha 29.429321
_cell_angle_beta 153.034599
_cell_angle_gamma 132.629381
_cell_volume 705.967772
_symmetry_space_group_name_H-M "P -1"
_symmetry_group_IT_number 2
_symmetry_cell_setting 'triclinic'
loop_
_space_group_symop_operation_xyz
x,y,z
-x,-y,-z
loop_
_atom_site_type_symbol
_atom_site_label
_atom_site_fract_x
_atom_site_fract_y
_atom_site_fract_z
Si Si1 0.007871 0.176127 0.320769
Si Si2 0.206274 0.790441 0.293062
Si Si3 0.979616 0.979628 0.784825
Si Si4 0.191305 0.275478 0.781726
Si Si5 0.449554 0.172966 0.751910
Si Si6 0.993534 0.676576 0.573835
Si Si7 0.385908 0.071561 0.536289
Si Si8 0.439642 0.561020 0.130739
O O1 0.246559 0.190620 0.521066
O O2 0.109655 0.183853 0.287539
O O3 0.736792 0.316171 0.038644
O O4 0.000000 0.000000 0.500000
O O5 0.413068 0.845441 0.422395
O O6 0.396668 0.624126 0.541905
O O7 0.019500 0.749211 0.273517
O O8 0.021616 0.928299 0.962382
O O9 0.714554 0.978275 0.565275
O O10 0.257856 0.848618 0.059910
O O11 0.980500 0.153141 0.591368
O O12 0.341629 0.376416 0.817144
O O13 0.045055 0.361346 0.509185
O O14 0.438396 0.091716 0.123413
O O15 0.278928 0.297310 0.583392
O O16 0.500000 0.000000 0.000000
O O17 0.245288 0.569166 0.913243
#
# Coordination Sequence:
#
# PCOD9012163 Si02
#       8
#     2   2   2   2   2   2   2   2
#     4  11  19  38  69  96 128 165 226 269 320 399
#     4  12  28  45  61 101 144 170 216 277 334 386
#     4  11  22  40  67  98 132 172 219 277 323 386
#     4  12  24  44  72  94 131 183 227 261 319 410
#     4   9  17  33  60  97 129 154 212 280 315 370
#     4  10  21  40  68  98 125 171 229 269 316 392
#     4  12  23  41  70  99 126 178 223 270 327 383
#     4  11  26  44  68 100 133 176 215 277 337 384
#
# _framework density 22.663923
#
# number of rings (size 3 to 8) (size 9 to 14) (size 15 to 20)
#    0.000    1.000    5.000    3.000    1.750    3.500 
#    0.000    0.625    0.000    0.000    0.000    0.000 
#    0.000    0.000    0.000    0.000    0.000    0.000 
#
# Total GULP energy -89392.456428 kJ/mol
# GULP energy per Si atom -5587.028527 kJ/mol
# Density = 2.261234 g / cm^3
# Si number density = 22.663923 Si / 1000 Ang^3
#
#
#
# Elastic Constant Matrix: (Units=GPa)
#
#
# Indices 1 2 3 4 5 6 
#
# 1 77.1721 11.2638 17.0310 14.6924 8.2554 0.2509
# 2 11.2638 56.2595 18.0908 17.7895 14.7870 5.6014
# 3 17.0310 18.0908 57.2527 -2.4662 1.3327 -4.0169
# 4 14.6924 17.7895 -2.4662 35.7238 -4.1841 1.5601
# 5 8.2554 14.7870 1.3327 -4.1841 21.3487 6.1724
# 6 0.2509 5.6014 -4.0169 1.5601 6.1724 29.0993
#
#
#
# Elastic Compliance Matrix: (Units=1/GPa)
#
#
# Indices 1 2 3 4 5 6 
#
# 1 0.017427 0.006110 -0.007256 -0.012314 -0.013262 0.001145
# 2 0.006110 0.038204 -0.014331 -0.026323 -0.032795 -0.001018
# 3 -0.007256 -0.014331 0.024614 0.013221 0.012990 0.002755
# 4 -0.012314 -0.026323 0.013221 0.051058 0.032966 -0.002732
# 5 -0.013262 -0.032795 0.012990 0.032966 0.083596 -0.011279
# 6 0.001145 -0.001018 0.002755 -0.002732 -0.011279 0.037470
#
#
# Mechanical properties :
#
#
# Convention : Reuss Voigt Hill
#
# Bulk Modulus (GPa) = 20.28805 31.49505 25.89155
# Shear Modulus (GPa) = 16.68031 26.85428 21.76729
#
# Velocity S-wave (km/s) = 2.71585 3.44596 3.10246
# Velocity P-wave (km/s) = 4.33654 5.45523 4.92773
#
# Compressibility (1/GPa) = 0.04929009
#
# Stress axis : x y z
#
# Youngs Moduli (GPa) = 57.38216 26.17495 40.62785
#
# Poissons Ratio (x) = -0.15992 0.29479
# Poissons Ratio (y) = -0.35059 0.58225
# Poissons Ratio (z) = 0.41636 0.37512
#
# Static dielectric constant tensor:
#      x y z
#    x 1.866320 -0.029630 0.053450 
#    y -0.029630 1.821210 -0.019940 
#    z 0.053450 -0.019940 1.856130 
# 
# From -- ./inp_files/447314.got.cif
#   From: 2010.05.17/outbox.cif.g08.bks.cpg/sg2_224_cif.got.tgz:447314.got - 2010.06.03 11:33:40.
