data_PCOD9012879
_publ_section_title
;
Structure prediction by ZEFSAII (Michael W. Deem and Ramdas Pophale) SiO2 
 PCOD9012879
Probable space group: P -1
;
_chemical_formula_sum "Si O2"
_cell_formula_units_Z 14
_cell_length_a 7.917832
_cell_length_b 9.262670
_cell_length_c 13.937838
_cell_angle_alpha 59.942526
_cell_angle_beta 79.274734
_cell_angle_gamma 43.217442
_cell_volume 577.580898
_symmetry_space_group_name_H-M "P -1"
_symmetry_group_IT_number 2
_symmetry_cell_setting 'triclinic'
loop_
_space_group_symop_operation_xyz
x,y,z
-x,-y,-z
loop_
_atom_site_type_symbol
_atom_site_label
_atom_site_fract_x
_atom_site_fract_y
_atom_site_fract_z
Si Si1 0.831808 0.548023 0.634550
Si Si2 0.550414 0.724610 0.161602
Si Si3 0.390267 0.498738 0.152493
Si Si4 0.926405 0.688912 0.024790
Si Si5 0.633557 0.266011 0.630878
Si Si6 0.722071 0.990694 0.540253
Si Si7 0.857592 0.937062 0.322818
O O1 0.743728 0.481445 0.745922
O O2 0.831169 0.727247 0.624229
O O3 0.587612 0.756060 0.520193
O O4 0.084899 0.293276 0.640520
O O5 0.500784 0.601342 0.136234
O O6 0.787345 0.673234 0.125140
O O7 0.561210 0.655158 0.293604
O O8 0.295310 0.024803 0.082272
O O9 0.627864 0.199759 0.208074
O O10 0.170379 0.624846 0.054027
O O11 0.000000 0.500000 0.000000
O O12 0.500000 0.500000 0.500000
O O13 0.773943 0.038932 0.618943
O O14 0.873093 0.171762 0.691846
O O15 0.816944 0.978730 0.428566
#
# Coordination Sequence:
#
# PCOD9012879 Si02
#       7
#     2   2   2   2   2   2   2
#     4  10  21  41  62 106 145 198 251 294 380 438
#     4  11  27  52  78 110 154 198 250 314 380 449
#     4  11  25  47  77 107 149 190 252 318 380 448
#     4  11  29  53  79 113 142 198 265 311 383 446
#     4  12  23  45  73 111 154 200 246 305 372 450
#     4  10  22  38  64 102 154 197 249 306 351 447
#     4  11  22  41  69 105 149 204 246 298 379 446
#
# _framework density 24.23903
#
# number of rings (size 3 to 8) (size 9 to 14) (size 15 to 20)
#    0.000    1.143    2.857    2.143    4.000    4.000 
#    5.143    0.000    0.000    0.000    0.000    0.000 
#    0.000    0.000    0.000    0.000    0.000    0.000 
#
# Total GULP energy -78228.062678 kJ/mol
# GULP energy per Si atom -5587.718763 kJ/mol
# Density = 2.418386 g / cm^3
# Si number density = 24.239030 Si / 1000 Ang^3
#
#
#
# Elastic Constant Matrix: (Units=GPa)
#
#
# Indices 1 2 3 4 5 6 
#
# 1 66.1063 19.3789 14.3803 -15.9664 -0.0764 21.5936
# 2 19.3789 139.9652 26.3944 -25.5099 0.6851 30.2570
# 3 14.3803 26.3944 83.8138 -7.9337 -2.7904 -1.8893
# 4 -15.9664 -25.5099 -7.9337 30.8730 -14.1417 -3.8922
# 5 -0.0764 0.6851 -2.7904 -14.1417 35.9293 -0.1728
# 6 21.5936 30.2570 -1.8893 -3.8922 -0.1728 47.4833
#
#
#
# Elastic Compliance Matrix: (Units=1/GPa)
#
#
# Indices 1 2 3 4 5 6 
#
# 1 0.021749 0.002213 -0.003251 0.013178 0.004889 -0.010332
# 2 0.002213 0.010712 -0.002857 0.009949 0.003460 -0.007118
# 3 -0.003251 -0.002857 0.013573 0.000548 0.001336 0.003889
# 4 0.013178 0.009949 0.000548 0.056778 0.022192 -0.007576
# 5 0.004889 0.003460 0.001336 0.022192 0.036604 -0.002423
# 6 -0.010332 -0.007118 0.003889 -0.007576 -0.002423 0.029819
#
#
# Mechanical properties :
#
#
# Convention : Reuss Voigt Hill
#
# Bulk Modulus (GPa) = 26.14754 45.57695 35.86224
# Shear Modulus (GPa) = 26.34736 38.17257 32.25997
#
# Velocity S-wave (km/s) = 3.30052 3.97273 3.65212
# Velocity P-wave (km/s) = 5.03342 6.31565 5.71064
#
# Compressibility (1/GPa) = 0.03824452
#
# Stress axis : x y z
#
# Youngs Moduli (GPa) = 45.97903 93.35299 73.67733
#
# Poissons Ratio (x) = -0.20662 0.23955
# Poissons Ratio (y) = -0.10176 0.21046
# Poissons Ratio (z) = 0.14949 0.26667
#
# Static dielectric constant tensor:
#      x y z
#    x 2.079850 0.084840 -0.020400 
#    y 0.084840 1.974510 -0.007530 
#    z -0.020400 -0.007530 1.934810 
# 
# From -- ./inp_files/494480.got.cif
#   From: 2010.05.17/outbox.cif.g08.bks.cpg/sg2_248_cif.got.tgz:494480.got - 2010.06.03 11:33:40.
