data_PCOD9012290
_publ_section_title
;
Structure prediction by ZEFSAII (Michael W. Deem and Ramdas Pophale) SiO2 
 PCOD9012290
Probable space group: P -1
;
_chemical_formula_sum "Si O2"
_cell_formula_units_Z 16
_cell_length_a 8.085203
_cell_length_b 21.039720
_cell_length_c 8.711914
_cell_angle_alpha 48.760014
_cell_angle_beta 93.557200
_cell_angle_gamma 130.399130
_cell_volume 653.687184
_symmetry_space_group_name_H-M "P -1"
_symmetry_group_IT_number 2
_symmetry_cell_setting 'triclinic'
loop_
_space_group_symop_operation_xyz
x,y,z
-x,-y,-z
loop_
_atom_site_type_symbol
_atom_site_label
_atom_site_fract_x
_atom_site_fract_y
_atom_site_fract_z
Si Si1 0.225080 0.991962 0.888381
Si Si2 0.851360 0.266955 0.464656
Si Si3 0.271490 0.682342 0.902651
Si Si4 0.708871 0.010107 0.449955
Si Si5 0.783601 0.466372 0.440012
Si Si6 0.709713 0.787240 0.389901
Si Si7 0.365171 0.530814 0.265281
Si Si8 0.179604 0.280229 0.236234
O O1 0.552316 0.110448 0.756303
O O2 0.207381 0.087323 0.738317
O O3 0.182750 0.938709 0.800304
O O4 0.986775 0.865842 0.193557
O O5 0.786495 0.325647 0.268681
O O6 0.074354 0.370929 0.445289
O O7 0.984669 0.263483 0.346229
O O8 0.524362 0.849179 0.699441
O O9 0.353401 0.622365 0.053875
O O10 0.990189 0.589635 0.128394
O O11 0.973087 0.126423 0.391881
O O12 0.500000 0.000000 0.500000
O O13 0.544261 0.312890 0.586274
O O14 0.630136 0.462215 0.562361
O O15 0.000000 0.500000 0.500000
O O16 0.634738 0.690471 0.672176
O O17 0.624677 0.599896 0.075110
#
# Coordination Sequence:
#
# PCOD9012290 Si02
#       8
#     2   2   2   2   2   2   2   2
#     4  10  22  42  68  92 134 176 217 272 314 387
#     4  11  22  42  63  94 133 177 208 265 331 392
#     4  10  21  40  69  90 124 174 219 266 320 389
#     4  11  22  43  64  94 129 173 217 257 323 393
#     4  10  22  42  65  95 128 165 216 275 324 379
#     4  11  24  41  66 102 130 165 227 270 323 379
#     4  11  23  39  66  97 125 170 225 273 319 378
#     4  12  24  40  64  96 137 172 212 272 323 388
#
# _framework density 24.47654
#
# number of rings (size 3 to 8) (size 9 to 14) (size 15 to 20)
#    0.000    1.250    2.500    5.250    0.000    7.500 
#    2.250    1.250    0.000    0.000    0.000    0.000 
#    0.000    0.000    0.000    0.000    0.000    0.000 
#
# Total GULP energy -89581.795773 kJ/mol
# GULP energy per Si atom -5598.862236 kJ/mol
# Density = 2.442083 g / cm^3
# Si number density = 24.476540 Si / 1000 Ang^3
#
#
#
# Elastic Constant Matrix: (Units=GPa)
#
#
# Indices 1 2 3 4 5 6 
#
# 1 77.3949 11.9320 20.2356 7.3602 -19.9408 -7.9627
# 2 11.9320 116.0746 12.0305 0.6550 -6.9382 -8.0924
# 3 20.2356 12.0305 113.7733 30.1502 -23.9438 -0.2850
# 4 7.3602 0.6550 30.1502 38.2476 -8.0942 -16.9624
# 5 -19.9408 -6.9382 -23.9438 -8.0942 40.7007 4.6383
# 6 -7.9627 -8.0924 -0.2850 -16.9624 4.6383 30.1237
#
#
#
# Elastic Compliance Matrix: (Units=1/GPa)
#
#
# Indices 1 2 3 4 5 6 
#
# 1 0.015333 -0.000788 -0.001660 0.001285 0.006248 0.003587
# 2 -0.000788 0.009130 -0.001516 0.002988 0.000435 0.003846
# 3 -0.001660 -0.001516 0.013985 -0.013604 0.005500 -0.009221
# 4 0.001285 0.002988 -0.013604 0.049276 -0.000348 0.028814
# 5 0.006248 0.000435 0.005500 -0.000348 0.031234 -0.003185
# 6 0.003587 0.003846 -0.009221 0.028814 -0.003185 0.051806
#
#
# Mechanical properties :
#
#
# Convention : Reuss Voigt Hill
#
# Bulk Modulus (GPa) = 32.76599 43.95989 38.36294
# Shear Modulus (GPa) = 26.47381 39.35070 32.91225
#
# Velocity S-wave (km/s) = 3.29234 4.01395 3.67092
# Velocity P-wave (km/s) = 5.27905 6.28342 5.80301
#
# Compressibility (1/GPa) = 0.03051945
#
# Stress axis : x y z
#
# Youngs Moduli (GPa) = 65.21892 109.52317 71.50747
#
# Poissons Ratio (x) = 0.08628 0.11873
# Poissons Ratio (y) = 0.05138 0.10841
# Poissons Ratio (z) = 0.10829 0.16604
#
# Static dielectric constant tensor:
#      x y z
#    x 2.024770 -0.012590 -0.033480 
#    y -0.012590 1.894330 0.011020 
#    z -0.033480 0.011020 1.927620 
# 
# From -- ./inp_files/223426.got.cif
#   From: 2010.05.17/outbox.cif.g08.bks.cpg/sg2_112_cif.got.tgz:223426.got - 2010.06.03 11:33:40.
