data_PCOD9012980
_publ_section_title
;
Structure prediction by ZEFSAII (Michael W. Deem and Ramdas Pophale) SiO2 
 PCOD9012980
Probable space group: P -1
;
_chemical_formula_sum "Si O2"
_cell_formula_units_Z 14
_cell_length_a 8.338238
_cell_length_b 9.068832
_cell_length_c 15.970291
_cell_angle_alpha 69.583121
_cell_angle_beta 112.564034
_cell_angle_gamma 53.997731
_cell_volume 576.855603
_symmetry_space_group_name_H-M "P -1"
_symmetry_group_IT_number 2
_symmetry_cell_setting 'triclinic'
loop_
_space_group_symop_operation_xyz
x,y,z
-x,-y,-z
loop_
_atom_site_type_symbol
_atom_site_label
_atom_site_fract_x
_atom_site_fract_y
_atom_site_fract_z
Si Si1 0.831022 0.475073 0.938224
Si Si2 0.155767 0.712891 0.569206
Si Si3 0.879308 0.211271 0.862007
Si Si4 0.250974 0.110357 0.689731
Si Si5 0.862230 0.184396 0.130304
Si Si6 0.065540 0.419587 0.344114
Si Si7 0.665204 0.975675 0.657116
O O1 0.889768 0.370397 0.877420
O O2 0.463157 0.795792 0.810570
O O3 0.959053 0.241257 0.068978
O O4 0.000000 0.500000 0.000000
O O5 0.525451 0.445694 0.714449
O O6 0.052099 0.722652 0.455791
O O7 0.025645 0.677593 0.612303
O O8 0.000000 0.000000 0.500000
O O9 0.088307 0.021729 0.860232
O O10 0.000000 0.000000 0.000000
O O11 0.168516 0.275986 0.721894
O O12 0.456542 0.064555 0.675208
O O13 0.105354 0.049860 0.276827
O O14 0.500000 0.500000 0.000000
O O15 0.116530 0.329299 0.276353
O O16 0.406839 0.212008 0.488569
#
# Coordination Sequence:
#
# PCOD9012980 Si02
#       7
#     2   2   2   2   2   2   2
#     4  11  23  41  64  92 127 171 220 269 319 395
#     4  11  21  38  68  98 125 169 220 265 326 394
#     4  10  23  41  64  91 129 173 212 263 334 389
#     4  11  21  42  66  93 128 170 220 268 328 387
#     4  11  24  41  63  93 132 173 216 269 333 390
#     4  10  23  38  68  91 126 170 212 270 329 387
#     4  10  21  41  62  93 125 166 219 264 321 390
#
# _framework density 24.269504000000001
#
# number of rings (size 3 to 8) (size 9 to 14) (size 15 to 20)
#    0.000    1.429    2.857    3.429    6.000    0.000 
#    2.571    1.429    0.000    9.429    0.000    0.000 
#    0.000    0.000    0.000    0.000    0.000    0.000 
#
# Total GULP energy -78178.640668 kJ/mol
# GULP energy per Si atom -5584.188619 kJ/mol
# Density = 2.421427 g / cm^3
# Si number density = 24.269504 Si / 1000 Ang^3
#
#
#
# Elastic Constant Matrix: (Units=GPa)
#
#
# Indices 1 2 3 4 5 6 
#
# 1 53.9013 30.2950 9.1916 3.9532 2.3675 19.6724
# 2 30.2950 222.6983 28.8801 -14.0295 26.8261 18.9092
# 3 9.1916 28.8801 102.1130 -2.6642 27.7401 9.0637
# 4 3.9532 -14.0295 -2.6642 35.4891 15.6460 5.0627
# 5 2.3675 26.8261 27.7401 15.6460 41.0772 -4.2511
# 6 19.6724 18.9092 9.0637 5.0627 -4.2511 25.5429
#
#
#
# Elastic Compliance Matrix: (Units=1/GPa)
#
#
# Indices 1 2 3 4 5 6 
#
# 1 0.026905 -0.001492 0.000889 0.001094 -0.003743 -0.020772
# 2 -0.001492 0.006768 0.001651 0.008177 -0.009353 -0.007625
# 3 0.000889 0.001651 0.015166 0.010825 -0.016760 -0.012224
# 4 0.001094 0.008177 0.010825 0.051368 -0.035047 -0.026751
# 5 -0.003743 -0.009353 -0.016760 -0.035047 0.058696 0.032469
# 6 -0.020772 -0.007625 -0.012224 -0.026751 0.032469 0.075836
#
#
# Mechanical properties :
#
#
# Convention : Reuss Voigt Hill
#
# Bulk Modulus (GPa) = 19.63238 57.27176 38.45207
# Shear Modulus (GPa) = 20.03037 41.11156 30.57097
#
# Velocity S-wave (km/s) = 2.87597 4.12024 3.55300
# Velocity P-wave (km/s) = 4.37438 6.80328 5.71926
#
# Compressibility (1/GPa) = 0.05093625
#
# Stress axis : x y z
#
# Youngs Moduli (GPa) = 37.16839 147.74640 65.93507
#
# Poissons Ratio (x) = 0.22040 -0.05864
# Poissons Ratio (y) = 0.05545 -0.10885
# Poissons Ratio (z) = -0.03306 -0.24391
#
# Static dielectric constant tensor:
#      x y z
#    x 2.059850 -0.021520 -0.065040 
#    y -0.021520 2.080960 0.023100 
#    z -0.065040 0.023100 2.001740 
# 
# From -- ./inp_files/176878.got.cif
#   From: 2010.05.17/outbox.cif.g08.bks.cpg/sg2_89_cif.got.tgz:176878.got - 2010.06.03 11:33:40.
