data_PCOD9012049
_publ_section_title
;
Structure prediction by ZEFSAII (Michael W. Deem and Ramdas Pophale) SiO2 
 PCOD9012049
Probable space group: P -1
;
_chemical_formula_sum "Si O2"
_cell_formula_units_Z 16
_cell_length_a 5.644208
_cell_length_b 9.728124
_cell_length_c 13.444677
_cell_angle_alpha 61.377854
_cell_angle_beta 88.068016
_cell_angle_gamma 100.267927
_cell_volume 631.534325
_symmetry_space_group_name_H-M "P -1"
_symmetry_group_IT_number 2
_symmetry_cell_setting 'triclinic'
loop_
_space_group_symop_operation_xyz
x,y,z
-x,-y,-z
loop_
_atom_site_type_symbol
_atom_site_label
_atom_site_fract_x
_atom_site_fract_y
_atom_site_fract_z
Si Si1 0.021151 0.667806 0.998617
Si Si2 0.016294 0.550890 0.596760
Si Si3 0.454129 0.151963 0.391578
Si Si4 0.776110 0.106299 0.245497
Si Si5 0.071853 0.889754 0.384488
Si Si6 0.491399 0.472832 0.389566
Si Si7 0.366660 0.922421 0.177660
Si Si8 0.430006 0.222108 0.947099
O O1 0.023619 0.795020 0.864046
O O2 0.291205 0.711152 0.034615
O O3 0.776166 0.677212 0.061004
O O4 0.000000 0.500000 0.000000
O O5 0.073307 0.746115 0.511630
O O6 0.230103 0.479206 0.664819
O O7 0.000000 0.500000 0.500000
O O8 0.749620 0.484711 0.666100
O O9 0.682751 0.210759 0.294678
O O10 0.432087 0.287371 0.421282
O O11 0.500000 0.000000 0.500000
O O12 0.218772 0.064256 0.362587
O O13 0.549534 0.047414 0.198636
O O14 0.823162 0.940963 0.345728
O O15 0.171593 0.847410 0.290222
O O16 0.500000 0.500000 0.500000
O O17 0.303775 0.041869 0.053097
O O18 0.515779 0.810103 0.157556
#
# Coordination Sequence:
#
# PCOD9012049 Si02
#       8
#     2   2   2   2   2   2   2   2
#     4  11  23  43  66  92 134 176 214 261 326 393
#     4  10  22  39  59  83 119 163 201 254 323 374
#     4  11  22  38  64  93 122 173 223 262 321 383
#     4  10  23  38  63  96 128 163 218 271 315 385
#     4  11  21  37  64  91 129 161 217 275 310 388
#     4  10  22  41  60  84 119 165 212 258 319 375
#     4   9  21  37  63  98 124 157 213 272 324 375
#     4  10  21  40  68  93 125 169 211 263 328 391
#
# _framework density 25.335122999999999
#
# number of rings (size 3 to 8) (size 9 to 14) (size 15 to 20)
#    0.000    1.750    2.500    1.125    5.250    2.500 
#    0.000    5.000    0.000    0.000    0.000    0.000 
#    0.000    0.000    0.000    0.000    0.000    0.000 
#
# Total GULP energy -89117.682280 kJ/mol
# GULP energy per Si atom -5569.855142 kJ/mol
# Density = 2.527746 g / cm^3
# Si number density = 25.335123 Si / 1000 Ang^3
#
#
#
# Elastic Constant Matrix: (Units=GPa)
#
#
# Indices 1 2 3 4 5 6 
#
# 1 141.2377 9.8608 19.2119 4.8674 -22.2554 -28.5734
# 2 9.8608 141.6130 26.5989 26.4274 -23.5865 -18.5193
# 3 19.2119 26.5989 90.8714 7.6709 -17.2651 -7.1434
# 4 4.8674 26.4274 7.6709 35.9914 -5.5585 -4.4695
# 5 -22.2554 -23.5865 -17.2651 -5.5585 19.9148 9.0990
# 6 -28.5734 -18.5193 -7.1434 -4.4695 9.0990 38.2563
#
#
#
# Elastic Compliance Matrix: (Units=1/GPa)
#
#
# Indices 1 2 3 4 5 6 
#
# 1 0.009752 0.001876 -0.000183 -0.000367 0.010267 0.005673
# 2 0.001876 0.010295 -0.000650 -0.005634 0.010762 0.003045
# 3 -0.000183 -0.000650 0.013261 -0.000763 0.010574 -0.000580
# 4 -0.000367 -0.005634 -0.000763 0.032352 0.001116 0.000370
# 5 0.010267 0.010762 0.010574 0.001116 0.086462 -0.005582
# 6 0.005673 0.003045 -0.000580 0.000370 -0.005582 0.033113
#
#
# Mechanical properties :
#
#
# Convention : Reuss Voigt Hill
#
# Bulk Modulus (GPa) = 28.25408 53.89615 41.07512
# Shear Modulus (GPa) = 25.64761 40.03587 32.84174
#
# Velocity S-wave (km/s) = 3.18517 3.97955 3.60431
# Velocity P-wave (km/s) = 4.97026 6.51423 5.79391
#
# Compressibility (1/GPa) = 0.03539312
#
# Stress axis : x y z
#
# Youngs Moduli (GPa) = 102.53929 97.13283 75.40630
#
# Poissons Ratio (x) = -0.18219 0.01382
# Poissons Ratio (y) = -0.19234 0.04904
# Poissons Ratio (z) = 0.01879 0.06317
#
# Static dielectric constant tensor:
#      x y z
#    x 2.238930 -0.012780 0.051760 
#    y -0.012780 2.071610 -0.069500 
#    z 0.051760 -0.069500 2.211660 
# 
# From -- ./inp_files/95479.got.cif
#   From: 2010.05.17/outbox.cif.g08.bks.cpg/sg2_48_cif.got.tgz:95479.got - 2010.06.03 11:33:40.
