data_PCOD9012310
_publ_section_title
;
Structure prediction by ZEFSAII (Michael W. Deem and Ramdas Pophale) SiO2 
 PCOD9012310
Probable space group: P -1
;
_chemical_formula_sum "Si O2"
_cell_formula_units_Z 14
_cell_length_a 6.495288
_cell_length_b 17.273472
_cell_length_c 10.809309
_cell_angle_alpha 138.707046
_cell_angle_beta 134.175027
_cell_angle_gamma 46.385700
_cell_volume 537.432407
_symmetry_space_group_name_H-M "P -1"
_symmetry_group_IT_number 2
_symmetry_cell_setting 'triclinic'
loop_
_space_group_symop_operation_xyz
x,y,z
-x,-y,-z
loop_
_atom_site_type_symbol
_atom_site_label
_atom_site_fract_x
_atom_site_fract_y
_atom_site_fract_z
Si Si1 0.912235 0.552551 0.817583
Si Si2 0.769715 0.030607 0.572135
Si Si3 0.723884 0.710484 0.334274
Si Si4 0.237640 0.204793 0.815077
Si Si5 0.860036 0.708661 0.648498
Si Si6 0.965026 0.079844 0.957533
Si Si7 0.410713 0.468118 0.601895
O O1 0.707472 0.505136 0.769836
O O2 0.714961 0.557321 0.615843
O O3 0.231857 0.436097 0.814139
O O4 0.907925 0.687736 0.016652
O O5 0.598659 0.177184 0.645703
O O6 0.008323 0.013272 0.762698
O O7 0.500000 0.000000 0.500000
O O8 0.830518 0.925438 0.364285
O O9 0.848048 0.738646 0.289758
O O10 0.929257 0.724652 0.552844
O O11 0.607333 0.170545 0.929240
O O12 0.585992 0.654369 0.470720
O O13 0.144628 0.595430 0.687499
O O14 0.822188 0.836710 0.850566
O O15 0.000000 0.000000 0.000000
#
# Coordination Sequence:
#
# PCOD9012310 Si02
#       7
#     2   2   2   2   2   2   2
#     4  10  18  34  54  79 109 139 176 216 276 310
#     4   8  17  31  48  82 103 132 181 218 251 316
#     4   9  18  31  55  79 105 137 172 222 262 318
#     4  10  18  32  52  83 106 136 177 221 260 321
#     4  10  17  33  54  78 108 137 184 218 262 305
#     4  10  17  29  55  82  99 139 179 223 255 309
#     4   9  20  32  51  80 108 141 174 227 258 317
#
# _framework density 26.049789000000001
#
# number of rings (size 3 to 8) (size 9 to 14) (size 15 to 20)
#    0.000    2.857    1.429    3.000    0.000    0.000 
#    0.000    0.714    9.429    4.286    0.000    2.000 
#    0.000    0.000    0.000    0.000    0.000    0.000 
#
# Total GULP energy -78135.515274 kJ/mol
# GULP energy per Si atom -5581.108234 kJ/mol
# Density = 2.599050 g / cm^3
# Si number density = 26.049789 Si / 1000 Ang^3
#
#
#
# Elastic Constant Matrix: (Units=GPa)
#
#
# Indices 1 2 3 4 5 6 
#
# 1 46.3644 25.6186 22.5209 8.7529 8.4746 -11.8060
# 2 25.6186 123.9927 55.9218 18.2581 -6.2581 0.6834
# 3 22.5209 55.9218 143.7345 47.2227 -8.1016 8.0039
# 4 8.7529 18.2581 47.2227 44.2101 2.6720 -9.1887
# 5 8.4746 -6.2581 -8.1016 2.6720 38.8331 9.0833
# 6 -11.8060 0.6834 8.0039 -9.1887 9.0833 35.5380
#
#
#
# Elastic Compliance Matrix: (Units=1/GPa)
#
#
# Indices 1 2 3 4 5 6 
#
# 1 0.034997 -0.005758 -0.008368 0.009509 -0.015663 0.020084
# 2 -0.005758 0.010761 -0.002486 -0.001413 0.003212 -0.002746
# 3 -0.008368 -0.002486 0.016565 -0.018402 0.009330 -0.013606
# 4 0.009509 -0.001413 -0.018402 0.046687 -0.014776 0.023179
# 5 -0.015663 0.003212 0.009330 -0.014776 0.037510 -0.020774
# 6 0.020084 -0.002746 -0.013606 0.023179 -0.020774 0.049231
#
#
# Mechanical properties :
#
#
# Convention : Reuss Voigt Hill
#
# Bulk Modulus (GPa) = 34.36700 58.02378 46.19539
# Shear Modulus (GPa) = 20.94895 37.71825 29.33360
#
# Velocity S-wave (km/s) = 2.83890 3.80929 3.35932
# Velocity P-wave (km/s) = 4.89564 6.45524 5.72876
#
# Compressibility (1/GPa) = 0.02909768
#
# Stress axis : x y z
#
# Youngs Moduli (GPa) = 28.57425 92.92479 60.36720
#
# Poissons Ratio (x) = 0.53505 0.50518
# Poissons Ratio (y) = 0.16453 0.15010
# Poissons Ratio (z) = 0.23912 0.23105
#
# Static dielectric constant tensor:
#      x y z
#    x 2.208650 0.022950 -0.057990 
#    y 0.022950 2.099720 0.011620 
#    z -0.057990 0.011620 2.062500 
# 
# From -- ./inp_files/403429.got.cif
#   From: 2010.05.17/outbox.cif.g08.bks.cpg/sg2_202_cif.got.tgz:403429.got - 2010.06.03 11:33:40.
