data_PCOD9012223
_publ_section_title
;
Structure prediction by ZEFSAII (Michael W. Deem and Ramdas Pophale) SiO2 
 PCOD9012223
Probable space group: P -1
;
_chemical_formula_sum "Si O2"
_cell_formula_units_Z 16
_cell_length_a 8.268296
_cell_length_b 12.701625
_cell_length_c 9.472229
_cell_angle_alpha 104.028634
_cell_angle_beta 62.307830
_cell_angle_gamma 121.871053
_cell_volume 748.034025
_symmetry_space_group_name_H-M "P -1"
_symmetry_group_IT_number 2
_symmetry_cell_setting 'triclinic'
loop_
_space_group_symop_operation_xyz
x,y,z
-x,-y,-z
loop_
_atom_site_type_symbol
_atom_site_label
_atom_site_fract_x
_atom_site_fract_y
_atom_site_fract_z
Si Si1 0.740908 0.602438 0.443229
Si Si2 0.157276 0.182186 0.748830
Si Si3 0.764292 0.197136 0.434125
Si Si4 0.687465 0.961407 0.559827
Si Si5 0.705125 0.986755 0.890847
Si Si6 0.575535 0.749377 0.054676
Si Si7 0.201185 0.355668 0.245786
Si Si8 0.157445 0.599910 0.306252
O O1 0.500000 0.500000 0.500000
O O2 0.794696 0.700465 0.328813
O O3 0.765851 0.660967 0.607876
O O4 0.918872 0.560076 0.352099
O O5 0.190580 0.088563 0.602806
O O6 0.318979 0.221824 0.824796
O O7 0.920469 0.110530 0.876124
O O8 0.555122 0.127470 0.407513
O O9 0.790692 0.318364 0.545279
O O10 0.970051 0.243982 0.271456
O O11 0.750419 0.099577 0.526944
O O12 0.717931 0.957925 0.711865
O O13 0.676488 0.874631 0.964809
O O14 0.500000 0.000000 0.000000
O O15 0.327612 0.691176 0.154969
O O16 0.630865 0.654232 0.921892
O O17 0.198435 0.484497 0.271502
#
# Coordination Sequence:
#
# PCOD9012223 Si02
#       8
#     2   2   2   2   2   2   2   2
#     4  11  24  43  70 100 128 176 230 281 330 402
#     4  12  25  43  68  97 139 179 223 273 338 407
#     4  10  21  40  69 101 125 175 224 276 329 403
#     4  11  23  40  70  97 135 171 225 272 338 396
#     4  12  26  42  67 101 141 179 219 282 339 398
#     4  12  25  45  65 100 140 179 226 274 340 401
#     4  11  24  43  72  95 137 177 230 276 340 388
#     4  11  23  46  69  98 136 178 226 279 334 402
#
# _framework density 21.389399000000001
#
# number of rings (size 3 to 8) (size 9 to 14) (size 15 to 20)
#    0.000    0.750    1.250    7.875    5.250    0.000 
#    0.000    1.250    0.000    0.000    0.000    0.000 
#    0.000    0.000    0.000    0.000    0.000    0.000 
#
# Total GULP energy -89547.686414 kJ/mol
# GULP energy per Si atom -5596.730401 kJ/mol
# Density = 2.134072 g / cm^3
# Si number density = 21.389399 Si / 1000 Ang^3
#
#
#
# Elastic Constant Matrix: (Units=GPa)
#
#
# Indices 1 2 3 4 5 6 
#
# 1 104.4838 44.3154 41.7845 -9.3517 -6.9976 7.2125
# 2 44.3154 101.4830 20.3671 -20.6407 1.2275 -4.7678
# 3 41.7845 20.3671 90.2293 -2.0038 -4.4747 -2.3429
# 4 -9.3517 -20.6407 -2.0038 40.6327 -3.6728 -10.9838
# 5 -6.9976 1.2275 -4.4747 -3.6728 46.2680 -17.6491
# 6 7.2125 -4.7678 -2.3429 -10.9838 -17.6491 37.8055
#
#
#
# Elastic Compliance Matrix: (Units=1/GPa)
#
#
# Indices 1 2 3 4 5 6 
#
# 1 0.014311 -0.005494 -0.005494 -0.000798 0.000233 -0.003887
# 2 -0.005494 0.014093 -0.000242 0.007576 0.001563 0.005741
# 3 -0.005494 -0.000242 0.013829 0.000143 0.001527 0.002629
# 4 -0.000798 0.007576 0.000143 0.032841 0.007744 0.014273
# 5 0.000233 0.001563 0.001527 0.007744 0.028375 0.015744
# 6 -0.003887 0.005741 0.002629 0.014273 0.015744 0.039576
#
#
# Mechanical properties :
#
#
# Convention : Reuss Voigt Hill
#
# Bulk Modulus (GPa) = 50.57569 56.57001 53.57285
# Shear Modulus (GPa) = 29.05682 37.58986 33.32334
#
# Velocity S-wave (km/s) = 3.68974 4.19669 3.95135
# Velocity P-wave (km/s) = 6.46906 7.07022 6.77631
#
# Compressibility (1/GPa) = 0.01977234
#
# Stress axis : x y z
#
# Youngs Moduli (GPa) = 69.87702 70.95523 72.31183
#
# Poissons Ratio (x) = 0.38985 0.39729
# Poissons Ratio (y) = 0.38392 0.01750
# Poissons Ratio (z) = 0.38391 0.01717
#
# Static dielectric constant tensor:
#      x y z
#    x 1.803280 0.008860 -0.036600 
#    y 0.008860 1.775690 -0.011740 
#    z -0.036600 -0.011740 1.758060 
# 
# From -- ./inp_files/188330.got.cif
#   From: 2010.05.17/outbox.cif.g08.bks.cpg/sg2_95_cif.got.tgz:188330.got - 2010.06.03 11:33:40.
