data_PCOD9012860
_publ_section_title
;
Structure prediction by ZEFSAII (Michael W. Deem and Ramdas Pophale) SiO2 
 PCOD9012860
Probable space group: P -1
;
_chemical_formula_sum "Si O2"
_cell_formula_units_Z 14
_cell_length_a 14.570212
_cell_length_b 13.868109
_cell_length_c 6.719361
_cell_angle_alpha 66.428030
_cell_angle_beta 66.228173
_cell_angle_gamma 31.218460
_cell_volume 639.635144
_symmetry_space_group_name_H-M "P -1"
_symmetry_group_IT_number 2
_symmetry_cell_setting 'triclinic'
loop_
_space_group_symop_operation_xyz
x,y,z
-x,-y,-z
loop_
_atom_site_type_symbol
_atom_site_label
_atom_site_fract_x
_atom_site_fract_y
_atom_site_fract_z
Si Si1 0.353106 0.182814 0.187851
Si Si2 0.800481 0.056111 0.507241
Si Si3 0.940078 0.813474 0.215623
Si Si4 0.189445 0.424398 0.518414
Si Si5 0.138936 0.751650 0.754788
Si Si6 0.238123 0.194514 0.902682
Si Si7 0.409478 0.336345 0.731391
O O1 0.263821 0.291665 0.380265
O O2 0.555913 0.967448 0.210482
O O3 0.249552 0.188616 0.135910
O O4 0.368422 0.276346 0.967322
O O5 0.797351 0.183747 0.364230
O O6 0.617787 0.180623 0.669072
O O7 0.823802 0.975424 0.345003
O O8 0.973432 0.884633 0.635370
O O9 0.831265 0.847897 0.110086
O O10 0.049045 0.628853 0.388714
O O11 0.070161 0.779188 0.011233
O O12 0.125798 0.391505 0.758731
O O13 0.339915 0.359557 0.557124
O O14 0.292842 0.537142 0.734263
#
# Coordination Sequence:
#
# PCOD9012860 Si02
#       7
#     2   2   2   2   2   2   2
#     4  10  21  41  61  94 129 166 214 259 307 386
#     4  11  25  43  69  94 126 169 214 265 322 371
#     4  12  23  42  64  95 132 167 211 265 315 377
#     4  11  22  39  63  94 132 166 210 258 314 381
#     4  11  24  45  66  96 127 165 218 266 314 380
#     4  10  23  37  62  95 125 172 210 256 315 378
#     4  11  22  43  67  94 131 168 208 264 319 373
#
# _framework density 21.887477000000001
#
# number of rings (size 3 to 8) (size 9 to 14) (size 15 to 20)
#    0.000    1.143    2.857    3.429    0.000    4.000 
#    0.000    0.714    0.000    0.000    0.000    0.000 
#    0.000    0.000    0.000    0.000    0.000    0.000 
#
# Total GULP energy -78393.628827 kJ/mol
# GULP energy per Si atom -5599.544916 kJ/mol
# Density = 2.183766 g / cm^3
# Si number density = 21.887477 Si / 1000 Ang^3
#
#
#
# Elastic Constant Matrix: (Units=GPa)
#
#
# Indices 1 2 3 4 5 6 
#
# 1 86.8835 29.0818 32.2086 -13.9117 4.9261 2.1486
# 2 29.0818 114.2005 30.2530 -5.1402 5.5001 17.0627
# 3 32.2086 30.2530 91.9949 -6.3437 1.1273 4.3322
# 4 -13.9117 -5.1402 -6.3437 32.3126 0.9970 -3.0577
# 5 4.9261 5.5001 1.1273 0.9970 20.8183 -4.3066
# 6 2.1486 17.0627 4.3322 -3.0577 -4.3066 32.5269
#
#
#
# Elastic Compliance Matrix: (Units=1/GPa)
#
#
# Indices 1 2 3 4 5 6 
#
# 1 0.014819 -0.002491 -0.004013 0.005374 -0.002679 0.001013
# 2 -0.002491 0.011060 -0.002468 -0.000240 -0.003383 -0.005779
# 3 -0.004013 -0.002468 0.013107 0.000423 0.000865 -0.000032
# 4 0.005374 -0.000240 0.000423 0.033621 -0.002310 0.002569
# 5 -0.002679 -0.003383 0.000865 -0.002310 0.051368 0.008420
# 6 0.001013 -0.005779 -0.000032 0.002569 0.008420 0.035069
#
#
# Mechanical properties :
#
#
# Convention : Reuss Voigt Hill
#
# Bulk Modulus (GPa) = 47.52569 52.90729 50.21649
# Shear Modulus (GPa) = 27.17363 30.56725 28.87044
#
# Velocity S-wave (km/s) = 3.52734 3.74112 3.63580
# Velocity P-wave (km/s) = 6.19276 6.54875 6.37324
#
# Compressibility (1/GPa) = 0.02104125
#
# Stress axis : x y z
#
# Youngs Moduli (GPa) = 67.48298 90.41381 76.29527
#
# Poissons Ratio (x) = 0.22521 0.30620
# Poissons Ratio (y) = 0.16809 0.18830
# Poissons Ratio (z) = 0.27083 0.22315
#
# Static dielectric constant tensor:
#      x y z
#    x 1.799140 -0.018550 -0.003340 
#    y -0.018550 1.786400 -0.016200 
#    z -0.003340 -0.016200 1.793290 
# 
# From -- ./inp_files/32688.got.cif
#   From: 2010.05.17/outbox.cif.g08.bks.cpg/sg2_17_cif.got.tgz:32688.got - 2010.06.03 11:33:40.
