data_PCOD9012720
_publ_section_title
;
Structure prediction by ZEFSAII (Michael W. Deem and Ramdas Pophale) SiO2 
 PCOD9012720
Probable space group: P -1
;
_chemical_formula_sum "Si O2"
_cell_formula_units_Z 16
_cell_length_a 8.376128
_cell_length_b 7.496351
_cell_length_c 15.052153
_cell_angle_alpha 106.449354
_cell_angle_beta 85.347600
_cell_angle_gamma 51.477067
_cell_volume 666.107649
_symmetry_space_group_name_H-M "P -1"
_symmetry_group_IT_number 2
_symmetry_cell_setting 'triclinic'
loop_
_space_group_symop_operation_xyz
x,y,z
-x,-y,-z
loop_
_atom_site_type_symbol
_atom_site_label
_atom_site_fract_x
_atom_site_fract_y
_atom_site_fract_z
Si Si1 0.851888 0.878776 0.719253
Si Si2 0.560194 0.007601 0.259007
Si Si3 0.288428 0.295125 0.066911
Si Si4 0.444775 0.562695 0.116830
Si Si5 0.563309 0.648703 0.549808
Si Si6 0.956651 0.820496 0.500833
Si Si7 0.271370 0.307648 0.619734
Si Si8 0.159300 0.489727 0.905497
O O1 0.674784 0.859070 0.748921
O O2 0.752374 0.140513 0.807828
O O3 0.850034 0.903378 0.615106
O O4 0.092470 0.609428 0.686922
O O5 0.604741 0.838517 0.317581
O O6 0.742324 0.794363 0.155996
O O7 0.568587 0.195541 0.334371
O O8 0.377191 0.408605 0.131240
O O9 0.079761 0.325880 0.101712
O O10 0.182980 0.475711 0.008989
O O11 0.500000 0.000000 0.000000
O O12 0.666980 0.489485 0.131815
O O13 0.500000 0.500000 0.000000
O O14 0.500000 0.500000 0.500000
O O15 0.813485 0.461314 0.538120
O O16 0.565338 0.761771 0.474922
O O17 0.849450 0.782081 0.423293
O O18 0.000000 0.000000 0.500000
#
# Coordination Sequence:
#
# PCOD9012720 Si02
#       8
#     2   2   2   2   2   2   2   2
#     4  10  21  41  59  86 123 158 208 261 307 377
#     4  11  21  38  62  86 123 162 202 257 310 371
#     4  10  21  42  66  90 127 163 203 266 319 371
#     4   9  20  40  64  89 122 163 202 261 322 372
#     4  11  22  37  57  87 122 160 206 256 306 366
#     4  11  22  38  58  88 122 167 208 255 307 374
#     4  11  22  39  61  83 119 168 202 251 315 366
#     4   9  22  40  61  94 122 160 211 256 315 381
#
# _framework density 24.020143000000001
#
# number of rings (size 3 to 8) (size 9 to 14) (size 15 to 20)
#    0.000    1.750    2.500    1.875    1.750    6.500 
#    2.250    6.250    0.000    0.000    0.000    0.000 
#    0.000    0.000    0.000    0.000    0.000    0.000 
#
# Total GULP energy -89198.598091 kJ/mol
# GULP energy per Si atom -5574.912381 kJ/mol
# Density = 2.396547 g / cm^3
# Si number density = 24.020143 Si / 1000 Ang^3
#
#
#
# Elastic Constant Matrix: (Units=GPa)
#
#
# Indices 1 2 3 4 5 6 
#
# 1 142.7419 27.9895 34.7114 24.3900 15.1873 -3.9165
# 2 27.9895 59.6917 2.5109 18.1421 -4.2721 -14.5276
# 3 34.7114 2.5109 111.2734 33.7101 12.8461 -5.3845
# 4 24.3900 18.1421 33.7101 49.2257 2.4656 -2.1721
# 5 15.1873 -4.2721 12.8461 2.4656 40.2412 11.8760
# 6 -3.9165 -14.5276 -5.3845 -2.1721 11.8760 45.3491
#
#
#
# Elastic Compliance Matrix: (Units=1/GPa)
#
#
# Indices 1 2 3 4 5 6 
#
# 1 0.008782 -0.003774 -0.001829 -0.001553 -0.003053 0.000058
# 2 -0.003774 0.022701 0.003447 -0.008632 0.001315 0.006598
# 3 -0.001829 0.003447 0.012646 -0.008731 -0.003300 0.002894
# 4 -0.001553 -0.008632 -0.008731 0.030044 0.001466 -0.002881
# 5 -0.003053 0.001315 -0.003300 0.001466 0.029428 -0.007870
# 6 0.000058 0.006598 0.002894 -0.002881 -0.007870 0.026436
#
#
# Mechanical properties :
#
#
# Convention : Reuss Voigt Hill
#
# Bulk Modulus (GPa) = 25.11394 49.34787 37.23090
# Shear Modulus (GPa) = 33.87087 43.52955 38.70021
#
# Velocity S-wave (km/s) = 3.75921 4.26162 4.01828
# Velocity P-wave (km/s) = 5.41482 6.69360 6.08788
#
# Compressibility (1/GPa) = 0.03981852
#
# Stress axis : x y z
#
# Youngs Moduli (GPa) = 113.86907 44.05179 79.07848
#
# Poissons Ratio (x) = 0.16623 0.14461
# Poissons Ratio (y) = 0.42969 -0.27261
# Poissons Ratio (z) = 0.20823 -0.15186
#
# Static dielectric constant tensor:
#      x y z
#    x 2.005900 0.024810 0.012040 
#    y 0.024810 2.014840 -0.015760 
#    z 0.012040 -0.015760 2.026830 
# 
# From -- ./inp_files/214820.got.cif
#   From: 2010.05.17/outbox.cif.g08.bks.cpg/sg2_108_cif.got.tgz:214820.got - 2010.06.03 11:33:40.
