data_PCOD9012174
_publ_section_title
;
Structure prediction by ZEFSAII (Michael W. Deem and Ramdas Pophale) SiO2 
 PCOD9012174
Probable space group: P -1
;
_chemical_formula_sum "Si O2"
_cell_formula_units_Z 16
_cell_length_a 8.118388
_cell_length_b 7.993495
_cell_length_c 19.154224
_cell_angle_alpha 119.212485
_cell_angle_beta 124.964336
_cell_angle_gamma 35.989378
_cell_volume 597.827571
_symmetry_space_group_name_H-M "P -1"
_symmetry_group_IT_number 2
_symmetry_cell_setting 'triclinic'
loop_
_space_group_symop_operation_xyz
x,y,z
-x,-y,-z
loop_
_atom_site_type_symbol
_atom_site_label
_atom_site_fract_x
_atom_site_fract_y
_atom_site_fract_z
Si Si1 0.615955 0.155940 0.509839
Si Si2 0.686852 0.939437 0.832918
Si Si3 0.200757 0.548521 0.070810
Si Si4 0.843140 0.479621 0.234922
Si Si5 0.033980 0.073441 0.324433
Si Si6 0.394086 0.441424 0.252139
Si Si7 0.959373 0.307882 0.588303
Si Si8 0.262979 0.883071 0.986581
O O1 0.799442 0.228396 0.560476
O O2 0.272284 0.439574 0.471689
O O3 0.721049 0.010394 0.581189
O O4 0.739865 0.947112 0.432584
O O5 0.609499 0.773607 0.765748
O O6 0.032213 0.691937 0.842540
O O7 0.501548 0.222185 0.799429
O O8 0.613606 0.037991 0.915101
O O9 0.376005 0.427671 0.161186
O O10 0.441373 0.409304 0.038109
O O11 0.000000 0.500000 0.000000
O O12 0.941550 0.889554 0.078082
O O13 0.960790 0.251742 0.275385
O O14 0.977362 0.588378 0.313926
O O15 0.708824 0.298479 0.326955
O O16 0.146171 0.778608 0.275294
O O17 0.000000 0.000000 0.000000
#
# Coordination Sequence:
#
# PCOD9012174 Si02
#       8
#     2   2   2   2   2   2   2   2
#     4  10  21  40  68  98 134 178 233 279 345 426
#     4  12  26  46  72  98 141 189 238 289 358 435
#     4  12  26  48  75 106 141 190 254 303 361 433
#     4  12  27  44  68 104 144 182 230 292 363 425
#     4  12  27  44  68 106 141 183 231 295 358 420
#     4  12  26  45  73  98 140 187 239 297 348 431
#     4  10  21  40  68  98 134 180 227 285 344 428
#     4  12  28  46  74 107 146 191 240 308 375 433
#
# _framework density 26.763572
#
# number of rings (size 3 to 8) (size 9 to 14) (size 15 to 20)
#    0.000    0.500    1.250    6.750    7.000    3.000 
#    0.000    0.000    0.000    0.000    0.000    0.000 
#    0.000    0.000    0.000    0.000    0.000    0.000 
#
# Total GULP energy -89535.938884 kJ/mol
# GULP energy per Si atom -5595.996180 kJ/mol
# Density = 2.670266 g / cm^3
# Si number density = 26.763572 Si / 1000 Ang^3
#
#
#
# Elastic Constant Matrix: (Units=GPa)
#
#
# Indices 1 2 3 4 5 6 
#
# 1 49.5754 32.8822 2.7911 9.7058 -6.5376 0.4074
# 2 32.8822 185.3667 31.3844 -0.2018 -6.7324 8.1646
# 3 2.7911 31.3844 118.7739 7.3160 -11.0489 0.2521
# 4 9.7058 -0.2018 7.3160 50.9969 0.1615 0.0126
# 5 -6.5376 -6.7324 -11.0489 0.1615 27.7043 -6.4814
# 6 0.4074 8.1646 0.2521 0.0126 -6.4814 40.1768
#
#
#
# Elastic Compliance Matrix: (Units=1/GPa)
#
#
# Indices 1 2 3 4 5 6 
#
# 1 0.024796 -0.004510 0.001444 -0.004963 0.005730 0.001582
# 2 -0.004510 0.006531 -0.001732 0.001135 -0.000491 -0.001350
# 3 0.001444 -0.001732 0.009300 -0.001628 0.003849 0.000900
# 4 -0.004963 0.001135 -0.001628 0.020797 -0.001774 -0.000463
# 5 0.005730 -0.000491 0.003849 -0.001774 0.040403 0.006536
# 6 0.001582 -0.001350 0.000900 -0.000463 0.006536 0.026197
#
#
# Mechanical properties :
#
#
# Convention : Reuss Voigt Hill
#
# Bulk Modulus (GPa) = 32.22668 54.20348 43.21508
# Shear Modulus (GPa) = 33.79224 42.88616 38.33920
#
# Velocity S-wave (km/s) = 3.55719 4.00735 3.78896
# Velocity P-wave (km/s) = 5.37949 6.45821 5.94337
#
# Compressibility (1/GPa) = 0.03103019
#
# Stress axis : x y z
#
# Youngs Moduli (GPa) = 40.32973 153.11741 107.53154
#
# Poissons Ratio (x) = 0.69056 -0.15532
# Poissons Ratio (y) = 0.18189 0.18629
# Poissons Ratio (z) = -0.05825 0.26526
#
# Static dielectric constant tensor:
#      x y z
#    x 2.224600 0.042470 0.026460 
#    y 0.042470 1.968410 -0.016440 
#    z 0.026460 -0.016440 2.126160 
# 
# From -- ./inp_files/226037.got.cif
#   From: 2010.05.17/outbox.cif.g08.bks.cpg/sg2_114_cif.got.tgz:226037.got - 2010.06.03 11:33:40.
