data_PCOD9012493
_publ_section_title
;
Structure prediction by ZEFSAII (Michael W. Deem and Ramdas Pophale) SiO2 
 PCOD9012493
Probable space group: P -1
;
_chemical_formula_sum "Si O2"
_cell_formula_units_Z 16
_cell_length_a 18.894292
_cell_length_b 25.220859
_cell_length_c 15.261652
_cell_angle_alpha 18.941406
_cell_angle_beta 28.218846
_cell_angle_gamma 17.675652
_cell_volume 701.788318
_symmetry_space_group_name_H-M "P -1"
_symmetry_group_IT_number 2
_symmetry_cell_setting 'triclinic'
loop_
_space_group_symop_operation_xyz
x,y,z
-x,-y,-z
loop_
_atom_site_type_symbol
_atom_site_label
_atom_site_fract_x
_atom_site_fract_y
_atom_site_fract_z
Si Si1 0.117355 0.695010 0.415621
Si Si2 0.385775 0.790884 0.903567
Si Si3 0.429647 0.230274 0.673229
Si Si4 0.763592 0.760547 0.298877
Si Si5 0.060093 0.066097 0.412844
Si Si6 0.779364 0.238324 0.626272
Si Si7 0.300394 0.041115 0.772501
Si Si8 0.880378 0.457424 0.872015
O O1 0.228173 0.465007 0.592089
O O2 0.162016 0.672552 0.505143
O O3 0.266279 0.725348 0.168395
O O4 0.834158 0.942385 0.323750
O O5 0.448836 0.844470 0.837366
O O6 0.639660 0.573559 0.919247
O O7 0.351564 0.267504 0.599312
O O8 0.658240 0.152404 0.544821
O O9 0.500000 0.000000 0.000000
O O10 0.000000 0.500000 0.500000
O O11 0.887010 0.785195 0.060609
O O12 0.600563 0.969922 0.226856
O O13 0.934160 0.122819 0.551002
O O14 0.000000 0.000000 0.500000
O O15 0.949634 0.333591 0.084830
O O16 0.500000 0.500000 0.500000
O O17 0.827935 0.017083 0.962706
O O18 0.164478 0.310868 0.455050
#
# Coordination Sequence:
#
# PCOD9012493 Si02
#       8
#     2   2   2   2   2   2   2   2
#     4  10  23  43  63  96 139 182 229 298 357 416
#     4  10  21  40  70  95 132 183 234 288 357 422
#     4  12  25  44  70 104 144 188 235 298 358 428
#     4  10  22  40  66  98 138 178 232 289 355 404
#     4  12  25  44  73 105 144 192 237 284 365 437
#     4  11  24  42  66  99 139 185 232 293 362 423
#     4  10  22  40  65  95 133 175 231 286 344 416
#     4  11  21  40  66 100 129 182 233 281 347 425
#
# _framework density 22.798898999999999
#
# number of rings (size 3 to 8) (size 9 to 14) (size 15 to 20)
#    0.000    1.250    1.250    5.625    1.750    2.000 
#    0.000    0.625    0.000   14.250    0.000    0.000 
#    0.000    0.000    0.000    0.000    0.000    0.000 
#
# Total GULP energy -89174.040117 kJ/mol
# GULP energy per Si atom -5573.377507 kJ/mol
# Density = 2.274701 g / cm^3
# Si number density = 22.798899 Si / 1000 Ang^3
#
#
#
# Elastic Constant Matrix: (Units=GPa)
#
#
# Indices 1 2 3 4 5 6 
#
# 1 186.5247 56.0199 20.2309 -4.6539 -11.4739 -0.3066
# 2 56.0199 110.6034 1.8069 11.9857 0.6479 -23.3169
# 3 20.2309 1.8069 93.6252 9.5244 6.8274 9.0455
# 4 -4.6539 11.9857 9.5244 27.9309 5.7591 2.3734
# 5 -11.4739 0.6479 6.8274 5.7591 29.3883 0.9413
# 6 -0.3066 -23.3169 9.0455 2.3734 0.9413 38.5770
#
#
#
# Elastic Compliance Matrix: (Units=1/GPa)
#
#
# Indices 1 2 3 4 5 6 
#
# 1 0.007154 -0.004511 -0.001756 0.003381 0.002719 -0.002532
# 2 -0.004511 0.013977 0.000701 -0.007517 -0.001039 0.008735
# 3 -0.001756 0.000701 0.011835 -0.003915 -0.002618 -0.002060
# 4 0.003381 -0.007517 -0.003915 0.042632 -0.005764 -0.006081
# 5 0.002719 -0.001039 -0.002618 -0.005764 0.036867 -0.000538
# 6 -0.002532 0.008735 -0.002060 -0.006081 -0.000538 0.032052
#
#
# Mechanical properties :
#
#
# Convention : Reuss Voigt Hill
#
# Bulk Modulus (GPa) = 45.79993 60.76318 53.28156
# Shear Modulus (GPa) = 30.68879 40.02562 35.35720
#
# Velocity S-wave (km/s) = 3.67286 4.19453 3.94233
# Velocity P-wave (km/s) = 6.17404 7.08297 6.64406
#
# Compressibility (1/GPa) = 0.02183409
#
# Stress axis : x y z
#
# Youngs Moduli (GPa) = 139.78260 71.54723 84.49485
#
# Poissons Ratio (x) = 0.32274 0.14841
# Poissons Ratio (y) = 0.63055 -0.05927
# Poissons Ratio (z) = 0.24551 -0.05019
#
# Static dielectric constant tensor:
#      x y z
#    x 1.896240 0.019840 -0.016680 
#    y 0.019840 1.906330 -0.022260 
#    z -0.016680 -0.022260 1.958420 
# 
# From -- ./inp_files/539264.got.cif
#   From: 2010.05.17/outbox.cif.g08.bks.cpg/sg2_270_cif.got.tgz:539264.got - 2010.06.03 11:33:40.
