data_PCOD9012220
_publ_section_title
;
Structure prediction by ZEFSAII (Michael W. Deem and Ramdas Pophale) SiO2 
 PCOD9012220
Probable space group: P -1
;
_chemical_formula_sum "Si O2"
_cell_formula_units_Z 15
_cell_length_a 7.910405
_cell_length_b 11.145096
_cell_length_c 10.065347
_cell_angle_alpha 109.166351
_cell_angle_beta 47.705522
_cell_angle_gamma 84.906941
_cell_volume 555.770018
_symmetry_space_group_name_H-M "P -1"
_symmetry_group_IT_number 2
_symmetry_cell_setting 'triclinic'
loop_
_space_group_symop_operation_xyz
x,y,z
-x,-y,-z
loop_
_atom_site_type_symbol
_atom_site_label
_atom_site_fract_x
_atom_site_fract_y
_atom_site_fract_z
Si Si1 0.257892 0.409245 0.520553
Si Si2 0.120999 0.725223 0.664994
Si Si3 0.422655 0.285646 0.686535
Si Si4 0.000000 0.000000 0.500000
Si Si5 0.290038 0.858401 0.866999
Si Si6 0.063584 0.167209 0.757230
Si Si7 0.441099 0.084860 0.923993
Si Si8 0.241124 0.529633 0.077783
O O1 0.256182 0.555937 0.537320
O O2 0.335768 0.367862 0.620064
O O3 0.447079 0.278049 0.286529
O O4 0.968974 0.434346 0.683294
O O5 0.269957 0.768508 0.486932
O O6 0.182777 0.795960 0.785428
O O7 0.820073 0.777772 0.852859
O O8 0.315794 0.169903 0.686607
O O9 0.283233 0.394122 0.917116
O O10 0.092433 0.100641 0.573451
O O11 0.693186 0.094612 0.747909
O O12 0.359773 0.984141 0.839842
O O13 0.072821 0.906147 0.109749
O O14 0.864632 0.333514 0.912190
O O15 0.500000 0.000000 0.000000
O O16 0.500000 0.500000 0.000000
#
# Coordination Sequence:
#
# PCOD9012220 Si02
#       8
#     2   2   2   1   2   2   2   2
#     4  10  21  40  69 100 138 177 227 290 351 410
#     4  11  23  42  72 103 134 176 240 288 347 422
#     4  10  21  43  69 104 138 179 229 293 356 411
#     4  12  26  48  70  94 142 190 232 280 354 410
#     4  11  22  46  70  99 137 185 232 290 350 413
#     4  11  23  44  70  96 139 189 232 284 351 419
#     4  12  27  48  67  99 144 187 230 287 350 419
#     4  11  23  38  65 104 140 176 231 287 350 420
#
# _framework density 26.989581000000001
#
# number of rings (size 3 to 8) (size 9 to 14) (size 15 to 20)
#    0.000    1.067    1.333    8.400    1.867    2.133 
#    2.400    3.333    0.000    0.000    0.000    0.000 
#    0.000    0.000    0.000    0.000    0.000    0.000 
#
# Total GULP energy -83792.939217 kJ/mol
# GULP energy per Si atom -5586.195948 kJ/mol
# Density = 2.692815 g / cm^3
# Si number density = 26.989581 Si / 1000 Ang^3
#
#
#
# Elastic Constant Matrix: (Units=GPa)
#
#
# Indices 1 2 3 4 5 6 
#
# 1 99.8311 29.1100 37.2985 1.2170 -15.9530 28.8838
# 2 29.1100 109.0415 44.6541 -4.0417 -15.7842 17.5155
# 3 37.2985 44.6541 160.8722 2.5608 -50.8079 11.8379
# 4 1.2170 -4.0417 2.5608 55.6619 19.0461 -2.6053
# 5 -15.9530 -15.7842 -50.8079 19.0461 58.5128 -3.5161
# 6 28.8838 17.5155 11.8379 -2.6053 -3.5161 30.6125
#
#
#
# Elastic Compliance Matrix: (Units=1/GPa)
#
#
# Indices 1 2 3 4 5 6 
#
# 1 0.014983 -0.001062 -0.001479 -0.001726 0.002305 -0.012840
# 2 -0.001062 0.011234 -0.002558 0.000747 0.000014 -0.004371
# 3 -0.001479 -0.002558 0.010171 -0.003690 0.008918 -0.000364
# 4 -0.001726 0.000747 -0.003690 0.021947 -0.010418 0.003299
# 5 0.002305 0.000014 0.008918 -0.010418 0.028663 -0.003226
# 6 -0.012840 -0.004371 -0.000364 0.003299 -0.003226 0.047333
#
#
# Mechanical properties :
#
#
# Convention : Reuss Voigt Hill
#
# Bulk Modulus (GPa) = 38.18206 65.76331 51.97269
# Shear Modulus (GPa) = 32.62450 46.20292 39.41371
#
# Velocity S-wave (km/s) = 3.48052 4.14198 3.82557
# Velocity P-wave (km/s) = 5.50724 6.87704 6.22991
#
# Compressibility (1/GPa) = 0.02619031
#
# Stress axis : x y z
#
# Youngs Moduli (GPa) = 66.74021 89.01806 98.31968
#
# Poissons Ratio (x) = 0.09456 0.14540
# Poissons Ratio (y) = 0.07090 0.25148
# Poissons Ratio (z) = 0.09870 0.22769
#
# Static dielectric constant tensor:
#      x y z
#    x 2.261460 -0.079630 -0.029910 
#    y -0.079630 2.030500 -0.007550 
#    z -0.029910 -0.007550 2.152260 
# 
# From -- ./inp_files/390595.got.cif
#   From: 2010.05.17/outbox.cif.g08.bks.cpg/sg2_196_cif.got.tgz:390595.got - 2010.06.03 11:33:40.
