data_PCOD9012627
_publ_section_title
;
Structure prediction by ZEFSAII (Michael W. Deem and Ramdas Pophale) SiO2 
 PCOD9012627
Probable space group: P -1
;
_chemical_formula_sum "Si O2"
_cell_formula_units_Z 14
_cell_length_a 7.061293
_cell_length_b 13.347986
_cell_length_c 7.014409
_cell_angle_alpha 108.135514
_cell_angle_beta 72.507832
_cell_angle_gamma 118.685799
_cell_volume 542.043101
_symmetry_space_group_name_H-M "P -1"
_symmetry_group_IT_number 2
_symmetry_cell_setting 'triclinic'
loop_
_space_group_symop_operation_xyz
x,y,z
-x,-y,-z
loop_
_atom_site_type_symbol
_atom_site_label
_atom_site_fract_x
_atom_site_fract_y
_atom_site_fract_z
Si Si1 0.193136 0.960868 0.457414
Si Si2 0.767488 0.669905 0.955110
Si Si3 0.107550 0.741797 0.587130
Si Si4 0.330924 0.498567 0.822401
Si Si5 0.504708 0.862123 0.793931
Si Si6 0.396715 0.631776 0.514347
Si Si7 0.771796 0.908058 0.110676
O O1 0.119836 0.828866 0.466808
O O2 0.351533 0.011682 0.261874
O O3 0.300348 0.037681 0.658261
O O4 0.000000 0.000000 0.500000
O O5 0.507497 0.601824 0.955691
O O6 0.875120 0.677570 0.719696
O O7 0.837551 0.594853 0.037740
O O8 0.814086 0.797035 0.090987
O O9 0.256954 0.818309 0.767541
O O10 0.221563 0.656459 0.455410
O O11 0.274008 0.556433 0.692566
O O12 0.464912 0.428291 0.657379
O O13 0.557163 0.761823 0.615770
O O14 0.418813 0.134979 0.013982
O O15 0.000000 0.000000 0.000000
#
# Coordination Sequence:
#
# PCOD9012627 Si02
#       7
#     2   2   2   2   2   2   2
#     4  12  23  40  69  94 130 183 222 264 334 407
#     4  11  21  40  64  99 124 176 225 264 333 390
#     4  10  23  40  64  98 140 167 218 285 328 393
#     4  10  21  40  72  87 130 180 221 272 318 405
#     4  10  22  43  61  96 139 169 221 270 337 393
#     4   9  21  42  63  95 125 176 217 276 332 381
#     4  12  22  41  68  96 131 178 221 273 327 407
#
# _framework density 25.828206000000002
#
# number of rings (size 3 to 8) (size 9 to 14) (size 15 to 20)
#    0.857    0.571    4.286    1.286    0.000    1.714 
#    0.000    0.000    9.429    0.000    0.000    0.000 
#    0.000    0.000    0.000    0.000    0.000    0.000 
#
# Total GULP energy -78305.749197 kJ/mol
# GULP energy per Si atom -5593.267800 kJ/mol
# Density = 2.576942 g / cm^3
# Si number density = 25.828206 Si / 1000 Ang^3
#
#
#
# Elastic Constant Matrix: (Units=GPa)
#
#
# Indices 1 2 3 4 5 6 
#
# 1 75.9864 19.4925 -5.4820 -10.9272 11.7886 -17.8952
# 2 19.4925 150.3790 21.1057 -30.6974 -1.5147 -35.6475
# 3 -5.4820 21.1057 44.0571 -14.7435 5.9104 -13.7254
# 4 -10.9272 -30.6974 -14.7435 49.8824 -7.8172 10.6318
# 5 11.7886 -1.5147 5.9104 -7.8172 35.5187 1.6239
# 6 -17.8952 -35.6475 -13.7254 10.6318 1.6239 44.7046
#
#
#
# Elastic Compliance Matrix: (Units=1/GPa)
#
#
# Indices 1 2 3 4 5 6 
#
# 1 0.017108 -0.000851 0.006716 0.002488 -0.006645 0.007881
# 2 -0.000851 0.009111 -0.001652 0.004029 0.001586 0.005401
# 3 0.006716 -0.001652 0.030235 0.006400 -0.006350 0.009362
# 4 0.002488 0.004029 0.006400 0.025589 0.003915 -0.000054
# 5 -0.006645 0.001586 -0.006350 0.003915 0.032595 -0.005460
# 6 0.007881 0.005401 0.009362 -0.000054 -0.005460 0.032917
#
#
# Mechanical properties :
#
#
# Convention : Reuss Voigt Hill
#
# Bulk Modulus (GPa) = 15.41333 37.85055 26.63194
# Shear Modulus (GPa) = 31.10317 41.70823 36.40570
#
# Velocity S-wave (km/s) = 3.47397 4.02286 3.75845
# Velocity P-wave (km/s) = 4.69807 6.02199 5.40075
#
# Compressibility (1/GPa) = 0.06487889
#
# Stress axis : x y z
#
# Youngs Moduli (GPa) = 58.45323 109.75821 33.07399
#
# Poissons Ratio (x) = 0.09339 -0.22211
# Poissons Ratio (y) = 0.04974 0.05464
# Poissons Ratio (z) = -0.39254 0.18133
#
# Static dielectric constant tensor:
#      x y z
#    x 2.098830 -0.001370 -0.013370 
#    y -0.001370 2.055070 -0.013860 
#    z -0.013370 -0.013860 2.047620 
# 
# From -- ./inp_files/179976.got.cif
#   From: 2010.05.17/outbox.cif.g08.bks.cpg/sg2_90_cif.got.tgz:179976.got - 2010.06.03 11:33:40.
