data_PCOD9012401
_publ_section_title
;
Structure prediction by ZEFSAII (Michael W. Deem and Ramdas Pophale) SiO2 
 PCOD9012401
Probable space group: P -1
;
_chemical_formula_sum "Si O2"
_cell_formula_units_Z 16
_cell_length_a 14.233795
_cell_length_b 14.388186
_cell_length_c 8.125640
_cell_angle_alpha 58.420523
_cell_angle_beta 37.762272
_cell_angle_gamma 41.748156
_cell_volume 669.579580
_symmetry_space_group_name_H-M "P -1"
_symmetry_group_IT_number 2
_symmetry_cell_setting 'triclinic'
loop_
_space_group_symop_operation_xyz
x,y,z
-x,-y,-z
loop_
_atom_site_type_symbol
_atom_site_label
_atom_site_fract_x
_atom_site_fract_y
_atom_site_fract_z
Si Si1 0.063589 0.641118 0.712899
Si Si2 0.782200 0.062510 0.678537
Si Si3 0.320374 0.320274 0.677795
Si Si4 0.278304 0.587116 0.798835
Si Si5 0.374808 0.313319 0.985372
Si Si6 0.358862 0.976176 0.633755
Si Si7 0.945007 0.111565 0.110596
Si Si8 0.799951 0.849559 0.647167
O O1 0.206115 0.476229 0.620116
O O2 0.153980 0.652722 0.739989
O O3 0.019566 0.735209 0.528450
O O4 0.854677 0.686656 0.029031
O O5 0.581904 0.206545 0.894974
O O6 0.806441 0.110288 0.426127
O O7 0.721775 0.965121 0.797537
O O8 0.000000 0.000000 0.500000
O O9 0.401429 0.313962 0.750653
O O10 0.497412 0.189932 0.449054
O O11 0.500000 0.500000 0.500000
O O12 0.263088 0.478262 0.016420
O O13 0.180146 0.725623 0.916807
O O14 0.265382 0.246208 0.207500
O O15 0.263384 0.064174 0.513782
O O16 0.500000 0.000000 0.500000
O O17 0.161564 0.043191 0.951294
O O18 0.000000 0.000000 0.000000
#
# Coordination Sequence:
#
# PCOD9012401 Si02
#       8
#     2   2   2   2   2   2   2   2
#     4   9  20  36  67  94 132 168 233 289 327 389
#     4  12  24  40  70 103 139 179 240 291 343 408
#     4   9  18  40  62  96 126 178 224 278 335 404
#     4  11  22  41  69 103 134 184 242 279 343 420
#     4  10  21  40  69  99 131 176 235 299 333 401
#     4  12  26  41  67  94 140 186 228 274 360 424
#     4  12  25  46  67  99 144 183 224 287 357 422
#     4  11  23  41  65 104 138 178 232 296 344 409
#
# _framework density 23.895593999999999
#
# number of rings (size 3 to 8) (size 9 to 14) (size 15 to 20)
#    0.000    1.250    3.750    2.625    5.250    0.000 
#    0.000    2.500    0.000    2.250    0.000    0.000 
#    0.000    0.000    0.000    0.000    0.000    0.000 
#
# Total GULP energy -89140.668474 kJ/mol
# GULP energy per Si atom -5571.291780 kJ/mol
# Density = 2.384121 g / cm^3
# Si number density = 23.895594 Si / 1000 Ang^3
#
#
#
# Elastic Constant Matrix: (Units=GPa)
#
#
# Indices 1 2 3 4 5 6 
#
# 1 98.3328 33.0894 5.7861 -0.3821 -24.1672 -15.2542
# 2 33.0894 182.8129 33.0494 15.4677 -0.1902 13.9953
# 3 5.7861 33.0494 45.4228 13.8013 -15.7791 3.6964
# 4 -0.3821 15.4677 13.8013 30.6311 -4.1078 -7.3690
# 5 -24.1672 -0.1902 -15.7791 -4.1078 28.2788 0.1368
# 6 -15.2542 13.9953 3.6964 -7.3690 0.1368 51.7819
#
#
#
# Elastic Compliance Matrix: (Units=1/GPa)
#
#
# Indices 1 2 3 4 5 6 
#
# 1 0.017077 -0.005024 0.006184 0.004009 0.018562 0.006469
# 2 -0.005024 0.008184 -0.007101 -0.003016 -0.008622 -0.003592
# 3 0.006184 -0.007101 0.038308 -0.010358 0.025110 -0.000534
# 4 0.004009 -0.003016 -0.010358 0.041445 0.003605 0.008624
# 5 0.018562 -0.008622 0.025110 0.003605 0.065671 0.006345
# 6 0.006469 -0.003592 -0.000534 0.008624 0.006345 0.023437
#
#
# Mechanical properties :
#
#
# Convention : Reuss Voigt Hill
#
# Bulk Modulus (GPa) = 19.34746 52.26871 35.80809
# Shear Modulus (GPa) = 22.39795 39.11460 30.75628
#
# Velocity S-wave (km/s) = 3.06490 4.05025 3.59152
# Velocity P-wave (km/s) = 4.54302 6.61770 5.67596
#
# Compressibility (1/GPa) = 0.05168638
#
# Stress axis : x y z
#
# Youngs Moduli (GPa) = 58.55708 122.18369 26.10423
#
# Poissons Ratio (x) = 0.61386 -0.16142
# Poissons Ratio (y) = 0.29419 0.18537
# Poissons Ratio (z) = -0.36209 0.86766
#
# Static dielectric constant tensor:
#      x y z
#    x 1.986580 0.012930 -0.002700 
#    y 0.012930 2.054990 -0.033120 
#    z -0.002700 -0.033120 1.986790 
# 
# From -- ./inp_files/312620.got.cif
#   From: 2010.05.17/outbox.cif.g08.bks.cpg/sg2_157_cif.got.tgz:312620.got - 2010.06.03 11:33:40.
