data_PCOD9012811
_publ_section_title
;
Structure prediction by ZEFSAII (Michael W. Deem and Ramdas Pophale) SiO2 
 PCOD9012811
Probable space group: P -1
;
_chemical_formula_sum "Si O2"
_cell_formula_units_Z 14
_cell_length_a 11.714558
_cell_length_b 9.953436
_cell_length_c 8.174517
_cell_angle_alpha 118.594521
_cell_angle_beta 114.439041
_cell_angle_gamma 102.998841
_cell_volume 646.523438
_symmetry_space_group_name_H-M "P -1"
_symmetry_group_IT_number 2
_symmetry_cell_setting 'triclinic'
loop_
_space_group_symop_operation_xyz
x,y,z
-x,-y,-z
loop_
_atom_site_type_symbol
_atom_site_label
_atom_site_fract_x
_atom_site_fract_y
_atom_site_fract_z
Si Si1 0.706045 0.487505 0.843532
Si Si2 0.354102 0.306810 0.827047
Si Si3 0.137718 0.976644 0.905194
Si Si4 0.624694 0.795612 0.562466
Si Si5 0.019092 0.219828 0.979251
Si Si6 0.284224 0.840488 0.328782
Si Si7 0.635345 0.015551 0.191058
O O1 0.537370 0.380885 0.616422
O O2 0.713496 0.327138 0.840530
O O3 0.738594 0.643866 0.082065
O O4 0.832358 0.587448 0.842069
O O5 0.301190 0.234341 0.570695
O O6 0.392213 0.173221 0.863247
O O7 0.500000 0.500000 0.000000
O O8 0.274087 0.143219 0.183605
O O9 0.047015 0.064704 0.842426
O O10 0.217452 0.915551 0.790604
O O11 0.037813 0.830205 0.897090
O O12 0.624156 0.974477 0.611751
O O13 0.883462 0.207939 0.797291
O O14 0.336941 0.867124 0.562535
O O15 0.500000 0.000000 0.000000
#
# Coordination Sequence:
#
# PCOD9012811 Si02
#       7
#     2   2   2   2   2   2   2
#     4  11  19  38  64  88 120 157 208 255 293 363
#     4   9  20  38  60  92 121 156 201 255 305 357
#     4  10  21  41  61  90 123 161 204 254 298 366
#     4   9  20  38  64  90 118 162 207 249 310 360
#     4  10  22  39  61  85 127 166 200 242 310 366
#     4  10  22  39  61  90 121 166 202 239 317 370
#     4  11  22  41  65  93 120 162 208 257 304 363
#
# _framework density 21.654283
#
# number of rings (size 3 to 8) (size 9 to 14) (size 15 to 20)
#    0.000    2.000    1.429    1.714    0.000    6.857 
#   10.286    0.714    0.000    0.000    0.000    0.000 
#    0.000    0.000    0.000    0.000    0.000    0.000 
#
# Total GULP energy -78139.106901 kJ/mol
# GULP energy per Si atom -5581.364779 kJ/mol
# Density = 2.160500 g / cm^3
# Si number density = 21.654283 Si / 1000 Ang^3
#
#
#
# Elastic Constant Matrix: (Units=GPa)
#
#
# Indices 1 2 3 4 5 6 
#
# 1 108.1342 25.3557 21.9429 2.3309 2.8746 10.2233
# 2 25.3557 42.6213 18.3298 10.8930 0.7022 10.7088
# 3 21.9429 18.3298 61.8916 -1.5148 8.9555 -2.5269
# 4 2.3309 10.8930 -1.5148 31.9821 -0.3289 12.1561
# 5 2.8746 0.7022 8.9555 -0.3289 34.4119 10.9660
# 6 10.2233 10.7088 -2.5269 12.1561 10.9660 53.4433
#
#
#
# Elastic Compliance Matrix: (Units=1/GPa)
#
#
# Indices 1 2 3 4 5 6 
#
# 1 0.011152 -0.005650 -0.002348 0.001587 0.000299 -0.001534
# 2 -0.005650 0.034415 -0.009140 -0.009911 0.003559 -0.004723
# 3 -0.002348 -0.009140 0.020830 0.002711 -0.006266 0.003935
# 4 0.001587 -0.009911 0.002711 0.037374 0.001983 -0.007097
# 5 0.000299 0.003559 -0.006266 0.001983 0.033271 -0.008344
# 6 -0.001534 -0.004723 0.003935 -0.007097 -0.008344 0.023464
#
#
# Mechanical properties :
#
#
# Convention : Reuss Voigt Hill
#
# Bulk Modulus (GPa) = 31.13012 38.21156 34.67084
# Shear Modulus (GPa) = 24.33237 33.76871 29.05054
#
# Velocity S-wave (km/s) = 3.35576 3.95327 3.66671
# Velocity P-wave (km/s) = 5.42421 6.20663 5.82856
#
# Compressibility (1/GPa) = 0.03212323
#
# Stress axis : x y z
#
# Youngs Moduli (GPa) = 89.67166 29.05693 48.00737
#
# Poissons Ratio (x) = 0.16416 0.11270
# Poissons Ratio (y) = 0.50660 0.43878
# Poissons Ratio (z) = 0.21051 0.26557
#
# Static dielectric constant tensor:
#      x y z
#    x 1.915000 -0.010430 -0.010180 
#    y -0.010430 1.801030 -0.007220 
#    z -0.010180 -0.007220 1.784870 
# 
# From -- ./inp_files/240700.got.cif
#   From: 2010.05.17/outbox.cif.g08.bks.cpg/sg2_121_cif.got.tgz:240700.got - 2010.06.03 11:33:40.
