data_PCOD9012265
_publ_section_title
;
Structure prediction by ZEFSAII (Michael W. Deem and Ramdas Pophale) SiO2 
 PCOD9012265
Probable space group: P -1
;
_chemical_formula_sum "Si O2"
_cell_formula_units_Z 15
_cell_length_a 9.849588
_cell_length_b 11.943493
_cell_length_c 9.432179
_cell_angle_alpha 130.812788
_cell_angle_beta 58.104031
_cell_angle_gamma 108.410112
_cell_volume 712.236236
_symmetry_space_group_name_H-M "P -1"
_symmetry_group_IT_number 2
_symmetry_cell_setting 'triclinic'
loop_
_space_group_symop_operation_xyz
x,y,z
-x,-y,-z
loop_
_atom_site_type_symbol
_atom_site_label
_atom_site_fract_x
_atom_site_fract_y
_atom_site_fract_z
Si Si1 0.765840 0.685784 0.623631
Si Si2 0.867185 0.677194 0.877721
Si Si3 0.762361 0.248698 0.232788
Si Si4 0.146245 0.905972 0.414949
Si Si5 0.055877 0.574626 0.175645
Si Si6 0.318347 0.988023 0.136589
Si Si7 0.160687 0.991410 0.804310
Si Si8 0.500000 0.500000 0.500000
O O1 0.813021 0.641666 0.720177
O O2 0.592155 0.639117 0.633738
O O3 0.896548 0.615093 0.386389
O O4 0.770687 0.862446 0.747523
O O5 0.837062 0.546728 0.896578
O O6 0.059210 0.696482 0.793970
O O7 0.789260 0.839217 0.091094
O O8 0.727440 0.130419 0.277294
O O9 0.636951 0.385062 0.401096
O O10 0.759026 0.151216 0.011269
O O11 0.136410 0.731195 0.245266
O O12 0.297539 0.967533 0.299105
O O13 0.138987 0.935650 0.610666
O O14 0.000000 0.000000 0.500000
O O15 0.000000 0.500000 0.000000
O O16 0.500000 0.000000 0.000000
O O17 0.000000 0.000000 0.000000
#
# Coordination Sequence:
#
# PCOD9012265 Si02
#       8
#     2   2   2   2   2   2   2   1
#     4  12  25  44  70 103 139 192 239 293 366 433
#     4  11  23  41  71 107 138 178 241 307 357 416
#     4  11  22  42  69 102 138 188 240 292 355 432
#     4  12  24  40  70 107 140 186 249 298 354 434
#     4  12  24  39  66 105 146 178 236 310 355 414
#     4  12  25  46  71  99 147 196 237 290 367 436
#     4  10  21  40  69 104 137 177 235 304 353 414
#     4  12  26  40  72  98 142 186 240 278 370 448
#
# _framework density 21.060428999999999
#
# number of rings (size 3 to 8) (size 9 to 14) (size 15 to 20)
#    0.000    0.533    5.333    5.200    1.867    0.000 
#    0.000    0.667    2.933    2.400    0.000    0.000 
#    0.000    0.000    0.000    0.000    0.000    0.000 
#
# Total GULP energy -83592.038763 kJ/mol
# GULP energy per Si atom -5572.802584 kJ/mol
# Density = 2.101249 g / cm^3
# Si number density = 21.060429 Si / 1000 Ang^3
#
#
#
# Elastic Constant Matrix: (Units=GPa)
#
#
# Indices 1 2 3 4 5 6 
#
# 1 68.7313 22.1204 2.6217 -8.4370 6.6617 2.2765
# 2 22.1204 139.0284 46.5339 11.9044 -5.6573 -27.1660
# 3 2.6217 46.5339 87.9166 -3.5248 14.2195 -8.6305
# 4 -8.4370 11.9044 -3.5248 45.3745 -14.5251 -4.3707
# 5 6.6617 -5.6573 14.2195 -14.5251 32.3616 9.0322
# 6 2.2765 -27.1660 -8.6305 -4.3707 9.0322 40.0081
#
#
#
# Elastic Compliance Matrix: (Units=1/GPa)
#
#
# Indices 1 2 3 4 5 6 
#
# 1 0.016572 -0.004186 0.002108 0.003158 -0.003008 -0.002306
# 2 -0.004186 0.011268 -0.005790 -0.002830 0.002496 0.005767
# 3 0.002108 -0.005790 0.015922 0.000531 -0.008589 0.001380
# 4 0.003158 -0.002830 0.000531 0.026810 0.011091 -0.001562
# 5 -0.003008 0.002496 -0.008589 0.011091 0.043081 -0.008501
# 6 -0.002306 0.005767 0.001380 -0.001562 -0.008501 0.031089
#
#
# Mechanical properties :
#
#
# Convention : Reuss Voigt Hill
#
# Bulk Modulus (GPa) = 35.68091 48.69202 42.18647
# Shear Modulus (GPa) = 29.44324 38.50884 33.97604
#
# Velocity S-wave (km/s) = 3.74309 4.28073 4.02090
# Velocity P-wave (km/s) = 5.97159 6.89950 6.45225
#
# Compressibility (1/GPa) = 0.02802619
#
# Stress axis : x y z
#
# Youngs Moduli (GPa) = 60.34358 88.75083 62.80559
#
# Poissons Ratio (x) = 0.37149 -0.13240
# Poissons Ratio (y) = 0.25258 0.36364
# Poissons Ratio (z) = -0.12721 0.51386
#
# Static dielectric constant tensor:
#      x y z
#    x 1.783130 0.042060 -0.004740 
#    y 0.042060 1.841410 0.014500 
#    z -0.004740 0.014500 1.779300 
# 
# From -- ./inp_files/178122.got.cif
#   From: 2010.05.17/outbox.cif.g08.bks.cpg/sg2_90_cif.got.tgz:178122.got - 2010.06.03 11:33:40.
