data_PCOD9012434
_publ_section_title
;
Structure prediction by ZEFSAII (Michael W. Deem and Ramdas Pophale) SiO2 
 PCOD9012434
Probable space group: P -1
;
_chemical_formula_sum "Si O2"
_cell_formula_units_Z 16
_cell_length_a 8.811475
_cell_length_b 6.625870
_cell_length_c 16.175058
_cell_angle_alpha 107.212691
_cell_angle_beta 120.533720
_cell_angle_gamma 55.743389
_cell_volume 672.234273
_symmetry_space_group_name_H-M "P -1"
_symmetry_group_IT_number 2
_symmetry_cell_setting 'triclinic'
loop_
_space_group_symop_operation_xyz
x,y,z
-x,-y,-z
loop_
_atom_site_type_symbol
_atom_site_label
_atom_site_fract_x
_atom_site_fract_y
_atom_site_fract_z
Si Si1 0.182590 0.123686 0.864135
Si Si2 0.682468 0.170105 0.984363
Si Si3 0.505755 0.542285 0.602538
Si Si4 0.124344 0.953690 0.324160
Si Si5 0.124205 0.596488 0.600047
Si Si6 0.973284 0.679136 0.905610
Si Si7 0.651254 0.897712 0.706470
Si Si8 0.347492 0.308338 0.787163
O O1 0.262789 0.169163 0.804534
O O2 0.066521 0.388788 0.909791
O O3 0.028317 0.027508 0.787545
O O4 0.347154 0.911261 0.942630
O O5 0.478499 0.352477 0.899525
O O6 0.801879 0.901419 0.939953
O O7 0.841031 0.267492 0.038652
O O8 0.500000 0.500000 0.500000
O O9 0.331875 0.526771 0.602124
O O10 0.500065 0.793805 0.646060
O O11 0.730374 0.332419 0.662852
O O12 0.274234 0.054070 0.352982
O O13 0.003355 0.110544 0.388447
O O14 0.179103 0.496280 0.698592
O O15 0.000000 0.500000 0.500000
O O16 0.855453 0.723081 0.791836
O O17 0.527235 0.142878 0.753513
#
# Coordination Sequence:
#
# PCOD9012434 Si02
#       8
#     2   2   2   2   2   2   2   2
#     4  12  23  43  70 110 141 192 242 297 363 434
#     4  10  23  43  68 102 146 193 240 295 365 427
#     4  12  28  47  79 109 141 193 245 305 369 436
#     4  12  26  47  79 106 151 190 242 303 367 432
#     4  12  29  51  77 109 149 194 243 307 366 432
#     4  10  21  40  70 102 143 191 242 294 357 436
#     4  11  22  48  71 105 146 192 241 300 368 433
#     4  11  26  45  71 105 148 191 245 303 357 438
#
# _framework density 23.801226
#
# number of rings (size 3 to 8) (size 9 to 14) (size 15 to 20)
#    0.000    0.750    3.750    3.000    3.500    2.000 
#    6.750    0.000    0.000    0.000    0.000    0.000 
#    0.000    0.000    0.000    0.000    0.000    0.000 
#
# Total GULP energy -89337.742047 kJ/mol
# GULP energy per Si atom -5583.608878 kJ/mol
# Density = 2.374705 g / cm^3
# Si number density = 23.801226 Si / 1000 Ang^3
#
#
#
# Elastic Constant Matrix: (Units=GPa)
#
#
# Indices 1 2 3 4 5 6 
#
# 1 87.4756 21.9142 48.4731 -8.6259 -5.9956 1.1119
# 2 21.9142 55.0159 10.1390 16.8360 -5.3352 -5.6294
# 3 48.4731 10.1390 91.7066 8.7958 11.2861 13.7346
# 4 -8.6259 16.8360 8.7958 28.7278 5.9540 -3.4361
# 5 -5.9956 -5.3352 11.2861 5.9540 39.7295 8.3913
# 6 1.1119 -5.6294 13.7346 -3.4361 8.3913 39.9817
#
#
#
# Elastic Compliance Matrix: (Units=1/GPa)
#
#
# Indices 1 2 3 4 5 6 
#
# 1 0.024254 -0.012161 -0.014099 0.018633 0.002493 0.003534
# 2 -0.012161 0.029710 0.004875 -0.023455 0.004300 -0.000071
# 3 -0.014099 0.004875 0.020524 -0.013299 -0.003984 -0.006279
# 4 0.018633 -0.023455 -0.013299 0.060613 -0.007222 0.007473
# 5 0.002493 0.004300 -0.003984 -0.007222 0.029369 -0.004880
# 6 0.003534 -0.000071 -0.006279 0.007473 -0.004880 0.028726
#
#
# Mechanical properties :
#
#
# Convention : Reuss Voigt Hill
#
# Bulk Modulus (GPa) = 31.52893 43.91677 37.72285
# Shear Modulus (GPa) = 20.28074 31.93257 26.10665
#
# Velocity S-wave (km/s) = 2.92222 3.66681 3.31548
# Velocity P-wave (km/s) = 4.96602 6.03480 5.52631
#
# Compressibility (1/GPa) = 0.03171690
#
# Stress axis : x y z
#
# Youngs Moduli (GPa) = 41.22976 33.65887 48.72388
#
# Poissons Ratio (x) = 0.40934 0.68695
# Poissons Ratio (y) = 0.50141 -0.23751
# Poissons Ratio (z) = 0.58129 -0.16407
#
# Static dielectric constant tensor:
#      x y z
#    x 1.997690 -0.076680 0.073680 
#    y -0.076680 1.946940 -0.080840 
#    z 0.073680 -0.080840 1.983950 
# 
# From -- ./inp_files/553770.got.cif
#   From: 2010.05.17/outbox.cif.g08.bks.cpg/sg2_277_cif.got.tgz:553770.got - 2010.06.03 11:33:40.
