data_PCOD9012726
_publ_section_title
;
Structure prediction by ZEFSAII (Michael W. Deem and Ramdas Pophale) SiO2 
 PCOD9012726
Probable space group: P -1
;
_chemical_formula_sum "Si O2"
_cell_formula_units_Z 15
_cell_length_a 8.946753
_cell_length_b 18.346563
_cell_length_c 10.929048
_cell_angle_alpha 131.923618
_cell_angle_beta 46.551499
_cell_angle_gamma 149.487631
_cell_volume 647.162039
_symmetry_space_group_name_H-M "P -1"
_symmetry_group_IT_number 2
_symmetry_cell_setting 'triclinic'
loop_
_space_group_symop_operation_xyz
x,y,z
-x,-y,-z
loop_
_atom_site_type_symbol
_atom_site_label
_atom_site_fract_x
_atom_site_fract_y
_atom_site_fract_z
Si Si1 0.223200 0.653936 0.203206
Si Si2 0.426686 0.676641 0.843155
Si Si3 0.994461 0.750930 0.333504
Si Si4 0.339451 0.340165 0.941987
Si Si5 0.660034 0.579411 0.710262
Si Si6 0.261640 0.930470 0.165775
Si Si7 0.407836 0.198263 0.360298
Si Si8 0.000000 0.500000 0.500000
O O1 0.425469 0.668075 0.204324
O O2 0.912149 0.480972 0.178716
O O3 0.132899 0.735539 0.349046
O O4 0.389784 0.700897 0.029682
O O5 0.640406 0.654488 0.699949
O O6 0.524607 0.785559 0.805286
O O7 0.704621 0.582347 0.256736
O O8 0.835335 0.799216 0.494386
O O9 0.268549 0.868821 0.215267
O O10 0.065689 0.216966 0.870345
O O11 0.500000 0.500000 0.000000
O O12 0.236960 0.323837 0.119564
O O13 0.856552 0.550393 0.568630
O O14 0.280641 0.052063 0.318795
O O15 0.500000 0.000000 0.000000
O O16 0.720357 0.337586 0.411098
#
# Coordination Sequence:
#
# PCOD9012726 Si02
#       8
#     2   2   2   2   2   2   2   1
#     4   9  20  36  66  90 122 163 213 255 308 367
#     4   9  19  37  60  91 126 160 211 257 306 369
#     4  10  21  41  59  89 126 167 205 258 310 376
#     4  11  22  39  65  95 124 157 215 261 304 368
#     4   9  19  37  60  93 122 162 208 256 303 367
#     4  12  25  40  65  92 128 168 205 260 319 366
#     4  11  24  40  61  91 131 167 209 254 319 368
#     4  10  22  36  60  90 122 162 210 252 302 374
#
# _framework density 23.178121999999998
#
# number of rings (size 3 to 8) (size 9 to 14) (size 15 to 20)
#    0.000    1.867    1.333    2.800    3.733    4.800 
#    0.000    8.000    0.000    0.000    0.000    0.000 
#    0.000    0.000    0.000    0.000    0.000    0.000 
#
# Total GULP energy -83503.386619 kJ/mol
# GULP energy per Si atom -5566.892441 kJ/mol
# Density = 2.312537 g / cm^3
# Si number density = 23.178122 Si / 1000 Ang^3
#
#
#
# Elastic Constant Matrix: (Units=GPa)
#
#
# Indices 1 2 3 4 5 6 
#
# 1 126.4239 46.8920 5.8720 3.3106 -33.1825 -14.4802
# 2 46.8920 73.3355 15.1168 16.4856 -5.9167 -18.1392
# 3 5.8720 15.1168 61.0939 1.2568 -19.6118 0.2091
# 4 3.3106 16.4856 1.2568 38.0414 -2.6638 -2.0204
# 5 -33.1825 -5.9167 -19.6118 -2.6638 36.1196 1.9445
# 6 -14.4802 -18.1392 0.2091 -2.0204 1.9445 30.4250
#
#
#
# Elastic Compliance Matrix: (Units=1/GPa)
#
#
# Indices 1 2 3 4 5 6 
#
# 1 0.016087 -0.011245 0.006540 0.004441 0.016809 0.000128
# 2 -0.011245 0.026809 -0.009344 -0.010625 -0.012377 0.010781
# 3 0.006540 -0.009344 0.023705 0.003758 0.017815 -0.003510
# 4 0.004441 -0.010625 0.003758 0.030716 0.006787 -0.002641
# 5 0.016809 -0.012377 0.017815 0.006787 0.051400 -0.002336
# 6 0.000128 0.010781 -0.003510 -0.002641 -0.002336 0.039354
#
#
# Mechanical properties :
#
#
# Convention : Reuss Voigt Hill
#
# Bulk Modulus (GPa) = 25.97166 44.06831 35.01999
# Shear Modulus (GPa) = 21.83369 33.78203 27.80786
#
# Velocity S-wave (km/s) = 3.07252 3.82186 3.46749
# Velocity P-wave (km/s) = 4.88024 6.20722 5.58330
#
# Compressibility (1/GPa) = 0.03850350
#
# Stress axis : x y z
#
# Youngs Moduli (GPa) = 62.16084 37.30098 42.18473
#
# Poissons Ratio (x) = 0.41946 -0.27590
# Poissons Ratio (y) = 0.69901 0.39418
# Poissons Ratio (z) = -0.40655 0.34854
#
# Static dielectric constant tensor:
#      x y z
#    x 2.016220 -0.078050 0.039060 
#    y -0.078050 1.849430 -0.111280 
#    z 0.039060 -0.111280 2.027180 
# 
# From -- ./inp_files/155313.got.cif
#   From: 2010.05.17/outbox.cif.g08.bks.cpg/sg2_78_cif.got.tgz:155313.got - 2010.06.03 11:33:40.
