data_PCOD9012946
_publ_section_title
;
Structure prediction by ZEFSAII (Michael W. Deem and Ramdas Pophale) SiO2 
 PCOD9012946
Probable space group: P -1
;
_chemical_formula_sum "Si O2"
_cell_formula_units_Z 16
_cell_length_a 5.429540
_cell_length_b 26.523236
_cell_length_c 12.654753
_cell_angle_alpha 155.997667
_cell_angle_beta 112.542364
_cell_angle_gamma 62.141991
_cell_volume 650.578788
_symmetry_space_group_name_H-M "P -1"
_symmetry_group_IT_number 2
_symmetry_cell_setting 'triclinic'
loop_
_space_group_symop_operation_xyz
x,y,z
-x,-y,-z
loop_
_atom_site_type_symbol
_atom_site_label
_atom_site_fract_x
_atom_site_fract_y
_atom_site_fract_z
Si Si1 0.883149 0.383556 0.095443
Si Si2 0.516770 0.378323 0.592920
Si Si3 0.595238 0.070459 0.556328
Si Si4 0.985458 0.205123 0.964429
Si Si5 0.838997 0.876042 0.947548
Si Si6 0.672171 0.701998 0.179551
Si Si7 0.758201 0.065368 0.001421
Si Si8 0.865159 0.659768 0.368919
O O1 0.022215 0.306466 0.076917
O O2 0.633678 0.321142 0.905368
O O3 0.111787 0.372435 0.019741
O O4 0.697724 0.535240 0.362637
O O5 0.622685 0.223680 0.293079
O O6 0.347726 0.399164 0.716020
O O7 0.802577 0.416780 0.714442
O O8 0.692849 0.184005 0.846008
O O9 0.382524 0.150474 0.588300
O O10 0.500000 0.000000 0.500000
O O11 0.821522 0.946528 0.303999
O O12 0.038690 0.228996 0.140158
O O13 0.525767 0.969416 0.094127
O O14 0.825476 0.794269 0.683568
O O15 0.068780 0.949678 0.107715
O O16 0.802120 0.683981 0.282418
O O17 0.000000 0.000000 0.000000
#
# Coordination Sequence:
#
# PCOD9012946 Si02
#       8
#     2   2   2   2   2   2   2   2
#     4  11  23  40  63  92 120 169 212 262 313 372
#     4  10  22  40  61  89 129 161 213 256 312 377
#     4  10  21  41  62  91 125 165 211 262 315 375
#     4  10  23  40  63  93 127 164 215 264 318 372
#     4  10  23  41  64  94 125 165 205 263 319 378
#     4  11  23  38  65  90 126 164 209 259 322 374
#     4  10  22  41  63  89 130 167 207 252 314 379
#     4  10  22  42  60  92 125 165 206 259 317 382
#
# _framework density 24.593482999999999
#
# number of rings (size 3 to 8) (size 9 to 14) (size 15 to 20)
#    0.000    1.750    1.250    1.875    1.750    7.000 
#    0.000    5.000    0.000    0.000    0.000    0.000 
#    0.000    0.000    0.000    0.000    0.000    0.000 
#
# Total GULP energy -89238.907789 kJ/mol
# GULP energy per Si atom -5577.431737 kJ/mol
# Density = 2.453751 g / cm^3
# Si number density = 24.593483 Si / 1000 Ang^3
#
#
#
# Elastic Constant Matrix: (Units=GPa)
#
#
# Indices 1 2 3 4 5 6 
#
# 1 174.9968 24.6008 4.7490 4.1526 -14.9234 14.4102
# 2 24.6008 122.1603 19.4726 16.9071 -7.8605 5.2147
# 3 4.7490 19.4726 60.6644 13.6074 1.5695 -6.2138
# 4 4.1526 16.9071 13.6074 36.1972 -4.8674 -6.1726
# 5 -14.9234 -7.8605 1.5695 -4.8674 24.6289 13.8331
# 6 14.4102 5.2147 -6.2138 -6.1726 13.8331 35.9891
#
#
#
# Elastic Compliance Matrix: (Units=1/GPa)
#
#
# Indices 1 2 3 4 5 6 
#
# 1 0.006908 -0.000479 -0.001130 -0.000139 0.007289 -0.005717
# 2 -0.000479 0.009681 -0.002822 -0.003483 0.004566 -0.004051
# 3 -0.001130 -0.002822 0.019614 -0.005885 -0.007419 0.006090
# 4 -0.000139 -0.003483 -0.005885 0.032598 0.003491 0.003793
# 5 0.007289 0.004566 -0.007419 0.003491 0.063808 -0.028788
# 6 -0.005717 -0.004051 0.006090 0.003793 -0.028788 0.043430
#
#
# Mechanical properties :
#
#
# Convention : Reuss Voigt Hill
#
# Bulk Modulus (GPa) = 36.57419 50.60737 43.59078
# Shear Modulus (GPa) = 25.77133 39.96299 32.86716
#
# Velocity S-wave (km/s) = 3.24063 4.03543 3.65967
# Velocity P-wave (km/s) = 5.37643 6.50655 5.96830
#
# Compressibility (1/GPa) = 0.02734168
#
# Stress axis : x y z
#
# Youngs Moduli (GPa) = 144.76003 103.29564 50.98365
#
# Poissons Ratio (x) = 0.04945 0.05762
# Poissons Ratio (y) = 0.06930 0.14387
# Poissons Ratio (z) = 0.16360 0.29148
#
# Static dielectric constant tensor:
#      x y z
#    x 2.293680 0.046450 -0.149900 
#    y 0.046450 2.126800 -0.001240 
#    z -0.149900 -0.001240 2.256380 
# 
# From -- ./inp_files/371142.got.cif
#   From: 2010.05.17/outbox.cif.g08.bks.cpg/sg2_186_cif.got.tgz:371142.got - 2010.06.03 11:33:40.
