data_PCOD9012079
_publ_section_title
;
Structure prediction by ZEFSAII (Michael W. Deem and Ramdas Pophale) SiO2 
 PCOD9012079
Probable space group: P -1
;
_chemical_formula_sum "Si O2"
_cell_formula_units_Z 14
_cell_length_a 7.499503
_cell_length_b 14.731749
_cell_length_c 9.244178
_cell_angle_alpha 73.294509
_cell_angle_beta 53.082440
_cell_angle_gamma 53.417333
_cell_volume 651.705280
_symmetry_space_group_name_H-M "P -1"
_symmetry_group_IT_number 2
_symmetry_cell_setting 'triclinic'
loop_
_space_group_symop_operation_xyz
x,y,z
-x,-y,-z
loop_
_atom_site_type_symbol
_atom_site_label
_atom_site_fract_x
_atom_site_fract_y
_atom_site_fract_z
Si Si1 0.039037 0.383692 0.985171
Si Si2 0.958253 0.006575 0.187067
Si Si3 0.501135 0.783496 0.536636
Si Si4 0.512612 0.436159 0.375722
Si Si5 0.394886 0.825893 0.250807
Si Si6 0.765200 0.412140 0.823371
Si Si7 0.972937 0.801759 0.359391
O O1 0.802970 0.383535 0.182614
O O2 0.991477 0.393174 0.831140
O O3 0.000000 0.500000 0.000000
O O4 0.335379 0.273305 0.911961
O O5 0.233080 0.937332 0.178110
O O6 0.836518 0.931114 0.316677
O O7 0.761856 0.132993 0.280857
O O8 0.000000 0.000000 0.000000
O O9 0.531758 0.665280 0.547212
O O10 0.463029 0.842262 0.371467
O O11 0.753780 0.772228 0.499069
O O12 0.500000 0.500000 0.500000
O O13 0.286691 0.529999 0.333535
O O14 0.180367 0.788837 0.385890
O O15 0.830284 0.287101 0.819156
O O16 0.500000 0.500000 0.000000
#
# Coordination Sequence:
#
# PCOD9012079 Si02
#       7
#     2   2   2   2   2   2   2
#     4  11  22  43  69  97 138 185 227 281 339 406
#     4  10  26  45  71 101 133 176 241 283 336 408
#     4  12  23  47  71  97 140 183 222 287 342 405
#     4  11  26  43  69 108 140 177 237 274 344 417
#     4  10  23  45  68  99 134 179 227 276 347 402
#     4  10  21  40  68  94 135 183 218 278 338 404
#     4  10  23  43  72  95 138 175 231 272 352 398
#
# _framework density 21.482099999999999
#
# number of rings (size 3 to 8) (size 9 to 14) (size 15 to 20)
#    0.857    0.571    1.429    4.286    4.000    0.571 
#    7.714    1.429    0.000    0.000    0.000    0.000 
#    0.000    0.000    0.000    0.000    0.000    0.000 
#
# Total GULP energy -78060.932802 kJ/mol
# GULP energy per Si atom -5575.780914 kJ/mol
# Density = 2.143321 g / cm^3
# Si number density = 21.482100 Si / 1000 Ang^3
#
#
#
# Elastic Constant Matrix: (Units=GPa)
#
#
# Indices 1 2 3 4 5 6 
#
# 1 104.5591 33.0087 29.7439 1.0353 -2.7295 -15.8131
# 2 33.0087 83.8761 29.4555 15.2001 -0.7144 -2.1549
# 3 29.7439 29.4555 86.1549 14.1862 1.9020 -16.5968
# 4 1.0353 15.2001 14.1862 33.3140 0.5370 -4.3709
# 5 -2.7295 -0.7144 1.9020 0.5370 43.8722 4.8865
# 6 -15.8131 -2.1549 -16.5968 -4.3709 4.8865 37.8525
#
#
#
# Elastic Compliance Matrix: (Units=1/GPa)
#
#
# Indices 1 2 3 4 5 6 
#
# 1 0.012265 -0.004440 -0.002460 0.003229 0.000298 0.004127
# 2 -0.004440 0.015940 -0.003565 -0.006057 0.000578 -0.003284
# 3 -0.002460 -0.003565 0.015395 -0.004145 -0.001409 0.005223
# 4 0.003229 -0.006057 -0.004145 0.034884 -0.000510 0.003281
# 5 0.000298 0.000578 -0.001409 -0.000510 0.023281 -0.003525
# 6 0.004127 -0.003284 0.005223 0.003281 -0.003525 0.031079
#
#
# Mechanical properties :
#
#
# Convention : Reuss Voigt Hill
#
# Bulk Modulus (GPa) = 44.10950 51.00072 47.55511
# Shear Modulus (GPa) = 30.99235 35.16655 33.07945
#
# Velocity S-wave (km/s) = 3.80242 4.05040 3.92836
# Velocity P-wave (km/s) = 6.31313 6.75772 6.53920
#
# Compressibility (1/GPa) = 0.02267085
#
# Stress axis : x y z
#
# Youngs Moduli (GPa) = 81.53151 62.73663 64.95737
#
# Poissons Ratio (x) = 0.27852 0.15978
# Poissons Ratio (y) = 0.36196 0.23157
# Poissons Ratio (z) = 0.20055 0.22366
#
# Static dielectric constant tensor:
#      x y z
#    x 1.819710 -0.001920 -0.026280 
#    y -0.001920 1.811140 0.008300 
#    z -0.026280 0.008300 1.804840 
# 
# From -- ./inp_files/200561.got.cif
#   From: 2010.05.17/outbox.cif.g08.bks.cpg/sg2_101_cif.got.tgz:200561.got - 2010.06.03 11:33:40.
