data_PCOD9012553
_publ_section_title
;
Structure prediction by ZEFSAII (Michael W. Deem and Ramdas Pophale) SiO2 
 PCOD9012553
Probable space group: P -1
;
_chemical_formula_sum "Si O2"
_cell_formula_units_Z 16
_cell_length_a 11.859301
_cell_length_b 13.897494
_cell_length_c 10.910363
_cell_angle_alpha 145.357177
_cell_angle_beta 130.497357
_cell_angle_gamma 62.632683
_cell_volume 765.655653
_symmetry_space_group_name_H-M "P -1"
_symmetry_group_IT_number 2
_symmetry_cell_setting 'triclinic'
loop_
_space_group_symop_operation_xyz
x,y,z
-x,-y,-z
loop_
_atom_site_type_symbol
_atom_site_label
_atom_site_fract_x
_atom_site_fract_y
_atom_site_fract_z
Si Si1 0.557626 0.732265 0.200741
Si Si2 0.571458 0.373649 0.745723
Si Si3 0.322864 0.864013 0.024848
Si Si4 0.160796 0.028645 0.279156
Si Si5 0.958354 0.300273 0.485832
Si Si6 0.436875 0.911894 0.736618
Si Si7 0.903602 0.317565 0.988085
Si Si8 0.923146 0.164411 0.592848
O O1 0.545602 0.680909 0.282434
O O2 0.690158 0.894718 0.456990
O O3 0.593626 0.579252 0.980251
O O4 0.394903 0.765859 0.079823
O O5 0.533391 0.275541 0.487211
O O6 0.728293 0.322759 0.846191
O O7 0.211992 0.746686 0.732024
O O8 0.222793 0.987792 0.148021
O O9 0.469119 0.965320 0.168199
O O10 0.082804 0.849079 0.095923
O O11 0.058817 0.174890 0.361486
O O12 0.964127 0.253395 0.584601
O O13 0.022107 0.499018 0.714571
O O14 0.257423 0.897428 0.596365
O O15 0.500000 0.000000 0.000000
O O16 0.968425 0.291717 0.871874
O O17 0.000000 0.000000 0.500000
#
# Coordination Sequence:
#
# PCOD9012553 Si02
#       8
#     2   2   2   2   2   2   2   2
#     4  11  21  41  70 102 134 171 232 278 337 402
#     4  10  21  40  71 101 131 178 228 281 328 405
#     4  12  25  43  65 103 137 176 218 286 347 398
#     4  12  23  44  71  99 135 181 224 275 339 410
#     4  12  26  45  64 102 143 175 222 279 340 401
#     4  11  23  44  69  96 136 175 225 281 342 398
#     4  11  23  42  70  98 130 180 229 272 329 405
#     4  11  23  44  72  98 128 181 231 271 330 408
#
# _framework density 20.897124000000002
#
# number of rings (size 3 to 8) (size 9 to 14) (size 15 to 20)
#    0.000    0.750    6.250    2.625    0.000    0.500 
#    4.500    0.625    0.000    0.000    0.000    0.000 
#    0.000    0.000    0.000    0.000    0.000    0.000 
#
# Total GULP energy -89344.239670 kJ/mol
# GULP energy per Si atom -5584.014979 kJ/mol
# Density = 2.084956 g / cm^3
# Si number density = 20.897124 Si / 1000 Ang^3
#
#
#
# Elastic Constant Matrix: (Units=GPa)
#
#
# Indices 1 2 3 4 5 6 
#
# 1 61.8476 15.4910 17.4264 7.9540 -22.0647 2.0023
# 2 15.4910 41.1080 41.8728 11.8968 -2.3924 -4.6073
# 3 17.4264 41.8728 132.4800 21.3048 -13.4088 -3.7323
# 4 7.9540 11.8968 21.3048 30.0456 -2.3513 -0.1765
# 5 -22.0647 -2.3924 -13.4088 -2.3513 35.0477 3.5086
# 6 2.0023 -4.6073 -3.7323 -0.1765 3.5086 30.7913
#
#
#
# Elastic Compliance Matrix: (Units=1/GPa)
#
#
# Indices 1 2 3 4 5 6 
#
# 1 0.024117 -0.009748 0.001762 -0.002590 0.015478 -0.004592
# 2 -0.009748 0.041934 -0.011650 -0.006414 -0.008809 0.006463
# 3 0.001762 -0.011650 0.012109 -0.004073 0.004770 -0.000957
# 4 -0.002590 -0.006414 -0.004073 0.039321 -0.000893 -0.000958
# 5 0.015478 -0.008809 0.004770 -0.000893 0.040073 -0.006318
# 6 -0.004592 0.006463 -0.000957 -0.000958 -0.006318 0.034341
#
#
# Mechanical properties :
#
#
# Convention : Reuss Voigt Hill
#
# Bulk Modulus (GPa) = 25.71308 42.77956 34.24632
# Shear Modulus (GPa) = 20.48098 29.88661 25.18379
#
# Velocity S-wave (km/s) = 3.13403 3.78587 3.47527
# Velocity P-wave (km/s) = 5.04257 6.29495 5.70324
#
# Compressibility (1/GPa) = 0.03889072
#
# Stress axis : x y z
#
# Youngs Moduli (GPa) = 41.46370 23.84704 82.58075
#
# Poissons Ratio (x) = 0.23245 -0.14553
# Poissons Ratio (y) = 0.40417 0.96204
# Poissons Ratio (z) = -0.07307 0.27781
#
# Static dielectric constant tensor:
#      x y z
#    x 1.780100 0.022890 -0.016520 
#    y 0.022890 1.755490 0.002320 
#    z -0.016520 0.002320 1.771290 
# 
# From -- ./inp_files/433581.got.cif
#   From: 2010.05.17/outbox.cif.g08.bks.cpg/sg2_217_cif.got.tgz:433581.got - 2010.06.03 11:33:40.
