data_PCOD9012475
_publ_section_title
;
Structure prediction by ZEFSAII (Michael W. Deem and Ramdas Pophale) SiO2 
 PCOD9012475
Probable space group: P -1
;
_chemical_formula_sum "Si O2"
_cell_formula_units_Z 13
_cell_length_a 11.945824
_cell_length_b 7.411216
_cell_length_c 7.577855
_cell_angle_alpha 59.529488
_cell_angle_beta 112.176412
_cell_angle_gamma 80.457887
_cell_volume 478.847972
_symmetry_space_group_name_H-M "P -1"
_symmetry_group_IT_number 2
_symmetry_cell_setting 'triclinic'
loop_
_space_group_symop_operation_xyz
x,y,z
-x,-y,-z
loop_
_atom_site_type_symbol
_atom_site_label
_atom_site_fract_x
_atom_site_fract_y
_atom_site_fract_z
Si Si1 0.631925 0.346090 0.498632
Si Si2 0.862161 0.421185 0.506915
Si Si3 0.500000 0.000000 0.500000
Si Si4 0.385767 0.718720 0.063025
Si Si5 0.331995 0.342351 0.025338
Si Si6 0.097875 0.996061 0.722253
Si Si7 0.860907 0.501690 0.860113
O O1 0.782751 0.260270 0.562907
O O2 0.548686 0.609019 0.233135
O O3 0.634268 0.345395 0.712822
O O4 0.561175 0.190393 0.471424
O O5 0.842528 0.543978 0.621422
O O6 0.014295 0.239439 0.649892
O O7 0.789809 0.579933 0.218651
O O8 0.540585 0.905916 0.780085
O O9 0.364095 0.555978 0.983486
O O10 0.253511 0.955182 0.820508
O O11 0.270491 0.315642 0.198106
O O12 0.000000 0.000000 0.500000
O O13 0.116187 0.760921 0.951057
O O14 0.000000 0.500000 0.000000
#
# Coordination Sequence:
#
# PCOD9012475 Si02
#       7
#     2   2   1   2   2   2   2
#     4  10  21  40  70  93 125 179 217 266 337 388
#     4  12  23  42  73  96 126 184 226 262 336 405
#     4  10  24  40  66  96 134 168 212 284 332 386
#     4   9  19  40  64  89 132 168 209 269 322 392
#     4  10  22  45  62  97 134 168 220 275 327 390
#     4  11  21  43  66 101 129 172 220 272 327 400
#     4  11  25  43  64  97 142 171 215 278 333 386
#
# _framework density 27.148489999999999
#
# number of rings (size 3 to 8) (size 9 to 14) (size 15 to 20)
#    0.000    1.538    6.154    0.462    2.154    3.077 
#    2.769    0.769    0.000    0.000    0.000    0.000 
#    0.000    0.000    0.000    0.000    0.000    0.000 
#
# Total GULP energy -72372.454090 kJ/mol
# GULP energy per Si atom -5567.111853 kJ/mol
# Density = 2.708670 g / cm^3
# Si number density = 27.148490 Si / 1000 Ang^3
#
#
#
# Elastic Constant Matrix: (Units=GPa)
#
#
# Indices 1 2 3 4 5 6 
#
# 1 74.9298 17.4096 -0.7918 12.1548 30.1555 4.5697
# 2 17.4096 81.5713 45.0427 17.5897 1.8778 4.6103
# 3 -0.7918 45.0427 161.2228 11.8844 7.6201 7.3488
# 4 12.1548 17.5897 11.8844 45.9761 3.4056 -0.8147
# 5 30.1555 1.8778 7.6201 3.4056 51.0183 3.6133
# 6 4.5697 4.6103 7.3488 -0.8147 3.6133 41.8648
#
#
#
# Elastic Compliance Matrix: (Units=1/GPa)
#
#
# Indices 1 2 3 4 5 6 
#
# 1 0.019569 -0.004331 0.002136 -0.003241 -0.011431 -0.001110
# 2 -0.004331 0.016530 -0.004423 -0.004271 0.002962 -0.000910
# 3 0.002136 -0.004423 0.007643 -0.000707 -0.002129 -0.000918
# 4 -0.003241 -0.004271 -0.000707 0.024415 0.000451 0.001384
# 5 -0.011431 0.002962 -0.002129 0.000451 0.026607 -0.000992
# 6 -0.001110 -0.000910 -0.000918 0.001384 -0.000992 0.024382
#
#
# Mechanical properties :
#
#
# Convention : Reuss Voigt Hill
#
# Bulk Modulus (GPa) = 32.78057 49.00497 40.89277
# Shear Modulus (GPa) = 35.07513 44.84275 39.95894
#
# Velocity S-wave (km/s) = 3.59830 4.06859 3.84065
# Velocity P-wave (km/s) = 5.41890 6.33728 5.89600
#
# Compressibility (1/GPa) = 0.03050587
#
# Stress axis : x y z
#
# Youngs Moduli (GPa) = 51.10197 60.49486 130.83174
#
# Poissons Ratio (x) = 0.26201 -0.27945
# Poissons Ratio (y) = 0.22133 0.57869
# Poissons Ratio (z) = -0.10915 0.26758
#
# Static dielectric constant tensor:
#      x y z
#    x 2.250770 -0.057930 -0.097600 
#    y -0.057930 2.104100 0.028750 
#    z -0.097600 0.028750 2.051770 
# 
# From -- ./inp_files/289792.got.cif
#   From: 2010.05.17/outbox.cif.g08.bks.cpg/sg2_145_cif.got.tgz:289792.got - 2010.06.03 11:33:40.
