data_PCOD9012291
_publ_section_title
;
Structure prediction by ZEFSAII (Michael W. Deem and Ramdas Pophale) SiO2 
 PCOD9012291
Probable space group: P -1
;
_chemical_formula_sum "Si O2"
_cell_formula_units_Z 16
_cell_length_a 8.556737
_cell_length_b 12.232966
_cell_length_c 10.972322
_cell_angle_alpha 55.545975
_cell_angle_beta 47.733653
_cell_angle_gamma 80.703970
_cell_volume 654.161364
_symmetry_space_group_name_H-M "P -1"
_symmetry_group_IT_number 2
_symmetry_cell_setting 'triclinic'
loop_
_space_group_symop_operation_xyz
x,y,z
-x,-y,-z
loop_
_atom_site_type_symbol
_atom_site_label
_atom_site_fract_x
_atom_site_fract_y
_atom_site_fract_z
Si Si1 0.269312 0.557500 0.329807
Si Si2 0.628994 0.868248 0.220625
Si Si3 0.862733 0.691037 0.067374
Si Si4 0.350253 0.210187 0.117582
Si Si5 0.150065 0.962007 0.230101
Si Si6 0.216650 0.601877 0.601985
Si Si7 0.162921 0.328822 0.355889
Si Si8 0.747521 0.050483 0.283160
O O1 0.319059 0.573773 0.436271
O O2 0.321312 0.435783 0.303646
O O3 0.000000 0.500000 0.500000
O O4 0.389858 0.705352 0.104387
O O5 0.763576 0.762653 0.183049
O O6 0.378227 0.760506 0.451692
O O7 0.728506 0.978209 0.206806
O O8 0.668567 0.961202 0.017675
O O9 0.793920 0.524629 0.224294
O O10 0.770131 0.728242 0.964641
O O11 0.130058 0.779491 0.883174
O O12 0.290207 0.253515 0.252154
O O13 0.255621 0.042501 0.248819
O O14 0.053000 0.793653 0.393467
O O15 0.925616 0.997392 0.294720
O O16 0.961940 0.592925 0.714336
O O17 0.500000 0.000000 0.500000
#
# Coordination Sequence:
#
# PCOD9012291 Si02
#       8
#     2   2   2   2   2   2   2   2
#     4  10  22  42  59  91 127 160 214 255 307 381
#     4  10  21  40  69  90 125 163 212 264 316 371
#     4  10  22  41  69  90 127 166 209 263 313 377
#     4  10  21  44  63  92 126 166 212 260 323 365
#     4  10  22  43  65  90 125 172 209 256 317 382
#     4  11  23  41  62  98 122 165 218 260 307 386
#     4  11  25  39  64  91 133 168 210 259 319 376
#     4  10  23  42  64  99 126 157 213 266 319 371
#
# _framework density 24.458796
#
# number of rings (size 3 to 8) (size 9 to 14) (size 15 to 20)
#    0.000    2.000    2.500    2.625    7.000    1.000 
#    6.750    0.000    0.000    0.000    0.000    0.000 
#    0.000    0.000    0.000    0.000    0.000    0.000 
#
# Total GULP energy -89470.745897 kJ/mol
# GULP energy per Si atom -5591.921619 kJ/mol
# Density = 2.440313 g / cm^3
# Si number density = 24.458796 Si / 1000 Ang^3
#
#
#
# Elastic Constant Matrix: (Units=GPa)
#
#
# Indices 1 2 3 4 5 6 
#
# 1 39.8736 15.7927 23.5513 -10.5840 -12.0139 -2.6404
# 2 15.7927 82.4246 19.7441 3.7681 -5.3133 19.0249
# 3 23.5513 19.7441 98.5336 -13.7308 -15.2080 4.2036
# 4 -10.5840 3.7681 -13.7308 44.5190 -1.5714 0.7926
# 5 -12.0139 -5.3133 -15.2080 -1.5714 33.8026 -12.2123
# 6 -2.6404 19.0249 4.2036 0.7926 -12.2123 31.8965
#
#
#
# Elastic Compliance Matrix: (Units=1/GPa)
#
#
# Indices 1 2 3 4 5 6 
#
# 1 0.040139 -0.009634 -0.004431 0.009306 0.016938 0.015907
# 2 -0.009634 0.017368 -0.002270 -0.004461 -0.006738 -0.013326
# 3 -0.004431 -0.002270 0.012729 0.003199 0.004254 0.000859
# 4 0.009306 -0.004461 0.003199 0.026199 0.007098 0.005076
# 5 0.016938 -0.006738 0.004254 0.007098 0.044658 0.021782
# 6 0.015907 -0.013326 0.000859 0.005076 0.021782 0.048717
#
#
# Mechanical properties :
#
#
# Convention : Reuss Voigt Hill
#
# Bulk Modulus (GPa) = 26.62147 37.66755 32.14451
# Shear Modulus (GPa) = 21.27638 32.82653 27.05145
#
# Velocity S-wave (km/s) = 2.95258 3.66746 3.32927
# Velocity P-wave (km/s) = 4.74674 5.77647 5.28673
#
# Compressibility (1/GPa) = 0.03756367
#
# Stress axis : x y z
#
# Youngs Moduli (GPa) = 24.91333 57.57831 78.56304
#
# Poissons Ratio (x) = 0.55474 0.34811
# Poissons Ratio (y) = 0.24003 0.17837
# Poissons Ratio (z) = 0.11039 0.13072
#
# Static dielectric constant tensor:
#      x y z
#    x 1.970120 -0.022950 -0.028940 
#    y -0.022950 1.990240 0.003240 
#    z -0.028940 0.003240 1.979130 
# 
# From -- ./inp_files/345324.got.cif
#   From: 2010.05.17/outbox.cif.g08.bks.cpg/sg2_173_cif.got.tgz:345324.got - 2010.06.03 11:33:40.
