data_PCOD9012446
_publ_section_title
;
Structure prediction by ZEFSAII (Michael W. Deem and Ramdas Pophale) SiO2 
 PCOD9012446
Probable space group: P -1
;
_chemical_formula_sum "Si O2"
_cell_formula_units_Z 16
_cell_length_a 13.604003
_cell_length_b 11.948281
_cell_length_c 5.605641
_cell_angle_alpha 96.106466
_cell_angle_beta 52.990903
_cell_angle_gamma 82.607266
_cell_volume 701.843872
_symmetry_space_group_name_H-M "P -1"
_symmetry_group_IT_number 2
_symmetry_cell_setting 'triclinic'
loop_
_space_group_symop_operation_xyz
x,y,z
-x,-y,-z
loop_
_atom_site_type_symbol
_atom_site_label
_atom_site_fract_x
_atom_site_fract_y
_atom_site_fract_z
Si Si1 0.909960 0.294581 0.411661
Si Si2 0.711910 0.971396 0.742982
Si Si3 0.214970 0.447510 0.498430
Si Si4 0.690945 0.216172 0.944172
Si Si5 0.489049 0.322258 0.910062
Si Si6 0.939527 0.749365 0.314989
Si Si7 0.480860 0.911210 0.313423
Si Si8 0.366304 0.566267 0.597326
O O1 0.857288 0.433801 0.495872
O O2 0.795907 0.231461 0.601213
O O3 0.990235 0.267635 0.534040
O O4 0.979652 0.255830 0.048447
O O5 0.838859 0.873736 0.503320
O O6 0.718680 0.079480 0.930672
O O7 0.653297 0.037871 0.604279
O O8 0.601439 0.909068 0.966145
O O9 0.131358 0.355381 0.628508
O O10 0.267553 0.488580 0.679890
O O11 0.344164 0.386518 0.159071
O O12 0.550300 0.255933 0.043232
O O13 0.696347 0.315127 0.150427
O O14 0.505849 0.221143 0.664957
O O15 0.583387 0.401167 0.723181
O O16 0.500000 0.000000 0.500000
O O17 0.500000 0.500000 0.500000
#
# Coordination Sequence:
#
# PCOD9012446 Si02
#       8
#     2   2   2   2   2   2   2   2
#     4  12  28  49  74 102 152 200 255 296 359 436
#     4  10  24  44  70 103 144 180 247 300 369 435
#     4  12  24  47  72 108 147 187 250 307 368 439
#     4  11  24  46  69 105 141 187 243 303 371 437
#     4  11  22  41  68 107 141 177 235 306 380 430
#     4  12  29  51  73 108 145 206 249 301 358 435
#     4  10  21  40  70 105 140 183 226 301 375 445
#     4  12  23  38  70 107 148 188 230 301 382 443
#
# _framework density 22.797096
#
# number of rings (size 3 to 8) (size 9 to 14) (size 15 to 20)
#    0.000    0.750    3.750    3.375    1.750    4.000 
#    0.000    0.000    0.000    0.000    0.000    0.000 
#    0.000    0.000    0.000    0.000    0.000    0.000 
#
# Total GULP energy -89392.950482 kJ/mol
# GULP energy per Si atom -5587.059405 kJ/mol
# Density = 2.274521 g / cm^3
# Si number density = 22.797096 Si / 1000 Ang^3
#
#
#
# Elastic Constant Matrix: (Units=GPa)
#
#
# Indices 1 2 3 4 5 6 
#
# 1 120.5203 41.2393 55.6620 18.4484 2.5339 -9.9471
# 2 41.2393 109.3528 45.2989 26.6381 -8.3193 -4.5932
# 3 55.6620 45.2989 110.2021 14.5972 -6.1340 -21.9365
# 4 18.4484 26.6381 14.5972 48.4791 5.1787 -6.9318
# 5 2.5339 -8.3193 -6.1340 5.1787 33.5281 8.2622
# 6 -9.9471 -4.5932 -21.9365 -6.9318 8.2622 43.3132
#
#
#
# Elastic Compliance Matrix: (Units=1/GPa)
#
#
# Indices 1 2 3 4 5 6 
#
# 1 0.011553 -0.002130 -0.004849 -0.001526 -0.002084 0.000125
# 2 -0.002130 0.013286 -0.003893 -0.006202 0.004415 -0.002886
# 3 -0.004849 -0.003893 0.014217 0.000453 0.000541 0.005643
# 4 -0.001526 -0.006202 0.000453 0.025825 -0.006460 0.004586
# 5 -0.002084 0.004415 0.000541 -0.006460 0.033962 -0.007249
# 6 0.000125 -0.002886 0.005643 0.004586 -0.007249 0.027785
#
#
# Mechanical properties :
#
#
# Convention : Reuss Voigt Hill
#
# Bulk Modulus (GPa) = 57.76042 69.38618 63.57330
# Shear Modulus (GPa) = 32.43748 38.25575 35.34661
#
# Velocity S-wave (km/s) = 3.77620 4.10090 3.94189
# Velocity P-wave (km/s) = 6.66368 7.27500 6.97604
#
# Compressibility (1/GPa) = 0.01731289
#
# Stress axis : x y z
#
# Youngs Moduli (GPa) = 86.55508 75.26771 70.33825
#
# Poissons Ratio (x) = 0.16032 0.34107
# Poissons Ratio (y) = 0.18436 0.27381
# Poissons Ratio (z) = 0.41970 0.29300
#
# Static dielectric constant tensor:
#      x y z
#    x 1.884020 -0.005800 0.064980 
#    y -0.005800 1.891120 -0.000160 
#    z 0.064980 -0.000160 1.913640 
# 
# From -- ./inp_files/95109.got.cif
#   From: 2010.05.17/outbox.cif.g08.bks.cpg/sg2_48_cif.got.tgz:95109.got - 2010.06.03 11:33:40.
