data_PCOD9012148
_publ_section_title
;
Structure prediction by ZEFSAII (Michael W. Deem and Ramdas Pophale) SiO2 
 PCOD9012148
Probable space group: P -1
;
_chemical_formula_sum "Si O2"
_cell_formula_units_Z 14
_cell_length_a 8.991367
_cell_length_b 11.460273
_cell_length_c 12.749502
_cell_angle_alpha 121.245008
_cell_angle_beta 147.074148
_cell_angle_gamma 50.020436
_cell_volume 546.521776
_symmetry_space_group_name_H-M "P -1"
_symmetry_group_IT_number 2
_symmetry_cell_setting 'triclinic'
loop_
_space_group_symop_operation_xyz
x,y,z
-x,-y,-z
loop_
_atom_site_type_symbol
_atom_site_label
_atom_site_fract_x
_atom_site_fract_y
_atom_site_fract_z
Si Si1 0.862183 0.726594 0.749576
Si Si2 0.249816 0.827090 0.577437
Si Si3 0.362618 0.442766 0.018000
Si Si4 0.476557 0.347612 0.668359
Si Si5 0.248873 0.974273 0.271239
Si Si6 0.809923 0.392139 0.695261
Si Si7 0.353533 0.886232 0.895161
O O1 0.566342 0.773636 0.674128
O O2 0.768157 0.668894 0.559896
O O3 0.864220 0.889621 0.815149
O O4 0.190594 0.585898 0.903220
O O5 0.068523 0.740316 0.380577
O O6 0.335628 0.803761 0.738548
O O7 0.000000 0.000000 0.500000
O O8 0.039570 0.462271 0.886294
O O9 0.580156 0.496772 0.236411
O O10 0.516307 0.258936 0.015175
O O11 0.737015 0.332805 0.731729
O O12 0.595302 0.203115 0.748214
O O13 0.972611 0.004377 0.199737
O O14 0.500000 0.000000 0.500000
O O15 0.500000 0.500000 0.500000
O O16 0.500000 0.000000 0.000000
#
# Coordination Sequence:
#
# PCOD9012148 Si02
#       7
#     2   2   2   2   2   2   2
#     4  10  24  43  70 100 135 190 230 280 355 422
#     4  11  22  41  67 100 136 178 235 287 344 405
#     4  12  24  39  69 101 141 177 234 294 346 415
#     4  10  21  40  68  97 133 185 231 279 341 419
#     4  10  23  48  71  96 147 189 232 279 354 430
#     4  11  20  37  63  96 139 178 228 282 349 411
#     4  12  27  44  70 110 139 177 237 301 347 409
#
# _framework density 25.616546
#
# number of rings (size 3 to 8) (size 9 to 14) (size 15 to 20)
#    0.000    1.143    2.857    5.571    4.000    1.143 
#    0.000    2.857    6.286    0.000    0.000    0.000 
#    0.000    0.000    0.000    0.000    0.000    0.000 
#
# Total GULP energy -78058.761790 kJ/mol
# GULP energy per Si atom -5575.625842 kJ/mol
# Density = 2.555824 g / cm^3
# Si number density = 25.616546 Si / 1000 Ang^3
#
#
#
# Elastic Constant Matrix: (Units=GPa)
#
#
# Indices 1 2 3 4 5 6 
#
# 1 57.2831 19.9280 2.6502 0.6769 8.2540 6.0592
# 2 19.9280 185.8906 31.2756 -5.3641 11.5080 24.5281
# 3 2.6502 31.2756 41.6015 10.1953 -3.7687 -4.9004
# 4 0.6769 -5.3641 10.1953 53.6015 0.7971 6.8087
# 5 8.2540 11.5080 -3.7687 0.7971 30.3105 -2.4908
# 6 6.0592 24.5281 -4.9004 6.8087 -2.4908 45.5863
#
#
#
# Elastic Compliance Matrix: (Units=1/GPa)
#
#
# Indices 1 2 3 4 5 6 
#
# 1 0.018892 -0.001237 -0.001040 0.000197 -0.004995 -0.002260
# 2 -0.001237 0.007869 -0.007606 0.003018 -0.004133 -0.005564
# 3 -0.001040 -0.007606 0.033801 -0.008521 0.008386 0.009595
# 4 0.000197 0.003018 -0.008521 0.021380 -0.003309 -0.005940
# 5 -0.004995 -0.004133 0.008386 -0.003309 0.037572 0.006336
# 6 -0.002260 -0.005564 0.009595 -0.005940 0.006336 0.027495
#
#
# Mechanical properties :
#
#
# Convention : Reuss Voigt Hill
#
# Bulk Modulus (GPa) = 24.51357 43.60919 34.06138
# Shear Modulus (GPa) = 27.72006 41.29442 34.50724
#
# Velocity S-wave (km/s) = 3.29312 4.01935 3.67422
# Velocity P-wave (km/s) = 4.90405 6.21298 5.59691
#
# Compressibility (1/GPa) = 0.04079373
#
# Stress axis : x y z
#
# Youngs Moduli (GPa) = 52.93207 127.08082 29.58536
#
# Poissons Ratio (x) = 0.15723 0.03078
# Poissons Ratio (y) = 0.06549 0.22504
# Poissons Ratio (z) = 0.05506 0.96664
#
# Static dielectric constant tensor:
#      x y z
#    x 2.091020 0.079880 -0.064370 
#    y 0.079880 1.944810 -0.078930 
#    z -0.064370 -0.078930 2.062740 
# 
# From -- ./inp_files/392922.got.cif
#   From: 2010.05.17/outbox.cif.g08.bks.cpg/sg2_197_cif.got.tgz:392922.got - 2010.06.03 11:33:40.
