data_PCOD9012564
_publ_section_title
;
Structure prediction by ZEFSAII (Michael W. Deem and Ramdas Pophale) SiO2 
 PCOD9012564
Probable space group: P -1
;
_chemical_formula_sum "Si O2"
_cell_formula_units_Z 15
_cell_length_a 17.167782
_cell_length_b 10.484842
_cell_length_c 8.629644
_cell_angle_alpha 103.676036
_cell_angle_beta 121.041802
_cell_angle_gamma 28.251804
_cell_volume 531.418886
_symmetry_space_group_name_H-M "P -1"
_symmetry_group_IT_number 2
_symmetry_cell_setting 'triclinic'
loop_
_space_group_symop_operation_xyz
x,y,z
-x,-y,-z
loop_
_atom_site_type_symbol
_atom_site_label
_atom_site_fract_x
_atom_site_fract_y
_atom_site_fract_z
Si Si1 0.105671 0.158807 0.503872
Si Si2 0.500000 0.500000 0.500000
Si Si3 0.611395 0.663247 0.683671
Si Si4 0.120250 0.761294 0.851633
Si Si5 0.973724 0.462801 0.141652
Si Si6 0.254684 0.331630 0.463664
Si Si7 0.788433 0.072156 0.961989
Si Si8 0.584001 0.149007 0.014739
O O1 0.934036 0.372091 0.528846
O O2 0.012867 0.371720 0.334823
O O3 0.315412 0.943936 0.741569
O O4 0.104369 0.020422 0.369697
O O5 0.504082 0.662992 0.539741
O O6 0.620929 0.347677 0.744606
O O7 0.785390 0.409813 0.932868
O O8 0.675095 0.646934 0.576825
O O9 0.438059 0.006797 0.651924
O O10 0.085211 0.962736 0.864342
O O11 0.326714 0.461893 0.863598
O O12 0.136239 0.371350 0.255567
O O13 0.724932 0.844698 0.999883
O O14 0.058952 0.234635 0.055583
O O15 0.647563 0.187865 0.983463
#
# Coordination Sequence:
#
# PCOD9012564 Si02
#       8
#     2   1   2   2   2   2   2   2
#     4  11  26  44  72 108 155 195 246 321 372 444
#     4  10  22  42  70 106 152 192 242 308 378 444
#     4  10  21  40  71 105 146 194 255 305 368 452
#     4  11  26  47  71 110 150 203 249 305 388 457
#     4  11  23  46  74 106 151 197 251 319 376 439
#     4  10  21  41  71 110 141 194 257 310 367 442
#     4  11  25  45  76 107 146 207 248 307 387 453
#     4  11  25  47  75 107 148 196 255 314 374 448
#
# _framework density 28.226323000000001
#
# number of rings (size 3 to 8) (size 9 to 14) (size 15 to 20)
#    0.000    1.333    1.333    4.000    3.733    6.400 
#    0.000    2.667    0.000    0.000    0.000    0.000 
#    0.000    0.000    0.000    0.000    0.000    0.000 
#
# Total GULP energy -83872.807108 kJ/mol
# GULP energy per Si atom -5591.520474 kJ/mol
# Density = 2.816208 g / cm^3
# Si number density = 28.226323 Si / 1000 Ang^3
#
#
#
# Elastic Constant Matrix: (Units=GPa)
#
#
# Indices 1 2 3 4 5 6 
#
# 1 171.2467 14.9043 34.5253 -2.1452 -8.2336 30.1222
# 2 14.9043 122.0382 24.7760 1.6095 -10.0304 9.0750
# 3 34.5253 24.7760 87.7660 0.6543 29.0750 36.2109
# 4 -2.1452 1.6095 0.6543 25.7033 15.1203 -10.3875
# 5 -8.2336 -10.0304 29.0750 15.1203 65.7090 10.7623
# 6 30.1222 9.0750 36.2109 -10.3875 10.7623 54.1884
#
#
#
# Elastic Compliance Matrix: (Units=1/GPa)
#
#
# Indices 1 2 3 4 5 6 
#
# 1 0.007037 0.000181 -0.002418 -0.002606 0.003144 -0.003450
# 2 0.000181 0.009329 -0.003767 -0.002942 0.003869 -0.000478
# 3 -0.002418 -0.003767 0.020196 0.000461 -0.008319 -0.009780
# 4 -0.002606 -0.002942 0.000461 0.054436 -0.016003 0.015247
# 5 0.003144 0.003869 -0.008319 -0.016003 0.024343 -0.004739
# 6 -0.003450 -0.000478 -0.009780 0.015247 -0.004739 0.030852
#
#
# Mechanical properties :
#
#
# Convention : Reuss Voigt Hill
#
# Bulk Modulus (GPa) = 40.72746 58.82913 49.77829
# Shear Modulus (GPa) = 30.05059 49.57650 39.81354
#
# Velocity S-wave (km/s) = 3.26641 4.19548 3.75975
# Velocity P-wave (km/s) = 5.35594 6.66007 6.04329
#
# Compressibility (1/GPa) = 0.02455346
#
# Stress axis : x y z
#
# Youngs Moduli (GPa) = 142.11345 107.18951 49.51433
#
# Poissons Ratio (x) = -0.01938 0.11971
# Poissons Ratio (y) = -0.02569 0.18654
# Poissons Ratio (z) = 0.34359 0.40383
#
# Static dielectric constant tensor:
#      x y z
#    x 1.836530 0.565920 -0.013190 
#    y 0.565920 1.265650 0.132980 
#    z -0.013190 0.132980 2.195220 
# 
# From -- ./inp_files/298914.got.cif
#   From: 2010.05.17/outbox.cif.g08.bks.cpg/sg2_150_cif.got.tgz:298914.got - 2010.06.03 11:33:40.
