data_PCOD9012803
_publ_section_title
;
Structure prediction by ZEFSAII (Michael W. Deem and Ramdas Pophale) SiO2 
 PCOD9012803
Probable space group: P -1
;
_chemical_formula_sum "Si O2"
_cell_formula_units_Z 14
_cell_length_a 14.796085
_cell_length_b 11.841431
_cell_length_c 8.117012
_cell_angle_alpha 119.026489
_cell_angle_beta 115.278867
_cell_angle_gamma 26.862029
_cell_volume 561.818304
_symmetry_space_group_name_H-M "P -1"
_symmetry_group_IT_number 2
_symmetry_cell_setting 'triclinic'
loop_
_space_group_symop_operation_xyz
x,y,z
-x,-y,-z
loop_
_atom_site_type_symbol
_atom_site_label
_atom_site_fract_x
_atom_site_fract_y
_atom_site_fract_z
Si Si1 0.764728 0.503340 0.370748
Si Si2 0.832607 0.187671 0.646184
Si Si3 0.663076 0.636649 0.729440
Si Si4 0.304070 0.147239 0.588435
Si Si5 0.932266 0.476019 0.061373
Si Si6 0.069689 0.077326 0.020279
Si Si7 0.367690 0.799145 0.292684
O O1 0.822912 0.463573 0.578282
O O2 0.663362 0.750838 0.403968
O O3 0.923928 0.282957 0.203258
O O4 0.600765 0.572547 0.308650
O O5 0.670601 0.479316 0.680290
O O6 0.717664 0.186004 0.608340
O O7 0.958033 0.096094 0.838904
O O8 0.000000 0.000000 0.500000
O O9 0.468661 0.915784 0.689086
O O10 0.731196 0.637171 0.944012
O O11 0.106640 0.404139 0.717796
O O12 0.276346 0.047412 0.393566
O O13 0.081174 0.190493 0.994437
O O14 0.000000 0.500000 0.000000
O O15 0.284906 0.816345 0.082126
#
# Coordination Sequence:
#
# PCOD9012803 Si02
#       7
#     2   2   2   2   2   2   2
#     4  10  23  42  67  98 129 163 214 266 319 386
#     4  11  25  44  64  94 129 167 221 263 310 380
#     4  10  21  41  61  88 132 161 206 271 303 365
#     4  10  23  40  63  97 129 164 211 262 317 388
#     4  10  23  35  62  96 126 168 204 253 331 375
#     4  10  24  43  64  94 128 166 213 272 309 382
#     4  11  23  41  69  91 128 178 211 257 326 369
#
# _framework density 24.919087999999999
#
# number of rings (size 3 to 8) (size 9 to 14) (size 15 to 20)
#    0.000    1.714    0.000    3.429   10.000    4.000 
#    0.000    1.429    0.000    0.000    0.000    0.000 
#    0.000    0.000    0.000    0.000    0.000    0.000 
#
# Total GULP energy -78172.715183 kJ/mol
# GULP energy per Si atom -5583.765370 kJ/mol
# Density = 2.486237 g / cm^3
# Si number density = 24.919088 Si / 1000 Ang^3
#
#
#
# Elastic Constant Matrix: (Units=GPa)
#
#
# Indices 1 2 3 4 5 6 
#
# 1 179.7826 32.5833 3.4422 5.9500 18.2117 26.0568
# 2 32.5833 86.4153 5.3040 -7.4244 12.3243 27.4264
# 3 3.4422 5.3040 93.5921 -1.5591 11.7532 -5.9478
# 4 5.9500 -7.4244 -1.5591 37.6786 -0.6226 3.4909
# 5 18.2117 12.3243 11.7532 -0.6226 30.2921 0.7746
# 6 26.0568 27.4264 -5.9478 3.4909 0.7746 44.0903
#
#
#
# Elastic Compliance Matrix: (Units=1/GPa)
#
#
# Indices 1 2 3 4 5 6 
#
# 1 0.006592 -0.001112 0.000045 -0.001033 -0.003471 -0.003055
# 2 -0.001112 0.016265 -0.000767 0.004169 -0.005315 -0.009801
# 3 0.000045 -0.000767 0.011383 0.000053 -0.004183 0.002055
# 4 -0.001033 0.004169 0.000053 0.027907 -0.000416 -0.004178
# 5 -0.003471 -0.005315 -0.004183 -0.000416 0.038770 0.004145
# 6 -0.003055 -0.009801 0.002055 -0.004178 0.004145 0.031118
#
#
# Mechanical properties :
#
#
# Convention : Reuss Voigt Hill
#
# Bulk Modulus (GPa) = 32.70965 49.16100 40.93532
# Shear Modulus (GPa) = 34.27164 43.64287 38.95725
#
# Velocity S-wave (km/s) = 3.71255 4.18949 3.95821
# Velocity P-wave (km/s) = 5.61535 6.57066 6.11170
#
# Compressibility (1/GPa) = 0.03057202
#
# Stress axis : x y z
#
# Youngs Moduli (GPa) = 151.71026 61.48107 87.84805
#
# Poissons Ratio (x) = 0.06839 -0.00397
# Poissons Ratio (y) = 0.16875 0.06736
# Poissons Ratio (z) = -0.00685 0.04714
#
# Static dielectric constant tensor:
#      x y z
#    x 2.162590 -0.094230 0.112260 
#    y -0.094230 2.096050 -0.047700 
#    z 0.112260 -0.047700 2.072590 
# 
# From -- ./inp_files/305778.got.cif
#   From: 2010.05.17/outbox.cif.g08.bks.cpg/sg2_153_cif.got.tgz:305778.got - 2010.06.03 11:33:40.
