data_PCOD9012805
_publ_section_title
;
Structure prediction by ZEFSAII (Michael W. Deem and Ramdas Pophale) SiO2 
 PCOD9012805
Probable space group: P -1
;
_chemical_formula_sum "Si O2"
_cell_formula_units_Z 16
_cell_length_a 18.894195
_cell_length_b 11.710931
_cell_length_c 28.296508
_cell_angle_alpha 28.704438
_cell_angle_beta 162.757994
_cell_angle_gamma 144.673548
_cell_volume 880.815208
_symmetry_space_group_name_H-M "P -1"
_symmetry_group_IT_number 2
_symmetry_cell_setting 'triclinic'
loop_
_space_group_symop_operation_xyz
x,y,z
-x,-y,-z
loop_
_atom_site_type_symbol
_atom_site_label
_atom_site_fract_x
_atom_site_fract_y
_atom_site_fract_z
Si Si1 0.078038 0.084250 0.070543
Si Si2 0.829503 0.414826 0.520653
Si Si3 0.832750 0.385572 0.642670
Si Si4 0.612273 0.621654 0.983241
Si Si5 0.567715 0.559878 0.807713
Si Si6 0.641191 0.642923 0.161318
Si Si7 0.602736 0.171490 0.795227
Si Si8 0.423328 0.830620 0.111396
O O1 0.262345 0.275471 0.119218
O O2 0.198052 0.847462 0.261756
O O3 0.836573 0.197226 0.903882
O O4 0.000000 0.000000 0.000000
O O5 0.854524 0.321241 0.624046
O O6 0.637514 0.296958 0.409531
O O7 0.695945 0.689278 0.340485
O O8 0.078122 0.410535 0.653910
O O9 0.617319 0.609073 0.430660
O O10 0.097271 0.440888 0.806234
O O11 0.505548 0.515218 0.907860
O O12 0.540734 0.909907 0.836152
O O13 0.500000 0.500000 0.000000
O O14 0.424797 0.420977 0.804778
O O15 0.704070 0.352396 0.935351
O O16 0.573988 0.920274 0.003193
O O17 0.670040 0.147351 0.902627
#
# Coordination Sequence:
#
# PCOD9012805 Si02
#       8
#     2   2   2   2   2   2   2   2
#     4  11  24  45  62  85 120 155 204 251 298 359
#     4   9  21  37  58  89 118 152 199 241 292 359
#     4  10  21  41  61  89 120 155 202 253 290 350
#     4  11  20  33  64  91 120 162 192 238 300 348
#     4  10  23  39  58  90 119 158 200 242 298 356
#     4  12  19  39  60  86 130 159 185 249 302 345
#     4  10  21  41  61  89 120 155 202 253 290 350
#     4   9  21  37  58  89 118 152 199 241 292 359
#
# _framework density 18.16499
#
# number of rings (size 3 to 8) (size 9 to 14) (size 15 to 20)
#    0.750    1.000    2.500    3.000    0.000    3.000 
#    2.250    0.000    0.000    0.000    0.000    0.000 
#    0.000    0.000    0.000    0.000    0.000    0.000 
#
# Total GULP energy -89140.931971 kJ/mol
# GULP energy per Si atom -5571.308248 kJ/mol
# Density = 1.812365 g / cm^3
# Si number density = 18.164990 Si / 1000 Ang^3
#
#
#
# Elastic Constant Matrix: (Units=GPa)
#
#
# Indices 1 2 3 4 5 6 
#
# 1 86.7530 53.8478 37.4018 -1.0147 -17.3513 -2.9698
# 2 53.8478 103.1204 37.5012 8.9478 0.7684 -9.1681
# 3 37.4018 37.5012 72.2360 -21.9101 21.5643 -2.6048
# 4 -1.0147 8.9478 -21.9101 6.6007 -10.4964 -11.4748
# 5 -17.3513 0.7684 21.5643 -10.4964 -4.2558 9.7272
# 6 -2.9698 -9.1681 -2.6048 -11.4748 9.7272 32.4048
#
#
#
# Elastic Compliance Matrix: (Units=1/GPa)
#
#
# Indices 1 2 3 4 5 6 
#
# 1 0.010615 -0.006031 0.002947 -0.000448 -0.017690 0.004655
# 2 -0.006031 0.010087 0.003852 0.024825 0.006382 0.009486
# 3 0.002947 0.003852 -0.008819 -0.047030 0.013884 -0.020170
# 4 -0.000448 0.024825 -0.047030 -0.122096 -0.013263 -0.036052
# 5 -0.017690 0.006382 0.013884 -0.013263 -0.039381 0.008425
# 6 0.004655 0.009486 -0.020170 -0.036052 0.008425 0.017053
#
#
# Mechanical properties :
#
#
# Convention : Reuss Voigt Hill
#
# Bulk Modulus (GPa) = 74.50614 57.73455 66.12035
# Shear Modulus (GPa) = -38.57888 15.84051 -11.36919
#
# Velocity S-wave (km/s) = -4.61347 2.95623 -2.50448
# Velocity P-wave (km/s) = 3.56743 6.59582 5.30242
#
# Compressibility (1/GPa) = 0.01342171
#
# Stress axis : x y z
#
# Youngs Moduli (GPa) = 94.20291 99.13532 -113.38750
#
# Poissons Ratio (x) = 0.59784 0.33420
# Poissons Ratio (y) = 0.56809 0.43680
# Poissons Ratio (z) = -0.27765 -0.38190
#
# Static dielectric constant tensor:
#      x y z
#    x 1.647280 -0.018720 -0.009850 
#    y -0.018720 1.612170 -0.000850 
#    z -0.009850 -0.000850 1.636630 
# 
# From -- ./inp_files/620320.got.cif
#   From: 2010.05.17/outbox.cif.g08.bks.cpg/sg2_311_cif.got.tgz:620320.got - 2010.06.03 11:33:40.
