data_PCOD9012095
_publ_section_title
;
Structure prediction by ZEFSAII (Michael W. Deem and Ramdas Pophale) SiO2 
 PCOD9012095
Probable space group: P -1
;
_chemical_formula_sum "Si O2"
_cell_formula_units_Z 16
_cell_length_a 8.840876
_cell_length_b 15.193099
_cell_length_c 9.625677
_cell_angle_alpha 141.665418
_cell_angle_beta 94.557653
_cell_angle_gamma 72.238333
_cell_volume 735.226198
_symmetry_space_group_name_H-M "P -1"
_symmetry_group_IT_number 2
_symmetry_cell_setting 'triclinic'
loop_
_space_group_symop_operation_xyz
x,y,z
-x,-y,-z
loop_
_atom_site_type_symbol
_atom_site_label
_atom_site_fract_x
_atom_site_fract_y
_atom_site_fract_z
Si Si1 0.874549 0.889437 0.193038
Si Si2 0.709882 0.527555 0.573691
Si Si3 0.780855 0.100503 0.697608
Si Si4 0.590717 0.421086 0.180626
Si Si5 0.592939 0.940007 0.576005
Si Si6 0.098144 0.445904 0.135767
Si Si7 0.727067 0.582777 0.168415
Si Si8 0.623672 0.881851 0.970647
O O1 0.794816 0.898899 0.046306
O O2 0.062605 0.867643 0.202483
O O3 0.787628 0.046277 0.471520
O O4 0.860476 0.737291 0.071650
O O5 0.720385 0.422432 0.311815
O O6 0.575470 0.518980 0.665458
O O7 0.868304 0.495513 0.640645
O O8 0.654249 0.703473 0.730426
O O9 0.766132 0.959575 0.605574
O O10 0.626223 0.252987 0.915241
O O11 0.621608 0.509693 0.159525
O O12 0.628889 0.765245 0.393111
O O13 0.500000 0.000000 0.500000
O O14 0.478773 0.058957 0.824086
O O15 0.907897 0.530755 0.186656
O O16 0.218452 0.463703 0.045823
O O17 0.500000 0.000000 0.000000
#
# Coordination Sequence:
#
# PCOD9012095 Si02
#       8
#     2   2   2   2   2   2   2   2
#     4  10  21  40  68  95 128 174 207 267 333 373
#     4  10  23  43  63  88 133 174 207 261 324 382
#     4  11  21  40  67  94 128 168 215 260 322 388
#     4  11  23  41  63  97 127 169 212 262 322 376
#     4  12  22  42  66  91 126 173 213 258 324 381
#     4  10  21  41  63  94 130 162 213 269 321 376
#     4  11  23  39  63  99 121 160 222 264 311 382
#     4  11  22  41  65  94 129 168 216 265 313 385
#
# _framework density 21.76201
#
# number of rings (size 3 to 8) (size 9 to 14) (size 15 to 20)
#    0.000    1.250    5.000    1.500    0.000    1.000 
#    2.250    5.625    0.000    0.000    0.000    0.000 
#    0.000    0.000    0.000    0.000    0.000    0.000 
#
# Total GULP energy -89260.767813 kJ/mol
# GULP energy per Si atom -5578.797988 kJ/mol
# Density = 2.171248 g / cm^3
# Si number density = 21.762010 Si / 1000 Ang^3
#
#
#
# Elastic Constant Matrix: (Units=GPa)
#
#
# Indices 1 2 3 4 5 6 
#
# 1 59.9786 31.7628 7.4808 -5.3421 15.9615 9.1080
# 2 31.7628 110.6351 23.9216 -0.3960 17.2615 -4.8062
# 3 7.4808 23.9216 101.2086 0.7359 10.0172 -4.3474
# 4 -5.3421 -0.3960 0.7359 26.0558 -9.5787 2.0586
# 5 15.9615 17.2615 10.0172 -9.5787 33.8427 -3.3891
# 6 9.1080 -4.8062 -4.3474 2.0586 -3.3891 31.4769
#
#
#
# Elastic Compliance Matrix: (Units=1/GPa)
#
#
# Indices 1 2 3 4 5 6 
#
# 1 0.023510 -0.005835 0.000075 0.002352 -0.008343 -0.008735
# 2 -0.005835 0.011717 -0.001892 -0.002313 -0.003014 0.003043
# 3 0.000075 -0.001892 0.010620 -0.001304 -0.002485 0.000974
# 4 0.002352 -0.002313 -0.001304 0.043692 0.012550 -0.002720
# 5 -0.008343 -0.003014 -0.002485 0.012550 0.039817 0.005077
# 6 -0.008735 0.003043 0.000974 -0.002720 0.005077 0.035621
#
#
# Mechanical properties :
#
#
# Convention : Reuss Voigt Hill
#
# Bulk Modulus (GPa) = 32.74233 44.23917 38.49075
# Shear Modulus (GPa) = 26.25205 32.18555 29.21880
#
# Velocity S-wave (km/s) = 3.47699 3.84992 3.66820
# Velocity P-wave (km/s) = 5.58548 6.33524 5.97214
#
# Compressibility (1/GPa) = 0.03054151
#
# Stress axis : x y z
#
# Youngs Moduli (GPa) = 42.53588 85.34386 94.16565
#
# Poissons Ratio (x) = 0.49798 -0.00705
# Poissons Ratio (y) = 0.24820 0.17819
# Poissons Ratio (z) = -0.00319 0.16150
#
# Static dielectric constant tensor:
#      x y z
#    x 1.947060 0.073190 0.069230 
#    y 0.073190 1.653280 0.000830 
#    z 0.069230 0.000830 1.833040 
# 
# From -- ./inp_files/209454.got.cif
#   From: 2010.05.17/outbox.cif.g08.bks.cpg/sg2_105_cif.got.tgz:209454.got - 2010.06.03 11:33:40.
