data_PCOD9012807
_publ_section_title
;
Structure prediction by ZEFSAII (Michael W. Deem and Ramdas Pophale) SiO2 
 PCOD9012807
Probable space group: P -1
;
_chemical_formula_sum "Si O2"
_cell_formula_units_Z 14
_cell_length_a 9.209971
_cell_length_b 8.312258
_cell_length_c 17.365678
_cell_angle_alpha 33.301120
_cell_angle_beta 50.780346
_cell_angle_gamma 49.898339
_cell_volume 544.172960
_symmetry_space_group_name_H-M "P -1"
_symmetry_group_IT_number 2
_symmetry_cell_setting 'triclinic'
loop_
_space_group_symop_operation_xyz
x,y,z
-x,-y,-z
loop_
_atom_site_type_symbol
_atom_site_label
_atom_site_fract_x
_atom_site_fract_y
_atom_site_fract_z
Si Si1 0.672046 0.749643 0.780004
Si Si2 0.997106 0.727293 0.053306
Si Si3 0.303207 0.680672 0.681609
Si Si4 0.939766 0.780568 0.545288
Si Si5 0.301937 0.635293 0.396991
Si Si6 0.795301 0.016999 0.866061
Si Si7 0.570596 0.538482 0.109712
O O1 0.475843 0.656262 0.866934
O O2 0.781594 0.679300 0.688388
O O3 0.163752 0.001626 0.575605
O O4 0.644736 0.090286 0.683412
O O5 0.814001 0.578232 0.183660
O O6 0.177689 0.461806 0.128083
O O7 0.980899 0.870391 0.915589
O O8 0.000000 0.000000 0.000000
O O9 0.495320 0.605108 0.594189
O O10 0.370645 0.666150 0.752430
O O11 0.275178 0.267018 0.027688
O O12 0.135001 0.553576 0.537019
O O13 0.000000 0.000000 0.500000
O O14 0.208654 0.769108 0.292016
O O15 0.626485 0.197610 0.908493
#
# Coordination Sequence:
#
# PCOD9012807 Si02
#       7
#     2   2   2   2   2   2   2
#     4  11  22  38  61  94 123 158 207 255 291 360
#     4  11  20  37  65  90 124 162 198 251 310 355
#     4  10  21  42  63  87 121 167 196 245 318 353
#     4  10  21  41  61  89 125 159 205 250 297 360
#     4  10  22  39  65  92 119 161 207 249 298 362
#     4   9  19  37  60  88 124 162 197 245 311 364
#     4   9  19  37  61  88 124 161 195 251 311 355
#
# _framework density 25.727114
#
# number of rings (size 3 to 8) (size 9 to 14) (size 15 to 20)
#    0.000    2.000    4.286    0.857    0.000    4.000 
#    0.000    2.857    0.000    0.000    0.000    0.000 
#    0.000    0.000    0.000    0.000    0.000    0.000 
#
# Total GULP energy -78357.704292 kJ/mol
# GULP energy per Si atom -5596.978878 kJ/mol
# Density = 2.566856 g / cm^3
# Si number density = 25.727114 Si / 1000 Ang^3
#
#
#
# Elastic Constant Matrix: (Units=GPa)
#
#
# Indices 1 2 3 4 5 6 
#
# 1 128.2455 17.0202 20.5435 -9.4947 6.6202 6.5241
# 2 17.0202 68.6446 7.9921 14.0284 -4.7469 -2.3888
# 3 20.5435 7.9921 55.3507 13.3472 -4.1493 -0.0195
# 4 -9.4947 14.0284 13.3472 34.2331 -2.3691 -4.3426
# 5 6.6202 -4.7469 -4.1493 -2.3691 29.9789 -3.8030
# 6 6.5241 -2.3888 -0.0195 -4.3426 -3.8030 34.4127
#
#
#
# Elastic Compliance Matrix: (Units=1/GPa)
#
#
# Indices 1 2 3 4 5 6 
#
# 1 0.009605 -0.003208 -0.004623 0.005352 -0.003063 -0.001709
# 2 -0.003208 0.017127 0.000848 -0.007883 0.003060 0.001141
# 3 -0.004623 0.000848 0.022354 -0.010099 0.003458 0.000056
# 4 0.005352 -0.007883 -0.010099 0.038244 -0.000398 0.003214
# 5 -0.003063 0.003060 0.003458 -0.000398 0.035558 0.004674
# 6 -0.001709 0.001141 0.000056 0.003214 0.004674 0.030385
#
#
# Mechanical properties :
#
#
# Convention : Reuss Voigt Hill
#
# Bulk Modulus (GPa) = 28.47296 38.15029 33.31163
# Shear Modulus (GPa) = 27.94158 33.50394 30.72276
#
# Velocity S-wave (km/s) = 3.29914 3.61263 3.45944
# Velocity P-wave (km/s) = 5.06002 5.68001 5.37895
#
# Compressibility (1/GPa) = 0.03512104
#
# Stress axis : x y z
#
# Youngs Moduli (GPa) = 104.11061 58.38829 44.73409
#
# Poissons Ratio (x) = 0.18734 0.20679
# Poissons Ratio (y) = 0.33404 -0.03795
# Poissons Ratio (z) = 0.48126 -0.04954
#
# Static dielectric constant tensor:
#      x y z
#    x 1.981570 -0.000420 -0.079210 
#    y -0.000420 1.993180 0.038330 
#    z -0.079210 0.038330 1.983720 
# 
# From -- ./inp_files/554106.got.cif
#   From: 2010.05.17/outbox.cif.g08.bks.cpg/sg2_278_cif.got.tgz:554106.got - 2010.06.03 11:33:40.
