data_PCOD9012794
_publ_section_title
;
Structure prediction by ZEFSAII (Michael W. Deem and Ramdas Pophale) SiO2 
 PCOD9012794
Probable space group: P -1
;
_chemical_formula_sum "Si O2"
_cell_formula_units_Z 16
_cell_length_a 9.612688
_cell_length_b 11.733437
_cell_length_c 8.512505
_cell_angle_alpha 93.687079
_cell_angle_beta 105.875396
_cell_angle_gamma 115.871426
_cell_volume 812.018430
_symmetry_space_group_name_H-M "P -1"
_symmetry_group_IT_number 2
_symmetry_cell_setting 'triclinic'
loop_
_space_group_symop_operation_xyz
x,y,z
-x,-y,-z
loop_
_atom_site_type_symbol
_atom_site_label
_atom_site_fract_x
_atom_site_fract_y
_atom_site_fract_z
Si Si1 0.868944 0.414491 0.588825
Si Si2 0.058501 0.050935 0.789718
Si Si3 0.241399 0.178261 0.170866
Si Si4 0.390475 0.738200 0.755390
Si Si5 0.138759 0.380426 0.153845
Si Si6 0.675245 0.512228 0.101119
Si Si7 0.136970 0.826861 0.775678
Si Si8 0.941045 0.728655 0.389423
O O1 0.698792 0.332606 0.439338
O O2 0.858080 0.506789 0.725507
O O3 0.000000 0.500000 0.500000
O O4 0.936155 0.317016 0.658863
O O5 0.052052 0.140097 0.658562
O O6 0.876296 0.938649 0.763976
O O7 0.157941 0.970248 0.793969
O O8 0.143365 0.143759 0.972401
O O9 0.416396 0.187104 0.202865
O O10 0.252566 0.315097 0.236521
O O11 0.350311 0.625592 0.860194
O O12 0.301528 0.820287 0.789516
O O13 0.955995 0.257900 0.107529
O O14 0.204536 0.436480 0.007167
O O15 0.762387 0.613576 0.279415
O O16 0.500000 0.500000 0.000000
O O17 0.005606 0.752576 0.589149
#
# Coordination Sequence:
#
# PCOD9012794 Si02
#       8
#     2   2   2   2   2   2   2   2
#     4  11  21  39  61  92 123 158 195 247 310 369
#     4  10  21  41  61  87 114 167 213 240 300 356
#     4  10  22  39  61  86 125 158 202 256 295 359
#     4  11  21  41  60  91 126 155 198 260 302 352
#     4  11  20  39  59  92 118 164 197 237 316 365
#     4  12  22  36  61  93 127 153 199 256 301 365
#     4  10  22  38  64  86 115 167 207 242 303 359
#     4  11  20  40  62  87 124 155 203 252 295 363
#
# _framework density 19.703984999999999
#
# number of rings (size 3 to 8) (size 9 to 14) (size 15 to 20)
#    0.000    1.250    6.250    0.375    0.000    3.000 
#    4.500    2.500    0.000    0.000    0.000    0.000 
#    0.000    0.000    0.000    0.000    0.000    0.000 
#
# Total GULP energy -89283.199535 kJ/mol
# GULP energy per Si atom -5580.199971 kJ/mol
# Density = 1.965914 g / cm^3
# Si number density = 19.703985 Si / 1000 Ang^3
#
#
#
# Elastic Constant Matrix: (Units=GPa)
#
#
# Indices 1 2 3 4 5 6 
#
# 1 125.0773 46.4654 28.4855 1.7591 7.7926 -18.1306
# 2 46.4654 93.3168 14.2176 -7.8558 4.0217 -29.1535
# 3 28.4855 14.2176 38.3614 4.5900 4.0071 -5.2056
# 4 1.7591 -7.8558 4.5900 24.6569 -6.2946 -0.5695
# 5 7.7926 4.0217 4.0071 -6.2946 27.7802 7.9206
# 6 -18.1306 -29.1535 -5.2056 -0.5695 7.9206 36.2575
#
#
#
# Elastic Compliance Matrix: (Units=1/GPa)
#
#
# Indices 1 2 3 4 5 6 
#
# 1 0.011427 -0.004118 -0.006208 -0.001605 -0.002668 0.002070
# 2 -0.004118 0.017684 -0.002103 0.005739 -0.003421 0.012695
# 3 -0.006208 -0.002103 0.032957 -0.007531 -0.004652 0.000835
# 4 -0.001605 0.005739 -0.007531 0.046732 0.010991 0.001064
# 5 -0.002668 -0.003421 -0.004652 0.010991 0.044478 -0.014296
# 6 0.002070 0.012695 0.000835 0.001064 -0.014296 0.042083
#
#
# Mechanical properties :
#
#
# Convention : Reuss Voigt Hill
#
# Bulk Modulus (GPa) = 26.87363 48.34361 37.60862
# Shear Modulus (GPa) = 21.49412 28.91139 25.20276
#
# Velocity S-wave (km/s) = 3.30639 3.83467 3.58029
# Velocity P-wave (km/s) = 5.31456 6.64789 6.01827
#
# Compressibility (1/GPa) = 0.03721121
#
# Stress axis : x y z
#
# Youngs Moduli (GPa) = 87.50960 56.54907 30.34243
#
# Poissons Ratio (x) = 0.23286 0.18836
# Poissons Ratio (y) = 0.36035 0.06381
# Poissons Ratio (z) = 0.54324 0.11892
#
# Static dielectric constant tensor:
#      x y z
#    x 1.699400 -0.018950 -0.021580 
#    y -0.018950 1.725960 -0.004860 
#    z -0.021580 -0.004860 1.732670 
# 
# From -- ./inp_files/179371.got.cif
#   From: 2010.05.17/outbox.cif.g08.bks.cpg/sg2_90_cif.got.tgz:179371.got - 2010.06.03 11:33:40.
