data_PCOD9012687
_publ_section_title
;
Structure prediction by ZEFSAII (Michael W. Deem and Ramdas Pophale) SiO2 
 PCOD9012687
Probable space group: P -1
;
_chemical_formula_sum "Si O2"
_cell_formula_units_Z 14
_cell_length_a 7.109778
_cell_length_b 8.645614
_cell_length_c 10.946812
_cell_angle_alpha 68.764331
_cell_angle_beta 116.713676
_cell_angle_gamma 113.759398
_cell_volume 536.454490
_symmetry_space_group_name_H-M "P -1"
_symmetry_group_IT_number 2
_symmetry_cell_setting 'triclinic'
loop_
_space_group_symop_operation_xyz
x,y,z
-x,-y,-z
loop_
_atom_site_type_symbol
_atom_site_label
_atom_site_fract_x
_atom_site_fract_y
_atom_site_fract_z
Si Si1 0.196682 0.003935 0.890063
Si Si2 0.181944 0.781397 0.542880
Si Si3 0.715250 0.681992 0.339339
Si Si4 0.565131 0.846548 0.457576
Si Si5 0.887956 0.358047 0.160832
Si Si6 0.662992 0.551549 0.862538
Si Si7 0.706650 0.944719 0.831679
O O1 0.279770 0.132447 0.767971
O O2 0.159413 0.810174 0.891112
O O3 0.339174 0.046668 0.041088
O O4 0.963254 0.031259 0.853893
O O5 0.400493 0.768505 0.541788
O O6 0.153243 0.707215 0.693345
O O7 0.033814 0.315192 0.569249
O O8 0.221174 0.992863 0.491493
O O9 0.622996 0.696185 0.443379
O O10 0.563992 0.552687 0.236450
O O11 0.428253 0.948892 0.309812
O O12 0.144282 0.451886 0.178520
O O13 0.736533 0.470241 0.030318
O O14 0.666179 0.746514 0.837953
#
# Coordination Sequence:
#
# PCOD9012687 Si02
#       7
#     2   2   2   2   2   2   2
#     4  10  21  40  76 100 137 183 248 292 348 409
#     4  11  25  45  74 106 144 185 245 294 353 421
#     4  12  24  45  74 108 141 188 238 299 355 424
#     4  11  24  43  76 107 136 188 248 294 343 434
#     4  10  22  47  72 104 142 196 234 293 357 430
#     4  10  25  44  73 106 151 183 237 296 366 420
#     4  10  22  44  69 108 140 182 240 303 346 428
#
# _framework density 26.097272
#
# number of rings (size 3 to 8) (size 9 to 14) (size 15 to 20)
#    0.000    1.429    2.857    1.286    2.000    4.571 
#    0.000    1.429    0.000    0.000    0.000    0.000 
#    0.000    0.000    0.000    0.000    0.000    0.000 
#
# Total GULP energy -78532.802901 kJ/mol
# GULP energy per Si atom -5609.485922 kJ/mol
# Density = 2.603787 g / cm^3
# Si number density = 26.097272 Si / 1000 Ang^3
#
#
#
# Elastic Constant Matrix: (Units=GPa)
#
#
# Indices 1 2 3 4 5 6 
#
# 1 100.5698 32.0894 57.4613 5.5620 -6.8432 22.3124
# 2 32.0894 75.3244 38.0648 9.1351 18.3740 20.1805
# 3 57.4613 38.0648 160.3054 4.7099 -2.2789 14.3868
# 4 5.5620 9.1351 4.7099 42.4661 -2.3570 9.0710
# 5 -6.8432 18.3740 -2.2789 -2.3570 49.6037 4.0085
# 6 22.3124 20.1805 14.3868 9.0710 4.0085 40.7508
#
#
#
# Elastic Compliance Matrix: (Units=1/GPa)
#
#
# Indices 1 2 3 4 5 6 
#
# 1 0.014805 -0.003938 -0.003861 0.000682 0.003786 -0.005318
# 2 -0.003938 0.020113 -0.002910 -0.002771 -0.007823 -0.005390
# 3 -0.003861 -0.002910 0.008275 0.000154 0.000892 0.000512
# 4 0.000682 -0.002771 0.000154 0.025245 0.002727 -0.004943
# 5 0.003786 -0.007823 0.000892 0.002727 0.023869 -0.001468
# 6 -0.005318 -0.005390 0.000512 -0.004943 -0.001468 0.031184
#
#
# Mechanical properties :
#
#
# Convention : Reuss Voigt Hill
#
# Bulk Modulus (GPa) = 45.92373 65.71450 55.81911
# Shear Modulus (GPa) = 32.85829 40.46972 36.66400
#
# Velocity S-wave (km/s) = 3.55219 3.94220 3.75226
# Velocity P-wave (km/s) = 5.87021 6.77912 6.34097
#
# Compressibility (1/GPa) = 0.02177524
#
# Stress axis : x y z
#
# Youngs Moduli (GPa) = 67.54286 49.71992 120.84117
#
# Poissons Ratio (x) = 0.19579 0.46656
# Poissons Ratio (y) = 0.26597 0.35169
# Poissons Ratio (z) = 0.26078 0.14470
#
# Static dielectric constant tensor:
#      x y z
#    x 2.105700 0.032280 -0.029930 
#    y 0.032280 2.052640 0.024360 
#    z -0.029930 0.024360 2.021810 
# 
# From -- ./inp_files/152219.got.cif
#   From: 2010.05.17/outbox.cif.g08.bks.cpg/sg2_77_cif.got.tgz:152219.got - 2010.06.03 11:33:40.
