data_PCOD9012460
_publ_section_title
;
Structure prediction by ZEFSAII (Michael W. Deem and Ramdas Pophale) SiO2 
 PCOD9012460
Probable space group: P -1
;
_chemical_formula_sum "Si O2"
_cell_formula_units_Z 14
_cell_length_a 17.865315
_cell_length_b 11.027186
_cell_length_c 6.513681
_cell_angle_alpha 118.103729
_cell_angle_beta 133.961798
_cell_angle_gamma 39.714943
_cell_volume 584.645946
_symmetry_space_group_name_H-M "P -1"
_symmetry_group_IT_number 2
_symmetry_cell_setting 'triclinic'
loop_
_space_group_symop_operation_xyz
x,y,z
-x,-y,-z
loop_
_atom_site_type_symbol
_atom_site_label
_atom_site_fract_x
_atom_site_fract_y
_atom_site_fract_z
Si Si1 0.898646 0.054947 0.044371
Si Si2 0.109563 0.695254 0.456916
Si Si3 0.602134 0.209735 0.027643
Si Si4 0.419955 0.285995 0.121160
Si Si5 0.869548 0.588077 0.473549
Si Si6 0.637468 0.459025 0.456487
Si Si7 0.295380 0.009474 0.329781
O O1 0.988378 0.876950 0.231651
O O2 0.859256 0.226874 0.235730
O O3 0.763133 0.080993 0.760991
O O4 0.000000 0.000000 0.000000
O O5 0.079669 0.577309 0.406537
O O6 0.245868 0.557998 0.455758
O O7 0.495063 0.237699 0.006052
O O8 0.679856 0.262790 0.336541
O O9 0.512711 0.369214 0.805355
O O10 0.695603 0.017758 0.920890
O O11 0.379240 0.471391 0.290755
O O12 0.544486 0.109315 0.365867
O O13 0.272804 0.337347 0.857560
O O14 0.813582 0.772882 0.634000
O O15 0.000000 0.500000 0.500000
#
# Coordination Sequence:
#
# PCOD9012460 Si02
#       7
#     2   2   2   2   2   2   2
#     4  11  26  46  74 108 146 193 244 307 372 435
#     4  11  25  46  72 106 146 190 246 298 369 435
#     4  10  21  42  71 108 145 180 242 298 373 429
#     4  11  25  44  74 105 147 195 241 307 365 432
#     4  12  28  51  73 107 150 199 252 300 366 442
#     4  10  21  40  70 109 137 184 239 303 358 436
#     4  11  26  47  72 108 149 196 239 304 364 436
#
# _framework density 23.946114999999999
#
# number of rings (size 3 to 8) (size 9 to 14) (size 15 to 20)
#    0.000    1.143    2.857    1.714    6.000    2.286 
#    2.571    0.000    0.000    0.000    0.000    0.000 
#    0.000    0.000    0.000    0.000    0.000    0.000 
#
# Total GULP energy -78378.571251 kJ/mol
# GULP energy per Si atom -5598.469375 kJ/mol
# Density = 2.389161 g / cm^3
# Si number density = 23.946115 Si / 1000 Ang^3
#
#
#
# Elastic Constant Matrix: (Units=GPa)
#
#
# Indices 1 2 3 4 5 6 
#
# 1 177.6770 69.9896 63.3756 11.1680 1.7670 -25.7099
# 2 69.9896 120.6495 65.8555 33.7613 -25.9923 -14.7497
# 3 63.3756 65.8555 90.5758 29.1322 -9.4269 -6.2359
# 4 11.1680 33.7613 29.1322 45.0225 -3.1701 -12.9385
# 5 1.7670 -25.9923 -9.4269 -3.1701 31.1229 -0.2495
# 6 -25.7099 -14.7497 -6.2359 -12.9385 -0.2495 38.4105
#
#
#
# Elastic Compliance Matrix: (Units=1/GPa)
#
#
# Indices 1 2 3 4 5 6 
#
# 1 0.010183 -0.005130 -0.005607 0.006262 -0.005875 0.006007
# 2 -0.005130 0.020819 -0.007274 -0.008420 0.014623 0.000639
# 3 -0.005607 -0.007274 0.022993 -0.009775 0.000163 -0.006105
# 4 0.006262 -0.008420 -0.009775 0.036139 -0.006575 0.011502
# 5 -0.005875 0.014623 0.000163 -0.006575 0.044055 -0.000219
# 6 0.006007 0.000639 -0.006105 0.011502 -0.000219 0.033182
#
#
# Mechanical properties :
#
#
# Convention : Reuss Voigt Hill
#
# Bulk Modulus (GPa) = 55.63657 87.48263 71.55960
# Shear Modulus (GPa) = 23.87959 35.55662 29.71811
#
# Velocity S-wave (km/s) = 3.16131 3.85757 3.52666
# Velocity P-wave (km/s) = 6.05059 7.51356 6.82141
#
# Compressibility (1/GPa) = 0.01797379
#
# Stress axis : x y z
#
# Youngs Moduli (GPa) = 98.20278 48.03211 43.49217
#
# Poissons Ratio (x) = 0.24643 0.24384
# Poissons Ratio (y) = 0.50383 0.31634
# Poissons Ratio (z) = 0.55059 0.34936
#
# Static dielectric constant tensor:
#      x y z
#    x 1.867020 -0.011780 0.026010 
#    y -0.011780 1.954290 -0.015370 
#    z 0.026010 -0.015370 1.984130 
# 
# From -- ./inp_files/109877.got.cif
#   From: 2010.05.17/outbox.cif.g08.bks.cpg/sg2_55_cif.got.tgz:109877.got - 2010.06.03 11:33:40.
