data_PCOD9012138
_publ_section_title
;
Structure prediction by ZEFSAII (Michael W. Deem and Ramdas Pophale) SiO2 
 PCOD9012138
Probable space group: P -1
;
_chemical_formula_sum "Si O2"
_cell_formula_units_Z 16
_cell_length_a 9.144707
_cell_length_b 9.628911
_cell_length_c 12.027152
_cell_angle_alpha 111.436394
_cell_angle_beta 64.743548
_cell_angle_gamma 62.950022
_cell_volume 613.640213
_symmetry_space_group_name_H-M "P -1"
_symmetry_group_IT_number 2
_symmetry_cell_setting 'triclinic'
loop_
_space_group_symop_operation_xyz
x,y,z
-x,-y,-z
loop_
_atom_site_type_symbol
_atom_site_label
_atom_site_fract_x
_atom_site_fract_y
_atom_site_fract_z
Si Si1 0.215208 0.701797 0.528948
Si Si2 0.439768 0.320128 0.207464
Si Si3 0.557527 0.733481 0.068006
Si Si4 0.117879 0.778499 0.951697
Si Si5 0.329742 0.425028 0.621515
Si Si6 0.950906 0.719442 0.191805
Si Si7 0.517199 0.937289 0.674374
Si Si8 0.873092 0.139261 0.693674
O O1 0.220981 0.565724 0.395507
O O2 0.279967 0.572497 0.581146
O O3 0.411235 0.703128 0.454867
O O4 0.972593 0.948620 0.691066
O O5 0.627115 0.327228 0.140154
O O6 0.515756 0.159657 0.238422
O O7 0.430175 0.258983 0.068608
O O8 0.404934 0.693927 0.150075
O O9 0.429263 0.953764 0.238448
O O10 0.829497 0.540052 0.962837
O O11 0.143907 0.607403 0.824445
O O12 0.988102 0.819579 0.114853
O O13 0.000000 0.000000 0.000000
O O14 0.322145 0.267533 0.522235
O O15 0.020986 0.769492 0.290818
O O16 0.684541 0.863176 0.286790
O O17 0.000000 0.000000 0.500000
#
# Coordination Sequence:
#
# PCOD9012138 Si02
#       8
#     2   2   2   2   2   2   2   2
#     4   9  18  36  63  92 120 160 219 267 314 374
#     4  10  21  40  68  97 130 167 213 273 328 382
#     4  12  27  42  62  99 139 171 217 269 333 392
#     4  11  20  36  68 103 125 161 228 274 310 374
#     4   9  19  35  64  96 125 163 213 270 314 374
#     4  12  24  42  68  97 129 176 224 270 321 387
#     4  11  23  45  66  96 136 177 211 263 332 403
#     4  12  25  41  65  92 129 173 220 273 327 378
#
# _framework density 26.073912
#
# number of rings (size 3 to 8) (size 9 to 14) (size 15 to 20)
#    0.000    1.250    3.750    3.375    3.500    0.000 
#    0.000    7.500    0.000    0.000    0.000    0.000 
#    0.000    0.000    0.000    0.000    0.000    0.000 
#
# Total GULP energy -89234.473943 kJ/mol
# GULP energy per Si atom -5577.154621 kJ/mol
# Density = 2.601457 g / cm^3
# Si number density = 26.073912 Si / 1000 Ang^3
#
#
#
# Elastic Constant Matrix: (Units=GPa)
#
#
# Indices 1 2 3 4 5 6 
#
# 1 81.4068 20.5628 35.6965 3.4633 29.9614 2.1335
# 2 20.5628 113.5837 24.6027 -3.3659 0.3500 -13.0325
# 3 35.6965 24.6027 111.9283 -4.0658 48.5729 -4.4830
# 4 3.4633 -3.3659 -4.0658 51.8421 -1.4076 4.4856
# 5 29.9614 0.3500 48.5729 -1.4076 41.0869 0.4062
# 6 2.1335 -13.0325 -4.4830 4.4856 0.4062 20.2572
#
#
#
# Elastic Compliance Matrix: (Units=1/GPa)
#
#
# Indices 1 2 3 4 5 6 
#
# 1 0.018378 -0.004020 0.001297 -0.001480 -0.014916 -0.003608
# 2 -0.004020 0.011197 -0.004349 0.000313 0.007924 0.006437
# 3 0.001297 -0.004349 0.020471 0.000380 -0.025116 0.002015
# 4 -0.001480 0.000313 0.000380 0.019819 0.001345 -0.003974
# 5 -0.014916 0.007924 -0.025116 0.001345 0.064891 -0.000488
# 6 -0.003608 0.006437 0.002015 -0.003974 -0.000488 0.055222
#
#
# Mechanical properties :
#
#
# Convention : Reuss Voigt Hill
#
# Bulk Modulus (GPa) = 27.85347 52.07141 39.96244
# Shear Modulus (GPa) = 23.13872 37.70768 30.42320
#
# Velocity S-wave (km/s) = 2.98220 3.80700 3.41956
# Velocity P-wave (km/s) = 4.75013 6.27203 5.56337
#
# Compressibility (1/GPa) = 0.03590217
#
# Stress axis : x y z
#
# Youngs Moduli (GPa) = 54.41355 89.30804 48.85071
#
# Poissons Ratio (x) = 0.35901 -0.06337
# Poissons Ratio (y) = 0.21874 0.21245
# Poissons Ratio (z) = -0.07058 0.38840
#
# Static dielectric constant tensor:
#      x y z
#    x 2.323900 -0.111280 -0.171340 
#    y -0.111280 2.141970 0.044940 
#    z -0.171340 0.044940 2.234540 
# 
# From -- ./inp_files/392842.got.cif
#   From: 2010.05.17/outbox.cif.g08.bks.cpg/sg2_197_cif.got.tgz:392842.got - 2010.06.03 11:33:40.
