data_PCOD9012962
_publ_section_title
;
Structure prediction by ZEFSAII (Michael W. Deem and Ramdas Pophale) SiO2 
 PCOD9012962
Probable space group: P -1
;
_chemical_formula_sum "Si O2"
_cell_formula_units_Z 16
_cell_length_a 8.669461
_cell_length_b 20.838008
_cell_length_c 5.465380
_cell_angle_alpha 103.780287
_cell_angle_beta 95.714652
_cell_angle_gamma 44.419160
_cell_volume 667.528444
_symmetry_space_group_name_H-M "P -1"
_symmetry_group_IT_number 2
_symmetry_cell_setting 'triclinic'
loop_
_space_group_symop_operation_xyz
x,y,z
-x,-y,-z
loop_
_atom_site_type_symbol
_atom_site_label
_atom_site_fract_x
_atom_site_fract_y
_atom_site_fract_z
Si Si1 0.607862 0.036923 0.951175
Si Si2 0.998794 0.924343 0.514889
Si Si3 0.732727 0.894228 0.357053
Si Si4 0.757382 0.542736 0.190432
Si Si5 0.310985 0.508881 0.386711
Si Si6 0.226744 0.346007 0.027206
Si Si7 0.453307 0.808561 0.676337
Si Si8 0.108908 0.280167 0.605615
O O1 0.385385 0.124316 0.846096
O O2 0.826461 0.965219 0.750709
O O3 0.647456 0.089572 0.165180
O O4 0.500000 0.000000 0.000000
O O5 0.890148 0.904424 0.291423
O O6 0.249715 0.832938 0.542363
O O7 0.000000 0.000000 0.500000
O O8 0.884292 0.801502 0.467716
O O9 0.500000 0.000000 0.500000
O O10 0.672049 0.551182 0.452467
O O11 0.702993 0.633126 0.180379
O O12 0.679980 0.522360 0.920380
O O13 0.023115 0.452934 0.184983
O O14 0.500000 0.500000 0.500000
O O15 0.086505 0.621266 0.471606
O O16 0.103357 0.316346 0.903200
O O17 0.433208 0.266750 0.156349
O O18 0.655026 0.771044 0.509413
#
# Coordination Sequence:
#
# PCOD9012962 Si02
#       8
#     2   2   2   2   2   2   2   2
#     4  11  22  42  65  92 130 184 230 276 349 425
#     4  11  24  41  64  97 139 179 228 292 352 410
#     4  10  21  41  62  91 133 181 219 273 351 415
#     4  10  23  44  69 100 137 180 234 289 366 423
#     4  11  24  44  71 101 143 186 236 293 360 437
#     4  10  23  40  69  97 130 178 229 290 347 425
#     4  12  22  39  69  99 132 174 238 289 343 416
#     4  11  23  43  67  96 139 182 235 286 356 426
#
# _framework density 23.969016
#
# number of rings (size 3 to 8) (size 9 to 14) (size 15 to 20)
#    0.000    1.250    2.500    4.500    1.750    2.500 
#    0.000    0.000    0.000    0.000    0.000    0.000 
#    0.000    0.000    0.000    0.000    0.000    0.000 
#
# Total GULP energy -89099.145980 kJ/mol
# GULP energy per Si atom -5568.696624 kJ/mol
# Density = 2.391446 g / cm^3
# Si number density = 23.969016 Si / 1000 Ang^3
#
#
#
# Elastic Constant Matrix: (Units=GPa)
#
#
# Indices 1 2 3 4 5 6 
#
# 1 126.7424 37.2691 18.5466 -15.2154 11.7454 -8.1199
# 2 37.2691 107.2649 19.0816 -28.0706 -3.0025 19.8071
# 3 18.5466 19.0816 65.8151 -12.9414 5.1530 1.1647
# 4 -15.2154 -28.0706 -12.9414 38.0462 2.1368 2.0751
# 5 11.7454 -3.0025 5.1530 2.1368 40.0554 -12.0941
# 6 -8.1199 19.8071 1.1647 2.0751 -12.0941 52.8786
#
#
#
# Elastic Compliance Matrix: (Units=1/GPa)
#
#
# Indices 1 2 3 4 5 6 
#
# 1 0.009519 -0.003281 -0.001414 0.000913 -0.002248 0.002172
# 2 -0.003281 0.014206 -0.001287 0.009078 -0.000161 -0.006190
# 3 -0.001414 -0.001287 0.017042 0.004459 -0.002361 -0.000826
# 4 0.000913 0.009078 0.004459 0.035379 -0.003740 -0.005602
# 5 -0.002248 -0.000161 -0.002361 -0.003740 0.028025 0.006324
# 6 0.002172 -0.006190 -0.000826 -0.005602 0.006324 0.023247
#
#
# Mechanical properties :
#
#
# Convention : Reuss Voigt Hill
#
# Bulk Modulus (GPa) = 34.71891 49.95745 42.33818
# Shear Modulus (GPa) = 33.56098 41.19104 37.37601
#
# Velocity S-wave (km/s) = 3.74596 4.14999 3.95314
# Velocity P-wave (km/s) = 5.76420 6.62201 6.20794
#
# Compressibility (1/GPa) = 0.02880275
#
# Stress axis : x y z
#
# Youngs Moduli (GPa) = 105.05587 70.39490 58.67838
#
# Poissons Ratio (x) = 0.23095 0.08298
# Poissons Ratio (y) = 0.34466 0.07552
# Poissons Ratio (z) = 0.14856 0.09060
#
# Static dielectric constant tensor:
#      x y z
#    x 2.030900 0.148820 0.050940 
#    y 0.148820 2.041510 -0.047880 
#    z 0.050940 -0.047880 2.523010 
# 
# From -- ./inp_files/53084.got.cif
#   From: 2010.05.17/outbox.cif.g08.bks.cpg/sg2_27_cif.got.tgz:53084.got - 2010.06.03 11:33:40.
