data_PCOD9012839
_publ_section_title
;
Structure prediction by ZEFSAII (Michael W. Deem and Ramdas Pophale) SiO2 
 PCOD9012839
Probable space group: P -1
;
_chemical_formula_sum "Si O2"
_cell_formula_units_Z 16
_cell_length_a 5.185400
_cell_length_b 11.913379
_cell_length_c 13.432140
_cell_angle_alpha 116.394805
_cell_angle_beta 99.338798
_cell_angle_gamma 74.137198
_cell_volume 714.171099
_symmetry_space_group_name_H-M "P -1"
_symmetry_group_IT_number 2
_symmetry_cell_setting 'triclinic'
loop_
_space_group_symop_operation_xyz
x,y,z
-x,-y,-z
loop_
_atom_site_type_symbol
_atom_site_label
_atom_site_fract_x
_atom_site_fract_y
_atom_site_fract_z
Si Si1 0.178618 0.343418 0.648705
Si Si2 0.476878 0.759289 0.889871
Si Si3 0.648996 0.114969 0.542950
Si Si4 0.431319 0.549534 0.677942
Si Si5 0.750351 0.304982 0.474739
Si Si6 0.991535 0.808130 0.258241
Si Si7 0.594501 0.144476 0.851400
Si Si8 0.898091 0.904739 0.880343
O O1 0.458793 0.239289 0.634349
O O2 0.208991 0.487092 0.692085
O O3 0.056044 0.299050 0.521722
O O4 0.014300 0.316547 0.723906
O O5 0.574583 0.615804 0.797250
O O6 0.671370 0.844175 0.891956
O O7 0.175094 0.801762 0.842551
O O8 0.455170 0.784672 0.016498
O O9 0.683438 0.174342 0.460023
O O10 0.922790 0.096028 0.616816
O O11 0.500000 0.000000 0.500000
O O12 0.605430 0.426162 0.582297
O O13 0.328194 0.651050 0.623467
O O14 0.209080 0.792293 0.178143
O O15 0.694906 0.854253 0.212652
O O16 0.760130 0.997088 0.819779
O O17 0.000000 0.000000 0.000000
#
# Coordination Sequence:
#
# PCOD9012839 Si02
#       8
#     2   2   2   2   2   2   2   2
#     4  10  21  43  65  86 134 171 210 273 329 381
#     4  11  23  40  67  98 130 168 228 268 312 390
#     4  10  22  42  65 100 131 167 219 272 323 394
#     4  10  22  41  65  96 123 172 222 270 324 381
#     4   9  21  41  67  89 133 169 212 272 338 382
#     4  11  22  40  66  93 128 177 211 254 339 384
#     4  11  21  41  64  93 135 176 210 260 330 393
#     4  10  21  41  61  92 133 174 208 270 328 369
#
# _framework density 22.403593000000001
#
# number of rings (size 3 to 8) (size 9 to 14) (size 15 to 20)
#    0.000    1.750    1.250    4.125    1.750    3.000 
#    6.750    1.250    0.000    0.000    0.000    0.000 
#    0.000    0.000    0.000    0.000    0.000    0.000 
#
# Total GULP energy -89297.855495 kJ/mol
# GULP energy per Si atom -5581.115968 kJ/mol
# Density = 2.235260 g / cm^3
# Si number density = 22.403593 Si / 1000 Ang^3
#
#
#
# Elastic Constant Matrix: (Units=GPa)
#
#
# Indices 1 2 3 4 5 6 
#
# 1 120.5498 54.7551 36.4338 -18.7713 9.8922 17.8276
# 2 54.7551 137.4031 58.2647 -11.9315 7.1088 33.2795
# 3 36.4338 58.2647 89.6269 -10.6068 1.8828 10.7730
# 4 -18.7713 -11.9315 -10.6068 23.3240 -7.1871 10.8615
# 5 9.8922 7.1088 1.8828 -7.1871 32.3918 -5.0693
# 6 17.8276 33.2795 10.7730 10.8615 -5.0693 52.1961
#
#
#
# Elastic Compliance Matrix: (Units=1/GPa)
#
#
# Indices 1 2 3 4 5 6 
#
# 1 0.012063 -0.001969 -0.001918 0.009427 -0.001769 -0.004602
# 2 -0.001969 0.013079 -0.006106 0.005318 -0.001939 -0.007701
# 3 -0.001918 -0.006106 0.016107 0.002818 0.001741 0.000807
# 4 0.009427 0.005318 0.002818 0.066140 0.007297 -0.020247
# 5 -0.001769 -0.001939 0.001741 0.007297 0.033865 0.003252
# 6 -0.004602 -0.007701 0.000807 -0.020247 0.003252 0.030003
#
#
# Mechanical properties :
#
#
# Convention : Reuss Voigt Hill
#
# Bulk Modulus (GPa) = 47.03084 71.83188 59.43136
# Shear Modulus (GPa) = 25.21044 34.79079 30.00062
#
# Velocity S-wave (km/s) = 3.35817 3.94497 3.66334
# Velocity P-wave (km/s) = 6.00621 7.27205 6.66923
#
# Compressibility (1/GPa) = 0.02126264
#
# Stress axis : x y z
#
# Youngs Moduli (GPa) = 82.89817 76.45675 62.08655
#
# Poissons Ratio (x) = 0.15055 0.11906
# Poissons Ratio (y) = 0.16324 0.37913
# Poissons Ratio (z) = 0.15896 0.46688
#
# Static dielectric constant tensor:
#      x y z
#    x 2.018890 -0.078300 0.007320 
#    y -0.078300 1.866480 -0.000700 
#    z 0.007320 -0.000700 1.839270 
# 
# From -- ./inp_files/482959.got.cif
#   From: 2010.05.17/outbox.cif.g08.bks.cpg/sg2_242_cif.got.tgz:482959.got - 2010.06.03 11:33:40.
