data_PCOD9012427
_publ_section_title
;
Structure prediction by ZEFSAII (Michael W. Deem and Ramdas Pophale) SiO2 
 PCOD9012427
Probable space group: P -1
;
_chemical_formula_sum "Si O2"
_cell_formula_units_Z 16
_cell_length_a 13.650802
_cell_length_b 8.281126
_cell_length_c 17.631659
_cell_angle_alpha 32.519142
_cell_angle_beta 43.149024
_cell_angle_gamma 44.819526
_cell_volume 708.353571
_symmetry_space_group_name_H-M "P -1"
_symmetry_group_IT_number 2
_symmetry_cell_setting 'triclinic'
loop_
_space_group_symop_operation_xyz
x,y,z
-x,-y,-z
loop_
_atom_site_type_symbol
_atom_site_label
_atom_site_fract_x
_atom_site_fract_y
_atom_site_fract_z
Si Si1 0.364171 0.663498 0.088559
Si Si2 0.633991 0.513666 0.109642
Si Si3 0.978884 0.361400 0.345840
Si Si4 0.138723 0.127105 0.199447
Si Si5 0.946070 0.308760 0.673746
Si Si6 0.385363 0.577795 0.349524
Si Si7 0.502851 0.995228 0.229700
Si Si8 0.314693 0.169741 0.665537
O O1 0.514475 0.643056 0.059452
O O2 0.226676 0.667304 0.218487
O O3 0.390434 0.335179 0.160938
O O4 0.359000 0.938597 0.922509
O O5 0.524383 0.519167 0.238984
O O6 0.723800 0.160650 0.183526
O O7 0.746802 0.724440 0.968735
O O8 0.812064 0.541728 0.347627
O O9 0.074198 0.342589 0.222673
O O10 0.006307 0.563376 0.323739
O O11 0.000000 0.000000 0.500000
O O12 0.018017 0.037640 0.247351
O O13 0.239069 0.808534 0.306291
O O14 0.000000 0.500000 0.500000
O O15 0.431113 0.755233 0.324631
O O16 0.352709 0.265633 0.522394
O O17 0.548473 0.894679 0.328757
#
# Coordination Sequence:
#
# PCOD9012427 Si02
#       8
#     2   2   2   2   2   2   2   2
#     4  10  21  40  70 101 138 173 231 289 343 423
#     4  11  24  44  70 104 141 177 226 298 357 407
#     4  12  26  48  70  96 141 191 239 284 338 421
#     4  12  24  45  76 103 136 186 240 285 346 420
#     4  12  24  42  70 106 133 182 242 281 340 412
#     4  12  20  42  70 103 138 176 229 294 357 413
#     4  10  22  39  67 104 132 181 229 285 358 406
#     4  11  26  44  64 101 143 186 228 288 355 410
#
# _framework density 22.587589999999999
#
# number of rings (size 3 to 8) (size 9 to 14) (size 15 to 20)
#    0.000    0.750    5.000    2.625    3.500    0.500 
#    2.250    0.625    0.000    0.000    0.000    0.000 
#    0.000    0.000    0.000    0.000    0.000    0.000 
#
# Total GULP energy -89281.130536 kJ/mol
# GULP energy per Si atom -5580.070659 kJ/mol
# Density = 2.253618 g / cm^3
# Si number density = 22.587590 Si / 1000 Ang^3
#
#
#
# Elastic Constant Matrix: (Units=GPa)
#
#
# Indices 1 2 3 4 5 6 
#
# 1 59.2481 10.2117 9.5487 -7.9604 -8.7944 30.3890
# 2 10.2117 71.4062 18.4637 17.8987 5.4977 8.7032
# 3 9.5487 18.4637 88.6952 10.7543 -0.2897 -3.6824
# 4 -7.9604 17.8987 10.7543 46.5509 5.6488 1.2111
# 5 -8.7944 5.4977 -0.2897 5.6488 30.9626 -1.3944
# 6 30.3890 8.7032 -3.6824 1.2111 -1.3944 31.4667
#
#
#
# Elastic Compliance Matrix: (Units=1/GPa)
#
#
# Indices 1 2 3 4 5 6 
#
# 1 0.041647 -0.002347 -0.006807 0.009602 0.008613 -0.040356
# 2 -0.002347 0.017062 -0.002699 -0.005934 -0.002759 -0.002662
# 3 -0.006807 -0.002699 0.013355 -0.003409 -0.000302 0.009001
# 4 0.009602 -0.005934 -0.003409 0.026615 -0.001517 -0.009122
# 5 0.008613 -0.002759 -0.000302 -0.001517 0.035238 -0.005970
# 6 -0.040356 -0.002662 0.009001 -0.009122 -0.005970 0.072630
#
#
# Mechanical properties :
#
#
# Convention : Reuss Voigt Hill
#
# Bulk Modulus (GPa) = 20.67859 32.86641 26.77250
# Shear Modulus (GPa) = 20.29440 33.87106 27.08273
#
# Velocity S-wave (km/s) = 3.00071 3.87659 3.46643
# Velocity P-wave (km/s) = 4.60222 5.88384 5.28204
#
# Compressibility (1/GPa) = 0.04835919
#
# Stress axis : x y z
#
# Youngs Moduli (GPa) = 24.01109 58.60869 74.87668
#
# Poissons Ratio (x) = 0.13756 0.50966
# Poissons Ratio (y) = 0.05636 0.20211
# Poissons Ratio (z) = 0.16343 0.15820
#
# Static dielectric constant tensor:
#      x y z
#    x 1.902210 0.055820 0.004320 
#    y 0.055820 1.892830 0.041730 
#    z 0.004320 0.041730 1.857220 
# 
# From -- ./inp_files/566355.got.cif
#   From: 2010.05.17/outbox.cif.g08.bks.cpg/sg2_284_cif.got.tgz:566355.got - 2010.06.03 11:33:40.
