data_PCOD9012752
_publ_section_title
;
Structure prediction by ZEFSAII (Michael W. Deem and Ramdas Pophale) SiO2 
 PCOD9012752
Probable space group: P -1
;
_chemical_formula_sum "Si O2"
_cell_formula_units_Z 14
_cell_length_a 19.277700
_cell_length_b 9.915673
_cell_length_c 14.213825
_cell_angle_alpha 29.418508
_cell_angle_beta 154.128399
_cell_angle_gamma 139.648045
_cell_volume 579.352616
_symmetry_space_group_name_H-M "P -1"
_symmetry_group_IT_number 2
_symmetry_cell_setting 'triclinic'
loop_
_space_group_symop_operation_xyz
x,y,z
-x,-y,-z
loop_
_atom_site_type_symbol
_atom_site_label
_atom_site_fract_x
_atom_site_fract_y
_atom_site_fract_z
Si Si1 0.806738 0.786135 0.596862
Si Si2 0.746148 0.894067 0.896977
Si Si3 0.633266 0.996800 0.421375
Si Si4 0.294056 0.815487 0.131944
Si Si5 0.802244 0.759506 0.389275
Si Si6 0.539925 0.388081 0.234722
Si Si7 0.021058 0.208098 0.014818
O O1 0.735465 0.495927 0.698439
O O2 0.816398 0.836507 0.468600
O O3 0.692459 0.013463 0.376446
O O4 0.961937 0.756084 0.872127
O O5 0.641446 0.635147 0.935410
O O6 0.748844 0.990863 0.949178
O O7 0.637554 0.137378 0.564376
O O8 0.923802 0.938376 0.048409
O O9 0.582685 0.273408 0.249993
O O10 0.483808 0.822780 0.347037
O O11 0.794270 0.845672 0.756889
O O12 0.193903 0.965050 0.833919
O O13 0.632707 0.647566 0.220447
O O14 0.928881 0.489170 0.692009
#
# Coordination Sequence:
#
# PCOD9012752 Si02
#       7
#     2   2   2   2   2   2   2
#     4  10  21  41  60  89 123 158 192 253 292 362
#     4   9  18  34  62  83 115 155 201 235 290 349
#     4   9  22  36  63  85 126 156 196 243 309 343
#     4  11  21  38  63  92 115 161 199 248 287 364
#     4  11  22  36  68  89 117 155 210 238 298 351
#     4   9  18  38  62  89 110 166 199 243 290 364
#     4   9  20  39  59  89 121 157 192 252 296 352
#
# _framework density 24.164905000000001
#
# number of rings (size 3 to 8) (size 9 to 14) (size 15 to 20)
#    0.857    1.429    2.857    0.857    0.000    5.714 
#    0.000    0.000    6.286    2.571    0.000    0.000 
#    0.000    0.000    0.000    0.000    0.000    0.000 
#
# Total GULP energy -78070.997691 kJ/mol
# GULP energy per Si atom -5576.499835 kJ/mol
# Density = 2.410990 g / cm^3
# Si number density = 24.164905 Si / 1000 Ang^3
#
#
#
# Elastic Constant Matrix: (Units=GPa)
#
#
# Indices 1 2 3 4 5 6 
#
# 1 78.4010 8.8540 33.9390 -9.8795 13.0168 -19.7031
# 2 8.8540 77.6609 26.0485 13.4301 20.7368 -2.0534
# 3 33.9390 26.0485 115.1715 8.1715 -3.7233 13.5319
# 4 -9.8795 13.4301 8.1715 40.2261 2.3106 6.0553
# 5 13.0168 20.7368 -3.7233 2.3106 80.7281 -6.9235
# 6 -19.7031 -2.0534 13.5319 6.0553 -6.9235 47.7012
#
#
#
# Elastic Compliance Matrix: (Units=1/GPa)
#
#
# Indices 1 2 3 4 5 6 
#
# 1 0.019189 0.000412 -0.007239 0.004864 -0.002905 0.008958
# 2 0.000412 0.016016 -0.003779 -0.004534 -0.004060 0.001918
# 3 -0.007239 -0.003779 0.012625 -0.002290 0.002261 -0.006115
# 4 0.004864 -0.004534 -0.002290 0.028253 -0.000638 -0.001215
# 5 -0.002905 -0.004060 0.002261 -0.000638 0.014030 0.000101
# 6 0.008958 0.001918 -0.006115 -0.001215 0.000101 0.026650
#
#
# Mechanical properties :
#
#
# Convention : Reuss Voigt Hill
#
# Bulk Modulus (GPa) = 37.56973 45.43516 41.50244
# Shear Modulus (GPa) = 34.04907 47.22388 40.63648
#
# Velocity S-wave (km/s) = 3.75778 4.42547 4.10522
# Velocity P-wave (km/s) = 5.86590 6.70492 6.29940
#
# Compressibility (1/GPa) = 0.02661717
#
# Stress axis : x y z
#
# Youngs Moduli (GPa) = 52.11386 62.43796 79.20981
#
# Poissons Ratio (x) = -0.02571 0.57342
# Poissons Ratio (y) = -0.02146 0.29930
# Poissons Ratio (z) = 0.37727 0.23593
#
# Static dielectric constant tensor:
#      x y z
#    x 2.023650 0.015870 -0.043660 
#    y 0.015870 1.967070 0.041190 
#    z -0.043660 0.041190 2.053200 
# 
# From -- ./inp_files/537919.got.cif
#   From: 2010.05.17/outbox.cif.g08.bks.cpg/sg2_269_cif.got.tgz:537919.got - 2010.06.03 11:33:40.
