data_PCOD9012026
_publ_section_title
;
Structure prediction by ZEFSAII (Michael W. Deem and Ramdas Pophale) SiO2 
 PCOD9012026
Probable space group: P -1
;
_chemical_formula_sum "Si O2"
_cell_formula_units_Z 16
_cell_length_a 29.039410
_cell_length_b 15.887180
_cell_length_c 8.758341
_cell_angle_alpha 136.557510
_cell_angle_beta 143.610446
_cell_angle_gamma 18.674863
_cell_volume 753.242707
_symmetry_space_group_name_H-M "P -1"
_symmetry_group_IT_number 2
_symmetry_cell_setting 'triclinic'
loop_
_space_group_symop_operation_xyz
x,y,z
-x,-y,-z
loop_
_atom_site_type_symbol
_atom_site_label
_atom_site_fract_x
_atom_site_fract_y
_atom_site_fract_z
Si Si1 0.179845 0.578321 0.464568
Si Si2 0.470582 0.291034 0.709905
Si Si3 0.752321 0.454292 0.848568
Si Si4 0.530006 0.262231 0.338213
Si Si5 0.820513 0.685133 0.772334
Si Si6 0.312326 0.202278 0.768408
Si Si7 0.953640 0.025951 0.191323
Si Si8 0.399923 0.586298 0.140352
O O1 0.376875 0.335524 0.643649
O O2 0.160083 0.462437 0.266272
O O3 0.099651 0.759885 0.634367
O O4 0.081182 0.787605 0.343132
O O5 0.382114 0.382092 0.432732
O O6 0.668512 0.984377 0.820761
O O7 0.424357 0.490084 0.913963
O O8 0.653480 0.536147 0.837530
O O9 0.787118 0.550195 0.086794
O O10 0.929820 0.146511 0.871682
O O11 0.524816 0.339455 0.265160
O O12 0.570789 0.310798 0.634321
O O13 0.660796 0.966574 0.303220
O O14 0.760123 0.721325 0.492432
O O15 0.000000 0.500000 0.000000
O O16 0.500000 0.000000 0.000000
O O17 0.784052 0.186070 0.979680
#
# Coordination Sequence:
#
# PCOD9012026 Si02
#       8
#     2   2   2   2   2   2   2   2
#     4   9  21  38  62  90 129 159 210 258 311 378
#     4  10  21  41  66  95 119 174 214 252 317 383
#     4  10  21  40  68  91 120 172 215 249 316 380
#     4  10  22  41  61  89 129 171 204 261 322 379
#     4  12  25  40  63 101 127 164 215 272 315 363
#     4  10  22  42  65  87 129 169 211 253 318 382
#     4   9  20  38  61  92 119 165 206 261 306 365
#     4  10  23  39  64  92 129 164 208 261 322 373
#
# _framework density 21.241492000000001
#
# number of rings (size 3 to 8) (size 9 to 14) (size 15 to 20)
#    0.000    2.000    2.500    1.125    8.750    4.000 
#    4.500    0.625    0.000    0.000    0.000    0.000 
#    0.000    0.000    0.000    0.000    0.000    0.000 
#
# Total GULP energy -89258.079353 kJ/mol
# GULP energy per Si atom -5578.629960 kJ/mol
# Density = 2.119315 g / cm^3
# Si number density = 21.241492 Si / 1000 Ang^3
#
#
#
# Elastic Constant Matrix: (Units=GPa)
#
#
# Indices 1 2 3 4 5 6 
#
# 1 34.8346 40.4657 11.2031 5.3106 8.3218 0.3415
# 2 40.4657 93.2889 41.5222 -7.3277 6.0981 -15.2798
# 3 11.2031 41.5222 96.9045 10.8211 8.1892 -0.0816
# 4 5.3106 -7.3277 10.8211 31.4576 -3.7949 8.8497
# 5 8.3218 6.0981 8.1892 -3.7949 34.4988 3.6642
# 6 0.3415 -15.2798 -0.0816 8.8497 3.6642 24.9535
#
#
#
# Elastic Compliance Matrix: (Units=1/GPa)
#
#
# Indices 1 2 3 4 5 6 
#
# 1 0.093229 -0.052191 0.016500 -0.030236 -0.018408 -0.019754
# 2 -0.052191 0.044784 -0.016140 0.020324 0.008658 0.019605
# 3 0.016500 -0.016140 0.017139 -0.011749 -0.005956 -0.005011
# 4 -0.030236 0.020324 -0.011749 0.048983 0.012557 -0.006395
# 5 -0.018408 0.008658 -0.005956 0.012557 0.035125 -0.004077
# 6 -0.019754 0.019605 -0.005011 -0.006395 -0.004077 0.055200
#
#
# Mechanical properties :
#
#
# Convention : Reuss Voigt Hill
#
# Bulk Modulus (GPa) = 19.42134 45.71222 32.56678
# Shear Modulus (GPa) = 12.03994 26.97110 19.50552
#
# Velocity S-wave (km/s) = 2.38337 3.56720 3.03359
# Velocity P-wave (km/s) = 4.09107 6.20754 5.25692
#
# Compressibility (1/GPa) = 0.05148975
#
# Stress axis : x y z
#
# Youngs Moduli (GPa) = 10.72622 22.32963 58.34739
#
# Poissons Ratio (x) = 1.16541 -0.96275
# Poissons Ratio (y) = 0.55982 0.94173
# Poissons Ratio (z) = -0.17699 0.36040
#
# Static dielectric constant tensor:
#      x y z
#    x 1.807070 -0.010790 -0.068070 
#    y -0.010790 1.807890 0.002040 
#    z -0.068070 0.002040 1.829690 
# 
# From -- ./inp_files/357442.got.cif
#   From: 2010.05.17/outbox.cif.g08.bks.cpg/sg2_179_cif.got.tgz:357442.got - 2010.06.03 11:33:40.
