data_PCOD9012837
_publ_section_title
;
Structure prediction by ZEFSAII (Michael W. Deem and Ramdas Pophale) SiO2 
 PCOD9012837
Probable space group: P -1
;
_chemical_formula_sum "Si O2"
_cell_formula_units_Z 16
_cell_length_a 8.965363
_cell_length_b 7.237067
_cell_length_c 14.108401
_cell_angle_alpha 95.836552
_cell_angle_beta 46.196884
_cell_angle_gamma 81.854664
_cell_volume 627.911167
_symmetry_space_group_name_H-M "P -1"
_symmetry_group_IT_number 2
_symmetry_cell_setting 'triclinic'
loop_
_space_group_symop_operation_xyz
x,y,z
-x,-y,-z
loop_
_atom_site_type_symbol
_atom_site_label
_atom_site_fract_x
_atom_site_fract_y
_atom_site_fract_z
Si Si1 0.908067 0.793145 0.190374
Si Si2 0.088105 0.179952 0.445472
Si Si3 0.554289 0.916683 0.864684
Si Si4 0.532367 0.984807 0.597718
Si Si5 0.362621 0.606120 0.978883
Si Si6 0.181881 0.266781 0.980452
Si Si7 0.339600 0.622236 0.437083
Si Si8 0.789704 0.421609 0.292133
O O1 0.719538 0.992973 0.270242
O O2 0.933780 0.719145 0.067533
O O3 0.834097 0.634524 0.276944
O O4 0.148429 0.775077 0.116125
O O5 0.213310 0.121449 0.287279
O O6 0.869235 0.359133 0.536235
O O7 0.273067 0.176292 0.443841
O O8 0.000000 0.000000 0.500000
O O9 0.506441 0.712033 0.865804
O O10 0.376857 0.071857 0.890409
O O11 0.500000 0.000000 0.000000
O O12 0.585465 0.186226 0.609847
O O13 0.500000 0.000000 0.500000
O O14 0.291756 0.437554 0.951017
O O15 0.500000 0.500000 0.000000
O O16 0.005612 0.285828 0.141537
O O17 0.567349 0.452168 0.332294
O O18 0.254360 0.629970 0.583967
#
# Coordination Sequence:
#
# PCOD9012837 Si02
#       8
#     2   2   2   2   2   2   2   2
#     4  10  22  42  63  93 136 182 226 288 357 412
#     4  10  22  42  67  97 138 182 238 290 341 430
#     4  12  24  42  74 108 138 187 236 289 360 416
#     4  10  21  41  61  92 132 176 228 293 351 411
#     4  11  24  41  64 104 141 179 226 289 350 420
#     4  11  22  44  68  98 141 181 229 292 351 416
#     4   9  19  36  64  91 124 179 233 273 337 431
#     4   9  18  36  64  93 127 177 224 278 351 409
#
# _framework density 25.481311000000002
#
# number of rings (size 3 to 8) (size 9 to 14) (size 15 to 20)
#    0.000    1.750    2.500    2.250    1.750    3.500 
#    4.500    0.000    0.000    7.500    0.000    0.000 
#    0.000    0.000    0.000    0.000    0.000    0.000 
#
# Total GULP energy -89354.530231 kJ/mol
# GULP energy per Si atom -5584.658139 kJ/mol
# Density = 2.542331 g / cm^3
# Si number density = 25.481311 Si / 1000 Ang^3
#
#
#
# Elastic Constant Matrix: (Units=GPa)
#
#
# Indices 1 2 3 4 5 6 
#
# 1 120.7990 17.8392 12.5219 12.1654 -23.9526 -32.9388
# 2 17.8392 85.0861 20.7925 -12.3414 -23.6398 -20.3930
# 3 12.5219 20.7925 113.4865 -14.1799 -16.8168 8.0384
# 4 12.1654 -12.3414 -14.1799 44.4680 -6.4377 -15.4193
# 5 -23.9526 -23.6398 -16.8168 -6.4377 44.5510 4.3612
# 6 -32.9388 -20.3930 8.0384 -15.4193 4.3612 41.2402
#
#
#
# Elastic Compliance Matrix: (Units=1/GPa)
#
#
# Indices 1 2 3 4 5 6 
#
# 1 0.012252 0.002571 -0.001429 0.001776 0.006562 0.011306
# 2 0.002571 0.020233 -0.001969 0.011307 0.011496 0.015454
# 3 -0.001429 -0.001969 0.010274 0.002286 0.002743 -0.003553
# 4 0.001776 0.011307 0.002286 0.033695 0.010924 0.018007
# 5 0.006562 0.011496 0.002743 0.010924 0.033619 0.010920
# 6 0.011306 0.015454 -0.003553 0.018007 0.010920 0.047191
#
#
# Mechanical properties :
#
#
# Convention : Reuss Voigt Hill
#
# Bulk Modulus (GPa) = 24.32875 46.85319 35.59097
# Shear Modulus (GPa) = 28.96553 43.93304 36.44928
#
# Velocity S-wave (km/s) = 3.37521 4.15677 3.78621
# Velocity P-wave (km/s) = 4.97572 6.43937 5.75427
#
# Compressibility (1/GPa) = 0.04110363
#
# Stress axis : x y z
#
# Youngs Moduli (GPa) = 81.62172 49.42409 97.33483
#
# Poissons Ratio (x) = -0.12707 0.13913
# Poissons Ratio (y) = -0.20984 0.19165
# Poissons Ratio (z) = 0.11667 0.09731
#
# Static dielectric constant tensor:
#      x y z
#    x 2.029820 -0.013930 -0.021060 
#    y -0.013930 2.079480 0.045990 
#    z -0.021060 0.045990 2.144440 
# 
# From -- ./inp_files/495015.got.cif
#   From: 2010.05.17/outbox.cif.g08.bks.cpg/sg2_248_cif.got.tgz:495015.got - 2010.06.03 11:33:40.
