data_PCOD9012681
_publ_section_title
;
Structure prediction by ZEFSAII (Michael W. Deem and Ramdas Pophale) SiO2 
 PCOD9012681
Probable space group: P -1
;
_chemical_formula_sum "Si O2"
_cell_formula_units_Z 14
_cell_length_a 9.906180
_cell_length_b 7.238813
_cell_length_c 17.236085
_cell_angle_alpha 105.817889
_cell_angle_beta 140.081265
_cell_angle_gamma 49.550788
_cell_volume 535.671749
_symmetry_space_group_name_H-M "P -1"
_symmetry_group_IT_number 2
_symmetry_cell_setting 'triclinic'
loop_
_space_group_symop_operation_xyz
x,y,z
-x,-y,-z
loop_
_atom_site_type_symbol
_atom_site_label
_atom_site_fract_x
_atom_site_fract_y
_atom_site_fract_z
Si Si1 0.881877 0.987552 0.648256
Si Si2 0.696111 0.746531 0.643495
Si Si3 0.352429 0.282366 0.646514
Si Si4 0.347066 0.736579 0.069546
Si Si5 0.186682 0.744972 0.203751
Si Si6 0.481080 0.716135 0.810910
Si Si7 0.669864 0.802761 0.124375
O O1 0.555988 0.231882 0.496999
O O2 0.960878 0.084567 0.762659
O O3 0.826417 0.812558 0.643295
O O4 0.147003 0.836761 0.684833
O O5 0.981345 0.448410 0.763902
O O6 0.522524 0.982438 0.658281
O O7 0.479123 0.266632 0.783762
O O8 0.496225 0.350711 0.662810
O O9 0.000000 0.500000 0.500000
O O10 0.354704 0.509455 0.072494
O O11 0.551143 0.670815 0.080414
O O12 0.026974 0.025304 0.932059
O O13 0.303836 0.468226 0.188669
O O14 0.419244 0.979537 0.825744
O O15 0.500000 0.000000 0.000000
#
# Coordination Sequence:
#
# PCOD9012681 Si02
#       7
#     2   2   2   2   2   2   2
#     4  10  21  42  73  96 136 184 231 286 357 400
#     4  10  22  42  68 104 138 181 234 288 342 420
#     4  10  21  40  75 104 132 185 238 284 349 414
#     4  11  24  46  69  98 142 185 230 291 344 404
#     4  10  23  39  70 103 131 186 235 280 345 412
#     4  11  23  44  68  98 138 179 233 284 341 415
#     4  12  28  41  68 105 140 184 233 279 351 421
#
# _framework density 26.135408000000002
#
# number of rings (size 3 to 8) (size 9 to 14) (size 15 to 20)
#    0.000    1.429    1.429    4.286   10.000    2.286 
#    2.571    0.714    0.000    0.000    0.000    0.000 
#    0.000    0.000    0.000    0.000    0.000    0.000 
#
# Total GULP energy -78174.909546 kJ/mol
# GULP energy per Si atom -5583.922110 kJ/mol
# Density = 2.607592 g / cm^3
# Si number density = 26.135408 Si / 1000 Ang^3
#
#
#
# Elastic Constant Matrix: (Units=GPa)
#
#
# Indices 1 2 3 4 5 6 
#
# 1 46.5564 9.1765 6.0884 -5.6073 2.2176 6.6369
# 2 9.1765 155.1672 53.4496 -14.8430 -4.5909 -10.5060
# 3 6.0884 53.4496 148.6554 -24.8058 22.2692 -18.7861
# 4 -5.6073 -14.8430 -24.8058 51.3042 -14.7133 1.5748
# 5 2.2176 -4.5909 22.2692 -14.7133 26.6921 1.6481
# 6 6.6369 -10.5060 -18.7861 1.5748 1.6481 42.4628
#
#
#
# Elastic Compliance Matrix: (Units=1/GPa)
#
#
# Indices 1 2 3 4 5 6 
#
# 1 0.022642 -0.001222 -0.000672 0.001853 -0.000250 -0.004197
# 2 -0.001222 0.008017 -0.003212 0.002142 0.005312 0.000468
# 3 -0.000672 -0.003212 0.009858 0.001273 -0.008263 0.003945
# 4 0.001853 0.002142 0.001273 0.024605 0.012753 -0.000604
# 5 -0.000250 0.005312 -0.008263 0.012753 0.052619 -0.004818
# 6 -0.004197 0.000468 0.003945 -0.000604 -0.004818 0.026277
#
#
# Mechanical properties :
#
#
# Convention : Reuss Voigt Hill
#
# Bulk Modulus (GPa) = 32.99662 54.20089 43.59875
# Shear Modulus (GPa) = 30.42655 42.86945 36.64800
#
# Velocity S-wave (km/s) = 3.41572 4.05443 3.74871
# Velocity P-wave (km/s) = 5.31120 6.53463 5.95442
#
# Compressibility (1/GPa) = 0.03030613
#
# Stress axis : x y z
#
# Youngs Moduli (GPa) = 44.16662 124.73568 101.43997
#
# Poissons Ratio (x) = 0.15242 0.06813
# Poissons Ratio (y) = 0.05397 0.32579
# Poissons Ratio (z) = 0.02966 0.40060
#
# Static dielectric constant tensor:
#      x y z
#    x 2.250720 -0.134830 -0.048210 
#    y -0.134830 2.499150 0.149390 
#    z -0.048210 0.149390 2.065200 
# 
# From -- ./inp_files/566822.got.cif
#   From: 2010.05.17/outbox.cif.g08.bks.cpg/sg2_284_cif.got.tgz:566822.got - 2010.06.03 11:33:40.
