data_PCOD9012705
_publ_section_title
;
Structure prediction by ZEFSAII (Michael W. Deem and Ramdas Pophale) SiO2 
 PCOD9012705
Probable space group: P -1
;
_chemical_formula_sum "Si O2"
_cell_formula_units_Z 16
_cell_length_a 11.547898
_cell_length_b 14.092665
_cell_length_c 9.820455
_cell_angle_alpha 86.622602
_cell_angle_beta 102.467209
_cell_angle_gamma 150.569432
_cell_volume 738.496507
_symmetry_space_group_name_H-M "P -1"
_symmetry_group_IT_number 2
_symmetry_cell_setting 'triclinic'
loop_
_space_group_symop_operation_xyz
x,y,z
-x,-y,-z
loop_
_atom_site_type_symbol
_atom_site_label
_atom_site_fract_x
_atom_site_fract_y
_atom_site_fract_z
Si Si1 0.412333 0.547915 0.640096
Si Si2 0.386590 0.847633 0.272945
Si Si3 0.532195 0.827003 0.538927
Si Si4 0.854350 0.531240 0.179475
Si Si5 0.542541 0.827476 0.077666
Si Si6 0.584265 0.167719 0.216992
Si Si7 0.053544 0.133333 0.586213
Si Si8 0.014606 0.034342 0.160678
O O1 0.420506 0.641716 0.527750
O O2 0.240326 0.464369 0.729311
O O3 0.713102 0.639141 0.419780
O O4 0.699062 0.739975 0.746205
O O5 0.381649 0.802328 0.426309
O O6 0.422270 0.785649 0.185191
O O7 0.140234 0.736954 0.191518
O O8 0.609105 0.078596 0.279857
O O9 0.559417 0.874684 0.699250
O O10 0.800766 0.015310 0.520559
O O11 0.830689 0.405672 0.240862
O O12 0.649020 0.384764 0.019251
O O13 0.815472 0.976147 0.148396
O O14 0.544919 0.911181 0.955572
O O15 0.068756 0.111019 0.749542
O O16 0.000000 0.000000 0.500000
O O17 0.000000 0.000000 0.000000
#
# Coordination Sequence:
#
# PCOD9012705 Si02
#       8
#     2   2   2   2   2   2   2   2
#     4  10  22  43  67  90 123 172 207 258 314 368
#     4  12  21  36  64  90 123 165 206 254 314 360
#     4  10  22  39  61  89 124 163 212 257 299 379
#     4   9  21  38  60  88 125 161 207 247 304 378
#     4  10  21  41  57  91 130 158 201 263 306 362
#     4   9  21  39  57  85 127 165 201 252 304 365
#     4  11  24  42  64  92 128 160 211 265 316 371
#     4  11  21  43  66  91 129 162 214 258 304 380
#
# _framework density 21.66564
#
# number of rings (size 3 to 8) (size 9 to 14) (size 15 to 20)
#    0.750    1.000    1.250    3.375    0.000    5.500 
#    2.250    1.250    0.000    0.000    0.000    0.000 
#    0.000    0.000    0.000    0.000    0.000    0.000 
#
# Total GULP energy -89212.691394 kJ/mol
# GULP energy per Si atom -5575.793212 kJ/mol
# Density = 2.161633 g / cm^3
# Si number density = 21.665640 Si / 1000 Ang^3
#
#
#
# Elastic Constant Matrix: (Units=GPa)
#
#
# Indices 1 2 3 4 5 6 
#
# 1 45.2921 17.3884 4.5523 5.0671 3.3360 6.1426
# 2 17.3884 92.5797 12.9759 -3.2839 7.9446 -17.3382
# 3 4.5523 12.9759 64.0040 -8.5977 7.5850 -5.9383
# 4 5.0671 -3.2839 -8.5977 16.0102 1.2216 1.2352
# 5 3.3360 7.9446 7.5850 1.2216 28.4729 -5.6137
# 6 6.1426 -17.3382 -5.9383 1.2352 -5.6137 44.7178
#
#
#
# Elastic Compliance Matrix: (Units=1/GPa)
#
#
# Indices 1 2 3 4 5 6 
#
# 1 0.026808 -0.006102 -0.002472 -0.010459 -0.001570 -0.006285
# 2 -0.006102 0.013429 -0.001041 0.003836 -0.001821 0.005572
# 3 -0.002472 -0.001041 0.018080 0.010498 -0.004392 0.001496
# 4 -0.010459 0.003836 0.010498 0.072483 -0.005429 0.001634
# 5 -0.001570 -0.001821 -0.004392 -0.005429 0.037974 0.003843
# 6 -0.006285 0.005572 0.001496 0.001634 0.003843 0.026022
#
#
# Mechanical properties :
#
#
# Convention : Reuss Voigt Hill
#
# Bulk Modulus (GPa) = 25.58230 30.18990 27.88610
# Shear Modulus (GPa) = 22.02114 28.97079 25.49597
#
# Velocity S-wave (km/s) = 3.19157 3.66071 3.43416
# Velocity P-wave (km/s) = 5.04132 5.64202 5.35011
#
# Compressibility (1/GPa) = 0.03908953
#
# Stress axis : x y z
#
# Youngs Moduli (GPa) = 37.30224 74.46386 55.30905
#
# Poissons Ratio (x) = 0.45437 0.13670
# Poissons Ratio (y) = 0.22762 0.05755
# Poissons Ratio (z) = 0.09219 0.07748
#
# Static dielectric constant tensor:
#      x y z
#    x 1.817620 -0.020900 0.003910 
#    y -0.020900 1.798240 -0.007130 
#    z 0.003910 -0.007130 1.816050 
# 
# From -- ./inp_files/272643.got.cif
#   From: 2010.05.17/outbox.cif.g08.bks.cpg/sg2_137_cif.got.tgz:272643.got - 2010.06.03 11:33:40.
