data_PCOD9012190
_publ_section_title
;
Structure prediction by ZEFSAII (Michael W. Deem and Ramdas Pophale) SiO2 
 PCOD9012190
Probable space group: P -1
;
_chemical_formula_sum "Si O2"
_cell_formula_units_Z 12
_cell_length_a 7.668007
_cell_length_b 12.553222
_cell_length_c 8.441860
_cell_angle_alpha 102.864340
_cell_angle_beta 91.394893
_cell_angle_gamma 141.264069
_cell_volume 468.864563
_symmetry_space_group_name_H-M "P -1"
_symmetry_group_IT_number 2
_symmetry_cell_setting 'triclinic'
loop_
_space_group_symop_operation_xyz
x,y,z
-x,-y,-z
loop_
_atom_site_type_symbol
_atom_site_label
_atom_site_fract_x
_atom_site_fract_y
_atom_site_fract_z
Si Si1 0.168260 0.678912 0.857124
Si Si2 0.763107 0.477687 0.525388
Si Si3 0.655291 0.028124 0.174860
Si Si4 0.090480 0.202092 0.949239
Si Si5 0.070671 0.082417 0.360003
Si Si6 0.745056 0.535022 0.212145
O O1 0.348635 0.841376 0.778743
O O2 0.166371 0.547789 0.833378
O O3 0.842813 0.543248 0.733134
O O4 0.351602 0.812749 0.059057
O O5 0.420912 0.277079 0.430887
O O6 0.796046 0.580236 0.415463
O O7 0.000000 0.500000 0.500000
O O8 0.844027 0.067551 0.325931
O O9 0.858941 0.110979 0.051467
O O10 0.105987 0.299455 0.840996
O O11 0.405391 0.361751 0.094792
O O12 0.015979 0.048554 0.820140
O O13 0.000000 0.000000 0.500000
#
# Coordination Sequence:
#
# PCOD9012190 Si02
#       6
#     2   2   2   2   2   2
#     4  10  23  43  65  98 138 178 225 277 347 390
#     4  10  22  44  68  99 138 178 222 287 338 396
#     4  11  23  45  70  94 138 187 223 278 339 414
#     4  11  22  41  71  97 131 182 232 270 340 408
#     4  12  26  44  71 103 136 178 232 284 337 407
#     4  10  21  40  68  99 132 175 227 283 332 403
#
# _framework density 25.593744000000001
#
# number of rings (size 3 to 8) (size 9 to 14) (size 15 to 20)
#    0.000    1.333    3.333    2.500    2.333    4.000 
#   12.000    4.167    0.000    0.000    0.000    0.000 
#    0.000    0.000    0.000    0.000    0.000    0.000 
#
# Total GULP energy -66950.885445 kJ/mol
# GULP energy per Si atom -5579.240454 kJ/mol
# Density = 2.553549 g / cm^3
# Si number density = 25.593744 Si / 1000 Ang^3
#
#
#
# Elastic Constant Matrix: (Units=GPa)
#
#
# Indices 1 2 3 4 5 6 
#
# 1 67.5196 29.9092 54.2272 1.4441 27.7283 -16.7796
# 2 29.9092 102.3625 60.3372 -0.6379 21.0896 -22.0340
# 3 54.2272 60.3372 151.1525 13.9233 46.0407 -9.1959
# 4 1.4441 -0.6379 13.9233 62.4046 -14.8338 -1.0983
# 5 27.7283 21.0896 46.0407 -14.8338 56.9227 -5.5190
# 6 -16.7796 -22.0340 -9.1959 -1.0983 -5.5190 42.5956
#
#
#
# Elastic Compliance Matrix: (Units=1/GPa)
#
#
# Indices 1 2 3 4 5 6 
#
# 1 0.024297 -0.000737 -0.006087 -0.000536 -0.006093 0.007073
# 2 -0.000737 0.014390 -0.005362 0.001553 0.000359 0.006083
# 3 -0.006087 -0.005362 0.013458 -0.004759 -0.007500 -0.003361
# 4 -0.000536 0.001553 -0.004759 0.019191 0.008650 0.001181
# 5 -0.006093 0.000359 -0.007500 0.008650 0.028734 0.000112
# 6 0.007073 0.006083 -0.003361 0.001181 0.000112 0.028729
#
#
# Mechanical properties :
#
#
# Convention : Reuss Voigt Hill
#
# Bulk Modulus (GPa) = 36.00604 67.77577 51.89091
# Shear Modulus (GPa) = 30.78256 44.15529 37.46893
#
# Velocity S-wave (km/s) = 3.47181 4.15810 3.83036
# Velocity P-wave (km/s) = 5.49274 7.04216 6.31515
#
# Compressibility (1/GPa) = 0.02777312
#
# Stress axis : x y z
#
# Youngs Moduli (GPa) = 41.15737 69.49118 74.30309
#
# Poissons Ratio (x) = 0.05121 0.45229
# Poissons Ratio (y) = 0.03033 0.39844
# Poissons Ratio (z) = 0.25053 0.37264
#
# Static dielectric constant tensor:
#      x y z
#    x 2.188810 -0.011260 -0.082130 
#    y -0.011260 2.071040 0.053540 
#    z -0.082130 0.053540 2.143580 
# 
# From -- ./inp_files/187889.got.cif
#   From: 2010.05.17/outbox.cif.g08.bks.cpg/sg2_94_cif.got.tgz:187889.got - 2010.06.03 11:33:40.
