data_PCOD9012008
_publ_section_title
;
Structure prediction by ZEFSAII (Michael W. Deem and Ramdas Pophale) SiO2 
 PCOD9012008
Probable space group: P -1
;
_chemical_formula_sum "Si O2"
_cell_formula_units_Z 16
_cell_length_a 11.918392
_cell_length_b 13.773519
_cell_length_c 11.620393
_cell_angle_alpha 88.438425
_cell_angle_beta 96.797023
_cell_angle_gamma 158.356735
_cell_volume 680.552256
_symmetry_space_group_name_H-M "P -1"
_symmetry_group_IT_number 2
_symmetry_cell_setting 'triclinic'
loop_
_space_group_symop_operation_xyz
x,y,z
-x,-y,-z
loop_
_atom_site_type_symbol
_atom_site_label
_atom_site_fract_x
_atom_site_fract_y
_atom_site_fract_z
Si Si1 0.241842 0.060785 0.451138
Si Si2 0.850626 0.138885 0.982784
Si Si3 0.363546 0.530718 0.718210
Si Si4 0.956539 0.356235 0.802899
Si Si5 0.298930 0.748541 0.448179
Si Si6 0.366597 0.212492 0.714344
Si Si7 0.711230 0.337791 0.894949
Si Si8 0.183923 0.258043 0.159696
O O1 0.407858 0.256225 0.365373
O O2 0.488870 0.174625 0.509537
O O3 0.219754 0.095629 0.572232
O O4 0.929047 0.760996 0.368088
O O5 0.114087 0.428391 0.040893
O O6 0.019708 0.171906 0.028804
O O7 0.563128 0.915155 0.043174
O O8 0.765857 0.113648 0.847795
O O9 0.556057 0.616172 0.825496
O O10 0.246297 0.529992 0.776672
O O11 0.812753 0.302374 0.685104
O O12 0.942721 0.435913 0.886746
O O13 0.000000 0.500000 0.500000
O O14 0.500000 0.000000 0.500000
O O15 0.528694 0.239476 0.766304
O O16 0.629573 0.506420 0.756548
O O17 0.094820 0.003940 0.783795
#
# Coordination Sequence:
#
# PCOD9012008 Si02
#       8
#     2   2   2   2   2   2   2   2
#     4  12  23  42  61  99 121 167 210 256 309 371
#     4  10  24  42  67  92 125 159 213 258 307 368
#     4  12  27  39  64  91 131 166 213 248 307 375
#     4  12  24  42  68  94 126 169 198 257 323 367
#     4  12  24  42  62  94 134 163 198 253 310 384
#     4  10  21  40  68  86 127 166 204 260 315 350
#     4  10  22  41  64  97 123 158 206 262 312 371
#     4  10  23  44  60  94 124 165 212 260 298 366
#
# _framework density 23.510318999999999
#
# number of rings (size 3 to 8) (size 9 to 14) (size 15 to 20)
#    0.000    1.000    3.750    2.250    0.000    7.500 
#    0.000    0.000    0.000    6.000    0.000    0.000 
#    0.000    0.000    0.000    0.000    0.000    0.000 
#
# Total GULP energy -89306.399059 kJ/mol
# GULP energy per Si atom -5581.649941 kJ/mol
# Density = 2.345681 g / cm^3
# Si number density = 23.510319 Si / 1000 Ang^3
#
#
#
# Elastic Constant Matrix: (Units=GPa)
#
#
# Indices 1 2 3 4 5 6 
#
# 1 19.6842 -64.9863 -1.3511 25.3707 14.7676 18.8281
# 2 -64.9863 -3.9034 -8.9346 8.0402 -25.9781 -29.8948
# 3 -1.3511 -8.9346 86.4470 -6.0985 14.6244 -8.3925
# 4 25.3707 8.0402 -6.0985 18.1013 10.1072 23.9846
# 5 14.7676 -25.9781 14.6244 10.1072 30.6583 5.3642
# 6 18.8281 -29.8948 -8.3925 23.9846 5.3642 32.8987
#
#
#
# Elastic Compliance Matrix: (Units=1/GPa)
#
#
# Indices 1 2 3 4 5 6 
#
# 1 0.046267 -0.011439 0.002622 0.038536 -0.035702 -0.058478
# 2 -0.011439 0.003560 0.000731 0.020885 0.002278 -0.005629
# 3 0.002622 0.000731 0.013622 0.006097 -0.009095 -0.000324
# 4 0.038536 0.020885 0.006097 0.073590 -0.018920 -0.052086
# 5 -0.035702 0.002278 -0.009095 -0.018920 0.058032 0.024514
# 6 -0.058478 -0.005629 -0.000324 -0.052086 0.024514 0.092641
#
#
# Mechanical properties :
#
#
# Convention : Reuss Voigt Hill
#
# Bulk Modulus (GPa) = 21.15258 -5.36848 7.89205
# Shear Modulus (GPa) = 15.64247 28.16499 21.90373
#
# Velocity S-wave (km/s) = 2.58223 3.46495 3.05563
# Velocity P-wave (km/s) = 4.23169 3.70397 3.97659
#
# Compressibility (1/GPa) = 0.04727555
#
# Stress axis : x y z
#
# Youngs Moduli (GPa) = 21.61372 280.89122 73.41307
#
# Poissons Ratio (x) = 3.21318 -0.19250
# Poissons Ratio (y) = 0.24724 -0.05364
# Poissons Ratio (z) = -0.05667 -0.20523
#
# Static dielectric constant tensor:
#      x y z
#    x 1.921260 0.017130 -0.005690 
#    y 0.017130 1.828310 0.041360 
#    z -0.005690 0.041360 2.023210 
# 
# From -- ./inp_files/433947.got.cif
#   From: 2010.05.17/outbox.cif.g08.bks.cpg/sg2_217_cif.got.tgz:433947.got - 2010.06.03 11:33:40.
