data_PCOD9012662
_publ_section_title
;
Structure prediction by ZEFSAII (Michael W. Deem and Ramdas Pophale) SiO2 
 PCOD9012662
Probable space group: P -1
;
_chemical_formula_sum "Si O2"
_cell_formula_units_Z 16
_cell_length_a 9.375197
_cell_length_b 7.601906
_cell_length_c 12.240283
_cell_angle_alpha 129.017245
_cell_angle_beta 83.032653
_cell_angle_gamma 86.335597
_cell_volume 661.555384
_symmetry_space_group_name_H-M "P -1"
_symmetry_group_IT_number 2
_symmetry_cell_setting 'triclinic'
loop_
_space_group_symop_operation_xyz
x,y,z
-x,-y,-z
loop_
_atom_site_type_symbol
_atom_site_label
_atom_site_fract_x
_atom_site_fract_y
_atom_site_fract_z
Si Si1 0.545164 0.614815 0.153168
Si Si2 0.162233 0.458091 0.014291
Si Si3 0.137398 0.602139 0.385446
Si Si4 0.237376 0.885688 0.310042
Si Si5 0.620503 0.847987 0.845082
Si Si6 0.173242 0.412811 0.539926
Si Si7 0.609350 0.368350 0.277346
Si Si8 0.165523 0.016634 0.987394
O O1 0.413849 0.826930 0.267563
O O2 0.548063 0.464004 0.202899
O O3 0.500000 0.500000 0.000000
O O4 0.713068 0.627747 0.120813
O O5 0.186705 0.693045 0.162184
O O6 0.182640 0.250865 0.017622
O O7 0.000000 0.500000 0.000000
O O8 0.172562 0.827554 0.411137
O O9 0.268627 0.399486 0.256999
O O10 0.145909 0.591565 0.511949
O O11 0.973457 0.554776 0.358655
O O12 0.185343 0.152124 0.392767
O O13 0.511682 0.782766 0.736212
O O14 0.747008 0.000744 0.912216
O O15 0.500000 0.000000 0.000000
O O16 0.328632 0.436898 0.587140
O O17 0.755978 0.188461 0.174452
O O18 0.000000 0.000000 0.000000
#
# Coordination Sequence:
#
# PCOD9012662 Si02
#       8
#     2   2   2   2   2   2   2   2
#     4  10  22  44  68 100 142 181 232 302 374 424
#     4  11  24  41  70 108 140 183 240 305 375 436
#     4  11  23  49  69 102 146 192 250 294 364 433
#     4  11  24  49  70  99 152 190 236 308 364 432
#     4  10  21  40  73  99 139 180 229 310 368 414
#     4  11  28  44  74 102 143 207 246 290 359 448
#     4  11  23  43  68 101 139 183 245 295 355 443
#     4  11  22  40  69 101 139 182 231 299 368 426
#
# _framework density 24.185426
#
# number of rings (size 3 to 8) (size 9 to 14) (size 15 to 20)
#    0.000    1.250    2.500    2.625    1.750   10.000 
#    2.250    0.000    0.000    0.000    0.000    0.000 
#    0.000    0.000    0.000    0.000    0.000    0.000 
#
# Total GULP energy -89163.355514 kJ/mol
# GULP energy per Si atom -5572.709720 kJ/mol
# Density = 2.413038 g / cm^3
# Si number density = 24.185426 Si / 1000 Ang^3
#
#
#
# Elastic Constant Matrix: (Units=GPa)
#
#
# Indices 1 2 3 4 5 6 
#
# 1 190.3859 20.3464 51.8947 3.0787 -22.3063 2.5466
# 2 20.3464 96.8381 32.8787 -7.8505 -7.6143 14.9796
# 3 51.8947 32.8787 75.1976 10.0903 -3.5165 3.8592
# 4 3.0787 -7.8505 10.0903 35.5826 0.6966 -8.7818
# 5 -22.3063 -7.6143 -3.5165 0.6966 36.3984 5.0914
# 6 2.5466 14.9796 3.8592 -8.7818 5.0914 38.3771
#
#
#
# Elastic Compliance Matrix: (Units=1/GPa)
#
#
# Indices 1 2 3 4 5 6 
#
# 1 0.007017 0.000704 -0.005032 0.000749 0.004031 -0.000598
# 2 0.000704 0.013619 -0.006567 0.003688 0.003174 -0.004279
# 3 -0.005032 -0.006567 0.020481 -0.006884 -0.002286 -0.000434
# 4 0.000749 0.003688 -0.006884 0.032496 -0.001004 0.006772
# 5 0.004031 0.003174 -0.002286 -0.001004 0.031196 -0.005645
# 6 -0.000598 -0.004279 -0.000434 0.006772 -0.005645 0.030110
#
#
# Mechanical properties :
#
#
# Convention : Reuss Voigt Hill
#
# Bulk Modulus (GPa) = 51.74001 63.62901 57.68451
# Shear Modulus (GPa) = 30.64673 39.22508 34.93590
#
# Velocity S-wave (km/s) = 3.56358 4.03159 3.80478
# Velocity P-wave (km/s) = 6.19448 6.93091 6.57302
#
# Compressibility (1/GPa) = 0.01932740
#
# Stress axis : x y z
#
# Youngs Moduli (GPa) = 142.51379 73.42802 48.82545
#
# Poissons Ratio (x) = -0.05170 0.24567
# Poissons Ratio (y) = -0.10035 0.32065
# Poissons Ratio (z) = 0.71707 0.48222
#
# Static dielectric constant tensor:
#      x y z
#    x 1.971550 0.089480 -0.025890 
#    y 0.089480 2.120610 -0.132450 
#    z -0.025890 -0.132450 2.005050 
# 
# From -- ./inp_files/383537.got.cif
#   From: 2010.05.17/outbox.cif.g08.bks.cpg/sg2_192_cif.got.tgz:383537.got - 2010.06.03 11:33:40.
