data_PCOD9012943
_publ_section_title
;
Structure prediction by ZEFSAII (Michael W. Deem and Ramdas Pophale) SiO2 
 PCOD9012943
Probable space group: P -1
;
_chemical_formula_sum "Si O2"
_cell_formula_units_Z 16
_cell_length_a 24.181468
_cell_length_b 8.273404
_cell_length_c 13.464496
_cell_angle_alpha 46.882950
_cell_angle_beta 26.484757
_cell_angle_gamma 41.132441
_cell_volume 789.818329
_symmetry_space_group_name_H-M "P -1"
_symmetry_group_IT_number 2
_symmetry_cell_setting 'triclinic'
loop_
_space_group_symop_operation_xyz
x,y,z
-x,-y,-z
loop_
_atom_site_type_symbol
_atom_site_label
_atom_site_fract_x
_atom_site_fract_y
_atom_site_fract_z
Si Si1 0.892700 0.875025 0.999491
Si Si2 0.655247 0.446853 0.792764
Si Si3 0.635097 0.919951 0.747262
Si Si4 0.156373 0.422303 0.305962
Si Si5 0.863378 0.101028 0.743949
Si Si6 0.792564 0.464176 0.359219
Si Si7 0.696738 0.412995 0.144775
Si Si8 0.402691 0.565434 0.484897
O O1 0.819603 0.705961 0.221085
O O2 0.817480 0.140095 0.058937
O O3 0.054313 0.747769 0.819079
O O4 0.876278 0.912968 0.890163
O O5 0.650043 0.689644 0.753314
O O6 0.732210 0.205386 0.838621
O O7 0.738315 0.410967 0.572436
O O8 0.500000 0.500000 0.000000
O O9 0.767254 0.819672 0.649622
O O10 0.625978 0.150683 0.602538
O O11 0.500000 0.000000 0.000000
O O12 0.152755 0.653420 0.276240
O O13 0.000000 0.500000 0.500000
O O14 0.247164 0.406113 0.070147
O O15 0.000000 0.000000 0.500000
O O16 0.680369 0.492857 0.443669
O O17 0.568702 0.421840 0.280818
O O18 0.647373 0.476768 0.309524
#
# Coordination Sequence:
#
# PCOD9012943 Si02
#       8
#     2   2   2   2   2   2   2   2
#     4  10  23  43  64  90 129 160 208 260 302 373
#     4  11  24  41  64  95 125 163 207 253 310 369
#     4  11  22  41  64  93 126 160 206 257 305 369
#     4  10  23  39  64  92 123 161 203 253 310 366
#     4  10  21  41  62  91 124 159 202 256 306 365
#     4  11  24  42  65  93 123 167 208 254 314 367
#     4  10  23  45  61  91 128 162 209 259 305 368
#     4  11  24  42  66  91 126 166 207 256 312 367
#
# _framework density 20.257822000000001
#
# number of rings (size 3 to 8) (size 9 to 14) (size 15 to 20)
#    0.000    1.500    2.500    1.500    7.000    3.000 
#    6.750    0.000    0.000    0.000    0.000    0.000 
#    0.000    0.000    0.000    0.000    0.000    0.000 
#
# Total GULP energy -89396.430619 kJ/mol
# GULP energy per Si atom -5587.276914 kJ/mol
# Density = 2.021171 g / cm^3
# Si number density = 20.257822 Si / 1000 Ang^3
#
#
#
# Elastic Constant Matrix: (Units=GPa)
#
#
# Indices 1 2 3 4 5 6 
#
# 1 75.3293 -12.3465 22.6656 4.6750 -14.1390 -20.5560
# 2 -12.3465 28.4709 -18.8899 3.8637 -5.1517 -11.5637
# 3 22.6656 -18.8899 76.9234 -0.1955 -5.9407 -12.5779
# 4 4.6750 3.8637 -0.1955 29.5418 -8.8556 -0.7472
# 5 -14.1390 -5.1517 -5.9407 -8.8556 33.3714 7.0572
# 6 -20.5560 -11.5637 -12.5779 -0.7472 7.0572 30.0804
#
#
#
# Elastic Compliance Matrix: (Units=1/GPa)
#
#
# Indices 1 2 3 4 5 6 
#
# 1 0.026275 0.028185 0.004522 -0.004362 0.009118 0.028434
# 2 0.028185 0.094438 0.026288 -0.010512 0.015142 0.062744
# 3 0.004522 0.026288 0.021958 -0.002013 0.004868 0.021185
# 4 -0.004362 -0.010512 -0.002013 0.038123 0.008155 -0.008830
# 5 0.009118 0.015142 0.004868 0.008155 0.038063 0.005360
# 6 0.028434 0.062744 0.021185 -0.008830 0.005360 0.084177
#
#
# Mechanical properties :
#
#
# Convention : Reuss Voigt Hill
#
# Bulk Modulus (GPa) = 3.83641 18.17578 11.00610
# Shear Modulus (GPa) = 18.38690 31.21836 24.80263
#
# Velocity S-wave (km/s) = 3.01598 3.92988 3.50286
# Velocity P-wave (km/s) = 3.74514 5.43909 4.66957
#
# Compressibility (1/GPa) = 0.26066039
#
# Stress axis : x y z
#
# Youngs Moduli (GPa) = 38.05881 10.58895 45.54114
#
# Poissons Ratio (x) = -0.29845 -0.20592
# Poissons Ratio (y) = -1.07267 -1.19720
# Poissons Ratio (z) = -0.17209 -0.27837
#
# Static dielectric constant tensor:
#      x y z
#    x 1.731970 -0.021630 0.010680 
#    y -0.021630 1.711440 0.001240 
#    z 0.010680 0.001240 1.714840 
# 
# From -- ./inp_files/187484.got.cif
#   From: 2010.05.17/outbox.cif.g08.bks.cpg/sg2_94_cif.got.tgz:187484.got - 2010.06.03 11:33:40.
