data_PCOD9012797
_publ_section_title
;
Structure prediction by ZEFSAII (Michael W. Deem and Ramdas Pophale) SiO2 
 PCOD9012797
Probable space group: P -1
;
_chemical_formula_sum "Si O2"
_cell_formula_units_Z 16
_cell_length_a 15.955309
_cell_length_b 9.375293
_cell_length_c 7.745215
_cell_angle_alpha 130.186421
_cell_angle_beta 95.933692
_cell_angle_gamma 114.784165
_cell_volume 676.823231
_symmetry_space_group_name_H-M "P -1"
_symmetry_group_IT_number 2
_symmetry_cell_setting 'triclinic'
loop_
_space_group_symop_operation_xyz
x,y,z
-x,-y,-z
loop_
_atom_site_type_symbol
_atom_site_label
_atom_site_fract_x
_atom_site_fract_y
_atom_site_fract_z
Si Si1 0.159508 0.975191 0.700082
Si Si2 0.512894 0.216227 0.082362
Si Si3 0.818783 0.267341 0.788708
Si Si4 0.725693 0.606014 0.549147
Si Si5 0.099737 0.285686 0.081418
Si Si6 0.597599 0.587722 0.798861
Si Si7 0.438183 0.106721 0.598585
Si Si8 0.877011 0.166280 0.047555
O O1 0.139422 0.844804 0.412987
O O2 0.132302 0.805857 0.728866
O O3 0.100440 0.085521 0.827812
O O4 0.289232 0.204772 0.915920
O O5 0.643426 0.431820 0.245267
O O6 0.448747 0.297167 0.220777
O O7 0.448595 0.138881 0.829761
O O8 0.500000 0.000000 0.000000
O O9 0.851369 0.498336 0.874009
O O10 0.687695 0.075235 0.625293
O O11 0.870285 0.323758 0.033682
O O12 0.823089 0.621533 0.659616
O O13 0.638637 0.490276 0.597026
O O14 0.776039 0.883293 0.759782
O O15 0.983554 0.195499 0.049231
O O16 0.504056 0.365757 0.722506
O O17 0.500000 0.000000 0.500000
#
# Coordination Sequence:
#
# PCOD9012797 Si02
#       8
#     2   2   2   2   2   2   2   2
#     4  10  23  43  69  94 136 175 219 276 335 396
#     4  12  23  36  61  96 126 169 217 258 326 403
#     4  12  24  43  70  97 135 175 225 274 336 398
#     4  10  22  41  67  90 129 171 213 271 329 391
#     4  10  22  46  67  97 136 169 226 287 328 390
#     4  10  21  41  61  87 135 170 210 267 328 391
#     4  12  25  42  64  94 137 174 216 271 330 400
#     4  10  23  44  71  96 131 175 225 279 336 389
#
# _framework density 23.639849000000002
#
# number of rings (size 3 to 8) (size 9 to 14) (size 15 to 20)
#    0.000    1.500    1.250    6.375    1.750    4.000 
#    0.000    1.250    0.000    0.000    0.000    0.000 
#    0.000    0.000    0.000    0.000    0.000    0.000 
#
# Total GULP energy -89436.523397 kJ/mol
# GULP energy per Si atom -5589.782712 kJ/mol
# Density = 2.358604 g / cm^3
# Si number density = 23.639849 Si / 1000 Ang^3
#
#
#
# Elastic Constant Matrix: (Units=GPa)
#
#
# Indices 1 2 3 4 5 6 
#
# 1 105.2549 26.9175 15.9574 -1.4197 10.9342 1.3527
# 2 26.9175 104.0847 -4.6116 13.6403 4.0071 -0.0262
# 3 15.9574 -4.6116 13.0153 -3.8958 -2.0659 1.9751
# 4 -1.4197 13.6403 -3.8958 29.6968 -0.7674 0.6475
# 5 10.9342 4.0071 -2.0659 -0.7674 29.4065 2.0272
# 6 1.3527 -0.0262 1.9751 0.6475 2.0272 37.4620
#
#
#
# Elastic Compliance Matrix: (Units=1/GPa)
#
#
# Indices 1 2 3 4 5 6 
#
# 1 0.014314 -0.004339 -0.020257 -0.000160 -0.006220 0.000887
# 2 -0.004339 0.011660 0.008227 -0.004466 0.000501 -0.000219
# 3 -0.020257 0.008227 0.110965 0.010328 0.014897 -0.006098
# 4 -0.000160 -0.004466 0.010328 0.037164 0.002454 -0.001317
# 5 -0.006220 0.000501 0.014897 0.002454 0.037543 -0.002634
# 6 0.000887 -0.000219 -0.006098 -0.001317 -0.002634 0.027148
#
#
# Mechanical properties :
#
#
# Convention : Reuss Voigt Hill
#
# Bulk Modulus (GPa) = 9.59680 33.20903 21.40291
# Shear Modulus (GPa) = 16.32569 31.58584 23.95577
#
# Velocity S-wave (km/s) = 2.63078 3.65927 3.18679
# Velocity P-wave (km/s) = 3.64642 5.65085 4.75544
#
# Compressibility (1/GPa) = 0.10420141
#
# Stress axis : x y z
#
# Youngs Moduli (GPa) = 69.86214 85.76324 9.01185
#
# Poissons Ratio (x) = 0.37209 0.18255
# Poissons Ratio (y) = 0.30310 -0.07414
# Poissons Ratio (z) = 1.41518 -0.70554
#
# Static dielectric constant tensor:
#      x y z
#    x 2.144960 0.077550 -0.252200 
#    y 0.077550 1.936110 -0.157080 
#    z -0.252200 -0.157080 2.369760 
# 
# From -- ./inp_files/299750.got.cif
#   From: 2010.05.17/outbox.cif.g08.bks.cpg/sg2_150_cif.got.tgz:299750.got - 2010.06.03 11:33:40.
