data_PCOD9012944
_publ_section_title
;
Structure prediction by ZEFSAII (Michael W. Deem and Ramdas Pophale) SiO2 
 PCOD9012944
Probable space group: P -1
;
_chemical_formula_sum "Si O2"
_cell_formula_units_Z 13
_cell_length_a 7.138406
_cell_length_b 12.237149
_cell_length_c 7.313750
_cell_angle_alpha 80.324702
_cell_angle_beta 75.876728
_cell_angle_gamma 62.639890
_cell_volume 549.102700
_symmetry_space_group_name_H-M "P -1"
_symmetry_group_IT_number 2
_symmetry_cell_setting 'triclinic'
loop_
_space_group_symop_operation_xyz
x,y,z
-x,-y,-z
loop_
_atom_site_type_symbol
_atom_site_label
_atom_site_fract_x
_atom_site_fract_y
_atom_site_fract_z
Si Si1 0.877917 0.855934 0.982295
Si Si2 0.092224 0.580053 0.843841
Si Si3 0.727763 0.257401 0.859751
Si Si4 0.500000 0.500000 0.000000
Si Si5 0.041047 0.314862 0.538963
Si Si6 0.812077 0.960001 0.579225
Si Si7 0.444927 0.186225 0.672638
O O1 0.793828 0.943792 0.805304
O O2 0.975800 0.718181 0.913354
O O3 0.687857 0.866926 0.157088
O O4 0.077655 0.853863 0.052593
O O5 0.036654 0.594948 0.638991
O O6 0.340900 0.525469 0.851651
O O7 0.000000 0.500000 0.000000
O O8 0.601397 0.221786 0.747708
O O9 0.847310 0.336304 0.719701
O O10 0.562935 0.351084 0.015166
O O11 0.117156 0.172983 0.491579
O O12 0.256859 0.303468 0.587416
O O13 0.598079 0.077250 0.533621
O O14 0.000000 0.000000 0.500000
#
# Coordination Sequence:
#
# PCOD9012944 Si02
#       7
#     2   2   2   1   2   2   2
#     4   9  22  40  60  90 129 159 211 261 293 380
#     4  10  21  41  63  89 123 163 210 254 315 365
#     4  10  21  41  62  91 125 161 213 256 315 363
#     4  10  22  40  64  86 118 164 206 260 308 364
#     4  10  23  41  61  95 130 157 210 265 294 384
#     4  11  21  41  63  94 128 167 205 254 314 365
#     4  11  21  40  65  91 127 170 203 249 321 367
#
# _framework density 23.674989
#
# number of rings (size 3 to 8) (size 9 to 14) (size 15 to 20)
#    0.000    1.846    1.538    1.846    0.000    2.462 
#   11.077   10.769    0.000    0.000    0.000    0.000 
#    0.000    0.000    0.000    0.000    0.000    0.000 
#
# Total GULP energy -72414.981606 kJ/mol
# GULP energy per Si atom -5570.383200 kJ/mol
# Density = 2.362110 g / cm^3
# Si number density = 23.674989 Si / 1000 Ang^3
#
#
#
# Elastic Constant Matrix: (Units=GPa)
#
#
# Indices 1 2 3 4 5 6 
#
# 1 115.2650 14.8597 5.3431 -11.0586 31.1471 -12.4581
# 2 14.8597 70.7627 -16.0135 -11.8793 3.5153 -2.6379
# 3 5.3431 -16.0135 68.0861 -29.5479 17.2044 -3.8883
# 4 -11.0586 -11.8793 -29.5479 30.4178 -8.0118 11.0261
# 5 31.1471 3.5153 17.2044 -8.0118 34.1855 6.3657
# 6 -12.4581 -2.6379 -3.8883 11.0261 6.3657 27.5338
#
#
#
# Elastic Compliance Matrix: (Units=1/GPa)
#
#
# Indices 1 2 3 4 5 6 
#
# 1 0.014310 -0.001068 0.003333 -0.000295 -0.016689 0.010820
# 2 -0.001068 0.022729 0.017443 0.026879 -0.002731 -0.005975
# 3 0.003333 0.017443 0.042521 0.048283 -0.013610 -0.007005
# 4 -0.000295 0.026879 0.048283 0.102947 0.003432 -0.032759
# 5 -0.016689 -0.002731 -0.013610 0.003432 0.056911 -0.024267
# 6 0.010820 -0.005975 -0.007005 -0.032759 -0.024267 0.058382
#
#
# Mechanical properties :
#
#
# Convention : Reuss Voigt Hill
#
# Bulk Modulus (GPa) = 8.40507 29.16584 18.78545
# Shear Modulus (GPa) = 16.77622 35.08905 25.93263
#
# Velocity S-wave (km/s) = 2.66485 3.85400 3.31321
# Velocity P-wave (km/s) = 3.60922 5.67014 4.75273
#
# Compressibility (1/GPa) = 0.11897587
#
# Stress axis : x y z
#
# Youngs Moduli (GPa) = 69.88253 43.99761 23.51779
#
# Poissons Ratio (x) = 0.04698 -0.07839
# Poissons Ratio (y) = 0.07462 -0.41022
# Poissons Ratio (z) = -0.23292 -0.76745
#
# Static dielectric constant tensor:
#      x y z
#    x 1.938790 -0.013830 0.013990 
#    y -0.013830 1.937790 0.060280 
#    z 0.013990 0.060280 1.926100 
# 
# From -- ./inp_files/93590.got.cif
#   From: 2010.05.17/outbox.cif.g08.bks.cpg/sg2_47_cif.got.tgz:93590.got - 2010.06.03 11:33:40.
