data_PCOD9012842
_publ_section_title
;
Structure prediction by ZEFSAII (Michael W. Deem and Ramdas Pophale) SiO2 
 PCOD9012842
Probable space group: P -1
;
_chemical_formula_sum "Si O2"
_cell_formula_units_Z 14
_cell_length_a 8.510390
_cell_length_b 9.542259
_cell_length_c 10.704241
_cell_angle_alpha 110.194234
_cell_angle_beta 69.010178
_cell_angle_gamma 69.517053
_cell_volume 640.871337
_symmetry_space_group_name_H-M "P -1"
_symmetry_group_IT_number 2
_symmetry_cell_setting 'triclinic'
loop_
_space_group_symop_operation_xyz
x,y,z
-x,-y,-z
loop_
_atom_site_type_symbol
_atom_site_label
_atom_site_fract_x
_atom_site_fract_y
_atom_site_fract_z
Si Si1 0.292743 0.758419 0.776210
Si Si2 0.839628 0.193118 0.662394
Si Si3 0.906187 0.428658 0.160018
Si Si4 0.550965 0.841696 0.586712
Si Si5 0.989468 0.417771 0.607187
Si Si6 0.953753 0.134783 0.894974
Si Si7 0.553231 0.784632 0.281401
O O1 0.253253 0.600892 0.727496
O O2 0.492850 0.735837 0.662595
O O3 0.242964 0.817241 0.953840
O O4 0.118462 0.928151 0.801398
O O5 0.908870 0.190843 0.783223
O O6 0.619349 0.228814 0.737125
O O7 0.844242 0.346295 0.632977
O O8 0.000000 0.000000 0.500000
O O9 0.036456 0.457226 0.230179
O O10 0.767034 0.601469 0.168858
O O11 0.014376 0.253774 0.991260
O O12 0.787297 0.754422 0.488957
O O13 0.488735 0.831577 0.460320
O O14 0.448482 0.046047 0.715860
O O15 0.000000 0.500000 0.500000
#
# Coordination Sequence:
#
# PCOD9012842 Si02
#       7
#     2   2   2   2   2   2   2
#     4   9  20  40  67  83 126 163 206 251 297 378
#     4  12  24  41  66  89 127 162 204 266 303 369
#     4   9  22  42  61  91 124 165 206 250 307 375
#     4  10  21  41  61  93 121 168 204 249 314 368
#     4  11  26  38  63  99 124 159 211 259 306 355
#     4   9  22  41  65  91 120 169 208 242 324 362
#     4  10  22  37  63  92 125 161 210 250 309 366
#
# _framework density 21.845258000000001
#
# number of rings (size 3 to 8) (size 9 to 14) (size 15 to 20)
#    0.857    1.143    1.429    0.857   10.000    2.286 
#    0.000    0.714    0.000    0.000    0.000    0.000 
#    0.000    0.000    0.000    0.000    0.000    0.000 
#
# Total GULP energy -78151.710610 kJ/mol
# GULP energy per Si atom -5582.265044 kJ/mol
# Density = 2.179554 g / cm^3
# Si number density = 21.845258 Si / 1000 Ang^3
#
#
#
# Elastic Constant Matrix: (Units=GPa)
#
#
# Indices 1 2 3 4 5 6 
#
# 1 39.7244 7.4062 14.0871 1.9434 8.8465 17.0722
# 2 7.4062 98.1585 9.5989 -4.4299 16.7363 15.7528
# 3 14.0871 9.5989 50.7267 -8.0857 11.1607 -0.4985
# 4 1.9434 -4.4299 -8.0857 31.5258 6.1158 -2.1607
# 5 8.8465 16.7363 11.1607 6.1158 29.5677 -6.0987
# 6 17.0722 15.7528 -0.4985 -2.1607 -6.0987 37.5225
#
#
#
# Elastic Compliance Matrix: (Units=1/GPa)
#
#
# Indices 1 2 3 4 5 6 
#
# 1 0.041379 0.004001 -0.009637 -0.003114 -0.015165 -0.023279
# 2 0.004001 0.013426 -0.000868 0.002918 -0.010945 -0.009079
# 3 -0.009637 -0.000868 0.025564 0.008722 -0.007167 0.004426
# 4 -0.003114 0.002918 0.008722 0.036831 -0.011516 0.000556
# 5 -0.015165 -0.010945 -0.007167 -0.011516 0.053654 0.019457
# 6 -0.023279 -0.009079 0.004426 0.000556 0.019457 0.044307
#
#
# Mechanical properties :
#
#
# Convention : Reuss Voigt Hill
#
# Bulk Modulus (GPa) = 14.84497 27.86599 21.35548
# Shear Modulus (GPa) = 19.95039 30.22436 25.08737
#
# Velocity S-wave (km/s) = 3.02530 3.72367 3.39250
# Velocity P-wave (km/s) = 4.36045 5.59208 5.01422
#
# Compressibility (1/GPa) = 0.06736289
#
# Stress axis : x y z
#
# Youngs Moduli (GPa) = 24.16698 74.48467 39.11690
#
# Poissons Ratio (x) = -0.29804 0.37696
# Poissons Ratio (y) = -0.09670 0.03394
# Poissons Ratio (z) = 0.23289 0.06462
#
# Static dielectric constant tensor:
#      x y z
#    x 1.835570 0.030570 -0.042270 
#    y 0.030570 1.807860 -0.006600 
#    z -0.042270 -0.006600 1.821190 
# 
# From -- ./inp_files/331799.got.cif
#   From: 2010.05.17/outbox.cif.g08.bks.cpg/sg2_166_cif.got.tgz:331799.got - 2010.06.03 11:33:40.
