data_PCOD9012018
_publ_section_title
;
Structure prediction by ZEFSAII (Michael W. Deem and Ramdas Pophale) SiO2 
 PCOD9012018
Probable space group: P -1
;
_chemical_formula_sum "Si O2"
_cell_formula_units_Z 14
_cell_length_a 12.407541
_cell_length_b 12.953626
_cell_length_c 6.870250
_cell_angle_alpha 126.929815
_cell_angle_beta 129.474639
_cell_angle_gamma 60.010976
_cell_volume 668.794028
_symmetry_space_group_name_H-M "P -1"
_symmetry_group_IT_number 2
_symmetry_cell_setting 'triclinic'
loop_
_space_group_symop_operation_xyz
x,y,z
-x,-y,-z
loop_
_atom_site_type_symbol
_atom_site_label
_atom_site_fract_x
_atom_site_fract_y
_atom_site_fract_z
Si Si1 0.626044 0.566348 0.137205
Si Si2 0.583103 0.181510 0.842972
Si Si3 0.156598 0.836549 0.626883
Si Si4 0.837823 0.422280 0.900217
Si Si5 0.170066 0.100452 0.699210
Si Si6 0.832102 0.631886 0.784130
Si Si7 0.445205 0.988845 0.707167
O O1 0.537205 0.698679 0.090395
O O2 0.725597 0.606071 0.465506
O O3 0.500000 0.500000 0.000000
O O4 0.726730 0.474045 0.999141
O O5 0.550493 0.055301 0.775138
O O6 0.564524 0.150619 0.559154
O O7 0.738973 0.194790 0.105218
O O8 0.187991 0.712841 0.377632
O O9 0.990641 0.857114 0.513586
O O10 0.177046 0.968007 0.684757
O O11 0.822644 0.532615 0.839015
O O12 0.002954 0.397143 0.128132
O O13 0.284055 0.069651 0.623067
O O14 0.200921 0.219551 0.003174
O O15 0.500000 0.000000 0.000000
#
# Coordination Sequence:
#
# PCOD9012018 Si02
#       7
#     2   2   2   2   2   2   2
#     4  12  26  39  63  98 130 169 212 266 319 382
#     4  11  25  39  61  95 126 165 216 254 315 390
#     4  10  22  41  63  96 124 161 214 261 318 376
#     4  10  23  44  67  90 127 172 214 265 319 382
#     4  10  21  40  68  90 124 166 206 268 319 366
#     4  10  22  44  68  91 124 170 220 262 318 385
#     4  11  22  40  64  89 126 168 205 259 319 375
#
# _framework density 20.933201
#
# number of rings (size 3 to 8) (size 9 to 14) (size 15 to 20)
#    0.000    1.429    1.429    3.000    4.000    4.000 
#    0.000    1.429    0.000    0.000    0.000    0.000 
#    0.000    0.000    0.000    0.000    0.000    0.000 
#
# Total GULP energy -78218.068828 kJ/mol
# GULP energy per Si atom -5587.004916 kJ/mol
# Density = 2.088556 g / cm^3
# Si number density = 20.933201 Si / 1000 Ang^3
#
#
#
# Elastic Constant Matrix: (Units=GPa)
#
#
# Indices 1 2 3 4 5 6 
#
# 1 88.8910 20.7080 41.7597 9.9978 3.3801 -35.3283
# 2 20.7080 81.6060 52.8598 24.7814 10.5658 -12.8262
# 3 41.7597 52.8598 132.3579 -0.0167 22.3280 -18.0711
# 4 9.9978 24.7814 -0.0167 34.6606 -5.5980 -1.3684
# 5 3.3801 10.5658 22.3280 -5.5980 22.0066 1.4073
# 6 -35.3283 -12.8262 -18.0711 -1.3684 1.4073 36.6898
#
#
#
# Elastic Compliance Matrix: (Units=1/GPa)
#
#
# Indices 1 2 3 4 5 6 
#
# 1 0.021646 0.004165 -0.005226 -0.009030 -0.003567 0.019524
# 2 0.004165 0.025904 -0.008844 -0.021010 -0.009979 0.008310
# 3 -0.005226 -0.008844 0.013859 0.006632 -0.007276 -0.000772
# 4 -0.009030 -0.021010 0.006632 0.048918 0.017933 -0.011636
# 5 -0.003567 -0.009979 -0.007276 0.017933 0.063510 -0.012274
# 6 0.019524 0.008310 -0.000772 -0.011636 -0.012274 0.048617
#
#
# Mechanical properties :
#
#
# Convention : Reuss Voigt Hill
#
# Bulk Modulus (GPa) = 24.03952 59.27887 41.65919
# Shear Modulus (GPa) = 19.52134 31.17322 25.34728
#
# Velocity S-wave (km/s) = 3.05709 3.86317 3.48352
# Velocity P-wave (km/s) = 4.89591 6.94826 6.01034
#
# Compressibility (1/GPa) = 0.04159817
#
# Stress axis : x y z
#
# Youngs Moduli (GPa) = 46.19893 38.60392 72.15363
#
# Poissons Ratio (x) = -0.16080 0.37711
# Poissons Ratio (y) = -0.19243 0.63814
# Poissons Ratio (z) = 0.24146 0.34142
#
# Static dielectric constant tensor:
#      x y z
#    x 1.759070 0.029480 0.034310 
#    y 0.029480 1.814110 0.032750 
#    z 0.034310 0.032750 1.793460 
# 
# From -- ./inp_files/78838.got.cif
#   From: 2010.05.17/outbox.cif.g08.bks.cpg/sg2_40_cif.got.tgz:78838.got - 2010.06.03 11:33:40.
