data_PCOD9012557
_publ_section_title
;
Structure prediction by ZEFSAII (Michael W. Deem and Ramdas Pophale) SiO2 
 PCOD9012557
Probable space group: P -1
;
_chemical_formula_sum "Si O2"
_cell_formula_units_Z 14
_cell_length_a 9.340812
_cell_length_b 7.927135
_cell_length_c 17.466107
_cell_angle_alpha 144.203116
_cell_angle_beta 51.443620
_cell_angle_gamma 118.812535
_cell_volume 590.764029
_symmetry_space_group_name_H-M "P -1"
_symmetry_group_IT_number 2
_symmetry_cell_setting 'triclinic'
loop_
_space_group_symop_operation_xyz
x,y,z
-x,-y,-z
loop_
_atom_site_type_symbol
_atom_site_label
_atom_site_fract_x
_atom_site_fract_y
_atom_site_fract_z
Si Si1 0.952779 0.628305 0.144768
Si Si2 0.362506 0.761015 0.847845
Si Si3 0.398947 0.327668 0.126372
Si Si4 0.148296 0.740922 0.554070
Si Si5 0.322788 0.679227 0.092980
Si Si6 0.208948 0.931832 0.432333
Si Si7 0.388169 0.253565 0.368475
O O1 0.774045 0.487240 0.184181
O O2 0.127307 0.547869 0.110599
O O3 0.931725 0.974191 0.271779
O O4 0.000000 0.500000 0.000000
O O5 0.552243 0.691032 0.806836
O O6 0.411041 0.782250 0.749758
O O7 0.302791 0.067930 0.019927
O O8 0.287756 0.625903 0.259959
O O9 0.603637 0.308242 0.014165
O O10 0.210349 0.876406 0.502326
O O11 0.301710 0.564098 0.487345
O O12 0.000000 0.500000 0.500000
O O13 0.297920 0.991039 0.255340
O O14 0.500000 0.500000 0.000000
O O15 0.339166 0.170247 0.440906
O O16 0.000000 0.000000 0.500000
#
# Coordination Sequence:
#
# PCOD9012557 Si02
#       7
#     2   2   2   2   2   2   2
#     4  12  26  44  75 113 143 192 254 310 362 439
#     4  10  23  42  71 106 146 190 249 298 366 434
#     4  10  21  40  71 101 142 200 238 292 369 442
#     4  12  25  44  74 106 143 193 249 301 369 445
#     4  11  21  41  73 103 147 189 243 299 365 440
#     4  12  23  39  73 106 138 188 257 295 349 449
#     4  11  23  44  72 105 142 196 244 295 367 445
#
# _framework density 23.698126999999999
#
# number of rings (size 3 to 8) (size 9 to 14) (size 15 to 20)
#    0.000    0.857    7.143    0.000    2.000    0.571 
#    0.000    3.571    6.286    0.000    0.000    0.000 
#    0.000    0.000    0.000    0.000    0.000    0.000 
#
# Total GULP energy -78162.033027 kJ/mol
# GULP energy per Si atom -5583.002359 kJ/mol
# Density = 2.364419 g / cm^3
# Si number density = 23.698127 Si / 1000 Ang^3
#
#
#
# Elastic Constant Matrix: (Units=GPa)
#
#
# Indices 1 2 3 4 5 6 
#
# 1 72.2861 42.4837 37.4633 19.0506 -9.8471 -0.4325
# 2 42.4837 151.4564 42.0139 -2.6480 5.5329 -12.1977
# 3 37.4633 42.0139 152.1281 22.6618 -5.2745 -6.7137
# 4 19.0506 -2.6480 22.6618 36.8065 -11.2833 3.1685
# 5 -9.8471 5.5329 -5.2745 -11.2833 32.3909 5.8237
# 6 -0.4325 -12.1977 -6.7137 3.1685 5.8237 46.6377
#
#
#
# Elastic Compliance Matrix: (Units=1/GPa)
#
#
# Indices 1 2 3 4 5 6 
#
# 1 0.021239 -0.005761 -0.002290 -0.008513 0.004392 -0.001610
# 2 -0.005761 0.008998 -0.001601 0.003607 -0.002681 0.002159
# 3 -0.002290 -0.001601 0.008251 -0.004354 -0.000801 0.001144
# 4 -0.008513 0.003607 -0.004354 0.037864 0.009919 -0.003573
# 5 0.004392 -0.002681 -0.000801 0.009919 0.037084 -0.006080
# 6 -0.001610 0.002159 0.001144 -0.003573 -0.006080 0.023158
#
#
# Mechanical properties :
#
#
# Convention : Reuss Voigt Hill
#
# Bulk Modulus (GPa) = 52.13044 68.86581 60.49813
# Shear Modulus (GPa) = 30.80867 40.09433 35.45150
#
# Velocity S-wave (km/s) = 3.60953 4.11771 3.87196
# Velocity P-wave (km/s) = 6.27830 7.19236 6.75082
#
# Compressibility (1/GPa) = 0.01918265
#
# Stress axis : x y z
#
# Youngs Moduli (GPa) = 47.08382 111.14034 121.19989
#
# Poissons Ratio (x) = 0.64030 0.27753
# Poissons Ratio (y) = 0.27126 0.19407
# Poissons Ratio (z) = 0.10782 0.17796
#
# Static dielectric constant tensor:
#      x y z
#    x 1.954190 -0.097870 0.047200 
#    y -0.097870 2.024730 -0.055100 
#    z 0.047200 -0.055100 1.935140 
# 
# From -- ./inp_files/594297.got.cif
#   From: 2010.05.17/outbox.cif.g08.bks.cpg/sg2_298_cif.got.tgz:594297.got - 2010.06.03 11:33:40.
