data_PCOD9012440
_publ_section_title
;
Structure prediction by ZEFSAII (Michael W. Deem and Ramdas Pophale) SiO2 
 PCOD9012440
Probable space group: P -1
;
_chemical_formula_sum "Si O2"
_cell_formula_units_Z 15
_cell_length_a 13.550810
_cell_length_b 7.700464
_cell_length_c 8.842276
_cell_angle_alpha 57.574058
_cell_angle_beta 52.766328
_cell_angle_gamma 79.494594
_cell_volume 606.047251
_symmetry_space_group_name_H-M "P -1"
_symmetry_group_IT_number 2
_symmetry_cell_setting 'triclinic'
loop_
_space_group_symop_operation_xyz
x,y,z
-x,-y,-z
loop_
_atom_site_type_symbol
_atom_site_label
_atom_site_fract_x
_atom_site_fract_y
_atom_site_fract_z
Si Si1 0.119754 0.916340 0.864277
Si Si2 0.476997 0.692426 0.335445
Si Si3 0.051215 0.241975 0.278375
Si Si4 0.760730 0.807308 0.656478
Si Si5 0.772035 0.240682 0.554819
Si Si6 0.390067 0.943747 0.754454
Si Si7 0.000000 0.500000 0.000000
Si Si8 0.619701 0.408215 0.849500
O O1 0.081558 0.673156 0.965478
O O2 0.903089 0.681106 0.964818
O O3 0.160090 0.051998 0.612003
O O4 0.000000 0.000000 0.000000
O O5 0.500000 0.500000 0.500000
O O6 0.331029 0.711315 0.488449
O O7 0.477043 0.657020 0.170648
O O8 0.568490 0.897692 0.217829
O O9 0.152629 0.324860 0.272994
O O10 0.000000 0.000000 0.500000
O O11 0.249599 0.951703 0.824740
O O12 0.738448 0.987078 0.710199
O O13 0.647592 0.651601 0.752645
O O14 0.744864 0.351177 0.681690
O O15 0.918766 0.328138 0.334817
O O16 0.500000 0.000000 0.500000
O O17 0.396381 0.720354 0.922751
#
# Coordination Sequence:
#
# PCOD9012440 Si02
#       8
#     2   2   2   2   2   2   1   2
#     4  12  29  44  77 116 156 203 265 322 393 477
#     4  10  23  47  72 106 146 198 255 322 382 463
#     4  10  21  40  70 103 149 199 251 309 383 466
#     4  11  22  47  71 115 154 203 259 321 391 479
#     4   9  22  42  74 101 152 191 252 318 385 453
#     4  12  27  52  76 111 158 205 265 325 396 477
#     4  12  24  46  72 110 162 202 256 320 406 444
#     4  10  25  45  77 109 148 206 260 321 397 463
#
# _framework density 24.750544999999999
#
# number of rings (size 3 to 8) (size 9 to 14) (size 15 to 20)
#    0.800    0.533    2.667    2.800    3.733    0.533 
#    2.400    3.333    0.000    0.000    0.000    0.000 
#    0.000    0.000    0.000    0.000    0.000    0.000 
#
# Total GULP energy -83531.089440 kJ/mol
# GULP energy per Si atom -5568.739296 kJ/mol
# Density = 2.469421 g / cm^3
# Si number density = 24.750545 Si / 1000 Ang^3
#
#
#
# Elastic Constant Matrix: (Units=GPa)
#
#
# Indices 1 2 3 4 5 6 
#
# 1 220.5963 45.5815 47.7585 -5.1090 -7.8301 5.3497
# 2 45.5815 100.4271 31.1961 -4.0654 -14.8914 6.2844
# 3 47.7585 31.1961 87.1704 -2.1003 0.7986 -6.1302
# 4 -5.1090 -4.0654 -2.1003 46.6682 -8.9294 0.5084
# 5 -7.8301 -14.8914 0.7986 -8.9294 44.5967 -4.4044
# 6 5.3497 6.2844 -6.1302 0.5084 -4.4044 40.3609
#
#
#
# Elastic Compliance Matrix: (Units=1/GPa)
#
#
# Indices 1 2 3 4 5 6 
#
# 1 0.005438 -0.001559 -0.002472 0.000451 0.000489 -0.000806
# 2 -0.001559 0.012645 -0.003805 0.001573 0.004143 -0.001908
# 3 -0.002472 -0.003805 0.014401 -0.000318 -0.001738 0.002922
# 4 0.000451 0.001573 -0.000318 0.022581 0.005124 -0.000078
# 5 0.000489 0.004143 -0.001738 0.005124 0.025118 0.001703
# 6 -0.000806 -0.001908 0.002922 -0.000078 0.001703 0.025811
#
#
# Mechanical properties :
#
#
# Convention : Reuss Voigt Hill
#
# Bulk Modulus (GPa) = 59.48132 73.02957 66.25545
# Shear Modulus (GPa) = 39.28687 45.23567 42.26127
#
# Velocity S-wave (km/s) = 3.98843 4.27976 4.13666
# Velocity P-wave (km/s) = 6.73013 7.34793 7.04580
#
# Compressibility (1/GPa) = 0.01681200
#
# Stress axis : x y z
#
# Youngs Moduli (GPa) = 183.89995 79.08533 69.43783
#
# Poissons Ratio (x) = 0.12331 0.17162
# Poissons Ratio (y) = 0.28673 0.26422
# Poissons Ratio (z) = 0.45451 0.30093
#
# Static dielectric constant tensor:
#      x y z
#    x 2.013680 -0.172390 0.008410 
#    y -0.172390 2.168310 -0.325060 
#    z 0.008410 -0.325060 2.528390 
# 
# From -- ./inp_files/292033.got.cif
#   From: 2010.05.17/outbox.cif.g08.bks.cpg/sg2_147_cif.got.tgz:292033.got - 2010.06.03 11:33:40.
