data_PCOD9012270
_publ_section_title
;
Structure prediction by ZEFSAII (Michael W. Deem and Ramdas Pophale) SiO2 
 PCOD9012270
Probable space group: P -1
;
_chemical_formula_sum "Si O2"
_cell_formula_units_Z 16
_cell_length_a 28.154719
_cell_length_b 5.433182
_cell_length_c 9.127283
_cell_angle_alpha 84.929197
_cell_angle_beta 35.762639
_cell_angle_gamma 68.448610
_cell_volume 700.190870
_symmetry_space_group_name_H-M "P -1"
_symmetry_group_IT_number 2
_symmetry_cell_setting 'triclinic'
loop_
_space_group_symop_operation_xyz
x,y,z
-x,-y,-z
loop_
_atom_site_type_symbol
_atom_site_label
_atom_site_fract_x
_atom_site_fract_y
_atom_site_fract_z
Si Si1 0.294478 0.821168 0.803599
Si Si2 0.134256 0.872415 0.554790
Si Si3 0.484109 0.582393 0.207497
Si Si4 0.940420 0.410059 0.053182
Si Si5 0.732502 0.929674 0.840566
Si Si6 0.547694 0.960638 0.221075
Si Si7 0.099011 0.390108 0.174995
Si Si8 0.814977 0.410085 0.854772
O O1 0.373163 0.795064 0.500347
O O2 0.284091 0.540135 0.843163
O O3 0.321964 0.851072 0.900046
O O4 0.191750 0.085349 0.999355
O O5 0.155553 0.821235 0.332204
O O6 0.209571 0.966324 0.409080
O O7 0.137675 0.625235 0.661432
O O8 0.023427 0.098504 0.813215
O O9 0.510533 0.282002 0.235702
O O10 0.531023 0.748766 0.165543
O O11 0.500000 0.500000 0.000000
O O12 0.908322 0.602675 0.980441
O O13 0.000000 0.500000 0.000000
O O14 0.809993 0.659759 0.753781
O O15 0.660000 0.845073 0.960742
O O16 0.500000 0.000000 0.500000
O O17 0.123192 0.628918 0.158837
O O18 0.000000 0.500000 0.500000
#
# Coordination Sequence:
#
# PCOD9012270 Si02
#       8
#     2   2   2   2   2   2   2   2
#     4  10  23  42  70  99 141 183 236 300 367 441
#     4  10  22  39  64  93 140 176 226 304 355 423
#     4  12  28  51  72 112 158 200 244 321 388 448
#     4  11  23  42  61  95 138 182 230 288 361 439
#     4  10  21  40  69 105 129 179 245 304 352 426
#     4  12  25  47  83 108 144 202 266 310 377 455
#     4  11  23  41  68 101 132 185 233 291 364 438
#     4  10  21  41  66  95 136 172 234 296 351 431
#
# _framework density 22.850914
#
# number of rings (size 3 to 8) (size 9 to 14) (size 15 to 20)
#    0.000    1.250    1.250    5.250    5.250    4.000 
#    6.750    0.000    0.000    0.000    0.000    0.000 
#    0.000    0.000    0.000    0.000    0.000    0.000 
#
# Total GULP energy -89110.092500 kJ/mol
# GULP energy per Si atom -5569.380781 kJ/mol
# Density = 2.279890 g / cm^3
# Si number density = 22.850914 Si / 1000 Ang^3
#
#
#
# Elastic Constant Matrix: (Units=GPa)
#
#
# Indices 1 2 3 4 5 6 
#
# 1 146.1757 50.8718 67.9273 -29.3055 2.2479 19.5284
# 2 50.8718 87.7900 33.5620 -25.2433 3.2626 2.4475
# 3 67.9273 33.5620 138.4562 -31.0325 -9.4441 8.2315
# 4 -29.3055 -25.2433 -31.0325 38.4911 1.3172 -6.0521
# 5 2.2479 3.2626 -9.4441 1.3172 32.7686 -8.2745
# 6 19.5284 2.4475 8.2315 -6.0521 -8.2745 45.1607
#
#
#
# Elastic Compliance Matrix: (Units=1/GPa)
#
#
# Indices 1 2 3 4 5 6 
#
# 1 0.011090 -0.004138 -0.003920 0.002019 -0.002585 -0.004060
# 2 -0.004138 0.016063 -0.000401 0.007379 -0.001287 0.001745
# 3 -0.003920 -0.000401 0.010614 0.005370 0.003438 0.001132
# 4 0.002019 0.007379 0.005370 0.037115 -0.000137 0.002697
# 5 -0.002585 -0.001287 0.003438 -0.000137 0.033506 0.006682
# 6 -0.004060 0.001745 0.001132 0.002697 0.006682 0.025183
#
#
# Mechanical properties :
#
#
# Convention : Reuss Voigt Hill
#
# Bulk Modulus (GPa) = 47.96603 75.23824 61.60214
# Shear Modulus (GPa) = 31.75867 37.95480 34.85673
#
# Velocity S-wave (km/s) = 3.73207 4.07993 3.90987
# Velocity P-wave (km/s) = 6.29346 7.42910 6.88474
#
# Compressibility (1/GPa) = 0.02084809
#
# Stress axis : x y z
#
# Youngs Moduli (GPa) = 90.17463 62.25551 94.21819
#
# Poissons Ratio (x) = 0.25759 0.36934
# Poissons Ratio (y) = 0.37311 0.03782
# Poissons Ratio (z) = 0.35348 0.02499
#
# Static dielectric constant tensor:
#      x y z
#    x 1.978820 0.069530 -0.259970 
#    y 0.069530 2.136650 0.053920 
#    z -0.259970 0.053920 3.003060 
# 
# From -- ./inp_files/358213.got.cif
#   From: 2010.05.17/outbox.cif.g08.bks.cpg/sg2_180_cif.got.tgz:358213.got - 2010.06.03 11:33:40.
