data_PCOD9012594
_publ_section_title
;
Structure prediction by ZEFSAII (Michael W. Deem and Ramdas Pophale) SiO2 
 PCOD9012594
Probable space group: P -1
;
_chemical_formula_sum "Si O2"
_cell_formula_units_Z 16
_cell_length_a 18.518131
_cell_length_b 8.987233
_cell_length_c 11.935955
_cell_angle_alpha 38.900676
_cell_angle_beta 36.091465
_cell_angle_gamma 39.553801
_cell_volume 678.417126
_symmetry_space_group_name_H-M "P -1"
_symmetry_group_IT_number 2
_symmetry_cell_setting 'triclinic'
loop_
_space_group_symop_operation_xyz
x,y,z
-x,-y,-z
loop_
_atom_site_type_symbol
_atom_site_label
_atom_site_fract_x
_atom_site_fract_y
_atom_site_fract_z
Si Si1 0.661835 0.775049 0.691700
Si Si2 0.895138 0.691023 0.605579
Si Si3 0.974375 0.933908 0.773134
Si Si4 0.369201 0.262055 0.500801
Si Si5 0.187673 0.367358 0.882927
Si Si6 0.555129 0.711256 0.266576
Si Si7 0.417207 0.517858 0.856388
Si Si8 0.868490 0.195597 0.987826
O O1 0.770490 0.831293 0.597806
O O2 0.693445 0.707569 0.562194
O O3 0.529170 0.024536 0.722859
O O4 0.635162 0.549830 0.922154
O O5 0.867238 0.481915 0.838303
O O6 0.000000 0.500000 0.500000
O O7 0.951976 0.888787 0.471724
O O8 0.080750 0.656933 0.839788
O O9 0.899352 0.093196 0.882140
O O10 0.872877 0.843481 0.886033
O O11 0.260868 0.292473 0.713949
O O12 0.444110 0.454319 0.315446
O O13 0.500000 0.000000 0.500000
O O14 0.297501 0.367140 0.830680
O O15 0.500000 0.500000 0.500000
O O16 0.552433 0.709385 0.137618
O O17 0.288281 0.755706 0.826831
O O18 0.000000 0.000000 0.000000
#
# Coordination Sequence:
#
# PCOD9012594 Si02
#       8
#     2   2   2   2   2   2   2   2
#     4  11  24  42  68  98 140 175 227 283 349 413
#     4   9  21  41  66  94 130 179 230 282 344 409
#     4  10  22  41  65  94 140 182 227 288 350 409
#     4  12  23  42  66 103 137 180 229 284 344 413
#     4  11  23  39  68 101 141 184 231 289 345 414
#     4  12  22  41  67  99 136 178 228 281 344 411
#     4  11  24  42  68 100 138 179 224 285 354 412
#     4  10  21  40  71  97 131 179 240 287 342 422
#
# _framework density 23.584311
#
# number of rings (size 3 to 8) (size 9 to 14) (size 15 to 20)
#    0.000    1.250    2.500    3.000    0.000    5.000 
#    2.250    1.250    0.000   11.250    0.000    0.000 
#    0.000    0.000    0.000    0.000    0.000    0.000 
#
# Total GULP energy -89377.030233 kJ/mol
# GULP energy per Si atom -5586.064390 kJ/mol
# Density = 2.353063 g / cm^3
# Si number density = 23.584311 Si / 1000 Ang^3
#
#
#
# Elastic Constant Matrix: (Units=GPa)
#
#
# Indices 1 2 3 4 5 6 
#
# 1 100.4263 15.0890 60.5952 -16.1742 -18.0590 8.3406
# 2 15.0890 78.8946 20.2771 0.0913 -3.9589 4.9217
# 3 60.5952 20.2771 94.9476 -10.6450 -27.5195 8.4935
# 4 -16.1742 0.0913 -10.6450 37.3606 11.0697 -2.3253
# 5 -18.0590 -3.9589 -27.5195 11.0697 49.5775 6.0041
# 6 8.3406 4.9217 8.4935 -2.3253 6.0041 32.8118
#
#
#
# Elastic Compliance Matrix: (Units=1/GPa)
#
#
# Indices 1 2 3 4 5 6 
#
# 1 0.016946 -0.000570 -0.010197 0.004473 -0.000387 -0.001195
# 2 -0.000570 0.013518 -0.002578 -0.001041 -0.000174 -0.001257
# 3 -0.010197 -0.002578 0.020097 -0.001281 0.007978 -0.003774
# 4 0.004473 -0.001041 -0.001281 0.030361 -0.006265 0.002649
# 5 -0.000387 -0.000174 0.007978 -0.006265 0.026724 -0.007275
# 6 -0.001195 -0.001257 -0.003774 0.002649 -0.007275 0.033465
#
#
# Mechanical properties :
#
#
# Convention : Reuss Voigt Hill
#
# Bulk Modulus (GPa) = 41.89278 51.79900 46.84589
# Shear Modulus (GPa) = 28.44853 35.83711 32.14282
#
# Velocity S-wave (km/s) = 3.47688 3.90235 3.69574
# Velocity P-wave (km/s) = 5.82407 6.50503 6.17394
#
# Compressibility (1/GPa) = 0.02387046
#
# Stress axis : x y z
#
# Youngs Moduli (GPa) = 59.01205 73.97770 49.75990
#
# Poissons Ratio (x) = 0.04219 0.50739
# Poissons Ratio (y) = 0.03366 0.12826
# Poissons Ratio (z) = 0.60173 0.19069
#
# Static dielectric constant tensor:
#      x y z
#    x 1.884250 0.005460 -0.019070 
#    y 0.005460 1.837160 -0.016580 
#    z -0.019070 -0.016580 2.043180 
# 
# From -- ./inp_files/461784.got.cif
#   From: 2010.05.17/outbox.cif.g08.bks.cpg/sg2_231_cif.got.tgz:461784.got - 2010.06.03 11:33:40.
