data_PCOD9012929
_publ_section_title
;
Structure prediction by ZEFSAII (Michael W. Deem and Ramdas Pophale) SiO2 
 PCOD9012929
Probable space group: P -1
;
_chemical_formula_sum "Si O2"
_cell_formula_units_Z 16
_cell_length_a 15.419241
_cell_length_b 5.321754
_cell_length_c 12.323914
_cell_angle_alpha 66.841766
_cell_angle_beta 65.343199
_cell_angle_gamma 91.831397
_cell_volume 821.426751
_symmetry_space_group_name_H-M "P -1"
_symmetry_group_IT_number 2
_symmetry_cell_setting 'triclinic'
loop_
_space_group_symop_operation_xyz
x,y,z
-x,-y,-z
loop_
_atom_site_type_symbol
_atom_site_label
_atom_site_fract_x
_atom_site_fract_y
_atom_site_fract_z
Si Si1 0.154798 0.137575 0.088466
Si Si2 0.866435 0.938033 0.646586
Si Si3 0.779072 0.193849 0.081731
Si Si4 0.382410 0.654815 0.537176
Si Si5 0.053834 0.763433 0.851464
Si Si6 0.417298 0.044902 0.661419
Si Si7 0.840249 0.374070 0.398691
Si Si8 0.933303 0.712470 0.471719
O O1 0.182428 0.090956 0.206812
O O2 0.037029 0.089305 0.140632
O O3 0.198723 0.467451 0.984183
O O4 0.191601 0.927350 0.025372
O O5 0.855682 0.674626 0.616567
O O6 0.843652 0.158937 0.533435
O O7 0.982101 0.003430 0.609889
O O8 0.849263 0.098493 0.152286
O O9 0.665371 0.066373 0.187973
O O10 0.392960 0.334138 0.580195
O O11 0.467930 0.848962 0.386241
O O12 0.271571 0.660410 0.569148
O O13 0.405310 0.799363 0.619260
O O14 0.095119 0.666519 0.732606
O O15 0.000000 0.500000 0.000000
O O16 0.882960 0.665512 0.390170
O O17 0.000000 0.500000 0.500000
#
# Coordination Sequence:
#
# PCOD9012929 Si02
#       8
#     2   2   2   2   2   2   2   2
#     4  11  24  38  59  84 123 167 204 236 294 357
#     4  10  22  37  54  85 117 165 212 246 289 348
#     4  11  23  39  61  86 122 163 196 250 297 368
#     4  10  22  38  65  92 119 154 196 258 303 363
#     4  10  22  36  54  90 124 160 197 239 299 366
#     4  10  21  41  62  90 122 153 199 248 315 358
#     4  11  22  37  61  88 123 160 199 257 299 356
#     4   9  19  33  55  78 115 158 201 250 285 337
#
# _framework density 19.478306
#
# number of rings (size 3 to 8) (size 9 to 14) (size 15 to 20)
#    0.000    1.750    1.250    3.375   10.500    1.000 
#    0.000    0.000    0.000    1.500    0.000    0.000 
#    0.000    0.000    0.000    0.000    0.000    0.000 
#
# Total GULP energy -89086.627365 kJ/mol
# GULP energy per Si atom -5567.914210 kJ/mol
# Density = 1.943397 g / cm^3
# Si number density = 19.478306 Si / 1000 Ang^3
#
#
#
# Elastic Constant Matrix: (Units=GPa)
#
#
# Indices 1 2 3 4 5 6 
#
# 1 52.7297 2.6416 31.9587 -3.2760 -16.3433 6.0664
# 2 2.6416 54.0700 2.3815 12.5348 -2.5732 9.3622
# 3 31.9587 2.3815 85.5883 12.8595 -5.4628 13.1647
# 4 -3.2760 12.5348 12.8595 35.9828 3.9421 0.9036
# 5 -16.3433 -2.5732 -5.4628 3.9421 37.6859 -2.7581
# 6 6.0664 9.3622 13.1647 0.9036 -2.7581 23.3923
#
#
#
# Elastic Compliance Matrix: (Units=1/GPa)
#
#
# Indices 1 2 3 4 5 6 
#
# 1 0.029465 -0.001985 -0.011301 0.006263 0.010385 0.000496
# 2 -0.001985 0.022249 0.003021 -0.008916 0.001327 -0.009589
# 3 -0.011301 0.003021 0.018232 -0.008187 -0.001813 -0.008436
# 4 0.006263 -0.008916 -0.008187 0.034524 -0.002329 0.004943
# 5 0.010385 0.001327 -0.001813 -0.002329 0.031225 0.001568
# 6 0.000496 -0.009589 -0.008436 0.004943 0.001568 0.051200
#
#
# Mechanical properties :
#
#
# Convention : Reuss Voigt Hill
#
# Bulk Modulus (GPa) = 20.23681 29.59460 24.91570
# Shear Modulus (GPa) = 22.33183 29.77262 26.05223
#
# Velocity S-wave (km/s) = 3.38967 3.91385 3.66115
# Velocity P-wave (km/s) = 5.07265 5.97083 5.53998
#
# Compressibility (1/GPa) = 0.04941490
#
# Stress axis : x y z
#
# Youngs Moduli (GPa) = 33.93909 44.94606 54.84982
#
# Poissons Ratio (x) = 0.08923 0.61987
# Poissons Ratio (y) = 0.06738 -0.16573
# Poissons Ratio (z) = 0.38355 -0.13580
#
# Static dielectric constant tensor:
#      x y z
#    x 1.679790 -0.027830 0.020720 
#    y -0.027830 1.905010 -0.041090 
#    z 0.020720 -0.041090 1.776150 
# 
# From -- ./inp_files/95405.got.cif
#   From: 2010.05.17/outbox.cif.g08.bks.cpg/sg2_48_cif.got.tgz:95405.got - 2010.06.03 11:33:40.
