data_PCOD9012800
_publ_section_title
;
Structure prediction by ZEFSAII (Michael W. Deem and Ramdas Pophale) SiO2 
 PCOD9012800
Probable space group: P -1
;
_chemical_formula_sum "Si O2"
_cell_formula_units_Z 14
_cell_length_a 25.687504
_cell_length_b 17.702656
_cell_length_c 6.974658
_cell_angle_alpha 122.590244
_cell_angle_beta 47.870568
_cell_angle_gamma 161.938285
_cell_volume 658.027809
_symmetry_space_group_name_H-M "P -1"
_symmetry_group_IT_number 2
_symmetry_cell_setting 'triclinic'
loop_
_space_group_symop_operation_xyz
x,y,z
-x,-y,-z
loop_
_atom_site_type_symbol
_atom_site_label
_atom_site_fract_x
_atom_site_fract_y
_atom_site_fract_z
Si Si1 0.213165 0.868833 0.936479
Si Si2 0.394126 0.682597 0.667028
Si Si3 0.198997 0.061084 0.168195
Si Si4 0.432217 0.440100 0.798698
Si Si5 0.890471 0.485887 0.903556
Si Si6 0.179726 0.288161 0.391465
Si Si7 0.709848 0.079674 0.742008
O O1 0.399504 0.045141 0.598985
O O2 0.236719 0.002814 0.021757
O O3 0.984280 0.574322 0.003996
O O4 0.254397 0.902617 0.102665
O O5 0.301596 0.478706 0.530327
O O6 0.488793 0.787632 0.789961
O O7 0.225977 0.559756 0.889551
O O8 0.357074 0.307498 0.248337
O O9 0.264191 0.169219 0.939428
O O10 0.961405 0.800174 0.457108
O O11 0.500000 0.500000 0.500000
O O12 0.331479 0.417427 0.050472
O O13 0.741352 0.225007 0.849514
O O14 0.099131 0.734906 0.595987
O O15 0.000000 0.000000 0.500000
#
# Coordination Sequence:
#
# PCOD9012800 Si02
#       7
#     2   2   2   2   2   2   2
#     4  11  22  40  63  96 128 165 204 260 320 378
#     4  11  22  41  65  92 128 165 213 263 308 376
#     4  10  21  41  61  88 128 159 205 259 316 370
#     4  10  22  40  64  89 120 162 213 263 311 367
#     4  10  22  43  66  92 128 167 208 266 313 372
#     4  10  21  42  63  88 126 167 205 257 314 364
#     4  10  24  41  65  96 126 164 214 258 320 378
#
# _framework density 21.275697000000001
#
# number of rings (size 3 to 8) (size 9 to 14) (size 15 to 20)
#    0.000    1.714    2.857    0.857    0.000    4.571 
#    0.000    0.000    0.000    0.000    0.000    0.000 
#    0.000    0.000    0.000    0.000    0.000    0.000 
#
# Total GULP energy -78146.421673 kJ/mol
# GULP energy per Si atom -5581.887262 kJ/mol
# Density = 2.122727 g / cm^3
# Si number density = 21.275697 Si / 1000 Ang^3
#
#
#
# Elastic Constant Matrix: (Units=GPa)
#
#
# Indices 1 2 3 4 5 6 
#
# 1 84.1410 24.2163 65.1963 10.1014 -10.9579 11.3706
# 2 24.2163 121.1910 39.9730 19.1598 -8.3449 14.2579
# 3 65.1963 39.9730 119.7695 21.4862 -6.6718 17.3557
# 4 10.1014 19.1598 21.4862 25.9148 6.3820 -2.6477
# 5 -10.9579 -8.3449 -6.6718 6.3820 36.4384 9.6381
# 6 11.3706 14.2579 17.3557 -2.6477 9.6381 35.6159
#
#
#
# Elastic Compliance Matrix: (Units=1/GPa)
#
#
# Indices 1 2 3 4 5 6 
#
# 1 0.021488 0.000260 -0.010716 -0.001436 0.005709 -0.003394
# 2 0.000260 0.011199 -0.000854 -0.009791 0.005915 -0.006478
# 3 -0.010716 -0.000854 0.017682 -0.011416 0.003583 -0.006672
# 4 -0.001436 -0.009791 -0.011416 0.063158 -0.021216 0.020377
# 5 0.005709 0.005915 0.003583 -0.021216 0.039717 -0.018262
# 6 -0.003394 -0.006478 -0.006672 0.020377 -0.018262 0.041462
#
#
# Mechanical properties :
#
#
# Convention : Reuss Voigt Hill
#
# Bulk Modulus (GPa) = 36.03907 64.87476 50.45692
# Shear Modulus (GPa) = 22.06759 32.64156 27.35457
#
# Velocity S-wave (km/s) = 3.22409 3.92116 3.58958
# Velocity P-wave (km/s) = 5.55297 7.14558 6.39901
#
# Compressibility (1/GPa) = 0.02774766
#
# Stress axis : x y z
#
# Youngs Moduli (GPa) = 46.53779 89.29654 56.55364
#
# Poissons Ratio (x) = -0.02324 0.60605
# Poissons Ratio (y) = -0.01211 0.04832
# Poissons Ratio (z) = 0.49872 0.07630
#
# Static dielectric constant tensor:
#      x y z
#    x 1.799400 0.003760 -0.002480 
#    y 0.003760 1.849140 -0.009500 
#    z -0.002480 -0.009500 1.781030 
# 
# From -- ./inp_files/124574.got.cif
#   From: 2010.05.17/outbox.cif.g08.bks.cpg/sg2_63_cif.got.tgz:124574.got - 2010.06.03 11:33:40.
