data_PCOD9012985
_publ_section_title
;
Structure prediction by ZEFSAII (Michael W. Deem and Ramdas Pophale) SiO2 
 PCOD9012985
Probable space group: P -1
;
_chemical_formula_sum "Si O2"
_cell_formula_units_Z 16
_cell_length_a 17.111543
_cell_length_b 22.535455
_cell_length_c 5.698969
_cell_angle_alpha 68.717163
_cell_angle_beta 97.580832
_cell_angle_gamma 155.595487
_cell_volume 724.795986
_symmetry_space_group_name_H-M "P -1"
_symmetry_group_IT_number 2
_symmetry_cell_setting 'triclinic'
loop_
_space_group_symop_operation_xyz
x,y,z
-x,-y,-z
loop_
_atom_site_type_symbol
_atom_site_label
_atom_site_fract_x
_atom_site_fract_y
_atom_site_fract_z
Si Si1 0.026152 0.981626 0.283605
Si Si2 0.624025 0.222494 0.188164
Si Si3 0.800160 0.172585 0.430283
Si Si4 0.892202 0.597373 0.388873
Si Si5 0.503943 0.733262 0.939170
Si Si6 0.622130 0.579528 0.684518
Si Si7 0.777848 0.570908 0.975709
Si Si8 0.989689 0.430451 0.856316
O O1 0.835462 0.785081 0.483495
O O2 0.000000 0.000000 0.500000
O O3 0.263810 0.126600 0.152808
O O4 0.000000 0.000000 0.000000
O O5 0.800209 0.373504 0.243061
O O6 0.445581 0.032828 0.430643
O O7 0.483947 0.181692 0.166184
O O8 0.785476 0.324665 0.888206
O O9 0.871638 0.214221 0.664923
O O10 0.974919 0.259913 0.241437
O O11 0.883377 0.305441 0.199916
O O12 0.689930 0.429762 0.720419
O O13 0.940667 0.569025 0.305412
O O14 0.813953 0.603393 0.220009
O O15 0.387436 0.614463 0.834827
O O16 0.500000 0.500000 0.500000
O O17 0.687686 0.555852 0.790054
O O18 0.500000 0.500000 0.000000
#
# Coordination Sequence:
#
# PCOD9012985 Si02
#       8
#     2   2   2   2   2   2   2   2
#     4  12  28  49  74 110 144 183 241 301 359 439
#     4  11  21  41  65  95 134 182 228 291 355 425
#     4  10  21  41  62  93 131 177 233 287 349 417
#     4  10  21  42  66  93 137 183 223 296 344 420
#     4  11  23  43  69  97 138 176 230 289 358 417
#     4  12  27  47  73 105 141 190 232 295 373 431
#     4  10  22  43  67  94 137 176 231 286 357 420
#     4  10  22  42  61  95 138 177 233 289 353 416
#
# _framework density 22.075175999999999
#
# number of rings (size 3 to 8) (size 9 to 14) (size 15 to 20)
#    0.000    1.250    3.750    3.375    7.000    1.000 
#    6.750    0.000    0.000    0.000    0.000    0.000 
#    0.000    0.000    0.000    0.000    0.000    0.000 
#
# Total GULP energy -89079.278767 kJ/mol
# GULP energy per Si atom -5567.454923 kJ/mol
# Density = 2.202493 g / cm^3
# Si number density = 22.075176 Si / 1000 Ang^3
#
#
#
# Elastic Constant Matrix: (Units=GPa)
#
#
# Indices 1 2 3 4 5 6 
#
# 1 108.7495 36.7995 34.4024 -1.8064 -4.6556 12.7983
# 2 36.7995 126.0192 52.3670 -25.1684 -2.8576 -0.3515
# 3 34.4024 52.3670 53.1356 -8.1583 1.8665 3.3847
# 4 -1.8064 -25.1684 -8.1583 45.1338 5.6223 1.6212
# 5 -4.6556 -2.8576 1.8665 5.6223 43.2160 -9.4118
# 6 12.7983 -0.3515 3.3847 1.6212 -9.4118 38.5571
#
#
#
# Elastic Compliance Matrix: (Units=1/GPa)
#
#
# Indices 1 2 3 4 5 6 
#
# 1 0.012095 -0.000853 -0.007026 -0.001280 0.001042 -0.003097
# 2 -0.000853 0.014926 -0.013430 0.005667 0.001092 0.001626
# 3 -0.007026 -0.013430 0.036753 -0.000617 -0.003557 -0.001859
# 4 -0.001280 0.005667 -0.000617 0.025623 -0.003368 -0.001369
# 5 0.001042 0.001092 -0.003557 -0.003368 0.025286 0.006290
# 6 -0.003097 0.001626 -0.001859 -0.001369 0.006290 0.028735
#
#
# Mechanical properties :
#
#
# Convention : Reuss Voigt Hill
#
# Bulk Modulus (GPa) = 47.26712 59.44913 53.35812
# Shear Modulus (GPa) = 25.89508 36.33706 31.11607
#
# Velocity S-wave (km/s) = 3.42868 4.06157 3.75847
# Velocity P-wave (km/s) = 6.09367 6.99885 6.56189
#
# Compressibility (1/GPa) = 0.02115636
#
# Stress axis : x y z
#
# Youngs Moduli (GPa) = 82.68219 66.99550 27.20857
#
# Poissons Ratio (x) = 0.05714 0.19116
# Poissons Ratio (y) = 0.07052 0.36541
# Poissons Ratio (z) = 0.58091 0.89976
#
# Static dielectric constant tensor:
#      x y z
#    x 1.984700 0.024100 0.025370 
#    y 0.024100 1.873450 0.131430 
#    z 0.025370 0.131430 1.929460 
# 
# From -- ./inp_files/112802.got.cif
#   From: 2010.05.17/outbox.cif.g08.bks.cpg/sg2_57_cif.got.tgz:112802.got - 2010.06.03 11:33:40.
