data_PCOD9012535
_publ_section_title
;
Structure prediction by ZEFSAII (Michael W. Deem and Ramdas Pophale) SiO2 
 PCOD9012535
Probable space group: P -1
;
_chemical_formula_sum "Si O2"
_cell_formula_units_Z 16
_cell_length_a 9.064842
_cell_length_b 21.799577
_cell_length_c 11.966619
_cell_angle_alpha 142.530843
_cell_angle_beta 123.430080
_cell_angle_gamma 32.408831
_cell_volume 717.675197
_symmetry_space_group_name_H-M "P -1"
_symmetry_group_IT_number 2
_symmetry_cell_setting 'triclinic'
loop_
_space_group_symop_operation_xyz
x,y,z
-x,-y,-z
loop_
_atom_site_type_symbol
_atom_site_label
_atom_site_fract_x
_atom_site_fract_y
_atom_site_fract_z
Si Si1 0.867493 0.456462 0.332792
Si Si2 0.675404 0.123977 0.001620
Si Si3 0.502926 0.244902 0.861220
Si Si4 0.287380 0.504631 0.435053
Si Si5 0.608950 0.925655 0.062749
Si Si6 0.670711 0.372714 0.779295
Si Si7 0.010234 0.888807 0.287293
Si Si8 0.009417 0.631142 0.275464
O O1 0.813622 0.427458 0.384654
O O2 0.569152 0.591538 0.329217
O O3 0.000000 0.500000 0.500000
O O4 0.102303 0.279370 0.112841
O O5 0.454162 0.318587 0.227354
O O6 0.602763 0.048335 0.915104
O O7 0.663570 0.127491 0.867170
O O8 0.000000 0.000000 0.000000
O O9 0.719011 0.220215 0.845944
O O10 0.327341 0.240491 0.711642
O O11 0.228602 0.435626 0.068107
O O12 0.500000 0.500000 0.500000
O O13 0.037605 0.632725 0.422129
O O14 0.722136 0.978649 0.236956
O O15 0.500000 0.000000 0.000000
O O16 0.932068 0.205139 0.716404
O O17 0.828854 0.364027 0.733888
O O18 0.500000 0.500000 0.000000
O O19 0.000000 0.000000 0.500000
#
# Coordination Sequence:
#
# PCOD9012535 Si02
#       8
#     2   2   2   2   2   2   2   2
#     4  12  26  43  72 107 139 180 239 289 347 418
#     4  11  25  45  70 100 143 185 226 283 356 422
#     4  10  22  41  68  98 131 172 228 283 345 406
#     4  11  24  43  69 106 139 177 231 289 346 413
#     4  12  27  47  71 100 144 188 230 291 355 413
#     4  12  23  43  71  98 137 179 233 285 345 414
#     4  12  28  46  67 101 141 185 235 287 352 416
#     4  10  21  40  70  99 129 174 225 285 342 403
#
# _framework density 22.294208000000001
#
# number of rings (size 3 to 8) (size 9 to 14) (size 15 to 20)
#    0.000    0.750    5.000    1.500    7.000    1.000 
#    0.000    1.250    0.000    0.000    0.000    0.000 
#    0.000    0.000    0.000    0.000    0.000    0.000 
#
# Total GULP energy -89193.490328 kJ/mol
# GULP energy per Si atom -5574.593145 kJ/mol
# Density = 2.224347 g / cm^3
# Si number density = 22.294208 Si / 1000 Ang^3
#
#
#
# Elastic Constant Matrix: (Units=GPa)
#
#
# Indices 1 2 3 4 5 6 
#
# 1 121.3233 51.1457 1.6320 -27.9002 9.4093 -4.1252
# 2 51.1457 162.3638 17.8917 -57.6722 6.2010 7.9885
# 3 1.6320 17.8917 50.5992 -29.6229 11.1059 -5.0854
# 4 -27.9002 -57.6722 -29.6229 46.1662 -2.3787 3.6582
# 5 9.4093 6.2010 11.1059 -2.3787 34.1704 -7.1915
# 6 -4.1252 7.9885 -5.0854 3.6582 -7.1915 38.7747
#
#
#
# Elastic Compliance Matrix: (Units=1/GPa)
#
#
# Indices 1 2 3 4 5 6 
#
# 1 0.011038 -0.000457 0.006766 0.010186 -0.004365 0.000385
# 2 -0.000457 0.013949 0.009246 0.023214 -0.004803 -0.004791
# 3 0.006766 0.009246 0.045286 0.044072 -0.015678 -0.002311
# 4 0.010186 0.023214 0.044072 0.084927 -0.017356 -0.009150
# 5 -0.004365 -0.004803 -0.015678 -0.017356 0.036680 0.006909
# 6 0.000385 -0.004791 -0.002311 -0.009150 0.006909 0.028660
#
#
# Mechanical properties :
#
#
# Convention : Reuss Voigt Hill
#
# Bulk Modulus (GPa) = 9.86362 52.84722 31.35542
# Shear Modulus (GPa) = 22.39892 41.39673 31.89782
#
# Velocity S-wave (km/s) = 3.17313 4.31378 3.78665
# Velocity P-wave (km/s) = 4.22598 6.96904 5.76309
#
# Compressibility (1/GPa) = 0.10138263
#
# Stress axis : x y z
#
# Youngs Moduli (GPa) = 90.59558 71.69020 22.08165
#
# Poissons Ratio (x) = 0.03274 -0.14940
# Poissons Ratio (y) = 0.04138 -0.20416
# Poissons Ratio (z) = -0.61294 -0.66282
#
# Static dielectric constant tensor:
#      x y z
#    x 1.620510 -0.018190 -0.077880 
#    y -0.018190 1.834010 0.030930 
#    z -0.077880 0.030930 1.820720 
# 
# From -- ./inp_files/405613.got.cif
#   From: 2010.05.17/outbox.cif.g08.bks.cpg/sg2_203_cif.got.tgz:405613.got - 2010.06.03 11:33:40.
