data_PCOD9012207
_publ_section_title
;
Structure prediction by ZEFSAII (Michael W. Deem and Ramdas Pophale) SiO2 
 PCOD9012207
Probable space group: P -1
;
_chemical_formula_sum "Si O2"
_cell_formula_units_Z 16
_cell_length_a 10.516910
_cell_length_b 16.807765
_cell_length_c 9.094173
_cell_angle_alpha 136.300305
_cell_angle_beta 122.977547
_cell_angle_gamma 35.609228
_cell_volume 642.872441
_symmetry_space_group_name_H-M "P -1"
_symmetry_group_IT_number 2
_symmetry_cell_setting 'triclinic'
loop_
_space_group_symop_operation_xyz
x,y,z
-x,-y,-z
loop_
_atom_site_type_symbol
_atom_site_label
_atom_site_fract_x
_atom_site_fract_y
_atom_site_fract_z
Si Si1 0.241637 0.399543 0.463161
Si Si2 0.145352 0.156284 0.846681
Si Si3 0.054999 0.710963 0.606131
Si Si4 0.377864 0.887113 0.860760
Si Si5 0.031890 0.890316 0.573593
Si Si6 0.282538 0.738060 0.022929
Si Si7 0.561829 0.992604 0.696231
Si Si8 0.721976 0.487640 0.079955
O O1 0.211211 0.520135 0.489087
O O2 0.399090 0.227306 0.245643
O O3 0.346846 0.389557 0.667092
O O4 0.000000 0.500000 0.500000
O O5 0.018814 0.121915 0.638486
O O6 0.219558 0.072066 0.940148
O O7 0.363412 0.055102 0.753328
O O8 0.974748 0.356025 0.012312
O O9 0.042054 0.767906 0.511195
O O10 0.807662 0.808926 0.622410
O O11 0.148956 0.763734 0.834546
O O12 0.254930 0.837396 0.674150
O O13 0.409660 0.894982 0.063581
O O14 0.834549 0.080899 0.758660
O O15 0.546043 0.601512 0.993066
O O16 0.273372 0.640771 0.010044
O O17 0.500000 0.000000 0.500000
#
# Coordination Sequence:
#
# PCOD9012207 Si02
#       8
#     2   2   2   2   2   2   2   2
#     4  11  24  46  71 102 144 190 242 293 355 428
#     4  12  24  43  74 106 144 185 245 291 351 428
#     4  11  24  45  67  98 145 191 228 297 366 418
#     4  12  25  43  75 106 138 189 248 292 350 428
#     4  12  24  41  69 108 142 183 240 293 358 426
#     4  10  21  40  68  99 144 179 234 292 359 412
#     4  12  25  48  70 102 143 191 237 295 363 429
#     4  10  22  41  68 106 138 184 234 299 348 410
#
# _framework density 24.888296
#
# number of rings (size 3 to 8) (size 9 to 14) (size 15 to 20)
#    0.000    0.750    3.750    4.125    5.250    0.500 
#    0.000    0.625    0.000    0.000    0.000    0.000 
#    0.000    0.000    0.000    0.000    0.000    0.000 
#
# Total GULP energy -89486.321645 kJ/mol
# GULP energy per Si atom -5592.895103 kJ/mol
# Density = 2.483165 g / cm^3
# Si number density = 24.888296 Si / 1000 Ang^3
#
#
#
# Elastic Constant Matrix: (Units=GPa)
#
#
# Indices 1 2 3 4 5 6 
#
# 1 65.4863 15.6842 4.8369 -10.1193 -8.3793 -10.4884
# 2 15.6842 134.1258 47.9407 -11.6463 -13.8248 -21.9634
# 3 4.8369 47.9407 130.7536 -18.0315 -9.0934 1.9410
# 4 -10.1193 -11.6463 -18.0315 37.0337 -6.0249 -1.5259
# 5 -8.3793 -13.8248 -9.0934 -6.0249 29.9098 -0.2481
# 6 -10.4884 -21.9634 1.9410 -1.5259 -0.2481 38.1892
#
#
#
# Elastic Compliance Matrix: (Units=1/GPa)
#
#
# Indices 1 2 3 4 5 6 
#
# 1 0.017901 -0.000311 0.000704 0.006386 0.006413 0.004998
# 2 -0.000311 0.010304 -0.003211 0.002538 0.004261 0.006133
# 3 0.000704 -0.003211 0.009572 0.004160 0.002445 -0.001958
# 4 0.006386 0.002538 0.004160 0.033546 0.011021 0.004414
# 5 0.006413 0.004261 0.002445 0.011021 0.040203 0.004789
# 6 0.004998 0.006133 -0.001958 0.004414 0.004789 0.031392
#
#
# Mechanical properties :
#
#
# Convention : Reuss Voigt Hill
#
# Bulk Modulus (GPa) = 31.11296 51.92102 41.51699
# Shear Modulus (GPa) = 31.39388 38.48679 34.94034
#
# Velocity S-wave (km/s) = 3.55546 3.93667 3.75091
# Velocity P-wave (km/s) = 5.42063 6.44749 5.95623
#
# Compressibility (1/GPa) = 0.03214094
#
# Stress axis : x y z
#
# Youngs Moduli (GPa) = 55.86364 97.05365 104.47055
#
# Poissons Ratio (x) = 0.03018 -0.07357
# Poissons Ratio (y) = 0.01737 0.33546
# Poissons Ratio (z) = -0.03934 0.31164
#
# Static dielectric constant tensor:
#      x y z
#    x 2.069360 -0.079400 0.056610 
#    y -0.079400 1.956670 -0.022700 
#    z 0.056610 -0.022700 1.969170 
# 
# From -- ./inp_files/283437.got.cif
#   From: 2010.05.17/outbox.cif.g08.bks.cpg/sg2_142_cif.got.tgz:283437.got - 2010.06.03 11:33:40.
