data_PCOD9012164
_publ_section_title
;
Structure prediction by ZEFSAII (Michael W. Deem and Ramdas Pophale) SiO2 
 PCOD9012164
Probable space group: P -1
;
_chemical_formula_sum "Si O2"
_cell_formula_units_Z 14
_cell_length_a 9.245710
_cell_length_b 11.442485
_cell_length_c 9.298340
_cell_angle_alpha 72.188282
_cell_angle_beta 118.206469
_cell_angle_gamma 67.330819
_cell_volume 639.824512
_symmetry_space_group_name_H-M "P -1"
_symmetry_group_IT_number 2
_symmetry_cell_setting 'triclinic'
loop_
_space_group_symop_operation_xyz
x,y,z
-x,-y,-z
loop_
_atom_site_type_symbol
_atom_site_label
_atom_site_fract_x
_atom_site_fract_y
_atom_site_fract_z
Si Si1 0.226298 0.432783 0.581065
Si Si2 0.704756 0.485517 0.134709
Si Si3 0.815204 0.026316 0.808759
Si Si4 0.163718 0.171891 0.357510
Si Si5 0.756958 0.636430 0.872877
Si Si6 0.473483 0.068044 0.805408
Si Si7 0.447553 0.397384 0.442299
O O1 0.292086 0.506573 0.693993
O O2 0.384442 0.244935 0.731147
O O3 0.236898 0.460770 0.409064
O O4 0.000000 0.500000 0.500000
O O5 0.929658 0.325007 0.243179
O O6 0.500000 0.500000 0.000000
O O7 0.706349 0.626377 0.018571
O O8 0.699541 0.978583 0.869833
O O9 0.642311 0.213582 0.627546
O O10 0.866619 0.933513 0.717730
O O11 0.000000 0.000000 0.000000
O O12 0.279036 0.220782 0.289364
O O13 0.312121 0.088399 0.601208
O O14 0.622373 0.589313 0.756651
O O15 0.000000 0.500000 0.000000
O O16 0.500000 0.000000 0.000000
O O17 0.500000 0.500000 0.500000
#
# Coordination Sequence:
#
# PCOD9012164 Si02
#       7
#     2   2   2   2   2   2   2
#     4  11  21  42  65  97 133 168 228 275 336 397
#     4  11  24  39  69 103 139 175 223 291 341 404
#     4  11  27  45  70  99 140 184 227 286 343 410
#     4  11  23  48  67  99 142 181 235 280 338 420
#     4  10  21  40  68  98 126 182 226 274 338 407
#     4  11  25  45  70 100 136 183 225 283 342 407
#     4  11  24  42  67  97 135 173 226 281 337 403
#
# _framework density 21.881
#
# number of rings (size 3 to 8) (size 9 to 14) (size 15 to 20)
#    0.000    1.143    4.286    2.143   10.000    1.143 
#    2.571    0.714    0.000    0.000    0.000    0.000 
#    0.000    0.000    0.000    0.000    0.000    0.000 
#
# Total GULP energy -78023.483392 kJ/mol
# GULP energy per Si atom -5573.105957 kJ/mol
# Density = 2.183120 g / cm^3
# Si number density = 21.881000 Si / 1000 Ang^3
#
#
#
# Elastic Constant Matrix: (Units=GPa)
#
#
# Indices 1 2 3 4 5 6 
#
# 1 78.8543 18.9763 42.4358 9.9647 11.4918 -7.4391
# 2 18.9763 131.3616 34.9042 36.1866 7.9938 -7.3928
# 3 42.4358 34.9042 117.8239 33.8451 15.2726 1.7520
# 4 9.9647 36.1866 33.8451 28.2506 9.6428 1.3967
# 5 11.4918 7.9938 15.2726 9.6428 45.5426 6.8823
# 6 -7.4391 -7.3928 1.7520 1.3967 6.8823 32.8245
#
#
#
# Elastic Compliance Matrix: (Units=1/GPa)
#
#
# Indices 1 2 3 4 5 6 
#
# 1 0.016952 -0.001614 -0.006703 0.005092 -0.003482 0.004349
# 2 -0.001614 0.012438 0.001947 -0.018173 0.000981 0.002899
# 3 -0.006703 0.001947 0.015787 -0.019077 0.000271 -0.001169
# 4 0.005092 -0.018173 -0.019077 0.082883 -0.008699 -0.003624
# 5 -0.003482 0.000981 0.000271 -0.008699 0.025247 -0.005506
# 6 0.004349 0.002899 -0.001169 -0.003624 -0.005506 0.033475
#
#
# Mechanical properties :
#
#
# Convention : Reuss Voigt Hill
#
# Bulk Modulus (GPa) = 30.83009 57.85250 44.34129
# Shear Modulus (GPa) = 23.77166 36.77179 30.27172
#
# Velocity S-wave (km/s) = 3.29964 4.10388 3.72354
# Velocity P-wave (km/s) = 5.35139 6.99663 6.22857
#
# Compressibility (1/GPa) = 0.03243585
#
# Stress axis : x y z
#
# Youngs Moduli (GPa) = 58.99127 80.39748 63.34307
#
# Poissons Ratio (x) = 0.12974 0.42461
# Poissons Ratio (y) = 0.09519 -0.12330
# Poissons Ratio (z) = 0.39544 -0.15650
#
# Static dielectric constant tensor:
#      x y z
#    x 1.849640 0.060650 -0.044530 
#    y 0.060650 1.805640 -0.000540 
#    z -0.044530 -0.000540 1.841280 
# 
# From -- ./inp_files/156810.got.cif
#   From: 2010.05.17/outbox.cif.g08.bks.cpg/sg2_79_cif.got.tgz:156810.got - 2010.06.03 11:33:40.
