data_PCOD9012047
_publ_section_title
;
Structure prediction by ZEFSAII (Michael W. Deem and Ramdas Pophale) SiO2 
 PCOD9012047
Probable space group: P -1
;
_chemical_formula_sum "Si O2"
_cell_formula_units_Z 14
_cell_length_a 15.164117
_cell_length_b 8.384413
_cell_length_c 24.701789
_cell_angle_alpha 146.276898
_cell_angle_beta 21.250181
_cell_angle_gamma 146.854818
_cell_volume 601.101336
_symmetry_space_group_name_H-M "P -1"
_symmetry_group_IT_number 2
_symmetry_cell_setting 'triclinic'
loop_
_space_group_symop_operation_xyz
x,y,z
-x,-y,-z
loop_
_atom_site_type_symbol
_atom_site_label
_atom_site_fract_x
_atom_site_fract_y
_atom_site_fract_z
Si Si1 0.387709 0.144861 0.515224
Si Si2 0.844426 0.551064 0.551716
Si Si3 0.066910 0.405505 0.698184
Si Si4 0.134779 0.510931 0.273905
Si Si5 0.880280 0.810494 0.212374
Si Si6 0.654708 0.446016 0.132042
Si Si7 0.591416 0.360397 0.029820
O O1 0.192793 0.169201 0.586026
O O2 0.675589 0.314235 0.380175
O O3 0.308498 0.291319 0.656610
O O4 0.330235 0.792346 0.459139
O O5 0.637106 0.720843 0.730402
O O6 0.000000 0.500000 0.500000
O O7 0.029937 0.658690 0.425525
O O8 0.906542 0.337359 0.715280
O O9 0.865448 0.442470 0.868002
O O10 0.398279 0.455966 0.126842
O O11 0.953511 0.168418 0.272132
O O12 0.778277 0.663549 0.171994
O O13 0.145638 0.734725 0.045162
O O14 0.612730 0.558856 0.128201
O O15 0.500000 0.000000 0.000000
#
# Coordination Sequence:
#
# PCOD9012047 Si02
#       7
#     2   2   2   2   2   2   2
#     4  10  22  43  65  91 129 171 210 257 314 377
#     4  11  22  39  68  94 126 168 209 254 313 381
#     4  11  23  39  67  92 126 169 215 258 313 374
#     4  11  22  41  66  95 125 166 212 258 314 377
#     4  10  21  40  68  93 119 168 214 257 306 385
#     4  11  21  36  66  96 122 159 219 259 305 370
#     4  12  22  42  66  92 126 171 211 260 319 379
#
# _framework density 23.290583000000002
#
# number of rings (size 3 to 8) (size 9 to 14) (size 15 to 20)
#    0.000    1.143    4.286    3.000    0.000    2.286 
#    0.000    3.571    6.286    0.000    0.000    0.000 
#    0.000    0.000    0.000    0.000    0.000    0.000 
#
# Total GULP energy -78117.476707 kJ/mol
# GULP energy per Si atom -5579.819765 kJ/mol
# Density = 2.323757 g / cm^3
# Si number density = 23.290583 Si / 1000 Ang^3
#
#
#
# Elastic Constant Matrix: (Units=GPa)
#
#
# Indices 1 2 3 4 5 6 
#
# 1 179.0029 24.3450 54.9177 -5.4770 -5.4814 11.4204
# 2 24.3450 59.7987 40.2470 -13.5321 8.9550 -2.7335
# 3 54.9177 40.2470 174.4755 -34.4005 -3.4113 -4.8771
# 4 -5.4770 -13.5321 -34.4005 17.3804 -0.1149 -3.7300
# 5 -5.4814 8.9550 -3.4113 -0.1149 51.4292 4.8888
# 6 11.4204 -2.7335 -4.8771 -3.7300 4.8888 21.0884
#
#
#
# Elastic Compliance Matrix: (Units=1/GPa)
#
#
# Indices 1 2 3 4 5 6 
#
# 1 0.007300 -0.003174 -0.003372 -0.008342 0.001756 -0.007027
# 2 -0.003174 0.023818 -0.000846 0.017765 -0.005357 0.008995
# 3 -0.003372 -0.000846 0.011900 0.023700 -0.000198 0.008707
# 4 -0.008342 0.017765 0.023700 0.123201 -0.005497 0.035367
# 5 0.001756 -0.005357 -0.000198 -0.005497 0.021261 -0.007592
# 6 -0.007027 0.008995 0.008707 0.035367 -0.007592 0.062420
#
#
# Mechanical properties :
#
#
# Convention : Reuss Voigt Hill
#
# Bulk Modulus (GPa) = 35.41926 72.47738 53.94832
# Shear Modulus (GPa) = 18.24184 37.56409 27.90297
#
# Velocity S-wave (km/s) = 2.80166 4.02038 3.46502
# Velocity P-wave (km/s) = 5.07014 7.26206 6.26274
#
# Compressibility (1/GPa) = 0.02823322
#
# Stress axis : x y z
#
# Youngs Moduli (GPa) = 136.99187 41.98564 84.03085
#
# Poissons Ratio (x) = 0.13327 0.28338
# Poissons Ratio (y) = 0.43483 0.07107
# Poissons Ratio (z) = 0.46199 0.03551
#
# Static dielectric constant tensor:
#      x y z
#    x 1.932080 0.007760 -0.011730 
#    y 0.007760 1.909170 0.020600 
#    z -0.011730 0.020600 1.907430 
# 
# From -- ./inp_files/176166.got.cif
#   From: 2010.05.17/outbox.cif.g08.bks.cpg/sg2_89_cif.got.tgz:176166.got - 2010.06.03 11:33:40.
