data_PCOD9012959
_publ_section_title
;
Structure prediction by ZEFSAII (Michael W. Deem and Ramdas Pophale) SiO2 
 PCOD9012959
Probable space group: P -1
;
_chemical_formula_sum "Si O2"
_cell_formula_units_Z 13
_cell_length_a 5.886989
_cell_length_b 4.903326
_cell_length_c 16.953186
_cell_angle_alpha 92.945758
_cell_angle_beta 109.765617
_cell_angle_gamma 80.579565
_cell_volume 454.321077
_symmetry_space_group_name_H-M "P -1"
_symmetry_group_IT_number 2
_symmetry_cell_setting 'triclinic'
loop_
_space_group_symop_operation_xyz
x,y,z
-x,-y,-z
loop_
_atom_site_type_symbol
_atom_site_label
_atom_site_fract_x
_atom_site_fract_y
_atom_site_fract_z
Si Si1 0.169466 0.642076 0.676739
Si Si2 0.500000 0.500000 0.000000
Si Si3 0.240831 0.769461 0.523022
Si Si4 0.318638 0.906724 0.373515
Si Si5 0.907314 0.496843 0.170764
Si Si6 0.858950 0.223138 0.929253
Si Si7 0.391469 0.038187 0.220496
O O1 0.214231 0.558844 0.588579
O O2 0.142841 0.432339 0.741863
O O3 0.385836 0.802499 0.733246
O O4 0.925557 0.868352 0.651017
O O5 0.316676 0.598673 0.904123
O O6 0.741748 0.484160 0.970520
O O7 0.285649 0.686890 0.435201
O O8 0.462551 0.929586 0.574397
O O9 0.000000 0.000000 0.500000
O O10 0.371893 0.826657 0.287934
O O11 0.984728 0.733757 0.128167
O O12 0.145333 0.262416 0.194621
O O13 0.616654 0.111004 0.866045
O O14 0.000000 0.000000 0.000000
#
# Coordination Sequence:
#
# PCOD9012959 Si02
#       7
#     2   1   2   2   2   2   2
#     4   9  18  33  60  89 128 169 211 264 321 382
#     4  12  26  44  68  90 122 168 220 270 332 390
#     4   8  13  26  51  91 128 166 209 254 315 381
#     4   8  15  28  54  90 127 165 215 255 310 389
#     4  11  24  42  62  93 124 163 221 271 322 394
#     4  12  27  45  66  92 127 170 219 276 329 387
#     4  10  21  41  62  91 130 170 216 267 324 384
#
# _framework density 28.614125000000001
#
# number of rings (size 3 to 8) (size 9 to 14) (size 15 to 20)
#    0.000    2.154    1.538    1.385    2.154    3.077 
#    0.000    0.000    0.000    0.923    0.000  106.615 
#    0.000    0.000    0.000    0.154    0.000    0.000 
#
# Total GULP energy -72623.580177 kJ/mol
# GULP energy per Si atom -5586.429244 kJ/mol
# Density = 2.854900 g / cm^3
# Si number density = 28.614125 Si / 1000 Ang^3
#
#
#
# Elastic Constant Matrix: (Units=GPa)
#
#
# Indices 1 2 3 4 5 6 
#
# 1 169.7105 28.4067 75.1252 -25.6790 1.5069 -2.8466
# 2 28.4067 79.3297 41.6021 -14.2808 -7.0952 7.7476
# 3 75.1252 41.6021 236.3578 -35.9404 -19.9506 15.5583
# 4 -25.6790 -14.2808 -35.9404 43.6760 6.5798 -3.9630
# 5 1.5069 -7.0952 -19.9506 6.5798 94.0971 -16.0323
# 6 -2.8466 7.7476 15.5583 -3.9630 -16.0323 30.4977
#
#
#
# Elastic Compliance Matrix: (Units=1/GPa)
#
#
# Indices 1 2 3 4 5 6 
#
# 1 0.007398 -0.001443 -0.001881 0.002589 -0.000446 0.002119
# 2 -0.001443 0.014649 -0.001568 0.002384 0.000176 -0.002654
# 3 -0.001881 -0.001568 0.005714 0.002813 0.000583 -0.002021
# 4 0.002589 0.002384 0.002813 0.027778 -0.000988 0.001292
# 5 -0.000446 0.000176 0.000583 -0.000988 0.011811 0.005697
# 6 0.002119 -0.002654 -0.002021 0.001292 0.005697 0.037855
#
#
# Mechanical properties :
#
#
# Convention : Reuss Voigt Hill
#
# Bulk Modulus (GPa) = 55.62459 86.18510 70.90485
# Shear Modulus (GPa) = 41.32881 56.33840 48.83361
#
# Velocity S-wave (km/s) = 3.80458 4.44204 4.13561
# Velocity P-wave (km/s) = 6.22748 7.51626 6.90202
#
# Compressibility (1/GPa) = 0.01797766
#
# Stress axis : x y z
#
# Youngs Moduli (GPa) = 135.17532 68.26587 174.99450
#
# Poissons Ratio (x) = 0.09854 0.32911
# Poissons Ratio (y) = 0.19512 0.27430
# Poissons Ratio (z) = 0.25422 0.10701
#
# Static dielectric constant tensor:
#      x y z
#    x 2.272190 -0.026260 -0.038420 
#    y -0.026260 2.236330 0.041330 
#    z -0.038420 0.041330 2.255020 
# 
# From -- ./inp_files/5512.got.cif
#   From: 2010.05.17/outbox.cif.g08.bks.cpg/sg2_3_cif.got.tgz:5512.got - 2010.06.03 11:33:40.
