data_PCOD9012886
_publ_section_title
;
Structure prediction by ZEFSAII (Michael W. Deem and Ramdas Pophale) SiO2 
 PCOD9012886
Probable space group: P -1
;
_chemical_formula_sum "Si O2"
_cell_formula_units_Z 16
_cell_length_a 11.502003
_cell_length_b 20.985806
_cell_length_c 5.171701
_cell_angle_alpha 61.281923
_cell_angle_beta 101.194908
_cell_angle_gamma 134.221033
_cell_volume 764.594454
_symmetry_space_group_name_H-M "P -1"
_symmetry_group_IT_number 2
_symmetry_cell_setting 'triclinic'
loop_
_space_group_symop_operation_xyz
x,y,z
-x,-y,-z
loop_
_atom_site_type_symbol
_atom_site_label
_atom_site_fract_x
_atom_site_fract_y
_atom_site_fract_z
Si Si1 0.543266 0.116194 0.564733
Si Si2 0.055422 0.958296 0.925416
Si Si3 0.310964 0.413775 0.699698
Si Si4 0.706581 0.685622 0.584240
Si Si5 0.334175 0.986984 0.230342
Si Si6 0.330836 0.578987 0.536682
Si Si7 0.226524 0.159800 0.354459
Si Si8 0.619331 0.314176 0.147633
O O1 0.663772 0.099390 0.600417
O O2 0.625705 0.230705 0.357559
O O3 0.403802 0.045996 0.417356
O O4 0.462605 0.069165 0.903264
O O5 0.899590 0.867845 0.863786
O O6 0.181610 0.057350 0.597159
O O7 0.158730 0.943836 0.153869
O O8 0.000000 0.000000 0.000000
O O9 0.500000 0.500000 0.500000
O O10 0.224712 0.332858 0.585943
O O11 0.246426 0.466799 0.634282
O O12 0.312048 0.370668 0.053690
O O13 0.524707 0.637950 0.523301
O O14 0.800734 0.798080 0.498679
O O15 0.297739 0.602417 0.751490
O O16 0.312355 0.630069 0.205000
O O17 0.420333 0.246748 0.195222
#
# Coordination Sequence:
#
# PCOD9012886 Si02
#       8
#     2   2   2   2   2   2   2   2
#     4  10  20  35  55  72  99 131 176 214 254 301
#     4  11  23  34  52  69 108 136 177 214 244 296
#     4  10  17  30  44  66  96 131 162 195 247 301
#     4  10  19  29  46  63  99 132 168 195 237 308
#     4  10  21  37  52  73  97 137 174 214 256 293
#     4  10  19  28  48  72  98 130 161 205 249 303
#     4  10  22  32  45  75  96 141 170 206 246 292
#     4  11  19  31  50  73 103 128 171 203 248 303
#
# _framework density 20.926126
#
# number of rings (size 3 to 8) (size 9 to 14) (size 15 to 20)
#    0.000    1.750    1.250    6.750    8.750    0.000 
#    0.000    0.000    0.000    0.000    0.000    0.000 
#    0.000    6.000    0.000    0.000    0.000    0.000 
#
# Total GULP energy -89330.099641 kJ/mol
# GULP energy per Si atom -5583.131228 kJ/mol
# Density = 2.087850 g / cm^3
# Si number density = 20.926126 Si / 1000 Ang^3
#
#
#
# Elastic Constant Matrix: (Units=GPa)
#
#
# Indices 1 2 3 4 5 6 
#
# 1 68.8254 31.9448 20.7664 5.4130 28.7977 -17.8510
# 2 31.9448 106.5490 31.7640 15.6811 14.4442 -35.7882
# 3 20.7664 31.7640 122.7522 6.8400 18.3816 -17.2312
# 4 5.4130 15.6811 6.8400 36.0150 -7.7598 3.4217
# 5 28.7977 14.4442 18.3816 -7.7598 36.0128 -3.9452
# 6 -17.8510 -35.7882 -17.2312 3.4217 -3.9452 27.5554
#
#
#
# Elastic Compliance Matrix: (Units=1/GPa)
#
#
# Indices 1 2 3 4 5 6 
#
# 1 0.031893 0.004959 0.002309 -0.016203 -0.029273 0.026366
# 2 0.004959 0.023864 0.000983 -0.017667 -0.014010 0.035009
# 3 0.002309 0.000983 0.010141 -0.005157 -0.007578 0.008669
# 4 -0.016203 -0.017667 -0.005157 0.048778 0.028960 -0.038578
# 5 -0.029273 -0.014010 -0.007578 0.028960 0.062906 -0.036488
# 6 0.026366 0.035009 0.008669 -0.038578 -0.036488 0.103826
#
#
# Mechanical properties :
#
#
# Convention : Reuss Voigt Hill
#
# Bulk Modulus (GPa) = 12.13622 51.89746 32.01684
# Shear Modulus (GPa) = 17.10142 34.16005 25.63074
#
# Velocity S-wave (km/s) = 2.86182 4.04469 3.50354
# Velocity P-wave (km/s) = 4.09050 6.83132 5.63023
#
# Compressibility (1/GPa) = 0.08239798
#
# Stress axis : x y z
#
# Youngs Moduli (GPa) = 31.35526 41.90418 98.61357
#
# Poissons Ratio (x) = -0.20780 -0.22770
# Poissons Ratio (y) = -0.15549 -0.09690
# Poissons Ratio (z) = -0.07240 -0.04118
#
# Static dielectric constant tensor:
#      x y z
#    x 1.764920 -0.025690 -0.046420 
#    y -0.025690 1.798860 -0.025150 
#    z -0.046420 -0.025150 1.824490 
# 
# From -- ./inp_files/82983.got.cif
#   From: 2010.05.17/outbox.cif.g08.bks.cpg/sg2_42_cif.got.tgz:82983.got - 2010.06.03 11:33:40.
