data_PCOD9012933
_publ_section_title
;
Structure prediction by ZEFSAII (Michael W. Deem and Ramdas Pophale) SiO2 
 PCOD9012933
Probable space group: P -1
;
_chemical_formula_sum "Si O2"
_cell_formula_units_Z 16
_cell_length_a 9.798188
_cell_length_b 9.819594
_cell_length_c 13.530118
_cell_angle_alpha 76.152345
_cell_angle_beta 94.028965
_cell_angle_gamma 33.337065
_cell_volume 598.965916
_symmetry_space_group_name_H-M "P -1"
_symmetry_group_IT_number 2
_symmetry_cell_setting 'triclinic'
loop_
_space_group_symop_operation_xyz
x,y,z
-x,-y,-z
loop_
_atom_site_type_symbol
_atom_site_label
_atom_site_fract_x
_atom_site_fract_y
_atom_site_fract_z
Si Si1 0.360992 0.219100 0.846318
Si Si2 0.877600 0.626400 0.609239
Si Si3 0.494308 0.783304 0.468828
Si Si4 0.105877 0.954405 0.905811
Si Si5 0.310168 0.738074 0.615103
Si Si6 0.620990 0.684352 0.976528
Si Si7 0.305718 0.873912 0.230237
Si Si8 0.685471 0.587920 0.772360
O O1 0.641568 0.058582 0.863466
O O2 0.193942 0.368639 0.708431
O O3 0.419508 0.005291 0.910489
O O4 0.208609 0.435638 0.892908
O O5 0.799369 0.587834 0.525551
O O6 0.740320 0.671534 0.691522
O O7 0.719535 0.916120 0.538521
O O8 0.503104 0.630998 0.555230
O O9 0.354858 0.887374 0.338702
O O10 0.998363 0.928469 0.833383
O O11 0.915189 0.261121 0.814011
O O12 0.429040 0.717947 0.967055
O O13 0.000000 0.000000 0.000000
O O14 0.443040 0.472184 0.705338
O O15 0.376034 0.792479 0.696749
O O16 0.000000 0.000000 0.500000
O O17 0.740675 0.574535 0.891370
#
# Coordination Sequence:
#
# PCOD9012933 Si02
#       8
#     2   2   2   2   2   2   2   2
#     4  11  23  41  63  94 123 161 215 254 298 378
#     4  10  21  41  62  90 130 156 210 263 296 372
#     4  10  22  38  62  90 121 167 202 254 319 356
#     4  11  23  44  62  91 133 159 206 262 300 376
#     4  10  22  39  57  89 125 157 208 255 301 378
#     4  11  24  42  66  92 125 167 207 253 314 362
#     4  11  23  39  63  93 124 162 207 254 314 367
#     4  10  23  41  64  91 123 168 205 250 315 362
#
# _framework density 26.712705
#
# number of rings (size 3 to 8) (size 9 to 14) (size 15 to 20)
#    0.000    1.500    2.500    1.875    1.750    3.500 
#    0.000    0.000    0.000    0.000    0.000    0.000 
#    0.000    0.000    0.000    0.000    0.000    0.000 
#
# Total GULP energy -89536.585569 kJ/mol
# GULP energy per Si atom -5596.036598 kJ/mol
# Density = 2.665191 g / cm^3
# Si number density = 26.712705 Si / 1000 Ang^3
#
#
#
# Elastic Constant Matrix: (Units=GPa)
#
#
# Indices 1 2 3 4 5 6 
#
# 1 141.5300 19.2327 35.2447 1.6370 10.9925 16.2626
# 2 19.2327 51.8971 25.7874 9.3142 10.1737 18.6194
# 3 35.2447 25.7874 160.2224 18.7184 25.4458 7.7983
# 4 1.6370 9.3142 18.7184 49.5597 8.3953 6.8414
# 5 10.9925 10.1737 25.4458 8.3953 59.8548 2.6906
# 6 16.2626 18.6194 7.7983 6.8414 2.6906 28.5210
#
#
#
# Elastic Compliance Matrix: (Units=1/GPa)
#
#
# Indices 1 2 3 4 5 6 
#
# 1 0.008029 -0.000977 -0.001447 0.001097 -0.000679 -0.003744
# 2 -0.000977 0.027556 -0.002897 -0.001436 -0.002349 -0.016074
# 3 -0.001447 -0.002897 0.007555 -0.002072 -0.002224 0.001357
# 4 0.001097 -0.001436 -0.002072 0.022116 -0.001988 -0.004239
# 5 -0.000679 -0.002349 -0.002224 -0.001988 0.018398 0.001270
# 6 -0.003744 -0.016074 0.001357 -0.004239 0.001270 0.048216
#
#
# Mechanical properties :
#
#
# Convention : Reuss Voigt Hill
#
# Bulk Modulus (GPa) = 30.77173 57.13103 43.95138
# Shear Modulus (GPa) = 32.60639 45.81276 39.20958
#
# Velocity S-wave (km/s) = 3.49755 4.14577 3.83538
# Velocity P-wave (km/s) = 5.27778 6.65959 6.00854
#
# Compressibility (1/GPa) = 0.03249736
#
# Stress axis : x y z
#
# Youngs Moduli (GPa) = 124.54909 36.29038 132.36093
#
# Poissons Ratio (x) = 0.03546 0.19153
# Poissons Ratio (y) = 0.12170 0.38345
# Poissons Ratio (z) = 0.18022 0.10513
#
# Static dielectric constant tensor:
#      x y z
#    x 2.078490 -0.050980 0.081150 
#    y -0.050980 2.106580 0.001220 
#    z 0.081150 0.001220 2.159070 
# 
# From -- ./inp_files/109707.got.cif
#   From: 2010.05.17/outbox.cif.g08.bks.cpg/sg2_55_cif.got.tgz:109707.got - 2010.06.03 11:33:40.
