data_PCOD9012362
_publ_section_title
;
Structure prediction by ZEFSAII (Michael W. Deem and Ramdas Pophale) SiO2 
 PCOD9012362
Probable space group: P -1
;
_chemical_formula_sum "Si O2"
_cell_formula_units_Z 12
_cell_length_a 9.276993
_cell_length_b 15.971378
_cell_length_c 12.675055
_cell_angle_alpha 27.592882
_cell_angle_beta 39.291576
_cell_angle_gamma 31.984608
_cell_volume 458.870491
_symmetry_space_group_name_H-M "P -1"
_symmetry_group_IT_number 2
_symmetry_cell_setting 'triclinic'
loop_
_space_group_symop_operation_xyz
x,y,z
-x,-y,-z
loop_
_atom_site_type_symbol
_atom_site_label
_atom_site_fract_x
_atom_site_fract_y
_atom_site_fract_z
Si Si1 0.834075 0.546399 0.436515
Si Si2 0.798226 0.148643 0.856299
Si Si3 0.410041 0.024581 0.143366
Si Si4 0.676702 0.646990 0.786077
Si Si5 0.863147 0.953774 0.426188
Si Si6 0.889539 0.358525 0.171687
O O1 0.743233 0.384395 0.638376
O O2 0.564527 0.775590 0.362176
O O3 0.000000 0.500000 0.500000
O O4 0.051950 0.511818 0.261145
O O5 0.947640 0.057092 0.762577
O O6 0.539489 0.132665 0.016184
O O7 0.000000 0.000000 0.000000
O O8 0.095412 0.178728 0.171343
O O9 0.500000 0.000000 0.000000
O O10 0.742305 0.814808 0.610299
O O11 0.404393 0.797307 0.701277
O O12 0.647752 0.530041 0.036567
O O13 0.056816 0.804976 0.579380
O O14 0.000000 0.500000 0.000000
#
# Coordination Sequence:
#
# PCOD9012362 Si02
#       6
#     2   2   2   2   2   2
#     4  11  21  41  70 101 138 179 234 286 347 417
#     4  11  25  43  71 106 136 187 237 286 353 420
#     4  12  25  45  71 101 143 181 233 294 349 413
#     4   9  18  36  65  94 131 185 223 280 350 409
#     4   9  20  38  64  97 134 178 233 280 344 421
#     4  10  21  40  69  96 135 189 227 282 358 414
#
# _framework density 26.151168999999999
#
# number of rings (size 3 to 8) (size 9 to 14) (size 15 to 20)
#    0.000    1.667    3.333    1.000    7.000    0.667 
#    0.000    1.667    3.667    0.000    0.000    0.000 
#    0.000    0.000    0.000    0.000    0.000    0.000 
#
# Total GULP energy -67044.685509 kJ/mol
# GULP energy per Si atom -5587.057126 kJ/mol
# Density = 2.609165 g / cm^3
# Si number density = 26.151169 Si / 1000 Ang^3
#
#
#
# Elastic Constant Matrix: (Units=GPa)
#
#
# Indices 1 2 3 4 5 6 
#
# 1 111.7632 15.0532 58.4567 -4.1067 6.2712 -4.2635
# 2 15.0532 110.3383 43.4231 -14.7589 14.3764 2.8728
# 3 58.4567 43.4231 111.0191 -7.5882 34.1275 -5.7436
# 4 -4.1067 -14.7589 -7.5882 34.7098 15.9991 8.9501
# 5 6.2712 14.3764 34.1275 15.9991 68.5470 -3.9698
# 6 -4.2635 2.8728 -5.7436 8.9501 -3.9698 44.9117
#
#
#
# Elastic Compliance Matrix: (Units=1/GPa)
#
#
# Indices 1 2 3 4 5 6 
#
# 1 0.012881 0.000815 -0.008116 -0.001507 0.003084 0.000706
# 2 0.000815 0.011656 -0.004135 0.005684 -0.001932 -0.002501
# 3 -0.008116 -0.004135 0.017847 0.005078 -0.008460 0.000017
# 4 -0.001507 0.005684 0.005078 0.040819 -0.013643 -0.009198
# 5 0.003084 -0.001932 -0.008460 -0.013643 0.022341 0.004028
# 6 0.000706 -0.002501 0.000017 -0.009198 0.004028 0.024684
#
#
# Mechanical properties :
#
#
# Convention : Reuss Voigt Hill
#
# Bulk Modulus (GPa) = 51.25044 62.99852 57.12448
# Shear Modulus (GPa) = 31.32742 44.04619 37.68681
#
# Velocity S-wave (km/s) = 3.46488 4.10846 3.80032
# Velocity P-wave (km/s) = 5.97055 6.82996 6.41467
#
# Compressibility (1/GPa) = 0.01951203
#
# Stress axis : x y z
#
# Youngs Moduli (GPa) = 77.63324 85.78978 56.03275
#
# Poissons Ratio (x) = -0.06990 0.45474
# Poissons Ratio (y) = -0.06325 0.23170
# Poissons Ratio (z) = 0.63005 0.35476
#
# Static dielectric constant tensor:
#      x y z
#    x 2.077790 -0.025370 -0.037620 
#    y -0.025370 2.063450 0.057390 
#    z -0.037620 0.057390 2.027600 
# 
# From -- ./inp_files/149850.got.cif
#   From: 2010.05.17/outbox.cif.g08.bks.cpg/sg2_75_cif.got.tgz:149850.got - 2010.06.03 11:33:40.
