data_PCOD9012506
_publ_section_title
;
Structure prediction by ZEFSAII (Michael W. Deem and Ramdas Pophale) SiO2 
 PCOD9012506
Probable space group: P -1
;
_chemical_formula_sum "Si O2"
_cell_formula_units_Z 14
_cell_length_a 19.373056
_cell_length_b 7.853401
_cell_length_c 12.957736
_cell_angle_alpha 48.956229
_cell_angle_beta 26.206016
_cell_angle_gamma 49.629036
_cell_volume 646.366300
_symmetry_space_group_name_H-M "P -1"
_symmetry_group_IT_number 2
_symmetry_cell_setting 'triclinic'
loop_
_space_group_symop_operation_xyz
x,y,z
-x,-y,-z
loop_
_atom_site_type_symbol
_atom_site_label
_atom_site_fract_x
_atom_site_fract_y
_atom_site_fract_z
Si Si1 0.383890 0.067806 0.023837
Si Si2 0.914781 0.518971 0.216577
Si Si3 0.888012 0.811785 0.318648
Si Si4 0.106832 0.088052 0.235208
Si Si5 0.120760 0.667400 0.233113
Si Si6 0.296586 0.826410 0.426678
Si Si7 0.621781 0.597919 0.870417
O O1 0.271651 0.021281 0.289866
O O2 0.277246 0.084861 0.059319
O O3 0.509388 0.832415 0.956817
O O4 0.516347 0.230111 0.774266
O O5 0.891218 0.761925 0.211660
O O6 0.762296 0.397271 0.449458
O O7 0.028179 0.340774 0.207882
O O8 0.000000 0.500000 0.000000
O O9 0.768414 0.645130 0.585520
O O10 0.059299 0.728860 0.175344
O O11 0.806142 0.052756 0.386252
O O12 0.107517 0.909577 0.212627
O O13 0.000000 0.000000 0.500000
O O14 0.294125 0.537555 0.089595
O O15 0.000000 0.500000 0.500000
O O16 0.500000 0.500000 0.000000
#
# Coordination Sequence:
#
# PCOD9012506 Si02
#       7
#     2   2   2   2   2   2   2
#     4  10  20  34  63  94 128 159 201 266 318 364
#     4  12  26  42  64  92 126 169 214 260 309 376
#     4  10  21  38  58  85 123 166 209 251 305 372
#     4  12  20  38  63  91 129 161 210 263 311 372
#     4  10  19  31  55  93 126 158 202 254 313 365
#     4  10  21  40  61  95 126 163 207 260 312 368
#     4  10  17  29  56  97 129 154 196 257 316 368
#
# _framework density 21.659545000000001
#
# number of rings (size 3 to 8) (size 9 to 14) (size 15 to 20)
#    0.000    1.429    4.286    2.571    0.000    4.000 
#    0.000    0.714    0.000    3.429    0.000    0.000 
#    0.000    0.000    0.000    0.000    0.000    0.000 
#
# Total GULP energy -77976.862601 kJ/mol
# GULP energy per Si atom -5569.775900 kJ/mol
# Density = 2.161025 g / cm^3
# Si number density = 21.659545 Si / 1000 Ang^3
#
#
#
# Elastic Constant Matrix: (Units=GPa)
#
#
# Indices 1 2 3 4 5 6 
#
# 1 155.5859 21.5919 53.5491 13.1327 -35.1087 19.3259
# 2 21.5919 53.5204 6.7644 23.0888 -2.4918 7.7250
# 3 53.5491 6.7644 58.9263 13.8029 -9.2501 -5.0833
# 4 13.1327 23.0888 13.8029 25.3979 1.3707 0.4109
# 5 -35.1087 -2.4918 -9.2501 1.3707 55.0013 10.7788
# 6 19.3259 7.7250 -5.0833 0.4109 10.7788 37.2756
#
#
#
# Elastic Compliance Matrix: (Units=1/GPa)
#
#
# Indices 1 2 3 4 5 6 
#
# 1 0.014636 -0.003003 -0.012932 0.001877 0.009222 -0.011417
# 2 -0.003003 0.034218 0.006535 -0.033162 0.002541 -0.005013
# 3 -0.012932 0.006535 0.032165 -0.016682 -0.004323 0.011171
# 4 0.001877 -0.033162 -0.016682 0.077863 -0.005928 0.004480
# 5 0.009222 0.002541 -0.004323 -0.005928 0.026233 -0.013418
# 6 -0.011417 -0.005013 0.011171 0.004480 -0.013418 0.039139
#
#
# Mechanical properties :
#
#
# Convention : Reuss Voigt Hill
#
# Bulk Modulus (GPa) = 16.07249 47.98261 32.02755
# Shear Modulus (GPa) = 18.95427 35.94345 27.44886
#
# Velocity S-wave (km/s) = 2.96142 4.07808 3.56376
# Velocity P-wave (km/s) = 4.37378 6.66150 5.63496
#
# Compressibility (1/GPa) = 0.06221811
#
# Stress axis : x y z
#
# Youngs Moduli (GPa) = 68.32623 29.22468 31.08980
#
# Poissons Ratio (x) = 0.08775 0.40206
# Poissons Ratio (y) = 0.20515 -0.20317
# Poissons Ratio (z) = 0.88362 -0.19098
#
# Static dielectric constant tensor:
#      x y z
#    x 2.007260 0.145370 -0.071780 
#    y 0.145370 1.882600 -0.051430 
#    z -0.071780 -0.051430 1.960940 
# 
# From -- ./inp_files/461867.got.cif
#   From: 2010.05.17/outbox.cif.g08.bks.cpg/sg2_231_cif.got.tgz:461867.got - 2010.06.03 11:33:40.
