data_PCOD9012473
_publ_section_title
;
Structure prediction by ZEFSAII (Michael W. Deem and Ramdas Pophale) SiO2 
 PCOD9012473
Probable space group: P -1
;
_chemical_formula_sum "Si O2"
_cell_formula_units_Z 14
_cell_length_a 9.070776
_cell_length_b 9.305763
_cell_length_c 24.545923
_cell_angle_alpha 40.482475
_cell_angle_beta 141.291189
_cell_angle_gamma 110.257459
_cell_volume 667.154036
_symmetry_space_group_name_H-M "P -1"
_symmetry_group_IT_number 2
_symmetry_cell_setting 'triclinic'
loop_
_space_group_symop_operation_xyz
x,y,z
-x,-y,-z
loop_
_atom_site_type_symbol
_atom_site_label
_atom_site_fract_x
_atom_site_fract_y
_atom_site_fract_z
Si Si1 0.755862 0.061009 0.200809
Si Si2 0.340170 0.202520 0.446644
Si Si3 0.835328 0.497882 0.145183
Si Si4 0.616850 0.484931 0.478327
Si Si5 0.425474 0.066656 0.210318
Si Si6 0.105721 0.712744 0.083454
Si Si7 0.357352 0.830910 0.649587
O O1 0.856286 0.249295 0.193066
O O2 0.602965 0.042316 0.215004
O O3 0.506486 0.234187 0.032909
O O4 0.033175 0.757742 0.351431
O O5 0.456870 0.384404 0.427299
O O6 0.989244 0.395711 0.277285
O O7 0.500000 0.000000 0.500000
O O8 0.406933 0.022279 0.571473
O O9 0.015380 0.571739 0.140153
O O10 0.500000 0.500000 0.500000
O O11 0.538734 0.767713 0.351450
O O12 0.499114 0.197503 0.241907
O O13 0.092315 0.219618 0.047433
O O14 0.450601 0.476126 0.234791
O O15 0.000000 0.000000 0.000000
O O16 0.000000 0.000000 0.500000
#
# Coordination Sequence:
#
# PCOD9012473 Si02
#       7
#     2   2   2   2   2   2   2
#     4  10  22  42  69  96 132 175 225 270 338 402
#     4  12  22  43  70  91 134 182 223 268 337 409
#     4  10  21  40  70  93 124 178 224 267 327 403
#     4  12  24  43  66 101 136 173 222 281 338 400
#     4  11  25  43  69  99 137 177 225 282 336 404
#     4  11  24  45  70 100 136 180 228 280 345 407
#     4  12  26  43  67 104 136 176 231 283 335 400
#
# _framework density 20.984659000000001
#
# number of rings (size 3 to 8) (size 9 to 14) (size 15 to 20)
#    0.000    0.857    4.286    2.571    0.000    2.286 
#    5.143    0.714    0.000    0.000    0.000    0.000 
#    0.000    0.000    0.000    0.000    0.000    0.000 
#
# Total GULP energy -78218.104491 kJ/mol
# GULP energy per Si atom -5587.007464 kJ/mol
# Density = 2.093690 g / cm^3
# Si number density = 20.984659 Si / 1000 Ang^3
#
#
#
# Elastic Constant Matrix: (Units=GPa)
#
#
# Indices 1 2 3 4 5 6 
#
# 1 68.1165 19.7387 30.5098 -13.9192 8.0601 3.8950
# 2 19.7387 91.0977 29.5255 -4.4848 11.4320 0.6028
# 3 30.5098 29.5255 135.0299 2.1994 14.7809 -9.9474
# 4 -13.9192 -4.4848 2.1994 40.9077 1.0271 -12.2542
# 5 8.0601 11.4320 14.7809 1.0271 39.3448 -0.6937
# 6 3.8950 0.6028 -9.9474 -12.2542 -0.6937 28.0539
#
#
#
# Elastic Compliance Matrix: (Units=1/GPa)
#
#
# Indices 1 2 3 4 5 6 
#
# 1 0.018487 -0.002279 -0.003659 0.005901 -0.001927 -0.001285
# 2 -0.002279 0.012453 -0.001985 0.000625 -0.002430 -0.000442
# 3 -0.003659 -0.001985 0.009150 -0.000899 -0.002029 0.003352
# 4 0.005901 0.000625 -0.000899 0.030206 -0.001629 0.012002
# 5 -0.001927 -0.002430 -0.002029 -0.001629 0.027314 -0.000436
# 6 -0.001285 -0.000442 0.003352 0.012002 -0.000436 0.042254
#
#
# Mechanical properties :
#
#
# Convention : Reuss Voigt Hill
#
# Bulk Modulus (GPa) = 41.24515 50.42135 45.83325
# Shear Modulus (GPa) = 30.52661 35.95927 33.24294
#
# Velocity S-wave (km/s) = 3.81820 4.14405 3.98446
# Velocity P-wave (km/s) = 6.25586 6.85401 6.56176
#
# Compressibility (1/GPa) = 0.02424527
#
# Stress axis : x y z
#
# Youngs Moduli (GPa) = 54.09151 80.30218 109.28872
#
# Poissons Ratio (x) = 0.18302 0.39985
# Poissons Ratio (y) = 0.12328 0.21691
# Poissons Ratio (z) = 0.19790 0.15938
#
# Static dielectric constant tensor:
#      x y z
#    x 1.715180 -0.006780 0.025350 
#    y -0.006780 1.758300 0.017290 
#    z 0.025350 0.017290 1.802550 
# 
# From -- ./inp_files/184430.got.cif
#   From: 2010.05.17/outbox.cif.g08.bks.cpg/sg2_93_cif.got.tgz:184430.got - 2010.06.03 11:33:40.
