data_PCOD9012317
_publ_section_title
;
Structure prediction by ZEFSAII (Michael W. Deem and Ramdas Pophale) SiO2 
 PCOD9012317
Probable space group: P -1
;
_chemical_formula_sum "Si O2"
_cell_formula_units_Z 16
_cell_length_a 8.742725
_cell_length_b 7.932556
_cell_length_c 18.056553
_cell_angle_alpha 108.439636
_cell_angle_beta 42.097403
_cell_angle_gamma 85.944511
_cell_volume 698.553665
_symmetry_space_group_name_H-M "P -1"
_symmetry_group_IT_number 2
_symmetry_cell_setting 'triclinic'
loop_
_space_group_symop_operation_xyz
x,y,z
-x,-y,-z
loop_
_atom_site_type_symbol
_atom_site_label
_atom_site_fract_x
_atom_site_fract_y
_atom_site_fract_z
Si Si1 0.778737 0.782832 0.846254
Si Si2 0.556050 0.171169 0.471378
Si Si3 0.951234 0.088158 0.112745
Si Si4 0.356290 0.666627 0.261535
Si Si5 0.165666 0.912907 0.226966
Si Si6 0.299830 0.689637 0.012992
Si Si7 0.888414 0.558219 0.429546
Si Si8 0.460239 0.524795 0.361407
O O1 0.546340 0.730093 0.923432
O O2 0.873791 0.826030 0.896524
O O3 0.017362 0.604279 0.693019
O O4 0.698563 0.972528 0.845842
O O5 0.384154 0.254307 0.471514
O O6 0.479044 0.362151 0.578884
O O7 0.500000 0.000000 0.500000
O O8 0.865056 0.060432 0.339902
O O9 0.670165 0.288752 0.241875
O O10 0.000000 0.000000 0.000000
O O11 0.042356 0.881245 0.098825
O O12 0.232135 0.865215 0.282281
O O13 0.599559 0.507404 0.101689
O O14 0.452590 0.649528 0.308051
O O15 0.120503 0.614149 0.353280
O O16 0.242553 0.705583 0.124011
O O17 0.810834 0.467971 0.515475
#
# Coordination Sequence:
#
# PCOD9012317 Si02
#       8
#     2   2   2   2   2   2   2   2
#     4  10  21  40  69  93 120 168 223 257 302 385
#     4  12  24  43  66  95 126 170 218 262 317 377
#     4  11  20  37  64  95 124 159 210 267 314 363
#     4  11  24  40  62  97 135 163 207 266 326 380
#     4  11  21  40  65  90 128 170 209 261 317 371
#     4  10  22  41  68  94 121 168 221 256 310 386
#     4  11  21  42  66  94 123 171 218 260 309 384
#     4  12  24  42  65  92 133 168 213 268 316 373
#
# _framework density 22.904468000000001
#
# number of rings (size 3 to 8) (size 9 to 14) (size 15 to 20)
#    0.000    1.000    5.000    4.125    0.000    0.500 
#    0.000    0.000    5.500    3.750    0.000    0.000 
#    0.000    0.000    0.000    0.000    0.000    0.000 
#
# Total GULP energy -89177.804128 kJ/mol
# GULP energy per Si atom -5573.612758 kJ/mol
# Density = 2.285234 g / cm^3
# Si number density = 22.904468 Si / 1000 Ang^3
#
#
#
# Elastic Constant Matrix: (Units=GPa)
#
#
# Indices 1 2 3 4 5 6 
#
# 1 40.1023 0.7292 17.2098 -8.7770 11.0235 -14.2373
# 2 0.7292 40.2997 8.1700 -7.5210 5.1119 -9.2433
# 3 17.2098 8.1700 120.2762 11.8719 -0.3040 -11.6562
# 4 -8.7770 -7.5210 11.8719 26.4995 -11.7405 5.6761
# 5 11.0235 5.1119 -0.3040 -11.7405 25.8795 -2.0355
# 6 -14.2373 -9.2433 -11.6562 5.6761 -2.0355 37.8429
#
#
#
# Elastic Compliance Matrix: (Units=1/GPa)
#
#
# Indices 1 2 3 4 5 6 
#
# 1 0.036416 0.006196 -0.005358 0.008369 -0.012084 0.011658
# 2 0.006196 0.028991 -0.003007 0.008318 -0.004075 0.007019
# 3 -0.005358 -0.003007 0.010190 -0.007683 -0.000370 0.001521
# 4 0.008369 0.008318 -0.007683 0.056040 0.019768 -0.004528
# 5 -0.012084 -0.004075 -0.000370 0.019768 0.053103 -0.005765
# 6 0.011658 0.007019 0.001521 -0.004528 -0.005765 0.033363
#
#
# Mechanical properties :
#
#
# Convention : Reuss Voigt Hill
#
# Bulk Modulus (GPa) = 14.03346 28.09958 21.06652
# Shear Modulus (GPa) = 20.30923 29.68233 24.99578
#
# Velocity S-wave (km/s) = 2.98097 3.60379 3.30708
# Velocity P-wave (km/s) = 4.24128 5.44162 4.87851
#
# Compressibility (1/GPa) = 0.07125826
#
# Stress axis : x y z
#
# Youngs Moduli (GPa) = 27.46076 34.49354 98.13619
#
# Poissons Ratio (x) = -0.21373 0.52584
# Poissons Ratio (y) = -0.17015 0.29510
# Poissons Ratio (z) = 0.14714 0.10372
#
# Static dielectric constant tensor:
#      x y z
#    x 1.892820 -0.018900 -0.006950 
#    y -0.018900 1.905370 0.034480 
#    z -0.006950 0.034480 1.946730 
# 
# From -- ./inp_files/279242.got.cif
#   From: 2010.05.17/outbox.cif.g08.bks.cpg/sg2_140_cif.got.tgz:279242.got - 2010.06.03 11:33:40.
