data_PCOD9012892
_publ_section_title
;
Structure prediction by ZEFSAII (Michael W. Deem and Ramdas Pophale) SiO2 
 PCOD9012892
Probable space group: P -1
;
_chemical_formula_sum "Si O2"
_cell_formula_units_Z 16
_cell_length_a 6.897703
_cell_length_b 15.276516
_cell_length_c 14.350263
_cell_angle_alpha 153.380819
_cell_angle_beta 89.438129
_cell_angle_gamma 102.324705
_cell_volume 602.657027
_symmetry_space_group_name_H-M "P -1"
_symmetry_group_IT_number 2
_symmetry_cell_setting 'triclinic'
loop_
_space_group_symop_operation_xyz
x,y,z
-x,-y,-z
loop_
_atom_site_type_symbol
_atom_site_label
_atom_site_fract_x
_atom_site_fract_y
_atom_site_fract_z
Si Si1 0.644060 0.013018 0.394920
Si Si2 0.621480 0.695866 0.258149
Si Si3 0.718164 0.697628 0.727312
Si Si4 0.794158 0.493193 0.825230
Si Si5 0.006773 0.498728 0.371269
Si Si6 0.302340 0.972083 0.104826
Si Si7 0.761657 0.021809 0.195119
Si Si8 0.158939 0.951579 0.290214
O O1 0.772543 0.272000 0.663234
O O2 0.739116 0.973598 0.259835
O O3 0.642997 0.881966 0.360366
O O4 0.392343 0.955549 0.316781
O O5 0.459603 0.570012 0.226920
O O6 0.838901 0.846196 0.459323
O O7 0.500000 0.500000 0.000000
O O8 0.500000 0.500000 0.500000
O O9 0.871304 0.578920 0.627379
O O10 0.755763 0.904344 0.858274
O O11 0.731298 0.811687 0.936459
O O12 0.878669 0.495437 0.723671
O O13 0.960314 0.714791 0.085724
O O14 0.034948 0.744481 0.608598
O O15 0.774464 0.284827 0.161062
O O16 0.179623 0.985317 0.211274
O O17 0.558570 0.071158 0.215916
#
# Coordination Sequence:
#
# PCOD9012892 Si02
#       8
#     2   2   2   2   2   2   2   2
#     4   9  20  37  59  83 107 149 193 234 288 340
#     4  11  23  33  55  87 118 148 185 232 289 346
#     4  12  24  37  64  90 120 161 197 240 299 353
#     4   9  19  38  61  79 110 152 191 236 286 338
#     4  10  22  41  62  87 119 158 198 246 296 347
#     4  10  21  41  62  87 118 156 201 244 297 347
#     4  10  22  42  60  85 123 154 198 248 290 351
#     4   9  19  38  61  79 111 151 191 238 281 341
#
# _framework density 26.549099999999999
#
# number of rings (size 3 to 8) (size 9 to 14) (size 15 to 20)
#    0.000    2.000    1.250    3.000    1.750    3.000 
#    2.250    0.000    5.500    0.000    0.000    0.000 
#    0.000    0.000    0.000    0.000    0.000    0.000 
#
# Total GULP energy -89342.492553 kJ/mol
# GULP energy per Si atom -5583.905785 kJ/mol
# Density = 2.648867 g / cm^3
# Si number density = 26.549100 Si / 1000 Ang^3
#
#
#
# Elastic Constant Matrix: (Units=GPa)
#
#
# Indices 1 2 3 4 5 6 
#
# 1 57.5615 9.6669 33.4386 6.7499 -1.2274 -6.2236
# 2 9.6669 119.4176 51.2624 12.3153 3.6451 3.7934
# 3 33.4386 51.2624 255.4674 11.3037 13.2058 2.5966
# 4 6.7499 12.3153 11.3037 55.8627 4.8876 0.4073
# 5 -1.2274 3.6451 13.2058 4.8876 37.6430 -0.3575
# 6 -6.2236 3.7934 2.5966 0.4073 -0.3575 26.8409
#
#
#
# Elastic Compliance Matrix: (Units=1/GPa)
#
#
# Indices 1 2 3 4 5 6 
#
# 1 0.019741 -0.000520 -0.002541 -0.001958 0.001887 0.004952
# 2 -0.000520 0.009367 -0.001720 -0.001634 -0.000120 -0.001255
# 3 -0.002541 -0.001720 0.004686 -0.000120 -0.001552 -0.000818
# 4 -0.001958 -0.001634 -0.000120 0.018727 -0.002300 -0.000526
# 5 0.001887 -0.000120 -0.001552 -0.002300 0.027491 0.001006
# 6 0.004952 -0.001255 -0.000818 -0.000526 0.001006 0.038683
#
#
# Mechanical properties :
#
#
# Convention : Reuss Voigt Hill
#
# Bulk Modulus (GPa) = 41.26892 69.02024 55.14458
# Shear Modulus (GPa) = 36.67447 46.60789 41.64118
#
# Velocity S-wave (km/s) = 3.72073 4.19446 3.96467
# Velocity P-wave (km/s) = 5.83408 7.03645 6.46329
#
# Compressibility (1/GPa) = 0.02423131
#
# Stress axis : x y z
#
# Youngs Moduli (GPa) = 50.65530 106.76269 213.40153
#
# Poissons Ratio (x) = 0.05556 0.54221
# Poissons Ratio (y) = 0.02636 0.36707
# Poissons Ratio (z) = 0.12870 0.18364
#
# Static dielectric constant tensor:
#      x y z
#    x 2.159310 0.143580 -0.150950 
#    y 0.143580 1.992120 -0.068280 
#    z -0.150950 -0.068280 2.128760 
# 
# From -- ./inp_files/505863.got.cif
#   From: 2010.05.17/outbox.cif.g08.bks.cpg/sg2_253_cif.got.tgz:505863.got - 2010.06.03 11:33:40.
