data_PCOD9012960
_publ_section_title
;
Structure prediction by ZEFSAII (Michael W. Deem and Ramdas Pophale) SiO2 
 PCOD9012960
Probable space group: P -1
;
_chemical_formula_sum "Si O2"
_cell_formula_units_Z 14
_cell_length_a 13.969149
_cell_length_b 5.458752
_cell_length_c 9.776988
_cell_angle_alpha 81.664469
_cell_angle_beta 53.408601
_cell_angle_gamma 106.597248
_cell_volume 523.301760
_symmetry_space_group_name_H-M "P -1"
_symmetry_group_IT_number 2
_symmetry_cell_setting 'triclinic'
loop_
_space_group_symop_operation_xyz
x,y,z
-x,-y,-z
loop_
_atom_site_type_symbol
_atom_site_label
_atom_site_fract_x
_atom_site_fract_y
_atom_site_fract_z
Si Si1 0.803975 0.825004 0.588082
Si Si2 0.553286 0.554072 0.672755
Si Si3 0.701696 0.439416 0.165302
Si Si4 0.888126 0.456473 0.240078
Si Si5 0.464382 0.927325 0.879218
Si Si6 0.844582 0.347506 0.603701
Si Si7 0.970889 0.920356 0.831410
O O1 0.714098 0.752304 0.530336
O O2 0.777231 0.530822 0.699318
O O3 0.783458 0.018587 0.701197
O O4 0.957540 0.981871 0.386337
O O5 0.517582 0.699774 0.820564
O O6 0.528580 0.238745 0.732377
O O7 0.440590 0.570686 0.670405
O O8 0.810647 0.746028 0.996273
O O9 0.767057 0.369171 0.244654
O O10 0.673978 0.229077 0.078431
O O11 0.835469 0.360228 0.446510
O O12 0.978921 0.303906 0.147467
O O13 0.972309 0.791954 0.157195
O O14 0.500000 0.000000 0.000000
O O15 0.000000 0.500000 0.500000
#
# Coordination Sequence:
#
# PCOD9012960 Si02
#       7
#     2   2   2   2   2   2   2
#     4  10  21  43  62  94 126 164 207 267 313 379
#     4  10  23  41  66  90 129 166 213 263 318 377
#     4  10  24  39  69  90 130 166 214 259 322 376
#     4  10  22  39  62  95 125 167 212 264 314 378
#     4  10  23  43  63  93 126 172 216 260 313 379
#     4  10  21  41  62  91 131 167 210 260 320 376
#     4  10  22  39  64  92 130 161 213 261 317 374
#
# _framework density 26.753208000000001
#
# number of rings (size 3 to 8) (size 9 to 14) (size 15 to 20)
#    0.857    1.143    0.000    2.571    4.000    0.000 
#   15.429    5.714    0.000    0.000    0.000    0.000 
#    0.000    0.000    0.000    0.000    0.000    0.000 
#
# Total GULP energy -78123.761290 kJ/mol
# GULP energy per Si atom -5580.268664 kJ/mol
# Density = 2.669232 g / cm^3
# Si number density = 26.753208 Si / 1000 Ang^3
#
#
#
# Elastic Constant Matrix: (Units=GPa)
#
#
# Indices 1 2 3 4 5 6 
#
# 1 160.4095 53.9523 32.5284 -14.1745 -4.9254 21.0608
# 2 53.9523 225.5535 27.0632 -14.6346 -3.6506 -6.9983
# 3 32.5284 27.0632 39.4795 10.2778 9.9083 6.6168
# 4 -14.1745 -14.6346 10.2778 37.9260 5.5136 -0.1458
# 5 -4.9254 -3.6506 9.9083 5.5136 38.6727 -1.0898
# 6 21.0608 -6.9983 6.6168 -0.1458 -1.0898 55.0579
#
#
#
# Elastic Compliance Matrix: (Units=1/GPa)
#
#
# Indices 1 2 3 4 5 6 
#
# 1 0.009064 -0.000886 -0.008336 0.004942 0.002431 -0.002517
# 2 -0.000886 0.005398 -0.004229 0.002739 0.001134 0.001563
# 3 -0.008336 -0.004229 0.041902 -0.014632 -0.010184 -0.002625
# 4 0.004942 0.002739 -0.014632 0.033251 -0.000095 0.000303
# 5 0.002431 0.001134 -0.010184 -0.000095 0.028926 0.001010
# 6 -0.002517 0.001563 -0.002625 0.000303 0.001010 0.019660
#
#
# Mechanical properties :
#
#
# Convention : Reuss Voigt Hill
#
# Bulk Modulus (GPa) = 33.94257 72.50337 53.22297
# Shear Modulus (GPa) = 28.58383 47.12454 37.85419
#
# Velocity S-wave (km/s) = 3.27223 4.20152 3.76565
# Velocity P-wave (km/s) = 5.19533 7.12016 6.23250
#
# Compressibility (1/GPa) = 0.02946153
#
# Stress axis : x y z
#
# Youngs Moduli (GPa) = 110.32488 185.26987 23.86518
#
# Poissons Ratio (x) = 0.16417 0.19893
# Poissons Ratio (y) = 0.09776 0.10094
# Poissons Ratio (z) = 0.91961 0.78359
#
# Static dielectric constant tensor:
#      x y z
#    x 2.279310 -0.067870 -0.026310 
#    y -0.067870 2.127680 0.024410 
#    z -0.026310 0.024410 2.190780 
# 
# From -- ./inp_files/440406.got.cif
#   From: 2010.05.17/outbox.cif.g08.bks.cpg/sg2_221_cif.got.tgz:440406.got - 2010.06.03 11:33:40.
