data_PCOD9012638
_publ_section_title
;
Structure prediction by ZEFSAII (Michael W. Deem and Ramdas Pophale) SiO2 
 PCOD9012638
Probable space group: P -1
;
_chemical_formula_sum "Si O2"
_cell_formula_units_Z 13
_cell_length_a 7.822818
_cell_length_b 9.474393
_cell_length_c 13.689227
_cell_angle_alpha 41.933639
_cell_angle_beta 130.949228
_cell_angle_gamma 107.993546
_cell_volume 478.955521
_symmetry_space_group_name_H-M "P -1"
_symmetry_group_IT_number 2
_symmetry_cell_setting 'triclinic'
loop_
_space_group_symop_operation_xyz
x,y,z
-x,-y,-z
loop_
_atom_site_type_symbol
_atom_site_label
_atom_site_fract_x
_atom_site_fract_y
_atom_site_fract_z
Si Si1 0.000000 0.500000 0.500000
Si Si2 0.805970 0.700952 0.593155
Si Si3 0.382718 0.180363 0.164366
Si Si4 0.018613 0.228922 0.847394
Si Si5 0.730014 0.317305 0.339271
Si Si6 0.747970 0.928267 0.184233
Si Si7 0.084896 0.154161 0.246177
O O1 0.770552 0.478446 0.354105
O O2 0.802264 0.711028 0.382846
O O3 0.575587 0.924631 0.370369
O O4 0.860753 0.683203 0.739773
O O5 0.812182 0.455297 0.688373
O O6 0.046235 0.738095 0.623370
O O7 0.499552 0.349376 0.168558
O O8 0.168962 0.185247 0.154578
O O9 0.266094 0.236120 0.985038
O O10 0.040186 0.218394 0.741964
O O11 0.000000 0.000000 0.000000
O O12 0.753235 0.091956 0.525148
O O13 0.824631 0.124996 0.155015
O O14 0.500000 0.000000 0.000000
#
# Coordination Sequence:
#
# PCOD9012638 Si02
#       7
#     1   2   2   2   2   2   2
#     4  10  22  44  66 100 130 168 224 274 338 392
#     4  11  24  44  71  97 130 183 225 279 337 391
#     4  11  24  44  69  99 142 176 219 282 336 402
#     4  12  27  47  63 105 138 173 233 275 335 410
#     4  10  21  40  72  98 131 174 229 271 330 399
#     4  11  25  44  69  97 137 176 222 285 331 394
#     4  10  22  45  68 101 137 175 230 271 338 410
#
# _framework density 27.142395
#
# number of rings (size 3 to 8) (size 9 to 14) (size 15 to 20)
#    0.000    1.231    3.077    3.692    6.462    3.077 
#    8.308    0.000    0.000    0.000    0.000    0.000 
#    0.000    0.000    0.000    0.000    0.000    0.000 
#
# Total GULP energy -72571.867582 kJ/mol
# GULP energy per Si atom -5582.451352 kJ/mol
# Density = 2.708062 g / cm^3
# Si number density = 27.142395 Si / 1000 Ang^3
#
#
#
# Elastic Constant Matrix: (Units=GPa)
#
#
# Indices 1 2 3 4 5 6 
#
# 1 50.6850 22.2970 13.3700 -2.7262 -15.7023 -7.4559
# 2 22.2970 167.3222 54.1452 3.2654 -5.9975 -6.0081
# 3 13.3700 54.1452 139.6542 3.4726 3.4045 6.9328
# 4 -2.7262 3.2654 3.4726 71.1333 3.0839 -0.1974
# 5 -15.7023 -5.9975 3.4045 3.0839 35.7251 7.7582
# 6 -7.4559 -6.0081 6.9328 -0.1974 7.7582 42.2740
#
#
#
# Elastic Compliance Matrix: (Units=1/GPa)
#
#
# Indices 1 2 3 4 5 6 
#
# 1 0.024744 -0.002251 -0.001884 0.000714 0.010071 0.002508
# 2 -0.002251 0.007174 -0.002615 -0.000297 0.000273 0.001000
# 3 -0.001884 -0.002615 0.008492 -0.000300 -0.001661 -0.001793
# 4 0.000714 -0.000297 -0.000300 0.014159 -0.001013 0.000385
# 5 0.010071 0.000273 -0.001661 -0.001013 0.033596 -0.004083
# 6 0.002508 0.001000 -0.001793 0.000385 -0.004083 0.025285
#
#
# Mechanical properties :
#
#
# Convention : Reuss Voigt Hill
#
# Bulk Modulus (GPa) = 37.15979 59.69842 48.42911
# Shear Modulus (GPa) = 36.78649 47.68310 42.23480
#
# Velocity S-wave (km/s) = 3.68545 4.19594 3.94895
# Velocity P-wave (km/s) = 5.64185 6.74661 6.21881
#
# Compressibility (1/GPa) = 0.02691081
#
# Stress axis : x y z
#
# Youngs Moduli (GPa) = 40.41347 139.39120 117.76200
#
# Poissons Ratio (x) = 0.31370 0.22188
# Poissons Ratio (y) = 0.09095 0.30794
# Poissons Ratio (z) = 0.07615 0.36449
#
# Static dielectric constant tensor:
#      x y z
#    x 1.823880 -0.290480 0.561990 
#    y -0.290480 2.024130 0.419880 
#    z 0.561990 0.419880 1.253210 
# 
# From -- ./inp_files/269152.got.cif
#   From: 2010.05.17/outbox.cif.g08.bks.cpg/sg2_135_cif.got.tgz:269152.got - 2010.06.03 11:33:40.
