data_PCOD9012212
_publ_section_title
;
Structure prediction by ZEFSAII (Michael W. Deem and Ramdas Pophale) SiO2 
 PCOD9012212
Probable space group: P -1
;
_chemical_formula_sum "Si O2"
_cell_formula_units_Z 14
_cell_length_a 20.363640
_cell_length_b 11.294630
_cell_length_c 9.893605
_cell_angle_alpha 51.600454
_cell_angle_beta 153.112829
_cell_angle_gamma 143.109128
_cell_volume 581.041406
_symmetry_space_group_name_H-M "P -1"
_symmetry_group_IT_number 2
_symmetry_cell_setting 'triclinic'
loop_
_space_group_symop_operation_xyz
x,y,z
-x,-y,-z
loop_
_atom_site_type_symbol
_atom_site_label
_atom_site_fract_x
_atom_site_fract_y
_atom_site_fract_z
Si Si1 0.659783 0.657745 0.405128
Si Si2 0.775544 0.258728 0.778843
Si Si3 0.966931 0.818983 0.640531
Si Si4 0.202691 0.186943 0.161878
Si Si5 0.190277 0.523125 0.836247
Si Si6 0.348500 0.641944 0.750356
Si Si7 0.521672 0.255790 0.529502
O O1 0.874197 0.777374 0.648717
O O2 0.653413 0.687387 0.531692
O O3 0.537054 0.414589 0.348157
O O4 0.563716 0.717574 0.095442
O O5 0.672416 0.224719 0.472216
O O6 0.627971 0.213137 0.655425
O O7 0.000000 0.500000 0.000000
O O8 0.828845 0.126982 0.005524
O O9 0.809679 0.597587 0.427292
O O10 0.000000 0.000000 0.500000
O O11 0.310704 0.139668 0.301134
O O12 0.157866 0.316696 0.917178
O O13 0.000000 0.000000 0.000000
O O14 0.303498 0.645378 0.819985
O O15 0.000000 0.500000 0.500000
O O16 0.318526 0.633215 0.130452
#
# Coordination Sequence:
#
# PCOD9012212 Si02
#       7
#     2   2   2   2   2   2   2
#     4  11  21  41  68  95 129 177 225 268 323 407
#     4  10  21  40  69 100 129 175 220 270 325 401
#     4  11  25  40  65 100 140 167 213 275 339 391
#     4  11  25  43  66  96 136 177 220 283 341 378
#     4  11  22  38  68  99 128 177 227 268 326 407
#     4  11  21  40  68  97 126 177 227 260 322 400
#     4  11  20  44  68  94 135 175 230 265 320 414
#
# _framework density 24.094667000000001
#
# number of rings (size 3 to 8) (size 9 to 14) (size 15 to 20)
#    0.000    1.143    5.714    3.000    4.000    0.000 
#    0.000    2.857    0.000    0.000    0.000    0.000 
#    0.000    0.000    0.000    0.000    0.000    0.000 
#
# Total GULP energy -78186.659900 kJ/mol
# GULP energy per Si atom -5584.761421 kJ/mol
# Density = 2.403983 g / cm^3
# Si number density = 24.094667 Si / 1000 Ang^3
#
#
#
# Elastic Constant Matrix: (Units=GPa)
#
#
# Indices 1 2 3 4 5 6 
#
# 1 160.9882 30.2630 53.4934 -11.2617 30.6268 21.2638
# 2 30.2630 56.3913 26.0586 -16.4232 14.9556 19.0757
# 3 53.4934 26.0586 180.0488 -33.6052 36.8440 10.0633
# 4 -11.2617 -16.4232 -33.6052 38.4645 8.7953 -1.3283
# 5 30.6268 14.9556 36.8440 8.7953 57.2801 0.8962
# 6 21.2638 19.0757 10.0633 -1.3283 0.8962 37.2329
#
#
#
# Elastic Compliance Matrix: (Units=1/GPa)
#
#
# Indices 1 2 3 4 5 6 
#
# 1 0.008025 -0.001236 -0.000973 0.001659 -0.003542 -0.003542
# 2 -0.001236 0.029808 0.002043 0.016100 -0.010684 -0.014286
# 3 -0.000973 0.002043 0.009079 0.010122 -0.007370 -0.002406
# 4 0.001659 0.016100 0.010122 0.046097 -0.018525 -0.009841
# 5 -0.003542 -0.010684 -0.007370 -0.018525 0.029599 0.008115
# 6 -0.003542 -0.014286 -0.002406 -0.009841 0.008115 0.036304
#
#
# Mechanical properties :
#
#
# Convention : Reuss Voigt Hill
#
# Bulk Modulus (GPa) = 21.46890 68.56205 45.01548
# Shear Modulus (GPa) = 28.60883 45.76972 37.18927
#
# Velocity S-wave (km/s) = 3.44953 4.36314 3.93296
# Velocity P-wave (km/s) = 4.97949 7.34165 6.27276
#
# Compressibility (1/GPa) = 0.04657901
#
# Stress axis : x y z
#
# Youngs Moduli (GPa) = 124.60995 33.54845 110.14219
#
# Poissons Ratio (x) = 0.04148 0.10716
# Poissons Ratio (y) = 0.15407 -0.22502
# Poissons Ratio (z) = 0.12124 -0.06854
#
# Static dielectric constant tensor:
#      x y z
#    x 1.957640 -0.143190 -0.002910 
#    y -0.143190 2.085310 0.083440 
#    z -0.002910 0.083440 1.960140 
# 
# From -- ./inp_files/216642.got.cif
#   From: 2010.05.17/outbox.cif.g08.bks.cpg/sg2_109_cif.got.tgz:216642.got - 2010.06.03 11:33:40.
