data_PCOD9012902
_publ_section_title
;
Structure prediction by ZEFSAII (Michael W. Deem and Ramdas Pophale) SiO2 
 PCOD9012902
Probable space group: P -1
;
_chemical_formula_sum "Si O2"
_cell_formula_units_Z 16
_cell_length_a 13.726188
_cell_length_b 16.467113
_cell_length_c 16.034166
_cell_angle_alpha 18.161294
_cell_angle_beta 134.254210
_cell_angle_gamma 136.937908
_cell_volume 771.197147
_symmetry_space_group_name_H-M "P -1"
_symmetry_group_IT_number 2
_symmetry_cell_setting 'triclinic'
loop_
_space_group_symop_operation_xyz
x,y,z
-x,-y,-z
loop_
_atom_site_type_symbol
_atom_site_label
_atom_site_fract_x
_atom_site_fract_y
_atom_site_fract_z
Si Si1 0.794299 0.624694 0.599990
Si Si2 0.642311 0.873932 0.987176
Si Si3 0.341117 0.790553 0.626156
Si Si4 0.053381 0.773168 0.708848
Si Si5 0.334789 0.282842 0.236707
Si Si6 0.662549 0.040217 0.027322
Si Si7 0.303656 0.601413 0.054037
Si Si8 0.662405 0.368863 0.400523
O O1 0.736930 0.871454 0.296587
O O2 0.964402 0.712653 0.629450
O O3 0.727754 0.513266 0.759614
O O4 0.740962 0.363390 0.763551
O O5 0.470816 0.745794 0.003489
O O6 0.685852 0.152696 0.690231
O O7 0.670211 0.926426 0.050404
O O8 0.707001 0.662189 0.185168
O O9 0.277003 0.672757 0.613429
O O10 0.500000 0.000000 0.500000
O O11 0.271297 0.992285 0.436957
O O12 0.351248 0.534831 0.936519
O O13 0.220810 0.817014 0.770361
O O14 0.000000 0.000000 0.500000
O O15 0.000000 0.500000 0.000000
O O16 0.492125 0.298936 0.348688
O O17 0.253651 0.362101 0.189019
O O18 0.500000 0.000000 0.000000
#
# Coordination Sequence:
#
# PCOD9012902 Si02
#       8
#     2   2   2   2   2   2   2   2
#     4  11  23  38  54  73 106 146 181 215 263 299
#     4  11  22  32  52  76 103 138 177 212 257 302
#     4  10  17  30  44  68 101 137 165 196 256 313
#     4  10  22  37  55  74 101 142 180 222 259 309
#     4  10  19  27  48  71 100 134 168 205 248 314
#     4  12  24  36  54  75 107 138 183 225 253 302
#     4  10  21  35  53  78 107 136 180 212 260 312
#     4  10  19  32  47  70 104 138 169 205 253 321
#
# _framework density 20.746964999999999
#
# number of rings (size 3 to 8) (size 9 to 14) (size 15 to 20)
#    0.000    1.500    1.250    7.875    3.500    5.000 
#    0.000    0.000    0.000    0.000    0.000    0.000 
#    0.000   20.000    0.000    0.000    0.000    0.000 
#
# Total GULP energy -89357.341178 kJ/mol
# GULP energy per Si atom -5584.833824 kJ/mol
# Density = 2.069974 g / cm^3
# Si number density = 20.746965 Si / 1000 Ang^3
#
#
#
# Elastic Constant Matrix: (Units=GPa)
#
#
# Indices 1 2 3 4 5 6 
#
# 1 39.9522 23.6427 19.2196 -2.2418 7.0750 -26.5273
# 2 23.6427 77.8923 18.2162 -5.4734 10.6917 -30.7075
# 3 19.2196 18.2162 145.0472 0.7197 8.7960 -19.4757
# 4 -2.2418 -5.4734 0.7197 38.9974 -12.6751 4.7050
# 5 7.0750 10.6917 8.7960 -12.6751 27.8768 -6.5062
# 6 -26.5273 -30.7075 -19.4757 4.7050 -6.5062 38.6911
#
#
#
# Elastic Compliance Matrix: (Units=1/GPa)
#
#
# Indices 1 2 3 4 5 6 
#
# 1 0.047364 -0.001762 -0.001748 -0.002733 -0.005112 0.029668
# 2 -0.001762 0.019169 -0.000150 -0.000274 -0.003875 0.013311
# 3 -0.001748 -0.000150 0.007575 -0.001149 -0.001870 0.002321
# 4 -0.002733 -0.000274 -0.001149 0.030539 0.014111 -0.004010
# 5 -0.005112 -0.003875 -0.001870 0.014111 0.045283 -0.001623
# 6 0.029668 0.013311 0.002321 -0.004010 -0.001623 0.058135
#
#
# Mechanical properties :
#
#
# Convention : Reuss Voigt Hill
#
# Bulk Modulus (GPa) = 14.97259 42.78322 28.87791
# Shear Modulus (GPa) = 21.03963 34.56729 27.80346
#
# Velocity S-wave (km/s) = 3.18796 4.08626 3.66474
# Velocity P-wave (km/s) = 4.55886 6.55207 5.64415
#
# Compressibility (1/GPa) = 0.06678873
#
# Stress axis : x y z
#
# Youngs Moduli (GPa) = 21.11295 52.16881 132.00452
#
# Poissons Ratio (x) = 0.09192 0.23069
# Poissons Ratio (y) = 0.03720 0.01983
# Poissons Ratio (z) = 0.03690 0.00784
#
# Static dielectric constant tensor:
#      x y z
#    x 1.835640 -0.009350 -0.002630 
#    y -0.009350 1.798920 -0.047950 
#    z -0.002630 -0.047950 1.748250 
# 
# From -- ./inp_files/436795.got.cif
#   From: 2010.05.17/outbox.cif.g08.bks.cpg/sg2_219_cif.got.tgz:436795.got - 2010.06.03 11:33:40.
