data_PCOD9012925
_publ_section_title
;
Structure prediction by ZEFSAII (Michael W. Deem and Ramdas Pophale) SiO2 
 PCOD9012925
Probable space group: P -1
;
_chemical_formula_sum "Si O2"
_cell_formula_units_Z 16
_cell_length_a 5.373113
_cell_length_b 13.335515
_cell_length_c 11.862729
_cell_angle_alpha 63.296021
_cell_angle_beta 80.687556
_cell_angle_gamma 98.735614
_cell_volume 724.608030
_symmetry_space_group_name_H-M "P -1"
_symmetry_group_IT_number 2
_symmetry_cell_setting 'triclinic'
loop_
_space_group_symop_operation_xyz
x,y,z
-x,-y,-z
loop_
_atom_site_type_symbol
_atom_site_label
_atom_site_fract_x
_atom_site_fract_y
_atom_site_fract_z
Si Si1 0.391941 0.120040 0.853760
Si Si2 0.123701 0.645481 0.765299
Si Si3 0.261345 0.423028 0.985941
Si Si4 0.981818 0.502816 0.364383
Si Si5 0.838314 0.994566 0.857088
Si Si6 0.543520 0.133892 0.473161
Si Si7 0.978644 0.066275 0.582900
Si Si8 0.573625 0.632249 0.233011
O O1 0.667269 0.090445 0.827643
O O2 0.387342 0.249454 0.761282
O O3 0.136188 0.035397 0.858935
O O4 0.329366 0.102167 0.000695
O O5 0.167757 0.526709 0.876410
O O6 0.354461 0.763135 0.676475
O O7 0.042951 0.607847 0.661246
O O8 0.913093 0.660893 0.865609
O O9 0.324030 0.352505 0.910697
O O10 0.500000 0.500000 0.000000
O O11 0.264978 0.581416 0.270227
O O12 0.000000 0.500000 0.500000
O O13 0.735505 0.552910 0.323694
O O14 0.869077 0.973752 0.734358
O O15 0.272600 0.139777 0.545827
O O16 0.775528 0.142300 0.540237
O O17 0.500000 0.000000 0.500000
O O18 0.000000 0.000000 0.500000
#
# Coordination Sequence:
#
# PCOD9012925 Si02
#       8
#     2   2   2   2   2   2   2   2
#     4  10  22  39  63  91 122 167 214 268 316 374
#     4  10  23  41  64  95 130 168 214 271 328 387
#     4  10  21  42  67  93 126 165 212 275 329 378
#     4  11  24  41  62  91 128 166 211 262 324 389
#     4  10  21  41  62  89 129 170 212 260 320 379
#     4  10  23  40  60  94 131 169 211 253 318 391
#     4  10  22  40  61  90 127 167 210 257 307 381
#     4  11  23  41  64  95 123 160 220 267 320 386
#
# _framework density 22.080905000000001
#
# number of rings (size 3 to 8) (size 9 to 14) (size 15 to 20)
#    0.000    1.750    1.250    1.875    1.750    5.000 
#    2.250    1.250    0.000    0.000    0.000    0.000 
#    0.000    0.000    0.000    0.000    0.000    0.000 
#
# Total GULP energy -89069.631614 kJ/mol
# GULP energy per Si atom -5566.851976 kJ/mol
# Density = 2.203065 g / cm^3
# Si number density = 22.080905 Si / 1000 Ang^3
#
#
#
# Elastic Constant Matrix: (Units=GPa)
#
#
# Indices 1 2 3 4 5 6 
#
# 1 88.9040 -20.1229 -2.6278 -0.0106 -7.2740 1.4410
# 2 -20.1229 44.7728 28.7944 1.2037 0.8168 4.0902
# 3 -2.6278 28.7944 114.8658 25.0120 -14.8464 0.9086
# 4 -0.0106 1.2037 25.0120 36.4654 6.4057 0.8315
# 5 -7.2740 0.8168 -14.8464 6.4057 26.3391 -0.7075
# 6 1.4410 4.0902 0.9086 0.8315 -0.7075 10.0199
#
#
#
# Elastic Compliance Matrix: (Units=1/GPa)
#
#
# Indices 1 2 3 4 5 6 
#
# 1 0.013072 0.006941 -0.001107 0.000177 0.002608 -0.004443
# 2 0.006941 0.033786 -0.010943 0.008082 -0.007668 -0.015010
# 3 -0.001107 -0.010943 0.015701 -0.012650 0.012098 0.005106
# 4 0.000177 0.008082 -0.012650 0.038968 -0.016987 -0.006610
# 5 0.002608 -0.007668 0.012098 -0.016987 0.050052 0.006601
# 6 -0.004443 -0.015010 0.005106 -0.006610 0.006601 0.107119
#
#
# Mechanical properties :
#
#
# Convention : Reuss Voigt Hill
#
# Bulk Modulus (GPa) = 19.10564 28.95890 24.03227
# Shear Modulus (GPa) = 17.46029 30.73146 24.09588
#
# Velocity S-wave (km/s) = 2.81506 3.73469 3.30700
# Velocity P-wave (km/s) = 4.38605 5.63388 5.04866
#
# Compressibility (1/GPa) = 0.05234058
#
# Stress axis : x y z
#
# Youngs Moduli (GPa) = 76.50067 29.59836 63.68836
#
# Poissons Ratio (x) = -0.20543 0.07051
# Poissons Ratio (y) = -0.53096 0.69692
# Poissons Ratio (z) = 0.08470 0.32388
#
# Static dielectric constant tensor:
#      x y z
#    x 1.860950 -0.067950 0.006920 
#    y -0.067950 1.792850 0.008600 
#    z 0.006920 0.008600 1.848410 
# 
# From -- ./inp_files/367592.got.cif
#   From: 2010.05.17/outbox.cif.g08.bks.cpg/sg2_184_cif.got.tgz:367592.got - 2010.06.03 11:33:40.
