data_PCOD9012539
_publ_section_title
;
Structure prediction by ZEFSAII (Michael W. Deem and Ramdas Pophale) SiO2 
 PCOD9012539
Probable space group: P -1
;
_chemical_formula_sum "Si O2"
_cell_formula_units_Z 16
_cell_length_a 9.091934
_cell_length_b 14.790986
_cell_length_c 19.420391
_cell_angle_alpha 159.206699
_cell_angle_beta 54.376258
_cell_angle_gamma 125.557877
_cell_volume 747.398325
_symmetry_space_group_name_H-M "P -1"
_symmetry_group_IT_number 2
_symmetry_cell_setting 'triclinic'
loop_
_space_group_symop_operation_xyz
x,y,z
-x,-y,-z
loop_
_atom_site_type_symbol
_atom_site_label
_atom_site_fract_x
_atom_site_fract_y
_atom_site_fract_z
Si Si1 0.346373 0.277092 0.942963
Si Si2 0.097516 0.306464 0.790077
Si Si3 0.615570 0.783939 0.837214
Si Si4 0.889358 0.578213 0.518936
Si Si5 0.203801 0.977607 0.904479
Si Si6 0.209232 0.911413 0.589806
Si Si7 0.447663 0.325032 0.638622
Si Si8 0.268714 0.768149 0.245147
O O1 0.567752 0.301573 0.899950
O O2 0.262418 0.131434 0.928770
O O3 0.276405 0.108684 0.774476
O O4 0.277732 0.552355 0.147272
O O5 0.288395 0.445262 0.806968
O O6 0.935365 0.231441 0.726322
O O7 0.154058 0.074254 0.656094
O O8 0.000000 0.500000 0.000000
O O9 0.755549 0.754778 0.716634
O O10 0.517212 0.499770 0.679425
O O11 0.500000 0.000000 0.000000
O O12 0.687491 0.887141 0.965233
O O13 0.788556 0.322336 0.328103
O O14 0.000000 0.500000 0.500000
O O15 0.033788 0.727955 0.534373
O O16 0.000000 0.000000 0.000000
O O17 0.377290 0.744063 0.415689
O O18 0.341955 0.052943 0.451103
#
# Coordination Sequence:
#
# PCOD9012539 Si02
#       8
#     2   2   2   2   2   2   2   2
#     4  10  21  40  70  99 137 180 229 273 344 421
#     4  12  26  40  66 102 136 175 230 285 348 402
#     4  12  29  46  72 107 142 183 234 301 352 412
#     4  12  22  47  72 105 142 180 241 286 339 427
#     4  12  24  42  74 103 139 190 233 280 354 418
#     4  11  22  43  72  98 140 183 225 288 340 414
#     4  11  25  46  66  96 140 180 232 283 345 424
#     4  10  23  43  67  98 135 184 222 287 347 408
#
# _framework density 21.407596000000002
#
# number of rings (size 3 to 8) (size 9 to 14) (size 15 to 20)
#    0.000    0.750    5.000    1.500    3.500    4.500 
#    0.000    0.000    0.000    0.000    0.000    0.000 
#    0.000    0.000    0.000    0.000    0.000    0.000 
#
# Total GULP energy -89408.524014 kJ/mol
# GULP energy per Si atom -5588.032751 kJ/mol
# Density = 2.135887 g / cm^3
# Si number density = 21.407596 Si / 1000 Ang^3
#
#
#
# Elastic Constant Matrix: (Units=GPa)
#
#
# Indices 1 2 3 4 5 6 
#
# 1 88.0930 60.7347 41.0619 -5.8684 -21.4358 5.1446
# 2 60.7347 103.4897 1.0035 0.5512 -14.7436 19.7406
# 3 41.0619 1.0035 90.3898 -8.2629 -3.9528 14.0194
# 4 -5.8684 0.5512 -8.2629 40.7221 7.5972 -4.4584
# 5 -21.4358 -14.7436 -3.9528 7.5972 49.7710 -6.9777
# 6 5.1446 19.7406 14.0194 -4.4584 -6.9777 24.2411
#
#
#
# Elastic Compliance Matrix: (Units=1/GPa)
#
#
# Indices 1 2 3 4 5 6 
#
# 1 0.046494 -0.031914 -0.025337 0.003420 0.012962 0.035134
# 2 -0.031914 0.033836 0.018799 -0.003785 -0.006446 -0.034205
# 3 -0.025337 0.018799 0.026251 -0.000243 -0.007032 -0.027182
# 4 0.003420 -0.003785 -0.000243 0.026282 -0.002763 0.006536
# 5 0.012962 -0.006446 -0.007032 -0.002763 0.025507 0.013399
# 6 0.035134 -0.034205 -0.027182 0.006536 0.013399 0.082430
#
#
# Mechanical properties :
#
#
# Convention : Reuss Voigt Hill
#
# Bulk Modulus (GPa) = 33.69460 54.17474 43.93467
# Shear Modulus (GPa) = 15.26275 34.89167 25.07721
#
# Velocity S-wave (km/s) = 2.67303 4.04155 3.42631
# Velocity P-wave (km/s) = 5.02996 6.86586 6.01833
#
# Compressibility (1/GPa) = 0.02967835
#
# Stress axis : x y z
#
# Youngs Moduli (GPa) = 21.50808 29.55440 38.09439
#
# Poissons Ratio (x) = 0.94319 0.96519
# Poissons Ratio (y) = 0.68640 -0.71615
# Poissons Ratio (z) = 0.54495 -0.55560
#
# Static dielectric constant tensor:
#      x y z
#    x 1.795000 0.028940 0.027200 
#    y 0.028940 1.738650 -0.021970 
#    z 0.027200 -0.021970 1.791310 
# 
# From -- ./inp_files/307214.got.cif
#   From: 2010.05.17/outbox.cif.g08.bks.cpg/sg2_154_cif.got.tgz:307214.got - 2010.06.03 11:33:40.
