data_PCOD9012945
_publ_section_title
;
Structure prediction by ZEFSAII (Michael W. Deem and Ramdas Pophale) SiO2 
 PCOD9012945
Probable space group: P -1
;
_chemical_formula_sum "Si O2"
_cell_formula_units_Z 16
_cell_length_a 18.800144
_cell_length_b 13.465352
_cell_length_c 7.861449
_cell_angle_alpha 103.660095
_cell_angle_beta 48.006618
_cell_angle_gamma 143.434076
_cell_volume 645.882910
_symmetry_space_group_name_H-M "P -1"
_symmetry_group_IT_number 2
_symmetry_cell_setting 'triclinic'
loop_
_space_group_symop_operation_xyz
x,y,z
-x,-y,-z
loop_
_atom_site_type_symbol
_atom_site_label
_atom_site_fract_x
_atom_site_fract_y
_atom_site_fract_z
Si Si1 0.665524 0.017274 0.432552
Si Si2 0.307899 0.538053 0.954231
Si Si3 0.478867 0.516213 0.845370
Si Si4 0.786988 0.658308 0.322069
Si Si5 0.660537 0.120332 0.998550
Si Si6 0.122958 0.035151 0.203223
Si Si7 0.005334 0.588501 0.704414
Si Si8 0.572094 0.832778 0.147817
O O1 0.535609 0.802850 0.645659
O O2 0.642326 0.966239 0.253456
O O3 0.900431 0.260602 0.225627
O O4 0.528067 0.986180 0.684928
O O5 0.369855 0.521962 0.002711
O O6 0.218771 0.384261 0.879004
O O7 0.139657 0.470919 0.199699
O O8 0.702323 0.695386 0.481727
O O9 0.500000 0.500000 0.000000
O O10 0.319110 0.285437 0.915269
O O11 0.627617 0.426282 0.581337
O O12 0.995174 0.860819 0.186697
O O13 0.791701 0.253830 0.666091
O O14 0.855453 0.350364 0.897610
O O15 0.561268 0.912370 0.062563
O O16 0.000000 0.000000 0.500000
O O17 0.230888 0.053957 0.159529
#
# Coordination Sequence:
#
# PCOD9012945 Si02
#       8
#     2   2   2   2   2   2   2   2
#     4  10  21  41  62  91 125 162 207 259 309 372
#     4  10  23  40  63  91 124 168 208 255 317 371
#     4  11  23  39  61  91 124 162 209 259 309 371
#     4  10  22  42  61  88 128 164 212 260 305 374
#     4  10  22  39  61  91 124 162 206 258 313 368
#     4  11  23  39  61  90 128 162 208 263 307 367
#     4  10  22  39  61  91 127 158 210 255 308 377
#     4  10  23  38  63  92 123 166 209 254 315 366
#
# _framework density 24.772293000000001
#
# number of rings (size 3 to 8) (size 9 to 14) (size 15 to 20)
#    0.000    1.750    1.250    1.875    1.750    5.000 
#    0.000    0.000    0.000    0.000    0.000    0.000 
#    0.000    0.000    0.000    0.000    0.000    0.000 
#
# Total GULP energy -89287.630803 kJ/mol
# GULP energy per Si atom -5580.476925 kJ/mol
# Density = 2.471591 g / cm^3
# Si number density = 24.772293 Si / 1000 Ang^3
#
#
#
# Elastic Constant Matrix: (Units=GPa)
#
#
# Indices 1 2 3 4 5 6 
#
# 1 60.4718 15.7639 13.0392 1.9049 1.2038 -20.7447
# 2 15.7639 103.3947 -0.8405 -4.9578 0.4861 2.1581
# 3 13.0392 -0.8405 32.6828 11.3255 -10.0686 -8.0014
# 4 1.9049 -4.9578 11.3255 49.8432 -3.4118 -11.0863
# 5 1.2038 0.4861 -10.0686 -3.4118 20.2150 4.9048
# 6 -20.7447 2.1581 -8.0014 -11.0863 4.9048 44.7468
#
#
#
# Elastic Compliance Matrix: (Units=1/GPa)
#
#
# Indices 1 2 3 4 5 6 
#
# 1 0.023616 -0.003732 -0.010555 0.002959 -0.008727 0.010930
# 2 -0.003732 0.010311 0.001499 0.000474 0.001282 -0.001982
# 3 -0.010555 0.001499 0.043964 -0.008305 0.021456 -0.001514
# 4 0.002959 0.000474 -0.008305 0.023043 -0.001836 0.005774
# 5 -0.008727 0.001282 0.021456 -0.001836 0.062163 -0.007540
# 6 0.010930 -0.001982 -0.001514 0.005774 -0.007540 0.029497
#
#
# Mechanical properties :
#
#
# Convention : Reuss Voigt Hill
#
# Bulk Modulus (GPa) = 19.11497 28.05272 23.58384
# Shear Modulus (GPa) = 21.22173 34.20011 27.71092
#
# Velocity S-wave (km/s) = 2.93007 3.71965 3.34821
# Velocity P-wave (km/s) = 4.37951 5.45862 4.94857
#
# Compressibility (1/GPa) = 0.05231501
#
# Stress axis : x y z
#
# Youngs Moduli (GPa) = 42.34503 96.98493 22.74578
#
# Poissons Ratio (x) = 0.36190 0.24009
# Poissons Ratio (y) = 0.15801 -0.03410
# Poissons Ratio (z) = 0.44697 -0.14540
#
# Static dielectric constant tensor:
#      x y z
#    x 2.074730 -0.033070 -0.017880 
#    y -0.033070 2.052410 0.002700 
#    z -0.017880 0.002700 1.991220 
# 
# From -- ./inp_files/333359.got.cif
#   From: 2010.05.17/outbox.cif.g08.bks.cpg/sg2_167_cif.got.tgz:333359.got - 2010.06.03 11:33:40.
