data_PCOD9012006
_publ_section_title
;
Structure prediction by ZEFSAII (Michael W. Deem and Ramdas Pophale) SiO2 
 PCOD9012006
Probable space group: P -1
;
_chemical_formula_sum "Si O2"
_cell_formula_units_Z 14
_cell_length_a 10.562668
_cell_length_b 17.064558
_cell_length_c 9.198426
_cell_angle_alpha 128.359579
_cell_angle_beta 77.747012
_cell_angle_gamma 61.358687
_cell_volume 766.643147
_symmetry_space_group_name_H-M "P -1"
_symmetry_group_IT_number 2
_symmetry_cell_setting 'triclinic'
loop_
_space_group_symop_operation_xyz
x,y,z
-x,-y,-z
loop_
_atom_site_type_symbol
_atom_site_label
_atom_site_fract_x
_atom_site_fract_y
_atom_site_fract_z
Si Si1 0.507453 0.771452 0.609180
Si Si2 0.207590 0.387203 0.915137
Si Si3 0.257214 0.336906 0.280835
Si Si4 0.752705 0.475041 0.697894
Si Si5 0.082329 0.146454 0.081238
Si Si6 0.386637 0.620743 0.528153
Si Si7 0.309610 0.149637 0.824736
O O1 0.671196 0.705955 0.619353
O O2 0.481530 0.668553 0.517738
O O3 0.276949 0.967289 0.899751
O O4 0.596896 0.741068 0.392748
O O5 0.228564 0.477747 0.102386
O O6 0.194276 0.306681 0.942077
O O7 0.000000 0.500000 0.000000
O O8 0.333678 0.391488 0.244997
O O9 0.000000 0.500000 0.500000
O O10 0.366228 0.175522 0.987865
O O11 0.611757 0.461695 0.698521
O O12 0.986390 0.292839 0.376827
O O13 0.164298 0.148584 0.916058
O O14 0.868629 0.212540 0.183045
O O15 0.500000 0.500000 0.500000
O O16 0.500000 0.000000 0.500000
#
# Coordination Sequence:
#
# PCOD9012006 Si02
#       7
#     2   2   2   2   2   2   2
#     4  12  22  38  65  92 119 160 204 255 294 363
#     4  11  25  36  62  94 124 155 205 246 306 358
#     4  11  20  37  62  86 121 161 206 237 301 372
#     4   9  21  40  59  85 122 161 198 246 297 362
#     4  10  22  39  62  89 122 153 208 245 307 353
#     4  10  21  40  68  84 115 167 210 242 299 359
#     4  11  22  41  58  86 129 158 186 258 312 354
#
# _framework density 18.261430000000001
#
# number of rings (size 3 to 8) (size 9 to 14) (size 15 to 20)
#    0.857    0.571    4.286    2.143    2.000    2.286 
#    0.000    0.000    0.000    1.714    0.000    0.000 
#    0.000    0.000    0.000    0.000    0.000    0.000 
#
# Total GULP energy -77953.889738 kJ/mol
# GULP energy per Si atom -5568.134981 kJ/mol
# Density = 1.821987 g / cm^3
# Si number density = 18.261430 Si / 1000 Ang^3
#
#
#
# Elastic Constant Matrix: (Units=GPa)
#
#
# Indices 1 2 3 4 5 6 
#
# 1 66.2159 26.5215 4.7743 -2.9078 7.0088 -13.7229
# 2 26.5215 74.4325 6.6651 -3.6898 2.9598 -12.1763
# 3 4.7743 6.6651 73.1998 -4.3219 7.5709 -24.7780
# 4 -2.9078 -3.6898 -4.3219 29.7079 -3.5494 0.6986
# 5 7.0088 2.9598 7.5709 -3.5494 27.3767 -2.6939
# 6 -13.7229 -12.1763 -24.7780 0.6986 -2.6939 33.1622
#
#
#
# Elastic Compliance Matrix: (Units=1/GPa)
#
#
# Indices 1 2 3 4 5 6 
#
# 1 0.019150 -0.005650 0.002139 0.000830 -0.004077 0.007100
# 2 -0.005650 0.016101 0.000229 0.001415 0.000193 0.003730
# 3 0.002139 0.000229 0.019079 0.002174 -0.004106 0.014845
# 4 0.000830 0.001415 0.002174 0.034631 0.003726 0.002060
# 5 -0.004077 0.000193 -0.004106 0.003726 0.039012 -0.001594
# 6 0.007100 0.003730 0.014845 0.002060 -0.001594 0.045382
#
#
# Mechanical properties :
#
#
# Convention : Reuss Voigt Hill
#
# Bulk Modulus (GPa) = 20.93560 32.19667 26.56614
# Shear Modulus (GPa) = 25.53090 29.77520 27.65305
#
# Velocity S-wave (km/s) = 3.74314 4.04232 3.89561
# Velocity P-wave (km/s) = 5.49279 6.28143 5.90030
#
# Compressibility (1/GPa) = 0.04776553
#
# Stress axis : x y z
#
# Youngs Moduli (GPa) = 52.21809 62.10964 52.41364
#
# Poissons Ratio (x) = 0.35095 -0.11213
# Poissons Ratio (y) = 0.29506 -0.01199
# Poissons Ratio (z) = -0.11172 -0.01421
#
# Static dielectric constant tensor:
#      x y z
#    x 1.653470 0.013530 0.010580 
#    y 0.013530 1.639480 -0.022190 
#    z 0.010580 -0.022190 1.679160 
# 
# From -- ./inp_files/215912.got.cif
#   From: 2010.05.17/outbox.cif.g08.bks.cpg/sg2_108_cif.got.tgz:215912.got - 2010.06.03 11:33:40.
