data_PCOD9012781
_publ_section_title
;
Structure prediction by ZEFSAII (Michael W. Deem and Ramdas Pophale) SiO2 
 PCOD9012781
Probable space group: P -1
;
_chemical_formula_sum "Si O2"
_cell_formula_units_Z 16
_cell_length_a 13.372434
_cell_length_b 7.539819
_cell_length_c 23.166836
_cell_angle_alpha 136.162139
_cell_angle_beta 153.687225
_cell_angle_gamma 60.265810
_cell_volume 624.946698
_symmetry_space_group_name_H-M "P -1"
_symmetry_group_IT_number 2
_symmetry_cell_setting 'triclinic'
loop_
_space_group_symop_operation_xyz
x,y,z
-x,-y,-z
loop_
_atom_site_type_symbol
_atom_site_label
_atom_site_fract_x
_atom_site_fract_y
_atom_site_fract_z
Si Si1 0.216012 0.518202 0.303275
Si Si2 0.002967 0.405515 0.897768
Si Si3 0.795273 0.366780 0.231524
Si Si4 0.711104 0.526319 0.534973
Si Si5 0.115449 0.141702 0.998045
Si Si6 0.418865 0.097046 0.705274
Si Si7 0.917307 0.065333 0.405952
Si Si8 0.506659 0.021771 0.104392
O O1 0.506155 0.637023 0.459073
O O2 0.229588 0.538026 0.384152
O O3 0.082834 0.659083 0.228283
O O4 0.053107 0.163871 0.128143
O O5 0.970311 0.159011 0.868539
O O6 0.856102 0.577846 0.886767
O O7 0.309705 0.641037 0.112822
O O8 0.560821 0.207591 0.117594
O O9 0.019501 0.282079 0.313846
O O10 0.969646 0.664175 0.427180
O O11 0.666765 0.308757 0.087370
O O12 0.565587 0.200502 0.355104
O O13 0.364960 0.124260 0.100665
O O14 0.170362 0.032621 0.521541
O O15 0.335219 0.159898 0.739839
O O16 0.788302 0.098474 0.290079
#
# Coordination Sequence:
#
# PCOD9012781 Si02
#       8
#     2   2   2   2   2   2   2   2
#     4  11  22  43  68  95 132 179 215 271 341 393
#     4  11  24  40  69 101 128 176 217 279 336 395
#     4  10  22  39  62  96 126 173 227 271 327 401
#     4  10  22  41  64  92 132 176 221 271 332 403
#     4  11  23  41  68 100 132 167 228 274 326 409
#     4  10  21  41  60  96 134 164 229 276 324 407
#     4  10  22  40  64  93 131 183 222 273 335 396
#     4  11  22  41  66  93 134 179 218 276 340 392
#
# _framework density 25.602181000000002
#
# number of rings (size 3 to 8) (size 9 to 14) (size 15 to 20)
#    0.000    1.500    2.500    2.250    3.500    0.000 
#    9.000    4.375    0.000    0.000    0.000    0.000 
#    0.000    0.000    0.000    0.000    0.000    0.000 
#
# Total GULP energy -89244.192778 kJ/mol
# GULP energy per Si atom -5577.762049 kJ/mol
# Density = 2.554391 g / cm^3
# Si number density = 25.602181 Si / 1000 Ang^3
#
#
#
# Elastic Constant Matrix: (Units=GPa)
#
#
# Indices 1 2 3 4 5 6 
#
# 1 83.7269 14.5045 36.1379 -12.2682 10.4279 -6.8443
# 2 14.5045 55.1756 20.1184 -14.3881 -8.2255 -0.7299
# 3 36.1379 20.1184 96.8858 -21.8948 5.6527 -9.5459
# 4 -12.2682 -14.3881 -21.8948 31.9218 1.9377 -6.9067
# 5 10.4279 -8.2255 5.6527 1.9377 51.4644 -10.5361
# 6 -6.8443 -0.7299 -9.5459 -6.9067 -10.5361 43.2831
#
#
#
# Elastic Compliance Matrix: (Units=1/GPa)
#
#
# Indices 1 2 3 4 5 6 
#
# 1 0.014954 -0.002171 -0.004376 0.002159 -0.002766 0.001034
# 2 -0.002171 0.022173 -0.002080 0.007878 0.004300 0.001876
# 3 -0.004376 -0.002080 0.014650 0.008261 -0.000614 0.003673
# 4 0.002159 0.007878 0.008261 0.043366 0.000177 0.009259
# 5 -0.002766 0.004300 -0.000614 0.000177 0.021725 0.004816
# 6 0.001034 0.001876 0.003673 0.009259 0.004816 0.026759
#
#
# Mechanical properties :
#
#
# Convention : Reuss Voigt Hill
#
# Bulk Modulus (GPa) = 28.96645 41.92333 35.44489
# Shear Modulus (GPa) = 29.00422 36.33571 32.66996
#
# Velocity S-wave (km/s) = 3.36948 3.77137 3.57608
# Velocity P-wave (km/s) = 5.14553 5.94767 5.56108
#
# Compressibility (1/GPa) = 0.03452270
#
# Stress axis : x y z
#
# Youngs Moduli (GPa) = 66.87309 45.09919 68.25921
#
# Poissons Ratio (x) = 0.09792 0.29868
# Poissons Ratio (y) = 0.14520 0.14200
# Poissons Ratio (z) = 0.29261 0.09382
#
# Static dielectric constant tensor:
#      x y z
#    x 2.014620 0.062300 0.005500 
#    y 0.062300 2.253080 0.115950 
#    z 0.005500 0.115950 2.134960 
# 
# From -- ./inp_files/268692.got.cif
#   From: 2010.05.17/outbox.cif.g08.bks.cpg/sg2_135_cif.got.tgz:268692.got - 2010.06.03 11:33:40.
