data_PCOD9012128
_publ_section_title
;
Structure prediction by ZEFSAII (Michael W. Deem and Ramdas Pophale) SiO2 
 PCOD9012128
Probable space group: P -1
;
_chemical_formula_sum "Si O2"
_cell_formula_units_Z 13
_cell_length_a 8.659700
_cell_length_b 7.599950
_cell_length_c 11.574086
_cell_angle_alpha 55.720768
_cell_angle_beta 120.286874
_cell_angle_gamma 128.198852
_cell_volume 480.148371
_symmetry_space_group_name_H-M "P -1"
_symmetry_group_IT_number 2
_symmetry_cell_setting 'triclinic'
loop_
_space_group_symop_operation_xyz
x,y,z
-x,-y,-z
loop_
_atom_site_type_symbol
_atom_site_label
_atom_site_fract_x
_atom_site_fract_y
_atom_site_fract_z
Si Si1 0.181436 0.903902 0.453370
Si Si2 0.500000 0.500000 0.000000
Si Si3 0.740209 0.516320 0.466588
Si Si4 0.482132 0.689583 0.172917
Si Si5 0.118531 0.587206 0.205650
Si Si6 0.315536 0.863756 0.755783
Si Si7 0.267505 0.107313 0.162969
O O1 0.235582 0.689881 0.519508
O O2 0.292399 0.997864 0.582489
O O3 0.940584 0.771084 0.426746
O O4 0.237387 0.070985 0.300852
O O5 0.553158 0.659324 0.085970
O O6 0.259594 0.330377 0.021563
O O7 0.553081 0.538672 0.339652
O O8 0.751734 0.450051 0.626970
O O9 0.245133 0.606703 0.131993
O O10 0.598393 0.958576 0.170393
O O11 0.901901 0.357567 0.221933
O O12 0.150082 0.851811 0.153383
O O13 0.485438 0.777839 0.818321
#
# Coordination Sequence:
#
# PCOD9012128 Si02
#       7
#     2   1   2   2   2   2   2
#     4   9  18  36  65  97 126 156 195 247 313 377
#     4  12  28  44  60  84 122 170 222 254 286 362
#     4   9  18  36  65  99 127 154 194 248 314 376
#     4  11  24  41  60  88 128 167 204 254 301 353
#     4   9  21  41  67  96 123 155 199 254 317 373
#     4  10  21  40  68  97 123 155 198 255 318 371
#     4  10  22  42  63  88 128 168 201 248 301 357
#
# _framework density 27.074963
#
# number of rings (size 3 to 8) (size 9 to 14) (size 15 to 20)
#    0.000    2.154    0.000    2.769    0.000    9.846 
#    0.000    8.462    0.000    0.000    0.000    0.000 
#    0.000    0.000    0.000    0.000    0.000    0.000 
#
# Total GULP energy -72697.761061 kJ/mol
# GULP energy per Si atom -5592.135466 kJ/mol
# Density = 2.701334 g / cm^3
# Si number density = 27.074963 Si / 1000 Ang^3
#
#
#
# Elastic Constant Matrix: (Units=GPa)
#
#
# Indices 1 2 3 4 5 6 
#
# 1 58.1244 58.3494 22.6432 22.3881 -15.3816 -7.5877
# 2 58.3494 165.4305 54.6624 3.0351 -32.3144 1.9161
# 3 22.6432 54.6624 107.2695 -2.6145 -32.7706 -8.6058
# 4 22.3881 3.0351 -2.6145 44.9953 -8.6517 -13.0017
# 5 -15.3816 -32.3144 -32.7706 -8.6517 45.4351 4.9771
# 6 -7.5877 1.9161 -8.6058 -13.0017 4.9771 50.0475
#
#
#
# Elastic Compliance Matrix: (Units=1/GPa)
#
#
# Indices 1 2 3 4 5 6 
#
# 1 0.036968 -0.012228 -0.002310 -0.017603 -0.001335 0.001235
# 2 -0.012228 0.011767 -0.002250 0.005413 0.003820 -0.001665
# 3 -0.002310 -0.002250 0.013726 0.004353 0.008081 0.002423
# 4 -0.017603 0.005413 0.004353 0.033920 0.006831 0.006005
# 5 -0.001335 0.003820 0.008081 0.006831 0.031438 -0.000311
# 6 0.001235 -0.001665 0.002423 0.006005 -0.000311 0.022240
#
#
# Mechanical properties :
#
#
# Convention : Reuss Voigt Hill
#
# Bulk Modulus (GPa) = 34.62010 66.90383 50.76196
# Shear Modulus (GPa) = 25.87163 41.10688 33.48925
#
# Velocity S-wave (km/s) = 3.09456 3.90072 3.52079
# Velocity P-wave (km/s) = 5.05796 6.71205 5.94284
#
# Compressibility (1/GPa) = 0.02888496
#
# Stress axis : x y z
#
# Youngs Moduli (GPa) = 27.05051 84.98116 72.85614
#
# Poissons Ratio (x) = 1.03914 0.16831
# Poissons Ratio (y) = 0.33077 0.16392
# Poissons Ratio (z) = 0.06249 0.19120
#
# Static dielectric constant tensor:
#      x y z
#    x 2.160090 -0.083890 0.201150 
#    y -0.083890 2.260190 -0.277230 
#    z 0.201150 -0.277230 2.486240 
# 
# From -- ./inp_files/373686.got.cif
#   From: 2010.05.17/outbox.cif.g08.bks.cpg/sg2_187_cif.got.tgz:373686.got - 2010.06.03 11:33:40.
