data_PCOD9012477
_publ_section_title
;
Structure prediction by ZEFSAII (Michael W. Deem and Ramdas Pophale) SiO2 
 PCOD9012477
Probable space group: P -1
;
_chemical_formula_sum "Si O2"
_cell_formula_units_Z 16
_cell_length_a 8.453197
_cell_length_b 20.725126
_cell_length_c 14.044800
_cell_angle_alpha 20.347162
_cell_angle_beta 88.799653
_cell_angle_gamma 78.034600
_cell_volume 719.997656
_symmetry_space_group_name_H-M "P -1"
_symmetry_group_IT_number 2
_symmetry_cell_setting 'triclinic'
loop_
_space_group_symop_operation_xyz
x,y,z
-x,-y,-z
loop_
_atom_site_type_symbol
_atom_site_label
_atom_site_fract_x
_atom_site_fract_y
_atom_site_fract_z
Si Si1 0.471781 0.081661 0.278397
Si Si2 0.926298 0.624594 0.627288
Si Si3 0.926904 0.091021 0.770129
Si Si4 0.728582 0.942643 0.851509
Si Si5 0.650641 0.759335 0.284643
Si Si6 0.378590 0.438888 0.177140
Si Si7 0.803630 0.613407 0.900510
Si Si8 0.516357 0.504433 0.259419
O O1 0.292332 0.114614 0.177119
O O2 0.500000 0.000000 0.500000
O O3 0.660776 0.868587 0.526940
O O4 0.478195 0.297900 0.968983
O O5 0.852604 0.662486 0.468009
O O6 0.770639 0.599711 0.715003
O O7 0.937380 0.830784 0.375465
O O8 0.129954 0.426240 0.935754
O O9 0.723039 0.305589 0.502110
O O10 0.901951 0.940192 0.903493
O O11 0.000000 0.000000 0.000000
O O12 0.567265 0.201056 0.501503
O O13 0.673998 0.807277 0.109368
O O14 0.575960 0.600850 0.529925
O O15 0.500000 0.000000 0.000000
O O16 0.299709 0.503177 0.981824
O O17 0.402972 0.589905 0.041728
O O18 0.000000 0.500000 0.000000
#
# Coordination Sequence:
#
# PCOD9012477 Si02
#       8
#     2   2   2   2   2   2   2   2
#     4  11  24  42  59  87 134 167 202 257 314 373
#     4  10  17  29  56  87 116 142 191 260 305 334
#     4  11  19  32  58  93 117 155 205 248 304 374
#     4  10  20  36  60  86 118 166 202 246 302 376
#     4  11  17  36  62  88 121 154 207 259 298 372
#     4   8  17  34  57  85 113 155 208 250 289 366
#     4   9  19  37  61  87 114 158 211 260 295 358
#     4  10  21  35  61  88 118 168 203 249 317 361
#
# _framework density 22.222294000000002
#
# number of rings (size 3 to 8) (size 9 to 14) (size 15 to 20)
#    0.000    2.000    5.000    0.750    0.000    1.500 
#    0.000   10.000    0.000    7.500    0.000    0.000 
#    0.000    0.000    0.000    0.000    0.000    0.000 
#
# Total GULP energy -89087.978643 kJ/mol
# GULP energy per Si atom -5567.998665 kJ/mol
# Density = 2.217172 g / cm^3
# Si number density = 22.222294 Si / 1000 Ang^3
#
#
#
# Elastic Constant Matrix: (Units=GPa)
#
#
# Indices 1 2 3 4 5 6 
#
# 1 78.3715 31.5423 28.8483 6.7313 -16.7981 25.9491
# 2 31.5423 106.5439 32.9973 17.5350 -0.9524 35.7652
# 3 28.8483 32.9973 75.0166 6.6938 -8.1662 21.4454
# 4 6.7313 17.5350 6.6938 36.0462 7.5389 -2.2337
# 5 -16.7981 -0.9524 -8.1662 7.5389 40.3346 7.1473
# 6 25.9491 35.7652 21.4454 -2.2337 7.1473 46.2272
#
#
#
# Elastic Compliance Matrix: (Units=1/GPa)
#
#
# Indices 1 2 3 4 5 6 
#
# 1 0.021016 0.000096 -0.002576 -0.006749 0.011767 -0.012822
# 2 0.000096 0.015562 -0.002262 -0.008689 0.003707 -0.012037
# 3 -0.002576 -0.002262 0.017655 -0.002892 0.004009 -0.005754
# 4 -0.006749 -0.008689 -0.002892 0.037546 -0.013408 0.015740
# 5 0.011767 0.003707 0.004009 -0.013408 0.036214 -0.017580
# 6 -0.012822 -0.012037 -0.005754 0.015740 -0.017580 0.044291
#
#
# Mechanical properties :
#
#
# Convention : Reuss Voigt Hill
#
# Bulk Modulus (GPa) = 22.34631 49.63420 35.99025
# Shear Modulus (GPa) = 25.42139 35.62452 30.52296
#
# Velocity S-wave (km/s) = 3.38592 4.00821 3.71014
# Velocity P-wave (km/s) = 5.03622 6.61852 5.88083
#
# Compressibility (1/GPa) = 0.04475013
#
# Stress axis : x y z
#
# Youngs Moduli (GPa) = 47.58188 64.25903 56.64026
#
# Poissons Ratio (x) = -0.00616 0.14588
# Poissons Ratio (y) = -0.00456 0.12812
# Poissons Ratio (z) = 0.12255 0.14535
#
# Static dielectric constant tensor:
#      x y z
#    x 1.874960 0.042550 -0.003530 
#    y 0.042550 1.976670 0.074850 
#    z -0.003530 0.074850 1.855220 
# 
# From -- ./inp_files/189369.got.cif
#   From: 2010.05.17/outbox.cif.g08.bks.cpg/sg2_95_cif.got.tgz:189369.got - 2010.06.03 11:33:40.
