data_PCOD9012408
_publ_section_title
;
Structure prediction by ZEFSAII (Michael W. Deem and Ramdas Pophale) SiO2 
 PCOD9012408
Probable space group: P -1
;
_chemical_formula_sum "Si O2"
_cell_formula_units_Z 16
_cell_length_a 20.162774
_cell_length_b 12.790376
_cell_length_c 8.079674
_cell_angle_alpha 51.357930
_cell_angle_beta 122.210820
_cell_angle_gamma 156.123648
_cell_volume 653.971542
_symmetry_space_group_name_H-M "P -1"
_symmetry_group_IT_number 2
_symmetry_cell_setting 'triclinic'
loop_
_space_group_symop_operation_xyz
x,y,z
-x,-y,-z
loop_
_atom_site_type_symbol
_atom_site_label
_atom_site_fract_x
_atom_site_fract_y
_atom_site_fract_z
Si Si1 0.945269 0.764501 0.152910
Si Si2 0.643239 0.797193 0.208640
Si Si3 0.533272 0.232974 0.854891
Si Si4 0.249852 0.605573 0.207524
Si Si5 0.139898 0.848122 0.525569
Si Si6 0.454250 0.249569 0.393540
Si Si7 0.031755 0.683892 0.065672
Si Si8 0.366838 0.684782 0.626982
O O1 0.004037 0.765606 0.073700
O O2 0.750022 0.477359 0.211691
O O3 0.025215 0.798040 0.374379
O O4 0.000000 0.000000 0.000000
O O5 0.493172 0.673072 0.168437
O O6 0.568167 0.544778 0.302538
O O7 0.742710 0.939392 0.373785
O O8 0.782991 0.053273 0.012864
O O9 0.713058 0.449157 0.831747
O O10 0.461740 0.156711 0.649785
O O11 0.408765 0.941117 0.062602
O O12 0.258952 0.548240 0.452649
O O13 0.088729 0.451523 0.112328
O O14 0.040575 0.562798 0.714191
O O15 0.264354 0.006401 0.381150
O O16 0.532524 0.299477 0.287897
O O17 0.500000 0.000000 0.500000
#
# Coordination Sequence:
#
# PCOD9012408 Si02
#       8
#     2   2   2   2   2   2   2   2
#     4  12  29  47  63  96 143 181 217 276 348 390
#     4  11  22  39  71 100 134 167 224 276 336 392
#     4   9  19  35  65  99 129 158 217 267 329 372
#     4  10  21  40  70 100 127 168 228 276 316 393
#     4  11  23  46  68  97 134 178 220 279 333 398
#     4  10  21  43  66 100 132 170 222 273 331 399
#     4  12  24  43  69 101 132 176 229 275 325 403
#     4  11  25  45  70  97 133 178 227 271 330 397
#
# _framework density 24.465896999999998
#
# number of rings (size 3 to 8) (size 9 to 14) (size 15 to 20)
#    0.000    1.250    2.500    4.500    5.250    3.000 
#    0.000    5.625    0.000    0.000    0.000    0.000 
#    0.000    0.000    0.000    0.000    0.000    0.000 
#
# Total GULP energy -89580.509127 kJ/mol
# GULP energy per Si atom -5598.781820 kJ/mol
# Density = 2.441021 g / cm^3
# Si number density = 24.465897 Si / 1000 Ang^3
#
#
#
# Elastic Constant Matrix: (Units=GPa)
#
#
# Indices 1 2 3 4 5 6 
#
# 1 104.5091 19.5330 68.4163 17.5133 42.3206 -11.5198
# 2 19.5330 57.5681 42.7665 -9.3257 19.2830 4.9939
# 3 68.4163 42.7665 33.6915 -6.4703 -17.0273 13.7450
# 4 17.5133 -9.3257 -6.4703 29.7619 -16.4253 5.5176
# 5 42.3206 19.2830 -17.0273 -16.4253 29.5084 3.5581
# 6 -11.5198 4.9939 13.7450 5.5176 3.5581 43.8743
#
#
#
# Elastic Compliance Matrix: (Units=1/GPa)
#
#
# Indices 1 2 3 4 5 6 
#
# 1 0.003389 -0.008909 0.007989 0.000451 0.005959 -0.001139
# 2 -0.008909 0.023393 -0.002405 0.016787 0.006276 -0.006869
# 3 0.007989 -0.002405 0.003373 -0.014788 -0.016718 0.004530
# 4 0.000451 0.016787 -0.014788 0.035609 -0.000132 -0.001627
# 5 0.005959 0.006276 -0.016718 -0.000132 0.010891 0.005221
# 6 -0.001139 -0.006869 0.004530 -0.001627 0.005221 0.021637
#
#
# Mechanical properties :
#
#
# Convention : Reuss Voigt Hill
#
# Bulk Modulus (GPa) = 42.54349 50.80006 46.67177
# Shear Modulus (GPa) = 44.33534 24.96578 34.65056
#
# Velocity S-wave (km/s) = 4.26153 3.19789 3.76743
# Velocity P-wave (km/s) = 6.45297 5.86890 6.16785
#
# Compressibility (1/GPa) = 0.02350536
#
# Stress axis : x y z
#
# Youngs Moduli (GPa) = 295.03335 42.74718 296.51403
#
# Poissons Ratio (x) = 0.38085 -2.36892
# Poissons Ratio (y) = 2.62859 0.71305
# Poissons Ratio (z) = -2.35709 0.10280
#
# Static dielectric constant tensor:
#      x y z
#    x 1.557940 -0.086300 0.210620 
#    y -0.086300 1.920280 0.134190 
#    z 0.210620 0.134190 1.850620 
# 
# From -- ./inp_files/332927.got.cif
#   From: 2010.05.17/outbox.cif.g08.bks.cpg/sg2_167_cif.got.tgz:332927.got - 2010.06.03 11:33:40.
