data_PCOD9012112
_publ_section_title
;
Structure prediction by ZEFSAII (Michael W. Deem and Ramdas Pophale) SiO2 
 PCOD9012112
Probable space group: P -1
;
_chemical_formula_sum "Si O2"
_cell_formula_units_Z 16
_cell_length_a 15.715429
_cell_length_b 8.554341
_cell_length_c 12.286261
_cell_angle_alpha 32.441001
_cell_angle_beta 67.071620
_cell_angle_gamma 81.399460
_cell_volume 760.425978
_symmetry_space_group_name_H-M "P -1"
_symmetry_group_IT_number 2
_symmetry_cell_setting 'triclinic'
loop_
_space_group_symop_operation_xyz
x,y,z
-x,-y,-z
loop_
_atom_site_type_symbol
_atom_site_label
_atom_site_fract_x
_atom_site_fract_y
_atom_site_fract_z
Si Si1 0.299373 0.546375 0.963594
Si Si2 0.881642 0.883951 0.621333
Si Si3 0.598928 0.709102 0.766519
Si Si4 0.899772 0.454530 0.425922
Si Si5 0.604025 0.706581 0.514985
Si Si6 0.127124 0.542414 0.306422
Si Si7 0.765439 0.788086 0.220618
Si Si8 0.616948 0.426441 0.323692
O O1 0.345992 0.464548 0.880229
O O2 0.358450 0.914398 0.731221
O O3 0.180076 0.424354 0.094704
O O4 0.317524 0.347929 0.170416
O O5 0.864038 0.766932 0.572000
O O6 0.859792 0.160259 0.535077
O O7 0.000000 0.000000 0.500000
O O8 0.601051 0.611658 0.697913
O O9 0.605899 0.064990 0.551647
O O10 0.500000 0.500000 0.000000
O O11 0.861355 0.415633 0.593644
O O12 0.863263 0.712797 0.238975
O O13 0.017125 0.534638 0.335034
O O14 0.687865 0.643830 0.441521
O O15 0.492118 0.563627 0.609608
O O16 0.204385 0.844560 0.031219
O O17 0.702893 0.621777 0.245483
#
# Coordination Sequence:
#
# PCOD9012112 Si02
#       8
#     2   2   2   2   2   2   2   2
#     4  11  20  40  65  87 127 165 214 264 322 378
#     4  10  21  40  68  96 124 166 214 264 322 384
#     4  11  20  39  66  86 120 171 218 267 313 379
#     4  10  23  43  65  98 129 168 224 263 324 391
#     4  11  23  38  60  93 124 170 215 255 323 384
#     4  10  22  44  68  91 133 174 208 274 328 380
#     4  12  24  40  62  94 134 167 212 267 324 387
#     4  11  23  39  60  93 126 170 212 264 322 385
#
# _framework density 21.040838000000001
#
# number of rings (size 3 to 8) (size 9 to 14) (size 15 to 20)
#    0.000    1.250    3.750    3.000    1.750    0.000 
#    0.000    0.625    0.000    9.000    0.000    0.000 
#    0.000    0.000    0.000    0.000    0.000    0.000 
#
# Total GULP energy -89203.501107 kJ/mol
# GULP energy per Si atom -5575.218819 kJ/mol
# Density = 2.099295 g / cm^3
# Si number density = 21.040838 Si / 1000 Ang^3
#
#
#
# Elastic Constant Matrix: (Units=GPa)
#
#
# Indices 1 2 3 4 5 6 
#
# 1 82.5988 19.4796 23.8273 10.4975 -1.0710 5.9159
# 2 19.4796 100.1651 5.6624 12.7064 15.3105 7.8845
# 3 23.8273 5.6624 59.8035 18.0366 2.4786 2.8460
# 4 10.4975 12.7064 18.0366 29.2702 -3.6880 -6.6926
# 5 -1.0710 15.3105 2.4786 -3.6880 32.7478 10.3203
# 6 5.9159 7.8845 2.8460 -6.6926 10.3203 24.0207
#
#
#
# Elastic Compliance Matrix: (Units=1/GPa)
#
#
# Indices 1 2 3 4 5 6 
#
# 1 0.014694 -0.002541 -0.005091 -0.001540 0.003127 -0.003954
# 2 -0.002541 0.012457 0.002513 -0.007549 -0.005898 -0.003330
# 3 -0.005091 0.002513 0.023531 -0.015373 -0.003193 -0.005270
# 4 -0.001540 -0.007549 -0.015373 0.051992 0.005157 0.016949
# 5 0.003127 -0.005898 -0.003193 0.005157 0.038491 -0.013556
# 6 -0.003954 -0.003330 -0.005270 0.016949 -0.013556 0.054869
#
#
# Mechanical properties :
#
#
# Convention : Reuss Voigt Hill
#
# Bulk Modulus (GPa) = 24.72576 37.83401 31.27988
# Shear Modulus (GPa) = 22.75281 30.11428 26.43354
#
# Velocity S-wave (km/s) = 3.29198 3.78726 3.54827
# Velocity P-wave (km/s) = 5.12116 6.09465 5.62899
#
# Compressibility (1/GPa) = 0.04044365
#
# Stress axis : x y z
#
# Youngs Moduli (GPa) = 68.05494 80.27634 42.49648
#
# Poissons Ratio (x) = 0.20400 0.21635
# Poissons Ratio (y) = 0.17294 -0.10678
# Poissons Ratio (z) = 0.34646 -0.20171
#
# Static dielectric constant tensor:
#      x y z
#    x 1.860300 -0.003600 -0.058200 
#    y -0.003600 1.799100 0.001300 
#    z -0.058200 0.001300 1.750140 
# 
# From -- ./inp_files/49347.got.cif
#   From: 2010.05.17/outbox.cif.g08.bks.cpg/sg2_25_cif.got.tgz:49347.got - 2010.06.03 11:33:40.
