data_PCOD9012089
_publ_section_title
;
Structure prediction by ZEFSAII (Michael W. Deem and Ramdas Pophale) SiO2 
 PCOD9012089
Probable space group: P -1
;
_chemical_formula_sum "Si O2"
_cell_formula_units_Z 16
_cell_length_a 8.756869
_cell_length_b 9.408720
_cell_length_c 10.907727
_cell_angle_alpha 85.476934
_cell_angle_beta 53.351119
_cell_angle_gamma 76.883291
_cell_volume 700.376327
_symmetry_space_group_name_H-M "P -1"
_symmetry_group_IT_number 2
_symmetry_cell_setting 'triclinic'
loop_
_space_group_symop_operation_xyz
x,y,z
-x,-y,-z
loop_
_atom_site_type_symbol
_atom_site_label
_atom_site_fract_x
_atom_site_fract_y
_atom_site_fract_z
Si Si1 0.613752 0.526943 0.566587
Si Si2 0.605370 0.967193 0.079658
Si Si3 0.961194 0.163560 0.133700
Si Si4 0.308948 0.952728 0.546585
Si Si5 0.044180 0.392360 0.283699
Si Si6 0.320865 0.197475 0.363220
Si Si7 0.997656 0.380352 0.903374
Si Si8 0.555374 0.710879 0.275514
O O1 0.500000 0.500000 0.500000
O O2 0.592666 0.693841 0.599827
O O3 0.510884 0.436493 0.716278
O O4 0.841456 0.457565 0.445828
O O5 0.579404 0.807733 0.142051
O O6 0.492178 0.084153 0.221302
O O7 0.835267 0.953458 0.971694
O O8 0.500000 0.000000 0.000000
O O9 0.001579 0.281043 0.207550
O O10 0.813009 0.084612 0.278749
O O11 0.917137 0.254363 0.021102
O O12 0.387933 0.810796 0.433205
O O13 0.500000 0.000000 0.500000
O O14 0.208480 0.093075 0.501471
O O15 0.193091 0.300735 0.315660
O O16 0.099424 0.528544 0.174478
O O17 0.228721 0.320081 0.764828
O O18 0.000000 0.500000 0.000000
#
# Coordination Sequence:
#
# PCOD9012089 Si02
#       8
#     2   2   2   2   2   2   2   2
#     4  12  23  42  71 100 138 184 237 285 351 413
#     4  10  21  44  70  96 146 181 227 288 352 418
#     4  10  21  41  74  98 131 193 232 278 358 411
#     4  11  24  43  70 100 136 178 243 293 337 422
#     4  11  21  40  71 104 141 178 234 295 345 415
#     4  11  26  41  70 109 140 177 236 296 349 411
#     4   9  20  37  65  98 130 176 230 275 342 417
#     4  10  21  40  68  95 125 188 236 276 340 412
#
# _framework density 22.844861000000002
#
# number of rings (size 3 to 8) (size 9 to 14) (size 15 to 20)
#    0.000    1.500    3.750    1.125    0.000    1.500 
#    0.000    7.500    8.250    0.000    0.000    0.000 
#    0.000    0.000    0.000    0.000    0.000    0.000 
#
# Total GULP energy -89465.001509 kJ/mol
# GULP energy per Si atom -5591.562594 kJ/mol
# Density = 2.279287 g / cm^3
# Si number density = 22.844861 Si / 1000 Ang^3
#
#
#
# Elastic Constant Matrix: (Units=GPa)
#
#
# Indices 1 2 3 4 5 6 
#
# 1 58.9044 42.7250 38.7179 -30.8991 14.5519 -26.0466
# 2 42.7250 141.6647 66.6084 -28.1967 -0.8980 -10.8903
# 3 38.7179 66.6084 151.7812 -40.7100 -17.7309 -14.1456
# 4 -30.8991 -28.1967 -40.7100 48.6325 -5.1325 12.1474
# 5 14.5519 -0.8980 -17.7309 -5.1325 28.4867 -4.1890
# 6 -26.0466 -10.8903 -14.1456 12.1474 -4.1890 46.6358
#
#
#
# Elastic Compliance Matrix: (Units=1/GPa)
#
#
# Indices 1 2 3 4 5 6 
#
# 1 0.046506 -0.007296 -0.006126 0.013573 -0.022881 0.016822
# 2 -0.007296 0.010336 -0.002675 -0.000102 0.002037 -0.002263
# 3 -0.006126 -0.002675 0.012302 0.006318 0.011707 -0.000909
# 4 0.013573 -0.000102 0.006318 0.034576 0.003338 0.000767
# 5 -0.022881 0.002037 0.011707 0.003338 0.054043 -0.004767
# 6 0.016822 -0.002263 -0.000909 0.000767 -0.004767 0.029406
#
#
# Mechanical properties :
#
#
# Convention : Reuss Voigt Hill
#
# Bulk Modulus (GPa) = 27.06332 72.05032 49.55682
# Shear Modulus (GPa) = 21.58148 38.37094 29.97621
#
# Velocity S-wave (km/s) = 3.07693 4.10278 3.62631
# Velocity P-wave (km/s) = 4.94930 7.35195 6.26685
#
# Compressibility (1/GPa) = 0.03695038
#
# Stress axis : x y z
#
# Youngs Moduli (GPa) = 21.50262 96.75237 81.28450
#
# Poissons Ratio (x) = 0.70588 0.49796
# Poissons Ratio (y) = 0.15688 0.21744
# Poissons Ratio (z) = 0.13173 0.25882
#
# Static dielectric constant tensor:
#      x y z
#    x 1.855320 -0.040030 0.027060 
#    y -0.040030 1.923840 -0.030470 
#    z 0.027060 -0.030470 1.899690 
# 
# From -- ./inp_files/381876.got.cif
#   From: 2010.05.17/outbox.cif.g08.bks.cpg/sg2_191_cif.got.tgz:381876.got - 2010.06.03 11:33:40.
