data_PCOD9012217
_publ_section_title
;
Structure prediction by ZEFSAII (Michael W. Deem and Ramdas Pophale) SiO2 
 PCOD9012217
Probable space group: P -1
;
_chemical_formula_sum "Si O2"
_cell_formula_units_Z 14
_cell_length_a 18.027170
_cell_length_b 8.411990
_cell_length_c 8.319118
_cell_angle_alpha 94.325523
_cell_angle_beta 44.791048
_cell_angle_gamma 124.703007
_cell_volume 601.698055
_symmetry_space_group_name_H-M "P -1"
_symmetry_group_IT_number 2
_symmetry_cell_setting 'triclinic'
loop_
_space_group_symop_operation_xyz
x,y,z
-x,-y,-z
loop_
_atom_site_type_symbol
_atom_site_label
_atom_site_fract_x
_atom_site_fract_y
_atom_site_fract_z
Si Si1 0.364332 0.633423 0.709786
Si Si2 0.569127 0.766762 0.096265
Si Si3 0.118338 0.346249 0.594185
Si Si4 0.034377 0.152489 0.213717
Si Si5 0.883604 0.485186 0.087432
Si Si6 0.416839 0.603541 0.970272
Si Si7 0.911345 0.241509 0.667517
O O1 0.512913 0.741797 0.997738
O O2 0.259907 0.676915 0.832443
O O3 0.453463 0.726203 0.750651
O O4 0.220989 0.346892 0.931125
O O5 0.584223 0.589853 0.064126
O O6 0.732251 0.036123 0.890259
O O7 0.467100 0.701647 0.404005
O O8 0.194715 0.511852 0.641831
O O9 0.246646 0.477589 0.269757
O O10 0.966445 0.273858 0.766247
O O11 0.058926 0.105484 0.709366
O O12 0.977735 0.157449 0.470408
O O13 0.000217 0.260651 0.156484
O O14 0.000000 0.500000 0.000000
O O15 0.000000 0.500000 0.500000
#
# Coordination Sequence:
#
# PCOD9012217 Si02
#       7
#     2   2   2   2   2   2   2
#     4  10  22  41  70 102 145 183 234 299 361 423
#     4  11  24  43  68 106 149 181 241 298 364 422
#     4  12  20  41  73 100 139 193 238 300 346 428
#     4  10  21  40  69 100 134 181 245 286 351 424
#     4  10  22  39  67 103 146 182 237 295 358 431
#     4  11  21  41  74 106 143 186 234 304 360 423
#     4  12  25  43  70  99 141 190 243 291 358 430
#
# _framework density 23.267485000000001
#
# number of rings (size 3 to 8) (size 9 to 14) (size 15 to 20)
#    0.857    0.286    4.286    3.000    0.000    0.000 
#    2.571    1.429    0.000    0.000    0.000    0.000 
#    0.000    0.000    0.000    0.000    0.000    0.000 
#
# Total GULP energy -78000.056059 kJ/mol
# GULP energy per Si atom -5571.432576 kJ/mol
# Density = 2.321453 g / cm^3
# Si number density = 23.267485 Si / 1000 Ang^3
#
#
#
# Elastic Constant Matrix: (Units=GPa)
#
#
# Indices 1 2 3 4 5 6 
#
# 1 163.1347 49.2415 11.1025 -10.7240 5.5559 60.4136
# 2 49.2415 67.8176 40.8673 0.0702 -0.9575 27.2140
# 3 11.1025 40.8673 97.5280 -1.0821 -7.3885 49.2913
# 4 -10.7240 0.0702 -1.0821 17.6264 4.8696 22.1260
# 5 5.5559 -0.9575 -7.3885 4.8696 30.3960 4.4755
# 6 60.4136 27.2140 49.2913 22.1260 4.4755 7.0783
#
#
#
# Elastic Compliance Matrix: (Units=1/GPa)
#
#
# Indices 1 2 3 4 5 6 
#
# 1 0.005100 -0.005227 -0.001962 -0.004909 -0.001773 0.006693
# 2 -0.005227 0.024873 -0.007521 0.001809 0.000281 -0.004483
# 3 -0.001962 -0.007521 0.010014 -0.010710 0.003183 0.007394
# 4 -0.004909 0.001809 -0.010710 0.030545 -0.009494 0.020044
# 5 -0.001773 0.000281 0.003183 -0.009494 0.035673 -0.000993
# 6 0.006693 -0.004483 0.007394 0.020044 -0.000993 -0.012129
#
#
# Mechanical properties :
#
#
# Convention : Reuss Voigt Hill
#
# Bulk Modulus (GPa) = 94.62015 58.98922 76.80468
# Shear Modulus (GPa) = 39.36492 26.17139 32.76815
#
# Velocity S-wave (km/s) = 4.11766 3.35745 3.75684
# Velocity P-wave (km/s) = 7.95999 6.35906 7.20413
#
# Compressibility (1/GPa) = 0.01056857
#
# Stress axis : x y z
#
# Youngs Moduli (GPa) = 196.07537 40.20355 99.86427
#
# Poissons Ratio (x) = 0.21013 0.19594
# Poissons Ratio (y) = 1.02480 0.75105
# Poissons Ratio (z) = 0.38470 0.30236
#
# Static dielectric constant tensor:
#      x y z
#    x 1.885310 0.059050 -0.060960 
#    y 0.059050 1.987240 0.170850 
#    z -0.060960 0.170850 1.849450 
# 
# From -- ./inp_files/298173.got.cif
#   From: 2010.05.17/outbox.cif.g08.bks.cpg/sg2_150_cif.got.tgz:298173.got - 2010.06.03 11:33:40.
