data_PCOD9012595
_publ_section_title
;
Structure prediction by ZEFSAII (Michael W. Deem and Ramdas Pophale) SiO2 
 PCOD9012595
Probable space group: P -1
;
_chemical_formula_sum "Si O2"
_cell_formula_units_Z 14
_cell_length_a 8.079465
_cell_length_b 11.903319
_cell_length_c 11.986478
_cell_angle_alpha 56.772090
_cell_angle_beta 38.865027
_cell_angle_gamma 65.110085
_cell_volume 605.042469
_symmetry_space_group_name_H-M "P -1"
_symmetry_group_IT_number 2
_symmetry_cell_setting 'triclinic'
loop_
_space_group_symop_operation_xyz
x,y,z
-x,-y,-z
loop_
_atom_site_type_symbol
_atom_site_label
_atom_site_fract_x
_atom_site_fract_y
_atom_site_fract_z
Si Si1 0.207884 0.339073 0.500676
Si Si2 0.077074 0.374229 0.103049
Si Si3 0.548452 0.107040 0.817830
Si Si4 0.498952 0.959210 0.717412
Si Si5 0.357506 0.636432 0.228852
Si Si6 0.936689 0.766797 0.605527
Si Si7 0.281022 0.841435 0.681168
O O1 0.280502 0.493278 0.401033
O O2 0.155288 0.314385 0.410334
O O3 0.459724 0.246651 0.439162
O O4 0.910346 0.310650 0.717889
O O5 0.946755 0.337083 0.310146
O O6 0.979826 0.244704 0.154941
O O7 0.383972 0.392174 0.962306
O O8 0.000000 0.500000 0.000000
O O9 0.534356 0.255059 0.798146
O O10 0.845369 0.123195 0.604363
O O11 0.393443 0.055313 0.817595
O O12 0.500000 0.000000 0.000000
O O13 0.682436 0.847071 0.738662
O O14 0.298838 0.890782 0.772293
O O15 0.689262 0.037218 0.486881
#
# Coordination Sequence:
#
# PCOD9012595 Si02
#       7
#     2   2   2   2   2   2   2
#     4   9  20  44  63  92 130 180 215 269 331 390
#     4  12  23  41  67 103 129 168 226 281 325 385
#     4  11  22  38  63  96 130 176 221 260 325 401
#     4  10  21  41  69  92 130 182 216 270 327 394
#     4  10  22  39  65  88 134 173 214 267 326 394
#     4  10  22  40  69  92 132 178 224 266 327 395
#     4  10  21  40  71  97 132 167 227 273 326 380
#
# _framework density 23.138871000000002
#
# number of rings (size 3 to 8) (size 9 to 14) (size 15 to 20)
#    0.000    1.714    2.857    1.286    2.000    0.571 
#    2.571    8.571    0.000    0.000    0.000    0.000 
#    0.000    0.000    0.000    0.000    0.000    0.000 
#
# Total GULP energy -78009.742151 kJ/mol
# GULP energy per Si atom -5572.124439 kJ/mol
# Density = 2.308621 g / cm^3
# Si number density = 23.138871 Si / 1000 Ang^3
#
#
#
# Elastic Constant Matrix: (Units=GPa)
#
#
# Indices 1 2 3 4 5 6 
#
# 1 79.1705 12.3284 45.0075 -8.7435 -1.5698 -4.4801
# 2 12.3284 59.1736 6.0444 -12.0542 -2.7826 3.7376
# 3 45.0075 6.0444 89.3093 -13.6238 -9.3695 -5.4788
# 4 -8.7435 -12.0542 -13.6238 25.5177 -7.1749 -4.1770
# 5 -1.5698 -2.7826 -9.3695 -7.1749 43.7092 1.3671
# 6 -4.4801 3.7376 -5.4788 -4.1770 1.3671 39.6344
#
#
#
# Elastic Compliance Matrix: (Units=1/GPa)
#
#
# Indices 1 2 3 4 5 6 
#
# 1 0.018323 -0.003097 -0.009177 -0.000352 -0.001599 0.001113
# 2 -0.003097 0.019596 0.002049 0.010047 0.003255 -0.000968
# 3 -0.009177 0.002049 0.017707 0.009013 0.005014 0.001994
# 4 -0.000352 0.010047 0.009013 0.052613 0.011026 0.005423
# 5 -0.001599 0.003255 0.005014 0.011026 0.025898 0.000474
# 6 0.001113 -0.000968 0.001994 0.005423 0.000474 0.026278
#
#
# Mechanical properties :
#
#
# Convention : Reuss Voigt Hill
#
# Bulk Modulus (GPa) = 28.42948 39.37935 33.90441
# Shear Modulus (GPa) = 25.96171 32.72381 29.34276
#
# Velocity S-wave (km/s) = 3.35325 3.76471 3.56492
# Velocity P-wave (km/s) = 5.22547 5.99609 5.62399
#
# Compressibility (1/GPa) = 0.03517476
#
# Stress axis : x y z
#
# Youngs Moduli (GPa) = 54.57654 51.03036 56.47642
#
# Poissons Ratio (x) = 0.15805 0.51831
# Poissons Ratio (y) = 0.16903 -0.11573
# Poissons Ratio (z) = 0.50087 -0.10457
#
# Static dielectric constant tensor:
#      x y z
#    x 1.888370 0.006700 -0.020820 
#    y 0.006700 1.939520 0.063680 
#    z -0.020820 0.063680 1.956690 
# 
# From -- ./inp_files/273550.got.cif
#   From: 2010.05.17/outbox.cif.g08.bks.cpg/sg2_137_cif.got.tgz:273550.got - 2010.06.03 11:33:40.
