data_PCOD9012773
_publ_section_title
;
Structure prediction by ZEFSAII (Michael W. Deem and Ramdas Pophale) SiO2 
 PCOD9012773
Probable space group: P -1
;
_chemical_formula_sum "Si O2"
_cell_formula_units_Z 14
_cell_length_a 6.392042
_cell_length_b 12.055827
_cell_length_c 10.578850
_cell_angle_alpha 90.491881
_cell_angle_beta 100.442122
_cell_angle_gamma 56.416109
_cell_volume 663.699570
_symmetry_space_group_name_H-M "P -1"
_symmetry_group_IT_number 2
_symmetry_cell_setting 'triclinic'
loop_
_space_group_symop_operation_xyz
x,y,z
-x,-y,-z
loop_
_atom_site_type_symbol
_atom_site_label
_atom_site_fract_x
_atom_site_fract_y
_atom_site_fract_z
Si Si1 0.734619 0.854700 0.476841
Si Si2 0.808967 0.402932 0.049614
Si Si3 0.537195 0.237415 0.706238
Si Si4 0.902326 0.618458 0.168501
Si Si5 0.189505 0.749946 0.728199
Si Si6 0.064023 0.018467 0.652402
Si Si7 0.606018 0.472055 0.651615
O O1 0.627683 0.766212 0.427469
O O2 0.959521 0.788646 0.604710
O O3 0.500000 0.000000 0.500000
O O4 0.825639 0.891981 0.359963
O O5 0.888334 0.492788 0.130843
O O6 0.874659 0.277976 0.141318
O O7 0.500000 0.500000 0.000000
O O8 0.964328 0.359697 0.934975
O O9 0.378980 0.261522 0.816797
O O10 0.567211 0.360033 0.699191
O O11 0.813636 0.101640 0.713045
O O12 0.098961 0.579563 0.304740
O O13 0.232085 0.869301 0.723976
O O14 0.439141 0.609641 0.711219
O O15 0.000000 0.000000 0.500000
O O16 0.500000 0.500000 0.500000
#
# Coordination Sequence:
#
# PCOD9012773 Si02
#       7
#     2   2   2   2   2   2   2
#     4  11  23  40  67  98 137 181 218 271 349 406
#     4  11  23  46  67  98 137 181 230 283 326 395
#     4  12  22  42  65  95 143 171 217 279 339 401
#     4  11  24  42  68  97 137 182 221 278 345 386
#     4  11  22  41  67  99 132 176 226 277 336 399
#     4  10  21  41  60  93 136 176 214 278 332 406
#     4  12  25  39  66 106 139 167 223 289 341 404
#
# _framework density 21.093882000000001
#
# number of rings (size 3 to 8) (size 9 to 14) (size 15 to 20)
#    0.000    0.857    5.714    3.429    2.000    1.143 
#    0.000    0.714    0.000    4.286    0.000    0.000 
#    0.000    0.000    0.000    0.000    0.000    0.000 
#
# Total GULP energy -78209.534983 kJ/mol
# GULP energy per Si atom -5586.395356 kJ/mol
# Density = 2.104587 g / cm^3
# Si number density = 21.093882 Si / 1000 Ang^3
#
#
#
# Elastic Constant Matrix: (Units=GPa)
#
#
# Indices 1 2 3 4 5 6 
#
# 1 95.6170 34.8950 25.8356 2.8286 -1.8177 -2.5888
# 2 34.8950 114.6630 19.0680 0.2761 -10.5214 -8.2567
# 3 25.8356 19.0680 61.4163 -1.0857 -14.1887 10.1017
# 4 2.8286 0.2761 -1.0857 29.8828 -2.3944 -17.6092
# 5 -1.8177 -10.5214 -14.1887 -2.3944 37.6497 12.7184
# 6 -2.5888 -8.2567 10.1017 -17.6092 12.7184 37.5361
#
#
#
# Elastic Compliance Matrix: (Units=1/GPa)
#
#
# Indices 1 2 3 4 5 6 
#
# 1 0.013206 -0.003145 -0.005871 0.000055 -0.003463 0.002999
# 2 -0.003145 0.010365 -0.002198 0.002179 0.000918 0.003366
# 3 -0.005871 -0.002198 0.024811 -0.006284 0.013104 -0.014954
# 4 0.000055 0.002179 -0.006284 0.049002 -0.008063 0.027894
# 5 -0.003463 0.000918 0.013104 -0.008063 0.037895 -0.020186
# 6 0.002999 0.003366 -0.014954 0.027894 -0.020186 0.051538
#
#
# Mechanical properties :
#
#
# Convention : Reuss Voigt Hill
#
# Bulk Modulus (GPa) = 38.53080 47.92152 43.22616
# Shear Modulus (GPa) = 22.94670 33.80689 28.37680
#
# Velocity S-wave (km/s) = 3.30182 4.00770 3.67176
# Velocity P-wave (km/s) = 5.73079 6.64704 6.20585
#
# Compressibility (1/GPa) = 0.02595326
#
# Stress axis : x y z
#
# Youngs Moduli (GPa) = 75.72228 96.47741 40.30537
#
# Poissons Ratio (x) = 0.30338 0.23665
# Poissons Ratio (y) = 0.23812 0.08860
# Poissons Ratio (z) = 0.44459 0.21209
#
# Static dielectric constant tensor:
#      x y z
#    x 1.823810 -0.000950 -0.010260 
#    y -0.000950 1.745290 0.028370 
#    z -0.010260 0.028370 1.778160 
# 
# From -- ./inp_files/363067.got.cif
#   From: 2010.05.17/outbox.cif.g08.bks.cpg/sg2_182_cif.got.tgz:363067.got - 2010.06.03 11:33:40.
