data_PCOD9012857
_publ_section_title
;
Structure prediction by ZEFSAII (Michael W. Deem and Ramdas Pophale) SiO2 
 PCOD9012857
Probable space group: P -1
;
_chemical_formula_sum "Si O2"
_cell_formula_units_Z 16
_cell_length_a 8.589866
_cell_length_b 8.634931
_cell_length_c 24.326757
_cell_angle_alpha 62.498543
_cell_angle_beta 153.149836
_cell_angle_gamma 124.376858
_cell_volume 668.345340
_symmetry_space_group_name_H-M "P -1"
_symmetry_group_IT_number 2
_symmetry_cell_setting 'triclinic'
loop_
_space_group_symop_operation_xyz
x,y,z
-x,-y,-z
loop_
_atom_site_type_symbol
_atom_site_label
_atom_site_fract_x
_atom_site_fract_y
_atom_site_fract_z
Si Si1 0.915309 0.978894 0.876850
Si Si2 0.310838 0.282275 0.487417
Si Si3 0.764714 0.579782 0.122563
Si Si4 0.312769 0.977803 0.384779
Si Si5 0.053214 0.356645 0.997971
Si Si6 0.568240 0.395684 0.735039
Si Si7 0.348063 0.729252 0.646261
Si Si8 0.751033 0.997054 0.277712
O O1 0.093084 0.846537 0.984677
O O2 0.655852 0.846769 0.769114
O O3 0.648002 0.996436 0.838596
O O4 0.130106 0.190798 0.884969
O O5 0.500000 0.500000 0.500000
O O6 0.037296 0.261532 0.455938
O O7 0.042790 0.179595 0.369125
O O8 0.617325 0.186900 0.599982
O O9 0.498847 0.451926 0.107625
O O10 0.143008 0.543192 0.235108
O O11 0.500000 0.500000 0.000000
O O12 0.517136 0.164038 0.385075
O O13 0.898627 0.963675 0.270754
O O14 0.500000 0.000000 0.500000
O O15 0.000000 0.500000 0.000000
O O16 0.819086 0.367560 0.868789
O O17 0.364917 0.526344 0.672950
O O18 0.275686 0.186625 0.665374
#
# Coordination Sequence:
#
# PCOD9012857 Si02
#       8
#     2   2   2   2   2   2   2   2
#     4  10  22  42  63  94 130 179 212 264 314 368
#     4  10  21  42  66  90 125 161 206 260 325 391
#     4   9  22  40  60  90 128 173 221 255 311 373
#     4  10  22  42  64  93 120 160 204 261 328 383
#     4  11  22  40  64  93 135 171 219 261 312 372
#     4  10  21  41  61  94 127 169 209 263 308 370
#     4  11  22  40  66  94 127 161 214 261 317 386
#     4   9  21  40  63  92 126 159 214 256 317 377
#
# _framework density 23.939717999999999
#
# number of rings (size 3 to 8) (size 9 to 14) (size 15 to 20)
#    0.000    2.000    1.250    1.125    1.750    6.000 
#    6.750   13.750    0.000    0.000    0.000    0.000 
#    0.000    0.000    0.000    0.000    0.000    0.000 
#
# Total GULP energy -89302.026932 kJ/mol
# GULP energy per Si atom -5581.376683 kJ/mol
# Density = 2.388523 g / cm^3
# Si number density = 23.939718 Si / 1000 Ang^3
#
#
#
# Elastic Constant Matrix: (Units=GPa)
#
#
# Indices 1 2 3 4 5 6 
#
# 1 108.1019 18.8863 28.2600 -7.0899 21.6572 1.7786
# 2 18.8863 129.4416 23.2966 4.4041 -1.0144 -24.8418
# 3 28.2600 23.2966 55.4036 -0.9221 3.4141 3.3629
# 4 -7.0899 4.4041 -0.9221 34.4680 3.0265 7.3579
# 5 21.6572 -1.0144 3.4141 3.0265 30.8147 -6.0619
# 6 1.7786 -24.8418 3.3629 7.3579 -6.0619 45.7493
#
#
#
# Elastic Compliance Matrix: (Units=1/GPa)
#
#
# Indices 1 2 3 4 5 6 
#
# 1 0.013209 -0.001837 -0.005097 0.004347 -0.009823 -0.003137
# 2 -0.001837 0.010228 -0.004085 -0.003627 0.003816 0.007015
# 3 -0.005097 -0.004085 0.022606 0.000882 0.000107 -0.003810
# 4 0.004347 -0.003627 0.000882 0.032947 -0.008198 -0.008588
# 5 -0.009823 0.003816 0.000107 -0.008198 0.042113 0.009345
# 6 -0.003137 0.007015 -0.003810 -0.008588 0.009345 0.028689
#
#
# Mechanical properties :
#
#
# Convention : Reuss Voigt Hill
#
# Bulk Modulus (GPa) = 41.65771 48.20367 44.93069
# Shear Modulus (GPa) = 27.80382 37.04002 32.42192
#
# Velocity S-wave (km/s) = 3.41164 3.93774 3.68409
# Velocity P-wave (km/s) = 5.74090 6.39168 6.07501
#
# Compressibility (1/GPa) = 0.02400516
#
# Stress axis : x y z
#
# Youngs Moduli (GPa) = 75.70834 97.76844 44.23547
#
# Poissons Ratio (x) = 0.17958 0.22546
# Poissons Ratio (y) = 0.13906 0.18071
# Poissons Ratio (z) = 0.38588 0.39941
#
# Static dielectric constant tensor:
#      x y z
#    x 1.975680 -0.028810 0.095520 
#    y -0.028810 1.963580 -0.003080 
#    z 0.095520 -0.003080 2.085340 
# 
# From -- ./inp_files/616664.got.cif
#   From: 2010.05.17/outbox.cif.g08.bks.cpg/sg2_309_cif.got.tgz:616664.got - 2010.06.03 11:33:40.
