data_PCOD9012183
_publ_section_title
;
Structure prediction by ZEFSAII (Michael W. Deem and Ramdas Pophale) SiO2 
 PCOD9012183
Probable space group: P -1
;
_chemical_formula_sum "Si O2"
_cell_formula_units_Z 16
_cell_length_a 11.755885
_cell_length_b 8.168509
_cell_length_c 10.920408
_cell_angle_alpha 100.439692
_cell_angle_beta 118.018778
_cell_angle_gamma 51.001025
_cell_volume 709.380703
_symmetry_space_group_name_H-M "P -1"
_symmetry_group_IT_number 2
_symmetry_cell_setting 'triclinic'
loop_
_space_group_symop_operation_xyz
x,y,z
-x,-y,-z
loop_
_atom_site_type_symbol
_atom_site_label
_atom_site_fract_x
_atom_site_fract_y
_atom_site_fract_z
Si Si1 0.520336 0.116256 0.365362
Si Si2 0.358964 0.635100 0.051450
Si Si3 0.649434 0.917476 0.158484
Si Si4 0.287229 0.594968 0.286846
Si Si5 0.741278 0.937204 0.847064
Si Si6 0.172507 0.030639 0.363166
Si Si7 0.049441 0.328688 0.870867
Si Si8 0.868541 0.435926 0.211503
O O1 0.407066 0.363348 0.378537
O O2 0.582352 0.086459 0.253679
O O3 0.406936 0.045855 0.285601
O O4 0.684147 0.971595 0.508728
O O5 0.369590 0.576724 0.194378
O O6 0.319949 0.861654 0.073225
O O7 0.500000 0.500000 0.000000
O O8 0.214102 0.635483 0.925453
O O9 0.810368 0.869029 0.171650
O O10 0.721486 0.680880 0.213182
O O11 0.500000 0.000000 0.000000
O O12 0.111439 0.647354 0.182978
O O13 0.239227 0.788869 0.375955
O O14 0.836505 0.946348 0.785448
O O15 0.847580 0.731030 0.960248
O O16 0.992336 0.242456 0.340879
O O17 0.975361 0.482935 0.193012
#
# Coordination Sequence:
#
# PCOD9012183 Si02
#       8
#     2   2   2   2   2   2   2   2
#     4  12  23  42  69  90 133 174 225 259 318 397
#     4  11  23  37  65  99 133 158 210 278 334 372
#     4  10  21  40  68  99 121 165 218 271 318 379
#     4  11  24  43  67  96 127 176 219 272 320 383
#     4  11  22  37  64  95 130 167 212 270 321 380
#     4  11  25  42  59  98 134 177 213 265 322 390
#     4  10  22  40  70  97 127 163 224 265 329 379
#     4  10  22  41  67  96 134 166 215 263 333 376
#
# _framework density 22.554887000000001
#
# number of rings (size 3 to 8) (size 9 to 14) (size 15 to 20)
#    0.750    0.500    1.250    5.250    1.750    4.000 
#    0.000    0.625    2.750    0.000    0.000    0.000 
#    0.000    0.000    0.000    0.000    0.000    0.000 
#
# Total GULP energy -89162.755201 kJ/mol
# GULP energy per Si atom -5572.672200 kJ/mol
# Density = 2.250355 g / cm^3
# Si number density = 22.554887 Si / 1000 Ang^3
#
#
#
# Elastic Constant Matrix: (Units=GPa)
#
#
# Indices 1 2 3 4 5 6 
#
# 1 63.1310 3.5708 -8.1958 3.9246 2.5129 -9.2774
# 2 3.5708 139.0927 13.7446 -9.0149 12.4421 6.1628
# 3 -8.1958 13.7446 54.6093 -8.9868 20.2395 -0.2427
# 4 3.9246 -9.0149 -8.9868 20.8880 -2.4466 7.3947
# 5 2.5129 12.4421 20.2395 -2.4466 31.4682 7.0398
# 6 -9.2774 6.1628 -0.2427 7.3947 7.0398 34.3856
#
#
#
# Elastic Compliance Matrix: (Units=1/GPa)
#
#
# Indices 1 2 3 4 5 6 
#
# 1 0.018123 -0.001041 0.004325 -0.005325 -0.005901 0.007460
# 2 -0.001041 0.007790 -0.000901 0.003738 -0.001646 -0.002150
# 3 0.004325 -0.000901 0.026853 0.007027 -0.017517 0.003593
# 4 -0.005325 0.003738 0.007027 0.059213 0.002452 -0.015293
# 5 -0.005901 -0.001646 -0.017517 0.002452 0.046943 -0.011559
# 6 0.007460 -0.002150 0.003593 -0.015293 -0.011559 0.037161
#
#
# Mechanical properties :
#
#
# Convention : Reuss Voigt Hill
#
# Bulk Modulus (GPa) = 17.38144 30.56359 23.97252
# Shear Modulus (GPa) = 23.75382 33.86257 28.80820
#
# Velocity S-wave (km/s) = 3.24876 3.87892 3.57774
# Velocity P-wave (km/s) = 4.66857 5.80013 5.26484
#
# Compressibility (1/GPa) = 0.05753263
#
# Stress axis : x y z
#
# Youngs Moduli (GPa) = 55.17965 128.37000 37.24020
#
# Poissons Ratio (x) = 0.13357 -0.16108
# Poissons Ratio (y) = 0.05741 0.03356
# Poissons Ratio (z) = -0.23868 0.11570
#
# Static dielectric constant tensor:
#      x y z
#    x 1.879890 -0.044810 -0.036710 
#    y -0.044810 1.969910 -0.024300 
#    z -0.036710 -0.024300 1.809300 
# 
# From -- ./inp_files/389490.got.cif
#   From: 2010.05.17/outbox.cif.g08.bks.cpg/sg2_195_cif.got.tgz:389490.got - 2010.06.03 11:33:40.
