data_PCOD9012996
_publ_section_title
;
Structure prediction by ZEFSAII (Michael W. Deem and Ramdas Pophale) SiO2 
 PCOD9012996
Probable space group: P -1
;
_chemical_formula_sum "Si O2"
_cell_formula_units_Z 14
_cell_length_a 12.982996
_cell_length_b 23.868679
_cell_length_c 16.026394
_cell_angle_alpha 18.151162
_cell_angle_beta 153.971874
_cell_angle_gamma 152.814634
_cell_volume 655.388955
_symmetry_space_group_name_H-M "P -1"
_symmetry_group_IT_number 2
_symmetry_cell_setting 'triclinic'
loop_
_space_group_symop_operation_xyz
x,y,z
-x,-y,-z
loop_
_atom_site_type_symbol
_atom_site_label
_atom_site_fract_x
_atom_site_fract_y
_atom_site_fract_z
Si Si1 0.022109 0.668054 0.167831
Si Si2 0.274300 0.364856 0.843849
Si Si3 0.329123 0.068943 0.892011
Si Si4 0.038965 0.035588 0.880895
Si Si5 0.961280 0.289243 0.241757
Si Si6 0.101938 0.819482 0.839453
Si Si7 0.669646 0.197535 0.313671
O O1 0.172251 0.515577 0.507200
O O2 0.785508 0.614103 0.132079
O O3 0.965657 0.694172 0.993590
O O4 0.193037 0.864769 0.047251
O O5 0.541659 0.356153 0.022784
O O6 0.112223 0.159758 0.992084
O O7 0.286048 0.074535 0.953083
O O8 0.185096 0.205210 0.550897
O O9 0.614912 0.121784 0.011030
O O10 0.921584 0.204270 0.533396
O O11 0.000000 0.000000 0.000000
O O12 0.921972 0.271400 0.140229
O O13 0.729377 0.185394 0.276733
O O14 0.000000 0.500000 0.000000
O O15 0.000000 0.000000 0.500000
O O16 0.500000 0.000000 0.500000
#
# Coordination Sequence:
#
# PCOD9012996 Si02
#       7
#     2   2   2   2   2   2   2
#     4  10  21  41  62  94 129 170 218 267 329 385
#     4   9  20  37  65  90 124 169 212 272 322 383
#     4  10  23  42  61  91 132 166 214 270 323 388
#     4   9  19  35  60  91 123 162 210 268 330 383
#     4  11  26  44  64 101 132 167 221 277 331 390
#     4  12  26  40  71  91 128 181 219 255 334 405
#     4   9  20  38  63  88 127 168 211 267 330 378
#
# _framework density 21.361362
#
# number of rings (size 3 to 8) (size 9 to 14) (size 15 to 20)
#    0.000    2.000    1.429    1.286    6.000    2.857 
#    0.000    0.000    0.000    6.000    0.000    0.000 
#    0.000    0.000    0.000    0.000    0.000    0.000 
#
# Total GULP energy -78113.300057 kJ/mol
# GULP energy per Si atom -5579.521433 kJ/mol
# Density = 2.131274 g / cm^3
# Si number density = 21.361362 Si / 1000 Ang^3
#
#
#
# Elastic Constant Matrix: (Units=GPa)
#
#
# Indices 1 2 3 4 5 6 
#
# 1 185.7432 20.0506 57.2260 22.9755 -11.6715 -30.8705
# 2 20.0506 31.6611 19.2000 3.1154 6.1545 -6.9794
# 3 57.2260 19.2000 162.5881 6.2048 16.5047 -6.0842
# 4 22.9755 3.1154 6.2048 21.3073 0.6246 0.6640
# 5 -11.6715 6.1545 16.5047 0.6246 41.9536 6.7456
# 6 -30.8705 -6.9794 -6.0842 0.6640 6.7456 29.9646
#
#
#
# Elastic Compliance Matrix: (Units=1/GPa)
#
#
# Indices 1 2 3 4 5 6 
#
# 1 0.008969 -0.002042 -0.002552 -0.008953 0.002671 0.007844
# 2 -0.002042 0.037651 -0.002717 -0.002566 -0.006201 0.007567
# 3 -0.002552 -0.002717 0.007611 0.001057 -0.003156 -0.001029
# 4 -0.008953 -0.002566 0.001057 0.057030 -0.001692 -0.010489
# 5 0.002671 -0.006201 -0.003156 -0.001692 0.027643 -0.005519
# 6 0.007844 0.007567 -0.001029 -0.010489 -0.005519 0.044482
#
#
# Mechanical properties :
#
#
# Convention : Reuss Voigt Hill
#
# Bulk Modulus (GPa) = 25.24585 63.66062 44.45324
# Shear Modulus (GPa) = 23.67308 37.54615 30.60961
#
# Velocity S-wave (km/s) = 3.33260 4.19700 3.78953
# Velocity P-wave (km/s) = 5.16260 7.30431 6.32477
#
# Compressibility (1/GPa) = 0.03961048
#
# Stress axis : x y z
#
# Youngs Moduli (GPa) = 111.49277 26.55953 131.38937
#
# Poissons Ratio (x) = 0.05423 0.33527
# Poissons Ratio (y) = 0.22764 0.35698
# Poissons Ratio (z) = 0.28450 0.07216
#
# Static dielectric constant tensor:
#      x y z
#    x 1.930030 0.061860 0.004330 
#    y 0.061860 1.802560 0.021390 
#    z 0.004330 0.021390 1.774900 
# 
# From -- ./inp_files/524023.got.cif
#   From: 2010.05.17/outbox.cif.g08.bks.cpg/sg2_263_cif.got.tgz:524023.got - 2010.06.03 11:33:40.
