data_PCOD9012033
_publ_section_title
;
Structure prediction by ZEFSAII (Michael W. Deem and Ramdas Pophale) SiO2 
 PCOD9012033
Probable space group: P -1
;
_chemical_formula_sum "Si O2"
_cell_formula_units_Z 16
_cell_length_a 9.564974
_cell_length_b 8.870866
_cell_length_c 12.184762
_cell_angle_alpha 103.128249
_cell_angle_beta 88.496831
_cell_angle_gamma 136.663351
_cell_volume 675.883369
_symmetry_space_group_name_H-M "P -1"
_symmetry_group_IT_number 2
_symmetry_cell_setting 'triclinic'
loop_
_space_group_symop_operation_xyz
x,y,z
-x,-y,-z
loop_
_atom_site_type_symbol
_atom_site_label
_atom_site_fract_x
_atom_site_fract_y
_atom_site_fract_z
Si Si1 0.125412 0.996569 0.412766
Si Si2 0.447972 0.138605 0.786186
Si Si3 0.685692 0.524772 0.017455
Si Si4 0.956865 0.982523 0.186843
Si Si5 0.684718 0.510238 0.686680
Si Si6 0.502171 0.333856 0.325735
Si Si7 0.560069 0.163087 0.126818
Si Si8 0.912417 0.588039 0.475947
O O1 0.021477 0.942552 0.288403
O O2 0.102873 0.816873 0.443328
O O3 0.364994 0.221282 0.419492
O O4 0.000000 0.000000 0.500000
O O5 0.247361 0.083635 0.791829
O O6 0.565553 0.259292 0.688211
O O7 0.375343 0.914009 0.797181
O O8 0.631268 0.358196 0.896361
O O9 0.889272 0.798602 0.069047
O O10 0.678790 0.405014 0.105172
O O11 0.500000 0.500000 0.000000
O O12 0.141998 0.256291 0.204078
O O13 0.506965 0.496749 0.682987
O O14 0.815232 0.591501 0.586095
O O15 0.406832 0.142535 0.202479
O O16 0.726554 0.453322 0.370117
O O17 0.500000 0.000000 0.000000
O O18 0.000000 0.500000 0.500000
#
# Coordination Sequence:
#
# PCOD9012033 Si02
#       8
#     2   2   2   2   2   2   2   2
#     4  11  23  42  65  98 131 177 233 278 334 409
#     4  10  22  38  66  94 139 170 220 279 351 394
#     4   9  18  39  66  94 125 181 220 276 333 399
#     4  10  21  40  68  91 135 174 228 280 325 409
#     4  11  24  42  66 103 131 185 233 269 342 417
#     4  11  24  43  72  93 137 188 226 279 345 408
#     4  10  22  41  68 103 133 176 226 280 348 403
#     4  12  27  42  65 100 143 174 231 288 344 404
#
# _framework density 23.672725
#
# number of rings (size 3 to 8) (size 9 to 14) (size 15 to 20)
#    0.000    1.500    2.500    3.375    5.250    1.000 
#    0.000    2.500    0.000   14.250    0.000    0.000 
#    0.000    0.000    0.000    0.000    0.000    0.000 
#
# Total GULP energy -89074.573386 kJ/mol
# GULP energy per Si atom -5567.160837 kJ/mol
# Density = 2.361884 g / cm^3
# Si number density = 23.672725 Si / 1000 Ang^3
#
#
#
# Elastic Constant Matrix: (Units=GPa)
#
#
# Indices 1 2 3 4 5 6 
#
# 1 80.7357 35.2808 19.7588 -7.1858 2.6532 -22.5717
# 2 35.2808 115.1085 9.3151 -20.7098 21.9290 -19.7903
# 3 19.7588 9.3151 67.2115 6.8018 -5.4246 -3.2028
# 4 -7.1858 -20.7098 6.8018 44.0375 -7.6714 8.9173
# 5 2.6532 21.9290 -5.4246 -7.6714 34.9445 -3.5384
# 6 -22.5717 -19.7903 -3.2028 8.9173 -3.5384 36.3714
#
#
#
# Elastic Compliance Matrix: (Units=1/GPa)
#
#
# Indices 1 2 3 4 5 6 
#
# 1 0.017366 -0.003746 -0.004101 0.000221 0.001300 0.008450
# 2 -0.003746 0.012336 -0.001385 0.003707 -0.006583 0.002716
# 3 -0.004101 -0.001385 0.016812 -0.003246 0.003004 -0.000730
# 4 0.000221 0.003707 -0.003246 0.026300 0.002487 -0.004338
# 5 0.001300 -0.006583 0.003004 0.002487 0.033677 0.000156
# 6 0.008450 0.002716 -0.000730 -0.004338 0.000156 0.035230
#
#
# Mechanical properties :
#
#
# Convention : Reuss Voigt Hill
#
# Bulk Modulus (GPa) = 35.65136 43.52946 39.59041
# Shear Modulus (GPa) = 29.49217 36.31742 32.90479
#
# Velocity S-wave (km/s) = 3.53346 3.92107 3.73230
# Velocity P-wave (km/s) = 5.63382 6.23920 5.94422
#
# Compressibility (1/GPa) = 0.02804942
#
# Stress axis : x y z
#
# Youngs Moduli (GPa) = 57.58366 81.06519 59.48069
#
# Poissons Ratio (x) = 0.30366 0.24392
# Poissons Ratio (y) = 0.21570 0.08241
# Poissons Ratio (z) = 0.23614 0.11232
#
# Static dielectric constant tensor:
#      x y z
#    x 1.915580 -0.075900 0.005900 
#    y -0.075900 2.059290 0.016170 
#    z 0.005900 0.016170 2.047870 
# 
# From -- ./inp_files/382655.got.cif
#   From: 2010.05.17/outbox.cif.g08.bks.cpg/sg2_192_cif.got.tgz:382655.got - 2010.06.03 11:33:40.
