data_PCOD9012461
_publ_section_title
;
Structure prediction by ZEFSAII (Michael W. Deem and Ramdas Pophale) SiO2 
 PCOD9012461
Probable space group: P -1
;
_chemical_formula_sum "Si O2"
_cell_formula_units_Z 10
_cell_length_a 5.122746
_cell_length_b 7.025706
_cell_length_c 11.844832
_cell_angle_alpha 79.723881
_cell_angle_beta 103.880643
_cell_angle_gamma 116.812849
_cell_volume 368.147478
_symmetry_space_group_name_H-M "P -1"
_symmetry_group_IT_number 2
_symmetry_cell_setting 'triclinic'
loop_
_space_group_symop_operation_xyz
x,y,z
-x,-y,-z
loop_
_atom_site_type_symbol
_atom_site_label
_atom_site_fract_x
_atom_site_fract_y
_atom_site_fract_z
Si Si1 0.473290 0.008414 0.654495
Si Si2 0.993831 0.516535 0.360346
Si Si3 0.671139 0.111255 0.893427
Si Si4 0.304403 0.258288 0.457615
Si Si5 0.346973 0.382991 0.880287
O O1 0.767189 0.237768 0.654763
O O2 0.492749 0.954632 0.791014
O O3 0.240603 0.100832 0.576092
O O4 0.933530 0.685592 0.640402
O O5 0.530157 0.844148 0.595625
O O6 0.000000 0.500000 0.500000
O O7 0.745214 0.510731 0.246665
O O8 0.585413 0.310935 0.857776
O O9 0.025578 0.196712 0.907899
O O10 0.500000 0.000000 0.000000
O O11 0.500000 0.500000 0.500000
O O12 0.500000 0.500000 0.000000
#
# Coordination Sequence:
#
# PCOD9012461 Si02
#       5
#     2   2   2   2   2
#     4   9  20  40  69 107 153 193 256 323 388 464
#     4  10  21  40  70 110 150 199 259 319 393 465
#     4  11  24  49  75 109 153 206 263 314 393 467
#     4   9  18  39  68 105 147 192 251 319 398 448
#     4  11  25  50  76 111 157 202 262 325 385 468
#
# _framework density 27.163028000000001
#
# number of rings (size 3 to 8) (size 9 to 14) (size 15 to 20)
#    0.000    2.000    0.000    2.400    0.000    2.400 
#   32.400    0.000    0.000    0.000    0.000    0.000 
#    0.000    0.000    0.000    0.000    0.000    0.000 
#
# Total GULP energy -55780.879070 kJ/mol
# GULP energy per Si atom -5578.087907 kJ/mol
# Density = 2.710120 g / cm^3
# Si number density = 27.163028 Si / 1000 Ang^3
#
#
#
# Elastic Constant Matrix: (Units=GPa)
#
#
# Indices 1 2 3 4 5 6 
#
# 1 114.1486 1.4989 18.3072 8.9898 3.7092 -23.3665
# 2 1.4989 120.5293 51.7692 -1.3873 -1.8102 -28.6623
# 3 18.3072 51.7692 212.7357 11.0974 2.9040 -1.5257
# 4 8.9898 -1.3873 11.0974 67.9199 1.6741 -5.4282
# 5 3.7092 -1.8102 2.9040 1.6741 55.1920 -1.3550
# 6 -23.3665 -28.6623 -1.5257 -5.4282 -1.3550 52.5304
#
#
#
# Elastic Compliance Matrix: (Units=1/GPa)
#
#
# Indices 1 2 3 4 5 6 
#
# 1 0.010069 0.001615 -0.001181 -0.000677 -0.000412 0.005246
# 2 0.001615 0.011153 -0.002865 0.001015 0.000545 0.006840
# 3 -0.001181 -0.002865 0.005539 -0.000962 -0.000327 -0.002035
# 4 -0.000677 0.001015 -0.000962 0.015140 -0.000286 0.001782
# 5 -0.000412 0.000545 -0.000327 -0.000286 0.018203 0.000545
# 6 0.005246 0.006840 -0.002035 0.001782 0.000545 0.025241
#
#
# Mechanical properties :
#
#
# Convention : Reuss Voigt Hill
#
# Bulk Modulus (GPa) = 45.65826 65.61826 55.63826
# Shear Modulus (GPa) = 51.27793 60.18434 55.73114
#
# Velocity S-wave (km/s) = 4.34958 4.71220 4.53451
# Velocity P-wave (km/s) = 6.48618 7.33594 6.92411
#
# Compressibility (1/GPa) = 0.02190184
#
# Stress axis : x y z
#
# Youngs Moduli (GPa) = 99.31250 89.65806 180.52361
#
# Poissons Ratio (x) = -0.14484 0.21321
# Poissons Ratio (y) = -0.16044 0.51712
# Poissons Ratio (z) = 0.11729 0.25683
#
# Static dielectric constant tensor:
#      x y z
#    x 3.162030 0.393680 0.269240 
#    y 0.393680 2.413930 0.039340 
#    z 0.269240 0.039340 2.276460 
# 
# From -- ./inp_files/359854.got.cif
#   From: 2010.05.17/outbox.cif.g08.bks.cpg/sg2_180_cif.got.tgz:359854.got - 2010.06.03 11:33:40.
