data_PCOD9012487
_publ_section_title
;
Structure prediction by ZEFSAII (Michael W. Deem and Ramdas Pophale) SiO2 
 PCOD9012487
Probable space group: P -1
;
_chemical_formula_sum "Si O2"
_cell_formula_units_Z 14
_cell_length_a 10.252924
_cell_length_b 15.500060
_cell_length_c 14.125622
_cell_angle_alpha 152.731705
_cell_angle_beta 142.035099
_cell_angle_gamma 55.219567
_cell_volume 560.988804
_symmetry_space_group_name_H-M "P -1"
_symmetry_group_IT_number 2
_symmetry_cell_setting 'triclinic'
loop_
_space_group_symop_operation_xyz
x,y,z
-x,-y,-z
loop_
_atom_site_type_symbol
_atom_site_label
_atom_site_fract_x
_atom_site_fract_y
_atom_site_fract_z
Si Si1 0.207529 0.520992 0.762372
Si Si2 0.801112 0.161954 0.723533
Si Si3 0.604566 0.890799 0.874940
Si Si4 0.837978 0.935542 0.232162
Si Si5 0.392118 0.189975 0.574093
Si Si6 0.323627 0.729505 0.828099
Si Si7 0.109756 0.600669 0.260971
O O1 0.246145 0.310098 0.573794
O O2 0.297833 0.656223 0.849686
O O3 0.923117 0.447777 0.534238
O O4 0.394805 0.655739 0.082390
O O5 0.539611 0.140523 0.529637
O O6 0.921273 0.084788 0.634492
O O7 0.754021 0.017284 0.648332
O O8 0.970667 0.412627 0.070377
O O9 0.390351 0.676638 0.506286
O O10 0.784751 0.863074 0.020448
O O11 0.500000 0.000000 0.000000
O O12 0.690974 0.056079 0.000445
O O13 0.089679 0.815351 0.477530
O O14 0.591016 0.785700 0.998542
O O15 0.000000 0.500000 0.000000
#
# Coordination Sequence:
#
# PCOD9012487 Si02
#       7
#     2   2   2   2   2   2   2
#     4  10  21  40  70  94 135 182 227 280 335 402
#     4  11  25  42  65  99 133 181 227 274 338 414
#     4   8  18  37  65 100 131 168 220 277 334 401
#     4  10  23  43  72 103 136 173 226 290 338 405
#     4  10  25  41  63  95 137 184 229 270 336 416
#     4   9  19  38  71 102 124 178 227 278 347 391
#     4  10  23  39  64 100 138 175 221 279 347 403
#
# _framework density 24.955933000000002
#
# number of rings (size 3 to 8) (size 9 to 14) (size 15 to 20)
#    0.000    2.571    0.000    0.857   14.000    2.286 
#    0.000    0.000    0.000    4.286    0.000    0.000 
#    0.000    0.000    0.000    0.000    0.000    0.000 
#
# Total GULP energy -78107.936218 kJ/mol
# GULP energy per Si atom -5579.138301 kJ/mol
# Density = 2.489913 g / cm^3
# Si number density = 24.955933 Si / 1000 Ang^3
#
#
#
# Elastic Constant Matrix: (Units=GPa)
#
#
# Indices 1 2 3 4 5 6 
#
# 1 88.8306 49.6637 79.1791 11.9067 31.3418 -13.6818
# 2 49.6637 132.4887 56.9391 26.7673 3.9559 22.0583
# 3 79.1791 56.9391 164.0131 6.9664 13.3891 11.1270
# 4 11.9067 26.7673 6.9664 46.1645 15.3378 8.4376
# 5 31.3418 3.9559 13.3891 15.3378 47.7694 -6.4322
# 6 -13.6818 22.0583 11.1270 8.4376 -6.4322 37.1351
#
#
#
# Elastic Compliance Matrix: (Units=1/GPa)
#
#
# Indices 1 2 3 4 5 6 
#
# 1 0.045576 -0.013498 -0.017452 0.000738 -0.020588 0.026305
# 2 -0.013498 0.014672 0.001855 -0.005609 0.007347 -0.011697
# 3 -0.017452 0.001855 0.014137 0.001572 0.005321 -0.011203
# 4 0.000738 -0.005609 0.001572 0.028918 -0.010452 -0.005249
# 5 -0.020588 0.007347 0.005321 -0.010452 0.035011 -0.005105
# 6 0.026305 -0.011697 -0.011203 -0.005249 -0.005105 0.047233
#
#
# Mechanical properties :
#
#
# Convention : Reuss Voigt Hill
#
# Bulk Modulus (GPa) = 61.74643 84.09959 72.92301
# Shear Modulus (GPa) = 20.06946 39.51718 29.79332
#
# Velocity S-wave (km/s) = 2.83891 3.98361 3.45894
# Velocity P-wave (km/s) = 5.96169 7.41156 6.72581
#
# Compressibility (1/GPa) = 0.01619527
#
# Stress axis : x y z
#
# Youngs Moduli (GPa) = 21.94130 68.15867 70.73669
#
# Poissons Ratio (x) = 0.92001 1.23446
# Poissons Ratio (y) = 0.29617 -0.13121
# Poissons Ratio (z) = 0.38291 -0.12643
#
# Static dielectric constant tensor:
#      x y z
#    x 2.128980 -0.079110 -0.005900 
#    y -0.079110 2.046830 -0.081080 
#    z -0.005900 -0.081080 2.017310 
# 
# From -- ./inp_files/522542.got.cif
#   From: 2010.05.17/outbox.cif.g08.bks.cpg/sg2_262_cif.got.tgz:522542.got - 2010.06.03 11:33:40.
