data_PCOD9012388
_publ_section_title
;
Structure prediction by ZEFSAII (Michael W. Deem and Ramdas Pophale) SiO2 
 PCOD9012388
Probable space group: P -1
;
_chemical_formula_sum "Si O2"
_cell_formula_units_Z 15
_cell_length_a 13.130637
_cell_length_b 10.432441
_cell_length_c 8.368887
_cell_angle_alpha 79.990440
_cell_angle_beta 86.514249
_cell_angle_gamma 32.305559
_cell_volume 595.224280
_symmetry_space_group_name_H-M "P -1"
_symmetry_group_IT_number 2
_symmetry_cell_setting 'triclinic'
loop_
_space_group_symop_operation_xyz
x,y,z
-x,-y,-z
loop_
_atom_site_type_symbol
_atom_site_label
_atom_site_fract_x
_atom_site_fract_y
_atom_site_fract_z
Si Si1 0.525927 0.350037 0.695773
Si Si2 0.605841 0.591683 0.960673
Si Si3 0.966259 0.513213 0.310089
Si Si4 0.807109 0.966300 0.224398
Si Si5 0.332453 0.319602 0.574734
Si Si6 0.821372 0.095136 0.499374
Si Si7 0.000000 0.000000 0.000000
Si Si8 0.328348 0.232539 0.248987
O O1 0.455536 0.313319 0.592100
O O2 0.745702 0.148191 0.673912
O O3 0.367434 0.632076 0.617413
O O4 0.490299 0.336267 0.877068
O O5 0.424700 0.771663 0.820993
O O6 0.667433 0.675478 0.918549
O O7 0.787350 0.303136 0.974541
O O8 0.842345 0.515620 0.321005
O O9 0.000000 0.500000 0.500000
O O10 0.167674 0.294526 0.245551
O O11 0.863225 0.759002 0.211837
O O12 0.862198 0.932707 0.411816
O O13 0.912999 0.963144 0.112780
O O14 0.276807 0.371949 0.382943
O O15 0.468735 0.050669 0.665693
O O16 0.000000 0.000000 0.500000
#
# Coordination Sequence:
#
# PCOD9012388 Si02
#       8
#     2   2   2   2   2   2   1   2
#     4  11  27  45  67 103 143 181 234 300 358 420
#     4  12  25  46  69 104 142 184 240 292 359 417
#     4  10  22  39  70 105 130 179 243 290 341 412
#     4  12  25  46  75 101 140 188 243 294 346 438
#     4  10  22  43  69  98 137 183 234 292 347 419
#     4  11  28  46  68 101 140 189 233 294 361 419
#     4  12  26  42  72 100 140 188 234 292 346 430
#     4  10  21  40  69  98 133 182 237 282 348 421
#
# _framework density 25.200585
#
# number of rings (size 3 to 8) (size 9 to 14) (size 15 to 20)
#    0.000    1.067    4.000    1.200    9.333    1.600 
#    0.000    0.667    0.000    0.000    0.000    0.000 
#    0.000    0.000    0.000    0.000    0.000    0.000 
#
# Total GULP energy -83685.186146 kJ/mol
# GULP energy per Si atom -5579.012410 kJ/mol
# Density = 2.514323 g / cm^3
# Si number density = 25.200585 Si / 1000 Ang^3
#
#
#
# Elastic Constant Matrix: (Units=GPa)
#
#
# Indices 1 2 3 4 5 6 
#
# 1 83.5570 19.0005 18.5137 19.2583 -40.1427 -32.3449
# 2 19.0005 68.5678 27.3250 -1.9090 -26.5218 -26.9113
# 3 18.5137 27.3250 74.4215 4.9688 -38.5060 -11.2349
# 4 19.2583 -1.9090 4.9688 28.3287 -1.8494 -20.6016
# 5 -40.1427 -26.5218 -38.5060 -1.8494 53.2478 10.6486
# 6 -32.3449 -26.9113 -11.2349 -20.6016 10.6486 51.5073
#
#
#
# Elastic Compliance Matrix: (Units=1/GPa)
#
#
# Indices 1 2 3 4 5 6 
#
# 1 0.029537 0.003736 0.007770 -0.010347 0.026889 0.012498
# 2 0.003736 0.026982 -0.003548 0.014692 0.010318 0.019413
# 3 0.007770 -0.003548 0.024518 -0.007828 0.021385 0.000822
# 4 -0.010347 0.014692 -0.007828 0.063605 -0.009301 0.026834
# 5 0.026889 0.010318 0.021385 -0.009301 0.057047 0.011427
# 6 0.012498 0.019413 0.000822 0.026834 0.011427 0.045956
#
#
# Mechanical properties :
#
#
# Convention : Reuss Voigt Hill
#
# Bulk Modulus (GPa) = 10.31412 39.58055 24.94733
# Shear Modulus (GPa) = 18.93618 37.39721 28.16670
#
# Velocity S-wave (km/s) = 2.74417 3.85643 3.34683
# Velocity P-wave (km/s) = 3.76063 5.96403 4.98558
#
# Compressibility (1/GPa) = 0.09695447
#
# Stress axis : x y z
#
# Youngs Moduli (GPa) = 33.85534 37.06188 40.78676
#
# Poissons Ratio (x) = -0.13847 -0.31692
# Poissons Ratio (y) = -0.12649 0.14470
# Poissons Ratio (z) = -0.26307 0.13149
#
# Static dielectric constant tensor:
#      x y z
#    x 2.043960 0.004120 0.019140 
#    y 0.004120 2.060840 0.017380 
#    z 0.019140 0.017380 2.008380 
# 
# From -- ./inp_files/303050.got.cif
#   From: 2010.05.17/outbox.cif.g08.bks.cpg/sg2_152_cif.got.tgz:303050.got - 2010.06.03 11:33:40.
