data_PCOD9012951
_publ_section_title
;
Structure prediction by ZEFSAII (Michael W. Deem and Ramdas Pophale) SiO2 
 PCOD9012951
Probable space group: P -1
;
_chemical_formula_sum "Si O2"
_cell_formula_units_Z 14
_cell_length_a 8.752648
_cell_length_b 8.844866
_cell_length_c 11.684486
_cell_angle_alpha 49.670027
_cell_angle_beta 88.822960
_cell_angle_gamma 119.142836
_cell_volume 520.120521
_symmetry_space_group_name_H-M "P -1"
_symmetry_group_IT_number 2
_symmetry_cell_setting 'triclinic'
loop_
_space_group_symop_operation_xyz
x,y,z
-x,-y,-z
loop_
_atom_site_type_symbol
_atom_site_label
_atom_site_fract_x
_atom_site_fract_y
_atom_site_fract_z
Si Si1 0.494124 0.441826 0.162258
Si Si2 0.860559 0.968792 0.228526
Si Si3 0.084248 0.701017 0.747472
Si Si4 0.849013 0.611540 0.231655
Si Si5 0.190831 0.339993 0.397725
Si Si6 0.482003 0.883150 0.177608
Si Si7 0.553755 0.031765 0.627811
O O1 0.710442 0.600364 0.143202
O O2 0.362801 0.464937 0.236707
O O3 0.389873 0.138828 0.326851
O O4 0.500000 0.500000 0.000000
O O5 0.934883 0.855160 0.196685
O O6 0.804203 0.809265 0.426016
O O7 0.659496 0.881319 0.212015
O O8 0.977606 0.256822 0.147775
O O9 0.016624 0.428084 0.827974
O O10 0.327172 0.887424 0.658834
O O11 0.006039 0.786923 0.610898
O O12 0.703413 0.338301 0.441914
O O13 0.261126 0.599812 0.330528
O O14 0.483771 0.037621 0.204043
O O15 0.500000 0.000000 0.000000
#
# Coordination Sequence:
#
# PCOD9012951 Si02
#       7
#     2   2   2   2   2   2   2
#     4  11  22  38  65  94 123 170 222 266 316 391
#     4  11  22  41  69  95 128 173 217 263 323 393
#     4  10  24  38  64 103 131 164 212 276 327 372
#     4  11  21  43  67  91 134 173 217 261 320 392
#     4  12  22  42  66  97 129 164 220 273 324 375
#     4  11  22  39  64  93 124 168 219 264 318 387
#     4  10  21  41  62  91 127 169 216 261 315 390
#
# _framework density 26.916840000000001
#
# number of rings (size 3 to 8) (size 9 to 14) (size 15 to 20)
#    0.000    1.143    2.857    6.000    0.000    0.571 
#    2.571   11.429    0.000    1.714    0.000    0.000 
#    0.000    0.000    0.000    0.000    0.000    0.000 
#
# Total GULP energy -78166.075492 kJ/mol
# GULP energy per Si atom -5583.291107 kJ/mol
# Density = 2.685558 g / cm^3
# Si number density = 26.916840 Si / 1000 Ang^3
#
#
#
# Elastic Constant Matrix: (Units=GPa)
#
#
# Indices 1 2 3 4 5 6 
#
# 1 71.5438 55.3485 44.5861 6.3118 22.1941 -5.8812
# 2 55.3485 182.5606 85.3168 30.7990 22.4837 -26.6470
# 3 44.5861 85.3168 137.8136 46.4239 3.1592 14.1760
# 4 6.3118 30.7990 46.4239 65.1874 7.4593 9.2597
# 5 22.1941 22.4837 3.1592 7.4593 23.3277 8.8274
# 6 -5.8812 -26.6470 14.1760 9.2597 8.8274 55.9405
#
#
#
# Elastic Compliance Matrix: (Units=1/GPa)
#
#
# Indices 1 2 3 4 5 6 
#
# 1 0.037276 0.003288 -0.018313 0.010883 -0.045500 0.015504
# 2 0.003288 0.013503 -0.010733 0.001456 -0.019842 0.012387
# 3 -0.018313 -0.010733 0.024977 -0.012536 0.034741 -0.016774
# 4 0.010883 0.001456 -0.012536 0.024160 -0.019324 0.004065
# 5 -0.045500 -0.019842 0.034741 -0.019324 0.121518 -0.039016
# 6 0.015504 0.012387 -0.016774 0.004065 -0.039016 0.035141
#
#
# Mechanical properties :
#
#
# Convention : Reuss Voigt Hill
#
# Bulk Modulus (GPa) = 41.25447 84.71341 62.98394
# Shear Modulus (GPa) = 15.81417 42.66891 29.24154
#
# Velocity S-wave (km/s) = 2.42651 3.98579 3.29958
# Velocity P-wave (km/s) = 4.81773 7.26104 6.16170
#
# Compressibility (1/GPa) = 0.02423980
#
# Stress axis : x y z
#
# Youngs Moduli (GPa) = 26.82703 74.05885 40.03625
#
# Poissons Ratio (x) = -0.24347 0.73318
# Poissons Ratio (y) = -0.08820 0.42970
# Poissons Ratio (z) = 0.49128 0.79486
#
# Static dielectric constant tensor:
#      x y z
#    x 2.098800 -0.066780 0.001430 
#    y -0.066780 2.161290 -0.052470 
#    z 0.001430 -0.052470 2.108540 
# 
# From -- ./inp_files/176322.got.cif
#   From: 2010.05.17/outbox.cif.g08.bks.cpg/sg2_89_cif.got.tgz:176322.got - 2010.06.03 11:33:40.
