data_PCOD9012304
_publ_section_title
;
Structure prediction by ZEFSAII (Michael W. Deem and Ramdas Pophale) SiO2 
 PCOD9012304
Probable space group: P -1
;
_chemical_formula_sum "Si O2"
_cell_formula_units_Z 13
_cell_length_a 6.233154
_cell_length_b 15.987142
_cell_length_c 13.712978
_cell_angle_alpha 150.468096
_cell_angle_beta 65.657904
_cell_angle_gamma 123.176410
_cell_volume 556.950836
_symmetry_space_group_name_H-M "P -1"
_symmetry_group_IT_number 2
_symmetry_cell_setting 'triclinic'
loop_
_space_group_symop_operation_xyz
x,y,z
-x,-y,-z
loop_
_atom_site_type_symbol
_atom_site_label
_atom_site_fract_x
_atom_site_fract_y
_atom_site_fract_z
Si Si1 0.974107 0.101242 0.251114
Si Si2 0.820828 0.324227 0.111404
Si Si3 0.451609 0.423319 0.541357
Si Si4 0.315820 0.328216 0.924659
Si Si5 0.000000 0.000000 0.500000
Si Si6 0.529758 0.077795 0.742039
Si Si7 0.981086 0.726215 0.789685
O O1 0.262499 0.205181 0.347639
O O2 0.955362 0.214561 0.274269
O O3 0.757863 0.083597 0.352007
O O4 0.917585 0.892895 0.014928
O O5 0.722832 0.485725 0.281157
O O6 0.800437 0.276372 0.181665
O O7 0.644827 0.150377 0.901596
O O8 0.116639 0.377369 0.078030
O O9 0.500000 0.500000 0.500000
O O10 0.737599 0.523915 0.634554
O O11 0.130920 0.165678 0.723622
O O12 0.487653 0.247377 0.871382
O O13 0.500000 0.500000 0.000000
O O14 0.716947 0.012217 0.581800
#
# Coordination Sequence:
#
# PCOD9012304 Si02
#       7
#     2   2   2   2   1   2   2
#     4  10  21  40  69  91 137 177 214 278 321 396
#     4  11  22  42  68  96 136 176 218 275 330 399
#     4  10  22  40  60  96 134 176 222 269 319 392
#     4  11  25  47  71  94 130 177 225 283 336 395
#     4  10  26  44  72 100 130 170 222 286 338 400
#     4  11  23  48  66 103 135 170 228 277 337 399
#     4  10  21  44  61  98 135 176 220 264 332 397
#
# _framework density 23.341377999999999
#
# number of rings (size 3 to 8) (size 9 to 14) (size 15 to 20)
#    0.000    1.538    3.077    0.462    2.154    5.538 
#    8.308    0.000    0.000    0.000    0.000    0.000 
#    0.000    0.000    0.000    0.000    0.000    0.000 
#
# Total GULP energy -72417.231832 kJ/mol
# GULP energy per Si atom -5570.556295 kJ/mol
# Density = 2.328825 g / cm^3
# Si number density = 23.341378 Si / 1000 Ang^3
#
#
#
# Elastic Constant Matrix: (Units=GPa)
#
#
# Indices 1 2 3 4 5 6 
#
# 1 62.4414 47.5921 19.9447 10.0554 -3.2718 4.3574
# 2 47.5921 99.8827 24.9369 7.2529 -12.1594 15.7561
# 3 19.9447 24.9369 86.1237 -7.2621 3.9681 6.4202
# 4 10.0554 7.2529 -7.2621 22.7592 17.3615 -3.7669
# 5 -3.2718 -12.1594 3.9681 17.3615 47.2133 -15.5371
# 6 4.3574 15.7561 6.4202 -3.7669 -15.5371 33.1542
#
#
#
# Elastic Compliance Matrix: (Units=1/GPa)
#
#
# Indices 1 2 3 4 5 6 
#
# 1 0.028603 -0.011049 -0.005264 -0.015008 0.006341 0.003777
# 2 -0.011049 0.017816 -0.002968 -0.006154 0.004713 -0.004930
# 3 -0.005264 -0.002968 0.015573 0.014447 -0.008880 -0.003433
# 4 -0.015008 -0.006154 0.014447 0.084140 -0.036585 -0.005486
# 5 0.006341 0.004713 -0.008880 -0.036585 0.041642 0.014005
# 6 0.003777 -0.004930 -0.003433 -0.005486 0.014005 0.038613
#
#
# Mechanical properties :
#
#
# Convention : Reuss Voigt Hill
#
# Bulk Modulus (GPa) = 42.68097 48.15501 45.41799
# Shear Modulus (GPa) = 18.33119 31.02363 24.67741
#
# Velocity S-wave (km/s) = 2.80545 3.64967 3.25505
# Velocity P-wave (km/s) = 5.36836 6.19965 5.79892
#
# Compressibility (1/GPa) = 0.02342964
#
# Stress axis : x y z
#
# Youngs Moduli (GPa) = 34.96125 56.13039 64.21358
#
# Poissons Ratio (x) = 0.62017 0.33802
# Poissons Ratio (y) = 0.38628 0.19060
# Poissons Ratio (z) = 0.18404 0.16661
#
# Static dielectric constant tensor:
#      x y z
#    x 1.942440 -0.010190 0.004190 
#    y -0.010190 1.883000 -0.005840 
#    z 0.004190 -0.005840 1.883430 
# 
# From -- ./inp_files/24815.got.cif
#   From: 2010.05.17/outbox.cif.g08.bks.cpg/sg2_13_cif.got.tgz:24815.got - 2010.06.03 11:33:40.
