data_PCOD9012137
_publ_section_title
;
Structure prediction by ZEFSAII (Michael W. Deem and Ramdas Pophale) SiO2 
 PCOD9012137
Probable space group: P -1
;
_chemical_formula_sum "Si O2"
_cell_formula_units_Z 14
_cell_length_a 17.064476
_cell_length_b 10.929786
_cell_length_c 9.078537
_cell_angle_alpha 126.600392
_cell_angle_beta 46.973290
_cell_angle_gamma 148.965808
_cell_volume 637.859468
_symmetry_space_group_name_H-M "P -1"
_symmetry_group_IT_number 2
_symmetry_cell_setting 'triclinic'
loop_
_space_group_symop_operation_xyz
x,y,z
-x,-y,-z
loop_
_atom_site_type_symbol
_atom_site_label
_atom_site_fract_x
_atom_site_fract_y
_atom_site_fract_z
Si Si1 0.920968 0.038926 0.013758
Si Si2 0.251962 0.666496 0.224754
Si Si3 0.890266 0.157919 0.416188
Si Si4 0.663101 0.676161 0.523592
Si Si5 0.424233 0.987366 0.737076
Si Si6 0.340645 0.240943 0.074463
Si Si7 0.231364 0.537342 0.836546
O O1 0.826054 0.047724 0.255047
O O2 0.809726 0.848750 0.890836
O O3 0.047632 0.285424 0.939879
O O4 0.000000 0.000000 0.000000
O O5 0.188417 0.772074 0.371132
O O6 0.089891 0.402590 0.313413
O O7 0.415707 0.837993 0.235426
O O8 0.301384 0.653702 0.992744
O O9 0.818395 0.938187 0.442368
O O10 0.500000 0.500000 0.500000
O O11 0.698217 0.535649 0.383722
O O12 0.652866 0.734233 0.740773
O O13 0.276251 0.723077 0.805041
O O14 0.500000 0.000000 0.500000
O O15 0.354634 0.081700 0.892729
O O16 0.500000 0.500000 0.000000
#
# Coordination Sequence:
#
# PCOD9012137 Si02
#       7
#     2   2   2   2   2   2   2
#     4  11  24  46  70  98 136 175 228 281 333 402
#     4  10  22  40  67  95 134 176 223 266 336 403
#     4  10  21  40  68  97 129 179 223 273 332 399
#     4  12  23  40  68 100 137 173 227 276 334 404
#     4  12  25  43  65  98 139 171 221 284 337 400
#     4  12  28  43  69  99 136 178 227 280 340 399
#     4  11  24  42  68  96 132 181 218 274 342 397
#
# _framework density 21.948408000000001
#
# number of rings (size 3 to 8) (size 9 to 14) (size 15 to 20)
#    0.000    0.857    1.429    5.571    4.000    2.286 
#    0.000    0.000    0.000    0.000    0.000    0.000 
#    0.000    0.000    0.000    0.000    0.000    0.000 
#
# Total GULP energy -78132.589892 kJ/mol
# GULP energy per Si atom -5580.899278 kJ/mol
# Density = 2.189845 g / cm^3
# Si number density = 21.948408 Si / 1000 Ang^3
#
#
#
# Elastic Constant Matrix: (Units=GPa)
#
#
# Indices 1 2 3 4 5 6 
#
# 1 80.5096 63.4636 39.4381 5.9167 4.0325 -14.2843
# 2 63.4636 122.6702 31.5403 0.3709 16.3331 -33.0052
# 3 39.4381 31.5403 140.9634 9.5832 20.4534 -10.0845
# 4 5.9167 0.3709 9.5832 38.3592 -10.5760 4.9507
# 5 4.0325 16.3331 20.4534 -10.5760 41.2668 13.6981
# 6 -14.2843 -33.0052 -10.0845 4.9507 13.6981 42.4898
#
#
#
# Elastic Compliance Matrix: (Units=1/GPa)
#
#
# Indices 1 2 3 4 5 6 
#
# 1 0.024756 -0.014467 -0.005529 0.001018 0.008679 -0.007144
# 2 -0.014467 0.022308 0.003337 -0.006040 -0.017080 0.019467
# 3 -0.005529 0.003337 0.010078 -0.005138 -0.009327 0.006731
# 4 0.001018 -0.006040 -0.005138 0.034481 0.018877 -0.015672
# 5 0.008679 -0.017080 -0.009327 0.018877 0.049839 -0.030830
# 6 -0.007144 0.019467 0.006731 -0.015672 -0.030830 0.049618
#
#
# Mechanical properties :
#
#
# Convention : Reuss Voigt Hill
#
# Bulk Modulus (GPa) = 41.96976 68.11414 55.04195
# Shear Modulus (GPa) = 21.52031 38.40326 29.96179
#
# Velocity S-wave (km/s) = 3.13468 4.18749 3.69874
# Velocity P-wave (km/s) = 5.68024 7.38114 6.58583
#
# Compressibility (1/GPa) = 0.02382668
#
# Stress axis : x y z
#
# Youngs Moduli (GPa) = 40.39434 44.82619 99.22399
#
# Poissons Ratio (x) = 0.64849 0.54858
# Poissons Ratio (y) = 0.58437 -0.33116
# Poissons Ratio (z) = 0.22333 -0.14961
#
# Static dielectric constant tensor:
#      x y z
#    x 1.957590 0.030070 0.227350 
#    y 0.030070 1.840430 0.037650 
#    z 0.227350 0.037650 2.516940 
# 
# From -- ./inp_files/333697.got.cif
#   From: 2010.05.17/outbox.cif.g08.bks.cpg/sg2_167_cif.got.tgz:333697.got - 2010.06.03 11:33:40.
