data_PCOD9012834
_publ_section_title
;
Structure prediction by ZEFSAII (Michael W. Deem and Ramdas Pophale) SiO2 
 PCOD9012834
Probable space group: P -1
;
_chemical_formula_sum "Si O2"
_cell_formula_units_Z 16
_cell_length_a 15.279292
_cell_length_b 11.353341
_cell_length_c 7.848571
_cell_angle_alpha 141.185073
_cell_angle_beta 66.169201
_cell_angle_gamma 117.121424
_cell_volume 756.644790
_symmetry_space_group_name_H-M "P -1"
_symmetry_group_IT_number 2
_symmetry_cell_setting 'triclinic'
loop_
_space_group_symop_operation_xyz
x,y,z
-x,-y,-z
loop_
_atom_site_type_symbol
_atom_site_label
_atom_site_fract_x
_atom_site_fract_y
_atom_site_fract_z
Si Si1 0.399604 0.143708 0.870849
Si Si2 0.867460 0.127041 0.036014
Si Si3 0.434587 0.300554 0.401976
Si Si4 0.224699 0.291457 0.535383
Si Si5 0.449065 0.736100 0.391298
Si Si6 0.240804 0.532635 0.454312
Si Si7 0.939663 0.820775 0.237770
Si Si8 0.177623 0.135079 0.922702
O O1 0.481795 0.286856 0.849402
O O2 0.291078 0.141758 0.884397
O O3 0.415495 0.930863 0.594571
O O4 0.410804 0.180944 0.107722
O O5 0.972891 0.235362 0.997661
O O6 0.813284 0.932222 0.752821
O O7 0.799628 0.276643 0.280977
O O8 0.883992 0.029627 0.091789
O O9 0.500000 0.500000 0.500000
O O10 0.328409 0.313759 0.572303
O O11 0.491632 0.236455 0.444152
O O12 0.250047 0.440301 0.527177
O O13 0.133937 0.332421 0.758946
O O14 0.346593 0.580810 0.332505
O O15 0.168111 0.352915 0.214362
O O16 0.863627 0.902686 0.274701
O O17 0.000000 0.000000 0.500000
#
# Coordination Sequence:
#
# PCOD9012834 Si02
#       8
#     2   2   2   2   2   2   2   2
#     4  11  23  40  63  94 125 170 216 255 315 380
#     4  10  21  41  65  88 121 164 207 256 313 367
#     4  12  21  38  63  92 130 172 203 261 313 369
#     4  10  21  41  61  92 126 161 209 252 314 370
#     4  11  23  39  63  94 128 168 216 258 309 376
#     4  11  21  40  64  88 128 163 205 259 310 371
#     4  10  23  41  66  93 121 163 207 261 319 375
#     4  11  21  41  66  87 124 163 205 261 311 380
#
# _framework density 21.145986000000001
#
# number of rings (size 3 to 8) (size 9 to 14) (size 15 to 20)
#    0.000    1.250    5.000    1.500    0.000    4.000 
#    0.000    3.750    0.000    0.000    0.000    0.000 
#    0.000    0.000    0.000    0.000    0.000    0.000 
#
# Total GULP energy -89223.306812 kJ/mol
# GULP energy per Si atom -5576.456676 kJ/mol
# Density = 2.109786 g / cm^3
# Si number density = 21.145986 Si / 1000 Ang^3
#
#
#
# Elastic Constant Matrix: (Units=GPa)
#
#
# Indices 1 2 3 4 5 6 
#
# 1 74.3051 13.5119 22.4434 0.2660 -8.4723 -6.5262
# 2 13.5119 109.0786 27.2131 -11.5603 -27.0564 15.2082
# 3 22.4434 27.2131 46.2489 -2.7772 -14.3119 -0.0584
# 4 0.2660 -11.5603 -2.7772 35.4160 2.4698 -8.7063
# 5 -8.4723 -27.0564 -14.3119 2.4698 23.3800 -17.1675
# 6 -6.5262 15.2082 -0.0584 -8.7063 -17.1675 31.6085
#
#
#
# Elastic Compliance Matrix: (Units=1/GPa)
#
#
# Indices 1 2 3 4 5 6 
#
# 1 0.016886 0.000594 -0.005400 0.001137 0.009903 0.008882
# 2 0.000594 0.013915 -0.003092 0.004008 0.016604 0.003544
# 3 -0.005400 -0.003092 0.034784 0.003874 0.027367 0.016368
# 4 0.001137 0.004008 0.003874 0.032624 0.015528 0.015733
# 5 0.009903 0.016604 0.027367 0.015528 0.132237 0.070205
# 6 0.008882 0.003544 0.016368 0.015733 0.070205 0.074260
#
#
# Mechanical properties :
#
#
# Convention : Reuss Voigt Hill
#
# Bulk Modulus (GPa) = 20.08506 39.55217 29.81861
# Shear Modulus (GPa) = 14.83239 29.17850 22.00545
#
# Velocity S-wave (km/s) = 2.65132 3.71868 3.22940
# Velocity P-wave (km/s) = 4.34645 6.09779 5.29503
#
# Compressibility (1/GPa) = 0.04978825
#
# Stress axis : x y z
#
# Youngs Moduli (GPa) = 59.21967 71.86566 28.74860
#
# Poissons Ratio (x) = -0.04268 0.15524
# Poissons Ratio (y) = -0.03517 0.08890
# Poissons Ratio (z) = 0.31978 0.22224
#
# Static dielectric constant tensor:
#      x y z
#    x 1.784370 0.007000 0.006930 
#    y 0.007000 1.821560 -0.046090 
#    z 0.006930 -0.046090 1.822590 
# 
# From -- ./inp_files/308727.got.cif
#   From: 2010.05.17/outbox.cif.g08.bks.cpg/sg2_155_cif.got.tgz:308727.got - 2010.06.03 11:33:40.
