data_PCOD9012368
_publ_section_title
;
Structure prediction by ZEFSAII (Michael W. Deem and Ramdas Pophale) SiO2 
 PCOD9012368
Probable space group: P -1
;
_chemical_formula_sum "Si O2"
_cell_formula_units_Z 14
_cell_length_a 17.481956
_cell_length_b 8.504217
_cell_length_c 12.049423
_cell_angle_alpha 99.630639
_cell_angle_beta 150.033599
_cell_angle_gamma 100.808487
_cell_volume 650.798027
_symmetry_space_group_name_H-M "P -1"
_symmetry_group_IT_number 2
_symmetry_cell_setting 'triclinic'
loop_
_space_group_symop_operation_xyz
x,y,z
-x,-y,-z
loop_
_atom_site_type_symbol
_atom_site_label
_atom_site_fract_x
_atom_site_fract_y
_atom_site_fract_z
Si Si1 0.231266 0.802403 0.766310
Si Si2 0.245275 0.563147 0.935481
Si Si3 0.918466 0.056725 0.808010
Si Si4 0.673874 0.483813 0.719401
Si Si5 0.411000 0.393176 0.755439
Si Si6 0.399060 0.737416 0.762133
Si Si7 0.767943 0.271104 0.666903
O O1 0.266538 0.753294 0.927370
O O2 0.326934 0.738614 0.793464
O O3 0.989939 0.649479 0.417849
O O4 0.360500 0.051768 0.931056
O O5 0.285712 0.569779 0.117015
O O6 0.407202 0.559388 0.080260
O O7 0.773969 0.091266 0.687068
O O8 0.782227 0.861619 0.526158
O O9 0.114033 0.279500 0.023646
O O10 0.000000 0.000000 0.000000
O O11 0.500000 0.500000 0.500000
O O12 0.629052 0.303873 0.558869
O O13 0.346307 0.519553 0.641643
O O14 0.500000 0.500000 0.000000
O O15 0.283221 0.766297 0.531725
O O16 0.000000 0.500000 0.000000
#
# Coordination Sequence:
#
# PCOD9012368 Si02
#       7
#     2   2   2   2   2   2   2
#     4  10  23  41  66  95 128 181 219 289 333 412
#     4  11  23  43  64  97 139 165 230 284 351 399
#     4  11  24  45  70  99 137 188 232 277 346 419
#     4  11  24  45  71 104 138 174 226 298 347 410
#     4  12  25  43  65  98 137 184 231 280 341 416
#     4  11  22  42  68  93 132 176 234 268 347 408
#     4  10  21  40  69  97 128 177 224 275 338 409
#
# _framework density 21.512051
#
# number of rings (size 3 to 8) (size 9 to 14) (size 15 to 20)
#    0.000    1.143    1.429    6.000    4.000    0.571 
#    2.571    6.429    0.000    0.000    0.000    0.000 
#    0.000    0.000    0.000    0.000    0.000    0.000 
#
# Total GULP energy -78225.109742 kJ/mol
# GULP energy per Si atom -5587.507839 kJ/mol
# Density = 2.146309 g / cm^3
# Si number density = 21.512051 Si / 1000 Ang^3
#
#
#
# Elastic Constant Matrix: (Units=GPa)
#
#
# Indices 1 2 3 4 5 6 
#
# 1 78.3466 42.6401 26.0401 -0.5813 -9.2613 7.5317
# 2 42.6401 115.1958 31.2551 -6.2271 -5.0453 -13.7906
# 3 26.0401 31.2551 84.5948 3.8972 -1.3693 2.1816
# 4 -0.5813 -6.2271 3.8972 47.9621 6.4506 -7.4232
# 5 -9.2613 -5.0453 -1.3693 6.4506 38.8666 -6.7890
# 6 7.5317 -13.7906 2.1816 -7.4232 -6.7890 43.1862
#
#
#
# Elastic Compliance Matrix: (Units=1/GPa)
#
#
# Indices 1 2 3 4 5 6 
#
# 1 0.018013 -0.006414 -0.002936 -0.001499 0.002755 -0.004866
# 2 -0.006414 0.012744 -0.002998 0.002650 0.000609 0.005891
# 3 -0.002936 -0.002998 0.013942 -0.001717 -0.000581 -0.001536
# 4 -0.001499 0.002650 -0.001717 0.022427 -0.002996 0.004578
# 5 0.002755 0.000609 -0.000581 -0.002996 0.027564 0.003562
# 6 -0.004866 0.005891 -0.001536 0.004578 0.003562 0.027310
#
#
# Mechanical properties :
#
#
# Convention : Reuss Voigt Hill
#
# Bulk Modulus (GPa) = 49.99393 53.11199 51.55296
# Shear Modulus (GPa) = 32.60279 37.88312 35.24296
#
# Velocity S-wave (km/s) = 3.89724 4.20100 4.05197
# Velocity P-wave (km/s) = 6.59862 6.94797 6.77554
#
# Compressibility (1/GPa) = 0.02000243
#
# Stress axis : x y z
#
# Youngs Moduli (GPa) = 55.51675 78.47086 71.72664
#
# Poissons Ratio (x) = 0.50329 0.21058
# Poissons Ratio (y) = 0.35607 0.21505
# Poissons Ratio (z) = 0.16299 0.23527
#
# Static dielectric constant tensor:
#      x y z
#    x 1.780000 0.020430 0.004510 
#    y 0.020430 1.830420 -0.056620 
#    z 0.004510 -0.056620 1.692400 
# 
# From -- ./inp_files/307842.got.cif
#   From: 2010.05.17/outbox.cif.g08.bks.cpg/sg2_154_cif.got.tgz:307842.got - 2010.06.03 11:33:40.
