data_PCOD9012232
_publ_section_title
;
Structure prediction by ZEFSAII (Michael W. Deem and Ramdas Pophale) SiO2 
 PCOD9012232
Probable space group: P -1
;
_chemical_formula_sum "Si O2"
_cell_formula_units_Z 13
_cell_length_a 9.830238
_cell_length_b 16.546929
_cell_length_c 11.803297
_cell_angle_alpha 31.507079
_cell_angle_beta 133.432711
_cell_angle_gamma 147.487575
_cell_volume 535.897499
_symmetry_space_group_name_H-M "P -1"
_symmetry_group_IT_number 2
_symmetry_cell_setting 'triclinic'
loop_
_space_group_symop_operation_xyz
x,y,z
-x,-y,-z
loop_
_atom_site_type_symbol
_atom_site_label
_atom_site_fract_x
_atom_site_fract_y
_atom_site_fract_z
Si Si1 0.875454 0.026283 0.729816
Si Si2 0.043672 0.813432 0.167200
Si Si3 0.728088 0.509931 0.653526
Si Si4 0.000000 0.500000 0.000000
Si Si5 0.535635 0.393402 0.313307
Si Si6 0.669399 0.412365 0.122046
Si Si7 0.608603 0.208010 0.748613
O O1 0.854352 0.082423 0.777027
O O2 0.026551 0.239557 0.492791
O O3 0.599554 0.823701 0.771311
O O4 0.047867 0.968444 0.906104
O O5 0.188905 0.753609 0.266690
O O6 0.746456 0.604704 0.253032
O O7 0.500000 0.500000 0.500000
O O8 0.731775 0.420970 0.881181
O O9 0.720694 0.384388 0.696152
O O10 0.115390 0.535720 0.896665
O O11 0.687338 0.413532 0.266687
O O12 0.429408 0.205766 0.562411
O O13 0.347728 0.415331 0.127417
O O14 0.500000 0.000000 0.000000
#
# Coordination Sequence:
#
# PCOD9012232 Si02
#       7
#     2   2   2   1   2   2   2
#     4  10  23  43  71 102 142 198 242 301 375 439
#     4  10  21  40  69 101 135 185 254 290 360 460
#     4  12  27  48  72 106 153 195 245 317 377 437
#     4  12  28  42  70 114 150 188 248 306 372 444
#     4  10  21  45  71  99 143 197 244 299 381 444
#     4  10  24  44  72 105 147 193 245 315 369 445
#     4  12  25  39  69 105 141 190 247 302 365 452
#
# _framework density 24.258372000000001
#
# number of rings (size 3 to 8) (size 9 to 14) (size 15 to 20)
#    0.000    1.231    1.538    3.231    8.615    1.846 
#    0.000    0.000    0.000    9.231    0.000    0.000 
#    0.000    0.000    0.000    0.000    0.000    0.000 
#
# Total GULP energy -72439.805675 kJ/mol
# GULP energy per Si atom -5572.292744 kJ/mol
# Density = 2.420316 g / cm^3
# Si number density = 24.258372 Si / 1000 Ang^3
#
#
#
# Elastic Constant Matrix: (Units=GPa)
#
#
# Indices 1 2 3 4 5 6 
#
# 1 92.0818 26.9875 28.8681 4.9057 15.4156 -14.4909
# 2 26.9875 94.2620 31.1934 17.1366 3.6171 -24.9556
# 3 28.8681 31.1934 131.7785 17.6357 -8.4660 -15.5826
# 4 4.9057 17.1366 17.6357 39.8760 -7.5349 -4.8576
# 5 15.4156 3.6171 -8.4660 -7.5349 35.2799 1.5609
# 6 -14.4909 -24.9556 -15.5826 -4.8576 1.5609 34.3249
#
#
#
# Elastic Compliance Matrix: (Units=1/GPa)
#
#
# Indices 1 2 3 4 5 6 
#
# 1 0.013935 -0.001804 -0.002546 -0.000659 -0.006816 0.003632
# 2 -0.001804 0.014989 -0.001617 -0.004916 -0.002577 0.008823
# 3 -0.002546 -0.001617 0.009202 -0.002331 0.002924 0.001464
# 4 -0.000659 -0.004916 -0.002331 0.029415 0.006561 -0.001046
# 5 -0.006816 -0.002577 0.002924 0.006561 0.033869 -0.004035
# 6 0.003632 0.008823 0.001464 -0.001046 -0.004035 0.037782
#
#
# Mechanical properties :
#
#
# Convention : Reuss Voigt Hill
#
# Bulk Modulus (GPa) = 38.18069 54.69116 46.43593
# Shear Modulus (GPa) = 31.27838 37.30106 34.28972
#
# Velocity S-wave (km/s) = 3.59470 3.92555 3.76376
# Velocity P-wave (km/s) = 5.74478 6.56817 6.17022
#
# Compressibility (1/GPa) = 0.02619125
#
# Stress axis : x y z
#
# Youngs Moduli (GPa) = 71.76420 66.71553 108.67386
#
# Poissons Ratio (x) = 0.12037 0.27666
# Poissons Ratio (y) = 0.12948 0.17573
# Poissons Ratio (z) = 0.18270 0.10788
#
# Static dielectric constant tensor:
#      x y z
#    x 1.948530 0.010620 -0.014230 
#    y 0.010620 1.771280 -0.067830 
#    z -0.014230 -0.067830 1.974570 
# 
# From -- ./inp_files/383648.got.cif
#   From: 2010.05.17/outbox.cif.g08.bks.cpg/sg2_192_cif.got.tgz:383648.got - 2010.06.03 11:33:40.
