data_PCOD9012097
_publ_section_title
;
Structure prediction by ZEFSAII (Michael W. Deem and Ramdas Pophale) SiO2 
 PCOD9012097
Probable space group: P -1
;
_chemical_formula_sum "Si O2"
_cell_formula_units_Z 14
_cell_length_a 15.795290
_cell_length_b 8.798737
_cell_length_c 9.098138
_cell_angle_alpha 86.523790
_cell_angle_beta 114.260257
_cell_angle_gamma 143.909781
_cell_volume 585.964091
_symmetry_space_group_name_H-M "P -1"
_symmetry_group_IT_number 2
_symmetry_cell_setting 'triclinic'
loop_
_space_group_symop_operation_xyz
x,y,z
-x,-y,-z
loop_
_atom_site_type_symbol
_atom_site_label
_atom_site_fract_x
_atom_site_fract_y
_atom_site_fract_z
Si Si1 0.398740 0.454634 0.642291
Si Si2 0.096900 0.472837 0.078212
Si Si3 0.246725 0.196651 0.230282
Si Si4 0.291768 0.991706 0.720713
Si Si5 0.082706 0.510799 0.390378
Si Si6 0.165749 0.342478 0.647026
Si Si7 0.327911 0.601714 0.060792
O O1 0.275066 0.263499 0.419298
O O2 0.604164 0.718631 0.719367
O O3 0.343926 0.530094 0.680442
O O4 0.356838 0.257138 0.736511
O O5 0.139358 0.517787 0.277896
O O6 0.000000 0.500000 0.000000
O O7 0.271765 0.680081 0.092820
O O8 0.948079 0.140361 0.937174
O O9 0.295043 0.420450 0.166491
O O10 0.201286 0.821048 0.508242
O O11 0.462908 0.122962 0.855278
O O12 0.131810 0.754052 0.740022
O O13 0.115594 0.436819 0.547298
O O14 0.203544 0.396205 0.842716
O O15 0.000000 0.000000 0.500000
#
# Coordination Sequence:
#
# PCOD9012097 Si02
#       7
#     2   2   2   2   2   2   2
#     4  10  21  40  68  95 129 173 212 267 312 390
#     4  12  26  42  67  96 129 169 215 269 323 385
#     4  10  22  41  66  97 132 166 217 263 324 373
#     4  10  24  44  67  95 130 169 219 261 325 378
#     4  11  25  43  68  91 133 173 208 270 324 382
#     4  12  23  39  67  96 130 168 216 259 322 376
#     4  11  26  43  67  97 131 168 219 270 311 390
#
# _framework density 23.892249
#
# number of rings (size 3 to 8) (size 9 to 14) (size 15 to 20)
#    0.000    1.143    1.429    3.857    6.000    3.429 
#    0.000    0.000    0.000    0.000    0.000    0.000 
#    0.000    0.000    0.000    0.000    0.000    0.000 
#
# Total GULP energy -78414.082463 kJ/mol
# GULP energy per Si atom -5601.005890 kJ/mol
# Density = 2.383787 g / cm^3
# Si number density = 23.892249 Si / 1000 Ang^3
#
#
#
# Elastic Constant Matrix: (Units=GPa)
#
#
# Indices 1 2 3 4 5 6 
#
# 1 162.7633 15.4784 35.7051 -2.2422 9.2472 29.8335
# 2 15.4784 35.9341 10.9480 9.0161 6.3449 1.7298
# 3 35.7051 10.9480 94.2925 -7.8126 -7.1313 15.2188
# 4 -2.2422 9.0161 -7.8126 29.2990 2.0003 6.9946
# 5 9.2472 6.3449 -7.1313 2.0003 42.9303 -5.4220
# 6 29.8335 1.7298 15.2188 6.9946 -5.4220 29.1309
#
#
#
# Elastic Compliance Matrix: (Units=1/GPa)
#
#
# Indices 1 2 3 4 5 6 
#
# 1 0.008711 -0.003338 -0.001281 0.003830 -0.002977 -0.009527
# 2 -0.003338 0.034641 -0.005254 -0.013652 -0.003794 0.006679
# 3 -0.001281 -0.005254 0.013466 0.006533 0.002154 -0.006579
# 4 0.003830 -0.013652 0.006533 0.044717 -0.002034 -0.017641
# 5 -0.002977 -0.003794 0.002154 -0.002034 0.025890 0.007456
# 6 -0.009527 0.006679 -0.006579 -0.017641 0.007456 0.052749
#
#
# Mechanical properties :
#
#
# Convention : Reuss Voigt Hill
#
# Bulk Modulus (GPa) = 26.97480 46.36144 36.66812
# Shear Modulus (GPa) = 23.55404 35.66260 29.60832
#
# Velocity S-wave (km/s) = 3.14322 3.86767 3.52411
# Velocity P-wave (km/s) = 4.94852 6.27627 5.65152
#
# Compressibility (1/GPa) = 0.03707164
#
# Stress axis : x y z
#
# Youngs Moduli (GPa) = 114.80377 28.86739 74.25858
#
# Poissons Ratio (x) = 0.09637 0.09512
# Poissons Ratio (y) = 0.38327 0.39015
# Poissons Ratio (z) = 0.14705 0.15167
#
# Static dielectric constant tensor:
#      x y z
#    x 1.910790 0.020570 0.026080 
#    y 0.020570 1.912590 0.016070 
#    z 0.026080 0.016070 1.903350 
# 
# From -- ./inp_files/225314.got.cif
#   From: 2010.05.17/outbox.cif.g08.bks.cpg/sg2_113_cif.got.tgz:225314.got - 2010.06.03 11:33:40.
