data_PCOD9012180
_publ_section_title
;
Structure prediction by ZEFSAII (Michael W. Deem and Ramdas Pophale) SiO2 
 PCOD9012180
Probable space group: P -1
;
_chemical_formula_sum "Si O2"
_cell_formula_units_Z 14
_cell_length_a 11.006886
_cell_length_b 6.770814
_cell_length_c 23.540314
_cell_angle_alpha 107.401125
_cell_angle_beta 145.517997
_cell_angle_gamma 97.640704
_cell_volume 674.580869
_symmetry_space_group_name_H-M "P -1"
_symmetry_group_IT_number 2
_symmetry_cell_setting 'triclinic'
loop_
_space_group_symop_operation_xyz
x,y,z
-x,-y,-z
loop_
_atom_site_type_symbol
_atom_site_label
_atom_site_fract_x
_atom_site_fract_y
_atom_site_fract_z
Si Si1 0.163562 0.228060 0.633294
Si Si2 0.584238 0.999878 0.442271
Si Si3 0.492946 0.805242 0.142786
Si Si4 0.781919 0.841585 0.150387
Si Si5 0.077158 0.871850 0.162255
Si Si6 0.417301 0.234921 0.477388
Si Si7 0.686152 0.873903 0.845563
O O1 0.285497 0.158585 0.723782
O O2 0.435064 0.542858 0.739542
O O3 0.902798 0.200871 0.552836
O O4 0.000000 0.000000 0.500000
O O5 0.611575 0.194735 0.517059
O O6 0.305687 0.880700 0.286348
O O7 0.525937 0.747569 0.432455
O O8 0.645126 0.919616 0.147957
O O9 0.393930 0.957695 0.143358
O O10 0.202197 0.458136 0.994591
O O11 0.940795 0.957911 0.159120
O O12 0.500000 0.500000 0.000000
O O13 0.064355 0.948326 0.305042
O O14 0.266595 0.077709 0.199530
O O15 0.500000 0.500000 0.500000
O O16 0.000000 0.000000 0.000000
#
# Coordination Sequence:
#
# PCOD9012180 Si02
#       7
#     2   2   2   2   2   2   2
#     4  12  27  43  71  99 137 181 233 286 346 402
#     4  10  23  41  66  99 139 175 218 278 344 397
#     4  11  23  46  72  97 141 179 229 295 340 405
#     4   9  20  41  69  98 135 177 216 278 343 400
#     4  10  22  45  71 101 144 182 227 282 345 412
#     4  10  21  40  68  98 136 175 220 274 338 405
#     4  12  27  45  71 100 135 187 240 278 343 415
#
# _framework density 20.753629
#
# number of rings (size 3 to 8) (size 9 to 14) (size 15 to 20)
#    0.000    1.429    2.857    1.286    4.000    4.571 
#    0.000    0.714    0.000    0.000    0.000    0.000 
#    0.000    0.000    0.000    0.000    0.000    0.000 
#
# Total GULP energy -78057.870191 kJ/mol
# GULP energy per Si atom -5575.562156 kJ/mol
# Density = 2.070639 g / cm^3
# Si number density = 20.753629 Si / 1000 Ang^3
#
#
#
# Elastic Constant Matrix: (Units=GPa)
#
#
# Indices 1 2 3 4 5 6 
#
# 1 186.7791 52.5856 41.1776 5.0038 16.2321 7.9399
# 2 52.5856 75.3456 28.8285 -1.6088 -1.4525 14.1195
# 3 41.1776 28.8285 121.9940 -5.9916 9.0235 9.5499
# 4 5.0038 -1.6088 -5.9916 27.2732 4.8296 -2.6357
# 5 16.2321 -1.4525 9.0235 4.8296 37.4692 -5.8808
# 6 7.9399 14.1195 9.5499 -2.6357 -5.8808 25.7449
#
#
#
# Elastic Compliance Matrix: (Units=1/GPa)
#
#
# Indices 1 2 3 4 5 6 
#
# 1 0.007212 -0.004660 -0.001188 -0.001357 -0.002847 -0.000017
# 2 -0.004660 0.018917 -0.002450 0.000331 0.002121 -0.007511
# 3 -0.001188 -0.002450 0.009660 0.002437 -0.002568 -0.002210
# 4 -0.001357 0.000331 0.002437 0.038499 -0.004600 0.002224
# 5 -0.002847 0.002121 -0.002568 -0.004600 0.030334 0.007125
# 6 -0.000017 -0.007511 -0.002210 0.002224 0.007125 0.045642
#
#
# Mechanical properties :
#
#
# Convention : Reuss Voigt Hill
#
# Bulk Modulus (GPa) = 52.10096 69.92246 61.01171
# Shear Modulus (GPa) = 28.85880 35.53259 32.19569
#
# Velocity S-wave (km/s) = 3.73304 4.14226 3.94296
# Velocity P-wave (km/s) = 6.61361 7.52613 7.08457
#
# Compressibility (1/GPa) = 0.01919350
#
# Stress axis : x y z
#
# Youngs Moduli (GPa) = 138.65457 52.86215 103.52280
#
# Poissons Ratio (x) = 0.24632 0.12298
# Poissons Ratio (y) = 0.64608 0.25365
# Poissons Ratio (z) = 0.16472 0.12952
#
# Static dielectric constant tensor:
#      x y z
#    x 1.639310 -0.086490 -0.089060 
#    y -0.086490 1.686670 -0.063670 
#    z -0.089060 -0.063670 1.690140 
# 
# From -- ./inp_files/270880.got.cif
#   From: 2010.05.17/outbox.cif.g08.bks.cpg/sg2_136_cif.got.tgz:270880.got - 2010.06.03 11:33:40.
