data_PCOD9012608
_publ_section_title
;
Structure prediction by ZEFSAII (Michael W. Deem and Ramdas Pophale) SiO2 
 PCOD9012608
Probable space group: P -1
;
_chemical_formula_sum "Si O2"
_cell_formula_units_Z 16
_cell_length_a 9.200440
_cell_length_b 21.256720
_cell_length_c 8.094836
_cell_angle_alpha 148.299708
_cell_angle_beta 57.683588
_cell_angle_gamma 124.136078
_cell_volume 682.590172
_symmetry_space_group_name_H-M "P -1"
_symmetry_group_IT_number 2
_symmetry_cell_setting 'triclinic'
loop_
_space_group_symop_operation_xyz
x,y,z
-x,-y,-z
loop_
_atom_site_type_symbol
_atom_site_label
_atom_site_fract_x
_atom_site_fract_y
_atom_site_fract_z
Si Si1 0.749484 0.473029 0.256745
Si Si2 0.414696 0.309985 0.242173
Si Si3 0.287383 0.024854 0.586238
Si Si4 0.110353 0.527747 0.327861
Si Si5 0.382345 0.954907 0.736154
Si Si6 0.706585 0.686930 0.301366
Si Si7 0.924573 0.942053 0.739142
Si Si8 0.357216 0.702118 0.371073
O O1 0.619676 0.378218 0.245494
O O2 0.695574 0.603531 0.589312
O O3 0.954170 0.487908 0.200052
O O4 0.697285 0.413508 0.977618
O O5 0.362867 0.307092 0.457749
O O6 0.364647 0.171249 0.895070
O O7 0.406752 0.989716 0.289450
O O8 0.320253 0.956897 0.585973
O O9 0.076227 0.999159 0.644015
O O10 0.221845 0.664976 0.523116
O O11 0.000000 0.500000 0.500000
O O12 0.248372 0.442053 0.050578
O O13 0.343645 0.821579 0.544319
O O14 0.269104 0.029595 0.078334
O O15 0.884791 0.795182 0.424701
O O16 0.556254 0.710574 0.324991
O O17 0.000000 0.000000 0.000000
#
# Coordination Sequence:
#
# PCOD9012608 Si02
#       8
#     2   2   2   2   2   2   2   2
#     4  11  26  41  76 105 134 183 242 290 353 438
#     4  11  22  43  72 102 140 185 237 289 367 410
#     4  10  21  40  72 100 141 185 237 293 348 432
#     4  12  29  47  71 106 141 185 239 293 361 429
#     4  10  22  40  68 101 139 181 239 285 356 414
#     4  12  26  46  70  99 148 186 229 302 363 412
#     4  10  22  41  69  99 133 189 237 287 339 425
#     4  12  26  45  70 104 147 182 233 300 353 428
#
# _framework density 23.440125999999999
#
# number of rings (size 3 to 8) (size 9 to 14) (size 15 to 20)
#    0.000    1.000    5.000    1.500    8.750    0.500 
#    2.250    0.625    0.000    0.000    0.000    0.000 
#    0.000    0.000    0.000    0.000    0.000    0.000 
#
# Total GULP energy -89495.821735 kJ/mol
# GULP energy per Si atom -5593.488858 kJ/mol
# Density = 2.338678 g / cm^3
# Si number density = 23.440126 Si / 1000 Ang^3
#
#
#
# Elastic Constant Matrix: (Units=GPa)
#
#
# Indices 1 2 3 4 5 6 
#
# 1 78.4433 36.2165 24.4972 5.8345 0.6322 8.5659
# 2 36.2165 147.4167 49.1537 14.1306 -17.8901 21.6970
# 3 24.4972 49.1537 42.8519 10.5508 -18.3718 4.5934
# 4 5.8345 14.1306 10.5508 46.9844 4.8461 -13.3728
# 5 0.6322 -17.8901 -18.3718 4.8461 31.0941 -6.3323
# 6 8.5659 21.6970 4.5934 -13.3728 -6.3323 36.6841
#
#
#
# Elastic Compliance Matrix: (Units=1/GPa)
#
#
# Indices 1 2 3 4 5 6 
#
# 1 0.017523 -0.000663 -0.013153 0.001001 -0.009337 -0.003300
# 2 -0.000663 0.012357 -0.013205 -0.002393 -0.001662 -0.006660
# 3 -0.013153 -0.013205 0.061477 -0.010041 0.031571 0.004973
# 4 0.001001 -0.002393 -0.010041 0.028273 -0.009474 0.011110
# 5 -0.009337 -0.001662 0.031571 -0.009474 0.052505 0.004820
# 6 -0.003300 -0.006660 0.004973 0.011110 0.004820 0.036229
#
#
# Mechanical properties :
#
#
# Convention : Reuss Voigt Hill
#
# Bulk Modulus (GPa) = 26.79841 54.27186 40.53514
# Shear Modulus (GPa) = 18.19213 33.54215 25.86714
#
# Velocity S-wave (km/s) = 2.78890 3.78692 3.32556
# Velocity P-wave (km/s) = 4.67206 6.50574 5.66360
#
# Compressibility (1/GPa) = 0.03731564
#
# Stress axis : x y z
#
# Youngs Moduli (GPa) = 57.06918 80.92460 16.26621
#
# Poissons Ratio (x) = 0.05363 0.21394
# Poissons Ratio (y) = 0.03782 0.21480
# Poissons Ratio (z) = 0.75061 1.06863
#
# Static dielectric constant tensor:
#      x y z
#    x 1.905020 0.001840 -0.022880 
#    y 0.001840 1.948120 -0.023960 
#    z -0.022880 -0.023960 1.868850 
# 
# From -- ./inp_files/224339.got.cif
#   From: 2010.05.17/outbox.cif.g08.bks.cpg/sg2_113_cif.got.tgz:224339.got - 2010.06.03 11:33:40.
