data_PCOD9012055
_publ_section_title
;
Structure prediction by ZEFSAII (Michael W. Deem and Ramdas Pophale) SiO2 
 PCOD9012055
Probable space group: P -1
;
_chemical_formula_sum "Si O2"
_cell_formula_units_Z 10
_cell_length_a 8.722403
_cell_length_b 8.889794
_cell_length_c 10.933289
_cell_angle_alpha 137.358203
_cell_angle_beta 62.519135
_cell_angle_gamma 92.840683
_cell_volume 446.300511
_symmetry_space_group_name_H-M "P -1"
_symmetry_group_IT_number 2
_symmetry_cell_setting 'triclinic'
loop_
_space_group_symop_operation_xyz
x,y,z
-x,-y,-z
loop_
_atom_site_type_symbol
_atom_site_label
_atom_site_fract_x
_atom_site_fract_y
_atom_site_fract_z
Si Si1 0.499462 0.521962 0.369152
Si Si2 0.461693 0.264083 0.843977
Si Si3 0.268085 0.039045 0.640908
Si Si4 0.919381 0.035559 0.910675
Si Si5 0.317147 0.236932 0.148355
O O1 0.500000 0.500000 0.500000
O O2 0.434438 0.804003 0.519236
O O3 0.330853 0.470684 0.341336
O O4 0.714802 0.296597 0.121626
O O5 0.665450 0.054391 0.578361
O O6 0.296258 0.276228 0.815643
O O7 0.500000 0.500000 0.000000
O O8 0.376907 0.218423 0.973752
O O9 0.068974 0.052206 0.769757
O O10 0.866056 0.807765 0.782311
O O11 0.000000 0.000000 0.000000
O O12 0.500000 0.000000 0.000000
#
# Coordination Sequence:
#
# PCOD9012055 Si02
#       5
#     2   2   2   2   2
#     4  11  21  39  65  97 132 170 214 274 323 378
#     4  11  22  42  67  93 135 177 209 268 338 387
#     4  11  23  41  68  95 133 173 213 273 329 380
#     4  11  21  40  67 101 126 168 230 265 313 396
#     4  10  21  40  68  93 131 170 219 266 321 390
#
# _framework density 22.406427000000001
#
# number of rings (size 3 to 8) (size 9 to 14) (size 15 to 20)
#    0.000    1.200    6.000    1.200    0.000    0.800 
#    3.600    8.000    0.000    0.000    0.000    0.000 
#    0.000    0.000    0.000    0.000    0.000    0.000 
#
# Total GULP energy -55731.313016 kJ/mol
# GULP energy per Si atom -5573.131302 kJ/mol
# Density = 2.235543 g / cm^3
# Si number density = 22.406427 Si / 1000 Ang^3
#
#
#
# Elastic Constant Matrix: (Units=GPa)
#
#
# Indices 1 2 3 4 5 6 
#
# 1 116.3752 33.4684 57.7369 -13.7323 10.6054 46.6741
# 2 33.4684 86.8600 37.8948 -24.3073 -1.4482 34.6409
# 3 57.7369 37.8948 102.5018 -19.7203 7.7941 33.5496
# 4 -13.7323 -24.3073 -19.7203 54.5520 4.2936 -12.9653
# 5 10.6054 -1.4482 7.7941 4.2936 52.8468 -1.7544
# 6 46.6741 34.6409 33.5496 -12.9653 -1.7544 52.5633
#
#
#
# Elastic Compliance Matrix: (Units=1/GPa)
#
#
# Indices 1 2 3 4 5 6 
#
# 1 0.015721 0.000591 -0.005248 -0.000104 -0.002725 -0.011116
# 2 0.000591 0.017484 -0.002953 0.004726 0.000114 -0.008993
# 3 -0.005248 -0.002953 0.015222 0.002376 -0.001551 -0.002575
# 4 -0.000104 0.004726 0.002376 0.021593 -0.001930 0.000723
# 5 -0.002725 0.000114 -0.001551 -0.001930 0.019975 0.003526
# 6 -0.011116 -0.008993 -0.002575 0.000723 0.003526 0.036762
#
#
# Mechanical properties :
#
#
# Convention : Reuss Voigt Hill
#
# Bulk Modulus (GPa) = 30.11428 62.65967 46.38698
# Shear Modulus (GPa) = 32.66989 43.76820 38.21905
#
# Velocity S-wave (km/s) = 3.82260 4.42450 4.13451
# Velocity P-wave (km/s) = 5.74040 7.35713 6.59847
#
# Compressibility (1/GPa) = 0.03320684
#
# Stress axis : x y z
#
# Youngs Moduli (GPa) = 63.60911 57.19435 65.69618
#
# Poissons Ratio (x) = -0.03378 0.34478
# Poissons Ratio (y) = -0.03757 0.19397
# Poissons Ratio (z) = 0.33383 0.16887
#
# Static dielectric constant tensor:
#      x y z
#    x 1.868510 0.110040 0.038760 
#    y 0.110040 1.954800 0.068270 
#    z 0.038760 0.068270 1.886580 
# 
# From -- ./inp_files/146608.got.cif
#   From: 2010.05.17/outbox.cif.g08.bks.cpg/sg2_74_cif.got.tgz:146608.got - 2010.06.03 11:33:40.
