data_PCOD9012238
_publ_section_title
;
Structure prediction by ZEFSAII (Michael W. Deem and Ramdas Pophale) SiO2 
 PCOD9012238
Probable space group: P -1
;
_chemical_formula_sum "Si O2"
_cell_formula_units_Z 12
_cell_length_a 7.975306
_cell_length_b 11.841769
_cell_length_c 8.444117
_cell_angle_alpha 103.732719
_cell_angle_beta 129.836887
_cell_angle_gamma 55.308699
_cell_volume 493.174969
_symmetry_space_group_name_H-M "P -1"
_symmetry_group_IT_number 2
_symmetry_cell_setting 'triclinic'
loop_
_space_group_symop_operation_xyz
x,y,z
-x,-y,-z
loop_
_atom_site_type_symbol
_atom_site_label
_atom_site_fract_x
_atom_site_fract_y
_atom_site_fract_z
Si Si1 0.266493 0.646108 0.755134
Si Si2 0.528647 0.124608 0.381754
Si Si3 0.173481 0.275881 0.974733
Si Si4 0.138986 0.510452 0.864943
Si Si5 0.681754 0.329418 0.558938
Si Si6 0.073440 0.077593 0.197229
O O1 0.116186 0.576242 0.702526
O O2 0.212041 0.706895 0.567938
O O3 0.182313 0.770205 0.868504
O O4 0.577316 0.531093 0.912942
O O5 0.523331 0.260612 0.482310
O O6 0.299630 0.101585 0.284439
O O7 0.798888 0.003495 0.586114
O O8 0.463644 0.150840 0.162227
O O9 0.158731 0.366531 0.846770
O O10 0.940107 0.255768 0.799342
O O11 0.069020 0.381372 0.097298
O O12 0.500000 0.500000 0.500000
O O13 0.000000 0.000000 0.000000
#
# Coordination Sequence:
#
# PCOD9012238 Si02
#       6
#     2   2   2   2   2   2
#     4  11  23  42  67 107 136 173 243 279 326 424
#     4  11  24  46  70 100 137 181 236 277 338 420
#     4  11  20  43  68 101 141 180 210 283 357 399
#     4  10  21  40  69 101 143 171 228 290 335 412
#     4  12  24  42  72 106 142 181 215 286 362 402
#     4  11  26  49  72  92 137 192 232 285 335 397
#
# _framework density 24.332132999999999
#
# number of rings (size 3 to 8) (size 9 to 14) (size 15 to 20)
#    0.000    1.000    5.000    2.000    0.000    1.333 
#    6.000    1.667    0.000    0.000    0.000    0.000 
#    0.000    0.000    0.000    0.000    0.000    0.000 
#
# Total GULP energy -66905.445443 kJ/mol
# GULP energy per Si atom -5575.453787 kJ/mol
# Density = 2.427675 g / cm^3
# Si number density = 24.332133 Si / 1000 Ang^3
#
#
#
# Elastic Constant Matrix: (Units=GPa)
#
#
# Indices 1 2 3 4 5 6 
#
# 1 69.1476 30.2805 14.4481 4.9912 7.0093 17.3873
# 2 30.2805 96.2320 37.0547 -2.8655 0.6996 19.5411
# 3 14.4481 37.0547 131.9467 -8.2549 23.2322 10.7578
# 4 4.9912 -2.8655 -8.2549 32.5276 7.1100 6.6590
# 5 7.0093 0.6996 23.2322 7.1100 27.9407 9.1349
# 6 17.3873 19.5411 10.7578 6.6590 9.1349 34.1323
#
#
#
# Elastic Compliance Matrix: (Units=1/GPa)
#
#
# Indices 1 2 3 4 5 6 
#
# 1 0.018265 -0.004631 0.000073 -0.001517 -0.002252 -0.005777
# 2 -0.004631 0.014765 -0.004117 0.000983 0.006133 -0.006629
# 3 0.000073 -0.004117 0.010740 0.004423 -0.010236 0.000811
# 4 -0.001517 0.000983 0.004423 0.035594 -0.010654 -0.005277
# 5 -0.002252 0.006133 -0.010236 -0.010654 0.050917 -0.010686
# 6 -0.005777 -0.006629 0.000811 -0.005277 -0.010686 0.039670
#
#
# Mechanical properties :
#
#
# Convention : Reuss Voigt Hill
#
# Bulk Modulus (GPa) = 37.85039 51.21035 44.53037
# Shear Modulus (GPa) = 25.49613 33.28966 29.39290
#
# Velocity S-wave (km/s) = 3.24054 3.70284 3.47938
# Velocity P-wave (km/s) = 5.43976 6.27483 5.87216
#
# Compressibility (1/GPa) = 0.02641981
#
# Stress axis : x y z
#
# Youngs Moduli (GPa) = 54.74927 67.72763 93.11090
#
# Poissons Ratio (x) = 0.31366 -0.00682
# Poissons Ratio (y) = 0.25355 0.38335
# Poissons Ratio (z) = -0.00401 0.27885
#
# Static dielectric constant tensor:
#      x y z
#    x 1.990130 0.074230 -0.012530 
#    y 0.074230 2.005130 -0.053770 
#    z -0.012530 -0.053770 1.968180 
# 
# From -- ./inp_files/188812.got.cif
#   From: 2010.05.17/outbox.cif.g08.bks.cpg/sg2_95_cif.got.tgz:188812.got - 2010.06.03 11:33:40.
