data_PCOD9012122
_publ_section_title
;
Structure prediction by ZEFSAII (Michael W. Deem and Ramdas Pophale) SiO2 
 PCOD9012122
Probable space group: P -1
;
_chemical_formula_sum "Si O2"
_cell_formula_units_Z 16
_cell_length_a 10.950669
_cell_length_b 17.301585
_cell_length_c 22.959321
_cell_angle_alpha 20.773204
_cell_angle_beta 31.872703
_cell_angle_gamma 43.616912
_cell_volume 755.518779
_symmetry_space_group_name_H-M "P -1"
_symmetry_group_IT_number 2
_symmetry_cell_setting 'triclinic'
loop_
_space_group_symop_operation_xyz
x,y,z
-x,-y,-z
loop_
_atom_site_type_symbol
_atom_site_label
_atom_site_fract_x
_atom_site_fract_y
_atom_site_fract_z
Si Si1 0.726429 0.981048 0.383520
Si Si2 0.124659 0.216801 0.973329
Si Si3 0.772297 0.352583 0.939700
Si Si4 0.392834 0.936280 0.448486
Si Si5 0.059568 0.755027 0.270546
Si Si6 0.969160 0.897465 0.455027
Si Si7 0.445151 0.935115 0.886257
Si Si8 0.545900 0.682607 0.467583
O O1 0.569697 0.861061 0.473941
O O2 0.500000 0.000000 0.500000
O O3 0.867171 0.874503 0.446293
O O4 0.947680 0.209405 0.105799
O O5 0.400747 0.406414 0.726273
O O6 0.993439 0.278141 0.926874
O O7 0.114327 0.954219 0.156995
O O8 0.866470 0.631574 0.707557
O O9 0.546129 0.206406 0.177106
O O10 0.680091 0.245617 0.988636
O O11 0.150171 0.941169 0.575029
O O12 0.377710 0.787326 0.501782
O O13 0.818528 0.752119 0.334490
O O14 0.000000 0.500000 0.500000
O O15 0.290952 0.834134 0.077435
O O16 0.265078 0.014918 0.257357
O O17 0.432267 0.184737 0.695835
#
# Coordination Sequence:
#
# PCOD9012122 Si02
#       8
#     2   2   2   2   2   2   2   2
#     4   9  20  41  65  93 136 174 213 261 322 387
#     4  11  23  45  68  95 128 177 219 265 335 377
#     4  10  21  40  68  96 134 169 214 271 320 389
#     4   9  20  43  66  97 136 176 208 267 329 382
#     4  12  28  46  67  92 133 172 222 279 324 390
#     4  11  22  40  66 102 135 169 222 262 320 400
#     4  11  25  43  65 102 128 173 221 269 331 380
#     4  11  23  45  71  93 134 171 220 270 327 393
#
# _framework density 21.177500999999999
#
# number of rings (size 3 to 8) (size 9 to 14) (size 15 to 20)
#    0.000    1.500    5.000    0.750    3.500    4.000 
#    6.750    1.250    0.000    0.000    0.000    0.000 
#    0.000    0.000    0.000    0.000    0.000    0.000 
#
# Total GULP energy -89250.613916 kJ/mol
# GULP energy per Si atom -5578.163370 kJ/mol
# Density = 2.112930 g / cm^3
# Si number density = 21.177501 Si / 1000 Ang^3
#
#
#
# Elastic Constant Matrix: (Units=GPa)
#
#
# Indices 1 2 3 4 5 6 
#
# 1 47.1958 13.4481 20.5394 4.3483 15.6570 -4.1374
# 2 13.4481 60.0070 35.8180 7.7844 3.3576 -5.9308
# 3 20.5394 35.8180 106.1545 3.3423 1.3235 -3.9842
# 4 4.3483 7.7844 3.3423 37.4569 -3.6542 4.1411
# 5 15.6570 3.3576 1.3235 -3.6542 34.4315 3.5681
# 6 -4.1374 -5.9308 -3.9842 4.1411 3.5681 21.4877
#
#
#
# Elastic Compliance Matrix: (Units=1/GPa)
#
#
# Indices 1 2 3 4 5 6 
#
# 1 0.029560 -0.001720 -0.004514 -0.004933 -0.014425 0.007726
# 2 -0.001720 0.022458 -0.006847 -0.004727 -0.002256 0.005884
# 3 -0.004514 -0.006847 0.012495 0.001194 0.002479 -0.001084
# 4 -0.004933 -0.004727 0.001194 0.029787 0.006741 -0.008893
# 5 -0.014425 -0.002256 0.002479 0.006741 0.037528 -0.010471
# 6 0.007726 0.005884 -0.001084 -0.008893 -0.010471 0.052901
#
#
# Mechanical properties :
#
#
# Convention : Reuss Voigt Hill
#
# Bulk Modulus (GPa) = 26.07486 39.21869 32.64677
# Shear Modulus (GPa) = 22.35396 28.24535 25.29966
#
# Velocity S-wave (km/s) = 3.25245 3.65601 3.46012
# Velocity P-wave (km/s) = 5.14236 6.03167 5.60468
#
# Compressibility (1/GPa) = 0.03835112
#
# Stress axis : x y z
#
# Youngs Moduli (GPa) = 33.82967 44.52723 80.03335
#
# Poissons Ratio (x) = 0.07657 0.36128
# Poissons Ratio (y) = 0.05817 0.54800
# Poissons Ratio (z) = 0.15271 0.30489
#
# Static dielectric constant tensor:
#      x y z
#    x 1.779070 0.017200 0.007430 
#    y 0.017200 1.790890 -0.000080 
#    z 0.007430 -0.000080 1.760300 
# 
# From -- ./inp_files/610750.got.cif
#   From: 2010.05.17/outbox.cif.g08.bks.cpg/sg2_306_cif.got.tgz:610750.got - 2010.06.03 11:33:40.
