data_PCOD9012390
_publ_section_title
;
Structure prediction by ZEFSAII (Michael W. Deem and Ramdas Pophale) SiO2 
 PCOD9012390
Probable space group: P -1
;
_chemical_formula_sum "Si O2"
_cell_formula_units_Z 16
_cell_length_a 11.693166
_cell_length_b 23.354665
_cell_length_c 5.457053
_cell_angle_alpha 117.958940
_cell_angle_beta 61.613140
_cell_angle_gamma 144.408127
_cell_volume 753.149460
_symmetry_space_group_name_H-M "P -1"
_symmetry_group_IT_number 2
_symmetry_cell_setting 'triclinic'
loop_
_space_group_symop_operation_xyz
x,y,z
-x,-y,-z
loop_
_atom_site_type_symbol
_atom_site_label
_atom_site_fract_x
_atom_site_fract_y
_atom_site_fract_z
Si Si1 0.527033 0.369897 0.254929
Si Si2 0.464731 0.562343 0.115910
Si Si3 0.912174 0.717429 0.965965
Si Si4 0.484446 0.914709 0.840551
Si Si5 0.048836 0.207771 0.419515
Si Si6 0.165804 0.619172 0.090553
Si Si7 0.356240 0.011019 0.672749
Si Si8 0.882775 0.319782 0.237311
O O1 0.609475 0.429716 0.548330
O O2 0.284117 0.279143 0.327143
O O3 0.606395 0.443404 0.092542
O O4 0.619505 0.334495 0.049985
O O5 0.699162 0.671746 0.083575
O O6 0.500000 0.500000 0.000000
O O7 0.010114 0.789569 0.245250
O O8 0.983348 0.751375 0.681436
O O9 0.907944 0.639639 0.880276
O O10 0.271547 0.798808 0.817376
O O11 0.592709 0.934853 0.522834
O O12 0.500000 0.000000 0.000000
O O13 0.583763 0.930721 0.024124
O O14 0.878576 0.092413 0.291377
O O15 0.142095 0.644872 0.428975
O O16 0.142091 0.655318 0.947716
O O17 0.000000 0.500000 0.000000
O O18 0.500000 0.000000 0.500000
#
# Coordination Sequence:
#
# PCOD9012390 Si02
#       8
#     2   2   2   2   2   2   2   2
#     4  10  23  41  59  84 121 167 214 247 313 366
#     4  10  21  35  62  85 116 150 197 270 316 369
#     4  10  20  33  56  90 119 154 198 253 324 365
#     4  10  20  34  59  92 125 153 189 257 322 376
#     4  10  19  36  58  91 126 162 189 254 324 377
#     4  12  28  44  65  85 124 183 223 255 289 365
#     4  10  17  29  55  87 122 148 184 230 311 389
#     4  12  24  42  64  94 129 163 213 263 313 372
#
# _framework density 21.244123999999999
#
# number of rings (size 3 to 8) (size 9 to 14) (size 15 to 20)
#    0.000    1.500    0.000    6.750    3.500    0.000 
#    0.000    0.000    0.000    4.500    0.000    0.000 
#    0.000    0.000    0.000    0.000    0.000    0.000 
#
# Total GULP energy -89147.765242 kJ/mol
# GULP energy per Si atom -5571.735328 kJ/mol
# Density = 2.119577 g / cm^3
# Si number density = 21.244124 Si / 1000 Ang^3
#
#
#
# Elastic Constant Matrix: (Units=GPa)
#
#
# Indices 1 2 3 4 5 6 
#
# 1 54.4620 16.2655 16.7693 -15.6365 -1.8445 -3.3728
# 2 16.2655 66.3875 8.1225 -1.9354 4.5717 3.4548
# 3 16.7693 8.1225 95.8785 -0.4963 24.6049 7.1838
# 4 -15.6365 -1.9354 -0.4963 29.0763 -4.9804 10.5304
# 5 -1.8445 4.5717 24.6049 -4.9804 36.7691 -7.5967
# 6 -3.3728 3.4548 7.1838 10.5304 -7.5967 27.6868
#
#
#
# Elastic Compliance Matrix: (Units=1/GPa)
#
#
# Indices 1 2 3 4 5 6 
#
# 1 0.026872 -0.006117 -0.006643 0.014494 0.009083 0.002740
# 2 -0.006117 0.016865 0.000922 -0.001529 -0.003971 -0.003597
# 3 -0.006643 0.000922 0.015262 -0.002764 -0.012538 -0.007273
# 4 0.014494 -0.001529 -0.002764 0.048166 0.006422 -0.013884
# 5 0.009083 -0.003971 -0.012538 0.006422 0.040182 0.013438
# 6 0.002740 -0.003597 -0.007273 -0.013884 0.013438 0.047756
#
#
# Mechanical properties :
#
#
# Convention : Reuss Voigt Hill
#
# Bulk Modulus (GPa) = 28.31034 33.22697 30.76866
# Shear Modulus (GPa) = 21.68689 30.41114 26.04901
#
# Velocity S-wave (km/s) = 3.19853 3.78763 3.50548
# Velocity P-wave (km/s) = 5.19576 5.89938 5.55871
#
# Compressibility (1/GPa) = 0.03532278
#
# Stress axis : x y z
#
# Youngs Moduli (GPa) = 37.21283 59.29430 65.52313
#
# Poissons Ratio (x) = 0.36269 0.43528
# Poissons Ratio (y) = 0.22762 -0.06039
# Poissons Ratio (z) = 0.24721 -0.05465
#
# Static dielectric constant tensor:
#      x y z
#    x 1.729440 0.069220 0.045590 
#    y 0.069220 1.872840 -0.030010 
#    z 0.045590 -0.030010 1.788420 
# 
# From -- ./inp_files/84097.got.cif
#   From: 2010.05.17/outbox.cif.g08.bks.cpg/sg2_43_cif.got.tgz:84097.got - 2010.06.03 11:33:40.
