data_PCOD9012381
_publ_section_title
;
Structure prediction by ZEFSAII (Michael W. Deem and Ramdas Pophale) SiO2 
 PCOD9012381
Probable space group: P -1
;
_chemical_formula_sum "Si O2"
_cell_formula_units_Z 16
_cell_length_a 6.933368
_cell_length_b 8.328975
_cell_length_c 22.208767
_cell_angle_alpha 129.721159
_cell_angle_beta 111.384269
_cell_angle_gamma 104.577569
_cell_volume 676.238728
_symmetry_space_group_name_H-M "P -1"
_symmetry_group_IT_number 2
_symmetry_cell_setting 'triclinic'
loop_
_space_group_symop_operation_xyz
x,y,z
-x,-y,-z
loop_
_atom_site_type_symbol
_atom_site_label
_atom_site_fract_x
_atom_site_fract_y
_atom_site_fract_z
Si Si1 0.484350 0.851139 0.770619
Si Si2 0.947662 0.214667 0.594234
Si Si3 0.552743 0.170102 0.621434
Si Si4 0.606308 0.831151 0.904440
Si Si5 0.701230 0.815049 0.128009
Si Si6 0.770834 0.789119 0.259978
Si Si7 0.321729 0.801084 0.614179
Si Si8 0.071569 0.777306 0.856193
O O1 0.678664 0.901990 0.859375
O O2 0.513756 0.842720 0.700254
O O3 0.204953 0.518781 0.669683
O O4 0.450120 0.075081 0.837438
O O5 0.733086 0.246643 0.600850
O O6 0.028364 0.158385 0.651921
O O7 0.751114 0.951475 0.462821
O O8 0.764872 0.468179 0.750259
O O9 0.475822 0.923407 0.596883
O O10 0.509758 0.538622 0.843826
O O11 0.317805 0.772219 0.868375
O O12 0.838666 0.073419 0.033648
O O13 0.851109 0.828136 0.208166
O O14 0.894754 0.036761 0.150016
O O15 0.500000 0.500000 0.000000
O O16 0.720730 0.990672 0.320345
O O17 0.000000 0.500000 0.500000
#
# Coordination Sequence:
#
# PCOD9012381 Si02
#       8
#     2   2   2   2   2   2   2   2
#     4   9  18  36  57  82 112 154 191 228 287 350
#     4  10  20  37  63  83 111 148 201 243 278 333
#     4  11  21  37  60  85 116 151 191 240 294 329
#     4   9  17  34  60  85 106 148 199 233 276 343
#     4  10  17  29  55  87 112 139 192 239 278 327
#     4  10  20  35  60  86 113 152 197 232 276 357
#     4  11  23  39  57  83 122 159 184 230 302 346
#     4  10  18  33  59  84 112 150 188 240 288 330
#
# _framework density 23.660283
#
# number of rings (size 3 to 8) (size 9 to 14) (size 15 to 20)
#    0.000    2.000    6.250    0.000    0.000    0.500 
#    0.000    3.750    0.000    0.000    0.000    0.000 
#    0.000    0.000    0.000    0.000    0.000    0.000 
#
# Total GULP energy -89254.675599 kJ/mol
# GULP energy per Si atom -5578.417225 kJ/mol
# Density = 2.360643 g / cm^3
# Si number density = 23.660283 Si / 1000 Ang^3
#
#
#
# Elastic Constant Matrix: (Units=GPa)
#
#
# Indices 1 2 3 4 5 6 
#
# 1 45.4335 13.3885 12.7910 2.9491 1.0754 9.6881
# 2 13.3885 149.9335 60.2803 -18.6431 9.5332 13.1406
# 3 12.7910 60.2803 171.9771 -7.7937 13.4377 -4.8738
# 4 2.9491 -18.6431 -7.7937 52.2706 -5.9328 -6.3717
# 5 1.0754 9.5332 13.4377 -5.9328 24.3391 -1.3805
# 6 9.6881 13.1406 -4.8738 -6.3717 -1.3805 27.5374
#
#
#
# Elastic Compliance Matrix: (Units=1/GPa)
#
#
# Indices 1 2 3 4 5 6 
#
# 1 0.025095 -0.001013 -0.001850 -0.003328 -0.001041 -0.009495
# 2 -0.001013 0.008586 -0.002835 0.002062 -0.001468 -0.003839
# 3 -0.001850 -0.002835 0.007250 0.000276 -0.002560 0.003222
# 4 -0.003328 0.002062 0.000276 0.021285 0.004681 0.005396
# 5 -0.001041 -0.001468 -0.002560 0.004681 0.044485 0.003927
# 6 -0.009495 -0.003839 0.003222 0.005396 0.003927 0.043503
#
#
# Mechanical properties :
#
#
# Convention : Reuss Voigt Hill
#
# Bulk Modulus (GPa) = 33.85730 60.02933 46.94331
# Shear Modulus (GPa) = 29.16420 39.55502 34.35961
#
# Velocity S-wave (km/s) = 3.51468 4.09319 3.81492
# Velocity P-wave (km/s) = 5.55081 6.91125 6.26805
#
# Compressibility (1/GPa) = 0.02953573
#
# Stress axis : x y z
#
# Youngs Moduli (GPa) = 39.84875 116.46848 137.93289
#
# Poissons Ratio (x) = 0.11793 0.25520
# Poissons Ratio (y) = 0.04035 0.39102
# Poissons Ratio (z) = 0.07373 0.33017
#
# Static dielectric constant tensor:
#      x y z
#    x 2.006030 -0.021590 -0.039630 
#    y -0.021590 1.930130 -0.075220 
#    z -0.039630 -0.075220 1.956260 
# 
# From -- ./inp_files/508898.got.cif
#   From: 2010.05.17/outbox.cif.g08.bks.cpg/sg2_255_cif.got.tgz:508898.got - 2010.06.03 11:33:40.
