data_PCOD9012849
_publ_section_title
;
Structure prediction by ZEFSAII (Michael W. Deem and Ramdas Pophale) SiO2 
 PCOD9012849
Probable space group: P -1
;
_chemical_formula_sum "Si O2"
_cell_formula_units_Z 15
_cell_length_a 7.495114
_cell_length_b 10.623082
_cell_length_c 14.007235
_cell_angle_alpha 82.253900
_cell_angle_beta 98.804274
_cell_angle_gamma 41.922339
_cell_volume 682.137599
_symmetry_space_group_name_H-M "P -1"
_symmetry_group_IT_number 2
_symmetry_cell_setting 'triclinic'
loop_
_space_group_symop_operation_xyz
x,y,z
-x,-y,-z
loop_
_atom_site_type_symbol
_atom_site_label
_atom_site_fract_x
_atom_site_fract_y
_atom_site_fract_z
Si Si1 0.143933 0.114913 0.389835
Si Si2 0.645026 0.641320 0.750146
Si Si3 0.611575 0.431558 0.910023
Si Si4 0.195311 0.907135 0.243406
Si Si5 0.296646 0.582087 0.385754
Si Si6 0.222804 0.454998 0.751205
Si Si7 0.281648 0.063835 0.610222
Si Si8 0.000000 0.000000 0.000000
O O1 0.160112 0.060676 0.505328
O O2 0.940749 0.351239 0.347213
O O3 0.067063 0.060261 0.304295
O O4 0.464257 0.985264 0.400236
O O5 0.617888 0.561399 0.844066
O O6 0.581545 0.592274 0.655685
O O7 0.971713 0.513495 0.775735
O O8 0.431868 0.878126 0.709707
O O9 0.404591 0.441424 0.841211
O O10 0.921231 0.193164 0.958599
O O11 0.500000 0.500000 0.000000
O O12 0.238971 0.740399 0.303140
O O13 0.527916 0.762160 0.258454
O O14 0.022711 0.009266 0.119989
O O15 0.500000 0.500000 0.500000
O O16 0.983070 0.718018 0.386559
#
# Coordination Sequence:
#
# PCOD9012849 Si02
#       8
#     2   2   2   2   2   2   2   1
#     4  10  21  41  61  93 130 168 212 265 319 384
#     4  11  24  43  64  95 130 166 216 266 317 389
#     4  11  24  42  67  92 127 168 213 269 320 378
#     4  11  22  39  66  88 129 169 210 267 319 375
#     4  12  24  39  64  97 128 169 215 262 321 385
#     4  10  22  42  65  92 130 167 211 262 321 378
#     4  10  24  38  63  95 129 168 214 264 324 382
#     4  10  22  42  60  94 122 170 212 254 324 374
#
# _framework density 21.989698000000001
#
# number of rings (size 3 to 8) (size 9 to 14) (size 15 to 20)
#    0.000    1.333    2.667    3.200    3.733    1.600 
#    0.000    8.000    0.000    0.000    0.000    0.000 
#    0.000    0.000    0.000    0.000    0.000    0.000 
#
# Total GULP energy -83566.775317 kJ/mol
# GULP energy per Si atom -5571.118354 kJ/mol
# Density = 2.193965 g / cm^3
# Si number density = 21.989698 Si / 1000 Ang^3
#
#
#
# Elastic Constant Matrix: (Units=GPa)
#
#
# Indices 1 2 3 4 5 6 
#
# 1 54.8500 -21.4317 3.3774 2.4663 -8.7039 -1.3610
# 2 -21.4317 62.3308 -2.3957 1.8244 -7.2864 -11.0691
# 3 3.3774 -2.3957 106.6272 7.0597 -12.2545 8.2541
# 4 2.4663 1.8244 7.0597 24.1681 4.9892 0.9255
# 5 -8.7039 -7.2864 -12.2545 4.9892 19.3219 1.4899
# 6 -1.3610 -11.0691 8.2541 0.9255 1.4899 23.0645
#
#
#
# Elastic Compliance Matrix: (Units=1/GPa)
#
#
# Indices 1 2 3 4 5 6 
#
# 1 0.026906 0.013010 0.001817 -0.008610 0.019921 0.006240
# 2 0.013010 0.024857 0.001806 -0.007779 0.017522 0.011231
# 3 0.001817 0.001806 0.011184 -0.005582 0.010301 -0.003470
# 4 -0.008610 -0.007779 -0.005582 0.049300 -0.022871 -0.002744
# 5 0.019921 0.017522 0.010301 -0.022871 0.079646 0.001671
# 6 0.006240 0.011231 -0.003470 -0.002744 0.001671 0.050359
#
#
# Mechanical properties :
#
#
# Convention : Reuss Voigt Hill
#
# Bulk Modulus (GPa) = 10.39379 20.32309 15.35844
# Shear Modulus (GPa) = 20.74204 29.59479 25.16841
#
# Velocity S-wave (km/s) = 3.07459 3.67256 3.38680
# Velocity P-wave (km/s) = 4.16426 5.21975 4.72159
#
# Compressibility (1/GPa) = 0.09621129
#
# Stress axis : x y z
#
# Youngs Moduli (GPa) = 37.16613 40.23070 89.41651
#
# Poissons Ratio (x) = -0.52340 -0.16243
# Poissons Ratio (y) = -0.48353 -0.16147
# Poissons Ratio (z) = -0.06751 -0.07265
#
# Static dielectric constant tensor:
#      x y z
#    x 1.843960 -0.046780 0.039910 
#    y -0.046780 1.836140 0.025430 
#    z 0.039910 0.025430 1.805770 
# 
# From -- ./inp_files/389759.got.cif
#   From: 2010.05.17/outbox.cif.g08.bks.cpg/sg2_195_cif.got.tgz:389759.got - 2010.06.03 11:33:40.
