data_PCOD9012120
_publ_section_title
;
Structure prediction by ZEFSAII (Michael W. Deem and Ramdas Pophale) SiO2 
 PCOD9012120
Probable space group: P -1
;
_chemical_formula_sum "Si O2"
_cell_formula_units_Z 14
_cell_length_a 9.082485
_cell_length_b 17.794459
_cell_length_c 5.228141
_cell_angle_alpha 117.284042
_cell_angle_beta 79.431639
_cell_angle_gamma 131.690220
_cell_volume 551.303266
_symmetry_space_group_name_H-M "P -1"
_symmetry_group_IT_number 2
_symmetry_cell_setting 'triclinic'
loop_
_space_group_symop_operation_xyz
x,y,z
-x,-y,-z
loop_
_atom_site_type_symbol
_atom_site_label
_atom_site_fract_x
_atom_site_fract_y
_atom_site_fract_z
Si Si1 0.313457 0.707461 0.088435
Si Si2 0.324399 0.454882 0.287411
Si Si3 0.862999 0.935490 0.694318
Si Si4 0.584246 0.678496 0.226959
Si Si5 0.702692 0.114729 0.440008
Si Si6 0.272536 0.934358 0.143819
Si Si7 0.073784 0.612781 0.520700
O O1 0.476525 0.695934 0.069858
O O2 0.367540 0.819714 0.353276
O O3 0.137415 0.624336 0.224829
O O4 0.253028 0.699812 0.801382
O O5 0.500000 0.500000 0.500000
O O6 0.407821 0.566887 0.274236
O O7 0.119679 0.400783 0.408787
O O8 0.302506 0.361493 0.980604
O O9 0.729341 0.800240 0.512822
O O10 0.727925 0.968879 0.783358
O O11 0.000000 0.000000 0.500000
O O12 0.000000 0.000000 0.000000
O O13 0.827059 0.118779 0.632398
O O14 0.498081 0.990172 0.232749
O O15 0.816769 0.152753 0.194767
O O16 0.000000 0.500000 0.500000
#
# Coordination Sequence:
#
# PCOD9012120 Si02
#       7
#     2   2   2   2   2   2   2
#     4  12  25  45  75 108 142 191 247 306 372 437
#     4  11  27  50  76 107 154 199 249 308 379 457
#     4  12  28  47  73 107 150 197 248 300 361 455
#     4  11  27  49  76 107 150 205 246 307 384 444
#     4  10  21  40  68  96 132 179 228 292 354 420
#     4  10  21  42  64  97 136 176 235 287 349 416
#     4  12  26  44  73 109 143 181 247 312 363 437
#
# _framework density 25.394369999999999
#
# number of rings (size 3 to 8) (size 9 to 14) (size 15 to 20)
#    0.000    0.857    2.857    3.000    6.000    3.429 
#    0.000    0.000    0.000    0.000    0.000    0.000 
#    0.000    0.000    0.000    0.000    0.000    0.000 
#
# Total GULP energy -78236.195581 kJ/mol
# GULP energy per Si atom -5588.299684 kJ/mol
# Density = 2.533657 g / cm^3
# Si number density = 25.394370 Si / 1000 Ang^3
#
#
#
# Elastic Constant Matrix: (Units=GPa)
#
#
# Indices 1 2 3 4 5 6 
#
# 1 104.6735 34.1028 40.5989 23.3360 -2.0565 -17.9120
# 2 34.1028 111.1499 40.6893 21.4078 -2.1902 -21.4063
# 3 40.5989 40.6893 142.9308 9.1150 15.5837 -16.5329
# 4 23.3360 21.4078 9.1150 38.6199 -8.1026 -0.9424
# 5 -2.0565 -2.1902 15.5837 -8.1026 46.5717 -5.4513
# 6 -17.9120 -21.4063 -16.5329 -0.9424 -5.4513 43.9756
#
#
#
# Elastic Compliance Matrix: (Units=1/GPa)
#
#
# Indices 1 2 3 4 5 6 
#
# 1 0.013001 -0.001057 -0.002630 -0.006405 0.000728 0.003745
# 2 -0.001057 0.012093 -0.002387 -0.005190 0.000952 0.004565
# 3 -0.002630 -0.002387 0.008826 0.000204 -0.003063 0.000710
# 4 -0.006405 -0.005190 0.000204 0.033507 0.004796 -0.003746
# 5 0.000728 0.000952 -0.003063 0.004796 0.023719 0.002652
# 6 0.003745 0.004565 0.000710 -0.003746 0.002652 0.027003
#
#
# Mechanical properties :
#
#
# Convention : Reuss Voigt Hill
#
# Bulk Modulus (GPa) = 45.93026 65.50402 55.71714
# Shear Modulus (GPa) = 36.34947 42.05765 39.20356
#
# Velocity S-wave (km/s) = 3.78749 4.07403 3.93337
# Velocity P-wave (km/s) = 6.10351 6.92683 6.52816
#
# Compressibility (1/GPa) = 0.02177214
#
# Stress axis : x y z
#
# Youngs Moduli (GPa) = 76.91696 82.69539 113.30196
#
# Poissons Ratio (x) = 0.08741 0.29795
# Poissons Ratio (y) = 0.08130 0.27046
# Poissons Ratio (z) = 0.20227 0.19740
#
# Static dielectric constant tensor:
#      x y z
#    x 2.000790 0.044300 0.023080 
#    y 0.044300 2.228750 -0.106080 
#    z 0.023080 -0.106080 2.236480 
# 
# From -- ./inp_files/48958.got.cif
#   From: 2010.05.17/outbox.cif.g08.bks.cpg/sg2_25_cif.got.tgz:48958.got - 2010.06.03 11:33:40.
