data_PCOD9012366
_publ_section_title
;
Structure prediction by ZEFSAII (Michael W. Deem and Ramdas Pophale) SiO2 
 PCOD9012366
Probable space group: P -1
;
_chemical_formula_sum "Si O2"
_cell_formula_units_Z 14
_cell_length_a 21.808101
_cell_length_b 4.982533
_cell_length_c 20.791122
_cell_angle_alpha 74.173454
_cell_angle_beta 158.941116
_cell_angle_gamma 115.060023
_cell_volume 681.248099
_symmetry_space_group_name_H-M "P -1"
_symmetry_group_IT_number 2
_symmetry_cell_setting 'triclinic'
loop_
_space_group_symop_operation_xyz
x,y,z
-x,-y,-z
loop_
_atom_site_type_symbol
_atom_site_label
_atom_site_fract_x
_atom_site_fract_y
_atom_site_fract_z
Si Si1 0.251875 0.740457 0.328249
Si Si2 0.360458 0.557781 0.941718
Si Si3 0.786859 0.959833 0.272661
Si Si4 0.261156 0.483318 0.997998
Si Si5 0.595046 0.698135 0.735672
Si Si6 0.785406 0.705167 0.794382
Si Si7 0.107919 0.800857 0.919693
O O1 0.414758 0.710361 0.529146
O O2 0.218824 0.560967 0.239218
O O3 0.307412 0.104700 0.346900
O O4 0.062141 0.530218 0.199056
O O5 0.265123 0.217290 0.835520
O O6 0.243858 0.731346 0.785896
O O7 0.594237 0.735408 0.142821
O O8 0.329069 0.543061 0.987940
O O9 0.000000 0.000000 0.500000
O O10 0.428113 0.504857 0.209573
O O11 0.197530 0.723282 0.950478
O O12 0.087124 0.112003 0.860366
O O13 0.685856 0.597436 0.772804
O O14 0.749982 0.046496 0.890352
O O15 0.000000 0.000000 0.000000
#
# Coordination Sequence:
#
# PCOD9012366 Si02
#       7
#     2   2   2   2   2   2   2
#     4  12  24  39  61  84 112 153 205 253 303 348
#     4  10  21  41  64  95 131 162 200 253 298 354
#     4  10  21  40  69  97 126 160 208 246 294 356
#     4  10  22  42  60  84 128 160 189 243 303 350
#     4  10  25  38  60  84 119 148 204 247 299 364
#     4  12  23  39  62  82 111 153 199 257 310 350
#     4  10  22  40  58  81 122 154 195 243 299 355
#
# _framework density 20.550514
#
# number of rings (size 3 to 8) (size 9 to 14) (size 15 to 20)
#    0.857    0.571    1.429    4.286    4.000    0.000 
#    5.143    0.000    0.000    0.000    0.000    0.000 
#    0.000    0.000    0.000    0.000    0.000    0.000 
#
# Total GULP energy -78035.037267 kJ/mol
# GULP energy per Si atom -5573.931233 kJ/mol
# Density = 2.050374 g / cm^3
# Si number density = 20.550514 Si / 1000 Ang^3
#
#
#
# Elastic Constant Matrix: (Units=GPa)
#
#
# Indices 1 2 3 4 5 6 
#
# 1 164.6221 16.4676 39.1777 12.4665 -9.1237 -17.1832
# 2 16.4676 68.7385 4.8569 1.1613 -1.4763 -29.5166
# 3 39.1777 4.8569 94.7210 -9.0789 -0.9603 -0.1875
# 4 12.4665 1.1613 -9.0789 26.2292 -6.6030 -9.0708
# 5 -9.1237 -1.4763 -0.9603 -6.6030 20.3642 0.8831
# 6 -17.1832 -29.5166 -0.1875 -9.0708 0.8831 47.9017
#
#
#
# Elastic Compliance Matrix: (Units=1/GPa)
#
#
# Indices 1 2 3 4 5 6 
#
# 1 0.007502 -0.000848 -0.003397 -0.003747 0.001863 0.001412
# 2 -0.000848 0.020325 -0.000222 0.004420 0.001952 0.013020
# 3 -0.003397 -0.000222 0.012578 0.006195 0.001070 -0.000153
# 4 -0.003747 0.004420 0.006195 0.049087 0.014398 0.010434
# 5 0.001863 0.001952 0.001070 0.014398 0.054645 0.003594
# 6 0.001412 0.013020 -0.000153 0.010434 0.003594 0.031314
#
#
# Mechanical properties :
#
#
# Convention : Reuss Voigt Hill
#
# Bulk Modulus (GPa) = 31.77542 49.89847 40.83694
# Shear Modulus (GPa) = 25.65736 36.73766 31.19751
#
# Velocity S-wave (km/s) = 3.53725 4.23268 3.90049
# Velocity P-wave (km/s) = 5.67261 6.94414 6.34033
#
# Compressibility (1/GPa) = 0.03147086
#
# Stress axis : x y z
#
# Youngs Moduli (GPa) = 133.29623 49.20113 79.50380
#
# Poissons Ratio (x) = 0.04171 0.27007
# Poissons Ratio (y) = 0.11300 0.01767
# Poissons Ratio (z) = 0.45280 0.01094
#
# Static dielectric constant tensor:
#      x y z
#    x 1.701330 0.013550 0.056850 
#    y 0.013550 1.776970 -0.022840 
#    z 0.056850 -0.022840 1.876990 
# 
# From -- ./inp_files/600775.got.cif
#   From: 2010.05.17/outbox.cif.g08.bks.cpg/sg2_301_cif.got.tgz:600775.got - 2010.06.03 11:33:40.
