data_PCOD9012932
_publ_section_title
;
Structure prediction by ZEFSAII (Michael W. Deem and Ramdas Pophale) SiO2 
 PCOD9012932
Probable space group: P -1
;
_chemical_formula_sum "Si O2"
_cell_formula_units_Z 16
_cell_length_a 12.133200
_cell_length_b 9.637993
_cell_length_c 11.010485
_cell_angle_alpha 40.323956
_cell_angle_beta 129.587533
_cell_angle_gamma 120.969717
_cell_volume 641.034410
_symmetry_space_group_name_H-M "P -1"
_symmetry_group_IT_number 2
_symmetry_cell_setting 'triclinic'
loop_
_space_group_symop_operation_xyz
x,y,z
-x,-y,-z
loop_
_atom_site_type_symbol
_atom_site_label
_atom_site_fract_x
_atom_site_fract_y
_atom_site_fract_z
Si Si1 0.673168 0.853440 0.177259
Si Si2 0.226493 0.399720 0.372514
Si Si3 0.695975 0.151517 0.781759
Si Si4 0.853278 0.904524 0.842855
Si Si5 0.429267 0.164016 0.429282
Si Si6 0.922500 0.408184 0.201662
Si Si7 0.044569 0.281076 0.621506
Si Si8 0.377360 0.604961 0.109433
O O1 0.720962 0.803529 0.381242
O O2 0.508295 0.776586 0.098265
O O3 0.784778 0.715506 0.272525
O O4 0.702692 0.074410 0.977790
O O5 0.238238 0.605110 0.335412
O O6 0.329762 0.477986 0.284123
O O7 0.060351 0.380545 0.230456
O O8 0.530231 0.155127 0.623392
O O9 0.771855 0.000679 0.838166
O O10 0.739578 0.900563 0.653556
O O11 0.981954 0.073806 0.787751
O O12 0.902873 0.661209 0.050308
O O13 0.439933 0.402177 0.218701
O O14 0.500000 0.000000 0.500000
O O15 0.971650 0.279565 0.439054
O O16 0.768683 0.325900 0.098218
O O17 0.000000 0.500000 0.500000
#
# Coordination Sequence:
#
# PCOD9012932 Si02
#       8
#     2   2   2   2   2   2   2   2
#     4  11  24  38  62  96 123 161 216 255 307 374
#     4  11  23  43  65  89 128 165 213 264 306 367
#     4  11  22  39  64  94 124 169 207 257 315 367
#     4  10  21  41  62  90 129 162 206 257 313 374
#     4   9  21  39  63  90 124 163 200 258 318 364
#     4  10  23  41  65  93 124 168 209 253 317 370
#     4  11  23  38  63  95 126 164 204 258 310 372
#     4  11  23  44  64  91 128 168 209 261 311 372
#
# _framework density 24.95966
#
# number of rings (size 3 to 8) (size 9 to 14) (size 15 to 20)
#    0.000    1.500    1.250    3.750    3.500    2.000 
#    0.000    2.500    0.000    6.000    0.000    0.000 
#    0.000    0.000    0.000    0.000    0.000    0.000 
#
# Total GULP energy -89436.992748 kJ/mol
# GULP energy per Si atom -5589.812047 kJ/mol
# Density = 2.490285 g / cm^3
# Si number density = 24.959660 Si / 1000 Ang^3
#
#
#
# Elastic Constant Matrix: (Units=GPa)
#
#
# Indices 1 2 3 4 5 6 
#
# 1 118.9679 27.3040 40.9408 -2.3337 16.3307 25.1816
# 2 27.3040 81.5776 39.9039 -0.0437 14.2777 18.4379
# 3 40.9408 39.9039 146.7901 16.6555 3.8316 26.1428
# 4 -2.3337 -0.0437 16.6555 44.7565 6.7327 6.7668
# 5 16.3307 14.2777 3.8316 6.7327 41.6543 1.5871
# 6 25.1816 18.4379 26.1428 6.7668 1.5871 30.4578
#
#
#
# Elastic Compliance Matrix: (Units=1/GPa)
#
#
# Indices 1 2 3 4 5 6 
#
# 1 0.011548 -0.000283 -0.001933 0.003233 -0.004463 -0.008203
# 2 -0.000283 0.016624 -0.003344 0.003191 -0.005514 -0.007381
# 3 -0.001933 -0.003344 0.009239 -0.003245 0.001719 -0.003676
# 4 0.003233 0.003191 -0.003245 0.025708 -0.005943 -0.007221
# 5 -0.004463 -0.005514 0.001719 -0.005943 0.028244 0.005401
# 6 -0.008203 -0.007381 -0.003676 -0.007221 0.005401 0.048560
#
#
# Mechanical properties :
#
#
# Convention : Reuss Voigt Hill
#
# Bulk Modulus (GPa) = 38.03650 62.62591 50.33121
# Shear Modulus (GPa) = 31.28800 39.31950 35.30375
#
# Velocity S-wave (km/s) = 3.54438 3.97334 3.76497
# Velocity P-wave (km/s) = 5.65884 6.79671 6.25371
#
# Compressibility (1/GPa) = 0.02629054
#
# Stress axis : x y z
#
# Youngs Moduli (GPa) = 86.59411 60.15561 108.24104
#
# Poissons Ratio (x) = 0.01700 0.20928
# Poissons Ratio (y) = 0.02447 0.36193
# Poissons Ratio (z) = 0.16743 0.20115
#
# Static dielectric constant tensor:
#      x y z
#    x 2.049520 -0.091710 0.022450 
#    y -0.091710 2.026430 0.008830 
#    z 0.022450 0.008830 1.969630 
# 
# From -- ./inp_files/427459.got.cif
#   From: 2010.05.17/outbox.cif.g08.bks.cpg/sg2_214_cif.got.tgz:427459.got - 2010.06.03 11:33:40.
