data_PCOD9012363
_publ_section_title
;
Structure prediction by ZEFSAII (Michael W. Deem and Ramdas Pophale) SiO2 
 PCOD9012363
Probable space group: P -1
;
_chemical_formula_sum "Si O2"
_cell_formula_units_Z 16
_cell_length_a 17.919115
_cell_length_b 21.245539
_cell_length_c 8.519655
_cell_angle_alpha 44.473969
_cell_angle_beta 146.044033
_cell_angle_gamma 156.013728
_cell_volume 722.333515
_symmetry_space_group_name_H-M "P -1"
_symmetry_group_IT_number 2
_symmetry_cell_setting 'triclinic'
loop_
_space_group_symop_operation_xyz
x,y,z
-x,-y,-z
loop_
_atom_site_type_symbol
_atom_site_label
_atom_site_fract_x
_atom_site_fract_y
_atom_site_fract_z
Si Si1 0.941151 0.105676 0.287429
Si Si2 0.573474 0.621520 0.798362
Si Si3 0.923340 0.651430 0.726943
Si Si4 0.719843 0.087240 0.327586
Si Si5 0.970848 0.225283 0.814844
Si Si6 0.342488 0.190824 0.844176
Si Si7 0.116126 0.474675 0.809733
Si Si8 0.261500 0.112688 0.213000
O O1 0.965522 0.189576 0.318599
O O2 0.194591 0.199883 0.555425
O O3 0.756194 0.924044 0.267564
O O4 0.891535 0.135958 0.994727
O O5 0.586556 0.723913 0.730480
O O6 0.356977 0.504005 0.507085
O O7 0.500000 0.500000 0.000000
O O8 0.829584 0.731279 0.986822
O O9 0.062009 0.724768 0.675854
O O10 0.982364 0.616754 0.032897
O O11 0.745423 0.115412 0.508777
O O12 0.711944 0.972763 0.517820
O O13 0.500000 0.000000 0.000000
O O14 0.089330 0.382708 0.796079
O O15 0.612137 0.355448 0.998239
O O16 0.296857 0.132432 0.049280
O O17 0.000000 0.500000 0.500000
O O18 0.000000 0.000000 0.000000
#
# Coordination Sequence:
#
# PCOD9012363 Si02
#       8
#     2   2   2   2   2   2   2   2
#     4  10  21  40  69  96 136 166 227 288 339 399
#     4  12  21  39  71 105 139 172 228 293 347 400
#     4  11  25  43  65  99 133 183 226 283 345 406
#     4  12  27  45  66 101 142 186 232 285 348 416
#     4  11  22  44  66  98 135 181 223 289 344 408
#     4  11  22  39  68 105 132 173 230 284 342 407
#     4  11  27  44  67  94 139 186 230 275 348 427
#     4  12  23  42  72 106 141 180 236 289 345 407
#
# _framework density 22.150434000000001
#
# number of rings (size 3 to 8) (size 9 to 14) (size 15 to 20)
#    0.000    0.750    3.750    3.750    1.750    7.000 
#    0.000    3.750    0.000    0.000    0.000    0.000 
#    0.000    0.000    0.000    0.000    0.000    0.000 
#
# Total GULP energy -89235.229568 kJ/mol
# GULP energy per Si atom -5577.201848 kJ/mol
# Density = 2.210002 g / cm^3
# Si number density = 22.150434 Si / 1000 Ang^3
#
#
#
# Elastic Constant Matrix: (Units=GPa)
#
#
# Indices 1 2 3 4 5 6 
#
# 1 15.7666 -31.6401 -7.9671 -4.4933 0.4816 11.8045
# 2 -31.6401 -284.6295 -108.7347 -2.8564 81.3414 178.0851
# 3 -7.9671 -108.7347 99.4347 -10.3845 22.9340 62.8976
# 4 -4.4933 -2.8564 -10.3845 25.6682 -2.5169 -7.9855
# 5 0.4816 81.3414 22.9340 -2.5169 11.3107 -45.8379
# 6 11.8045 178.0851 62.8976 -7.9855 -45.8379 -71.3440
#
#
#
# Elastic Compliance Matrix: (Units=1/GPa)
#
#
# Indices 1 2 3 4 5 6 
#
# 1 0.070860 0.007192 0.000904 0.020578 0.017252 0.017087
# 2 0.007192 0.009536 -0.001275 0.008140 0.007923 0.017867
# 3 0.000904 -0.001275 0.007506 0.003821 0.002096 0.001809
# 4 0.020578 0.008140 0.003821 0.050799 0.008572 0.015898
# 5 0.017252 0.007923 0.002096 0.008572 0.034317 0.001470
# 6 0.017087 0.017867 0.001809 0.015898 0.001470 0.032281
#
#
# Mechanical properties :
#
#
# Convention : Reuss Voigt Hill
#
# Bulk Modulus (GPa) = 9.84791 -51.79024 -20.97116
# Shear Modulus (GPa) = 22.17245 -8.27877 6.94684
#
# Velocity S-wave (km/s) = 3.16728 -1.93536 1.77286
# Velocity P-wave (km/s) = 4.22269 5.33161 2.30162
#
# Compressibility (1/GPa) = 0.10154434
#
# Stress axis : x y z
#
# Youngs Moduli (GPa) = 14.11231 104.86828 133.22769
#
# Poissons Ratio (x) = -0.75425 -0.12046
# Poissons Ratio (y) = -0.10150 0.16990
# Poissons Ratio (z) = -0.01276 0.13373
#
# Static dielectric constant tensor:
#      x y z
#    x 1.845550 -0.115770 -0.152760 
#    y -0.115770 1.774190 -0.058420 
#    z -0.152760 -0.058420 1.841170 
# 
# From -- ./inp_files/186724.got.cif
#   From: 2010.05.17/outbox.cif.g08.bks.cpg/sg2_94_cif.got.tgz:186724.got - 2010.06.03 11:33:40.
