data_PCOD9012071
_publ_section_title
;
Structure prediction by ZEFSAII (Michael W. Deem and Ramdas Pophale) SiO2 
 PCOD9012071
Probable space group: P -1
;
_chemical_formula_sum "Si O2"
_cell_formula_units_Z 13
_cell_length_a 7.388434
_cell_length_b 14.587508
_cell_length_c 7.922707
_cell_angle_alpha 128.631821
_cell_angle_beta 54.927022
_cell_angle_gamma 90.939074
_cell_volume 461.055195
_symmetry_space_group_name_H-M "P -1"
_symmetry_group_IT_number 2
_symmetry_cell_setting 'triclinic'
loop_
_space_group_symop_operation_xyz
x,y,z
-x,-y,-z
loop_
_atom_site_type_symbol
_atom_site_label
_atom_site_fract_x
_atom_site_fract_y
_atom_site_fract_z
Si Si1 0.556075 0.455053 0.112699
Si Si2 0.995581 0.199553 0.152823
Si Si3 0.743148 0.101456 0.416941
Si Si4 0.635813 0.715086 0.882766
Si Si5 0.290521 0.978340 0.178002
Si Si6 0.000000 0.500000 0.000000
Si Si7 0.010741 0.246512 0.821776
O O1 0.334139 0.433421 0.287161
O O2 0.700346 0.524411 0.200016
O O3 0.796296 0.296595 0.843066
O O4 0.500000 0.500000 0.000000
O O5 0.101889 0.284492 0.290629
O O6 0.916364 0.265497 0.085854
O O7 0.231939 0.037322 0.828497
O O8 0.773273 0.192613 0.362956
O O9 0.489433 0.198689 0.777137
O O10 0.026317 0.028485 0.275797
O O11 0.434801 0.818753 0.969646
O O12 0.199864 0.083400 0.504707
O O13 0.500000 0.000000 0.000000
O O14 0.119138 0.344539 0.836895
#
# Coordination Sequence:
#
# PCOD9012071 Si02
#       7
#     2   2   2   2   2   1   2
#     4  10  21  40  68  94 127 177 231 272 332 401
#     4  11  23  36  62 100 132 172 222 265 344 405
#     4  11  22  39  58  97 138 173 211 278 332 411
#     4  12  22  39  68  95 134 177 217 279 345 394
#     4  12  23  41  65 101 137 172 222 273 347 405
#     4   8  20  40  64  98 120 184 224 266 340 388
#     4  10  21  41  67  94 135 174 219 283 326 401
#
# _framework density 28.196190000000001
#
# number of rings (size 3 to 8) (size 9 to 14) (size 15 to 20)
#    0.923    0.308    4.615    2.769    0.000    0.000 
#    0.000    0.000    3.385    5.538    0.000    0.000 
#    0.000    0.000    0.000    0.000    0.000    0.000 
#
# Total GULP energy -72455.724489 kJ/mol
# GULP energy per Si atom -5573.517268 kJ/mol
# Density = 2.813201 g / cm^3
# Si number density = 28.196190 Si / 1000 Ang^3
#
#
#
# Elastic Constant Matrix: (Units=GPa)
#
#
# Indices 1 2 3 4 5 6 
#
# 1 113.5114 80.0928 7.0229 5.8972 -14.4647 -6.4344
# 2 80.0928 233.9219 22.0832 -15.9282 -1.1795 31.6818
# 3 7.0229 22.0832 67.6864 -2.0012 -9.3327 -5.2122
# 4 5.8972 -15.9282 -2.0012 41.2841 -3.9856 -6.7824
# 5 -14.4647 -1.1795 -9.3327 -3.9856 21.2089 -4.3813
# 6 -6.4344 31.6818 -5.2122 -6.7824 -4.3813 68.9532
#
#
#
# Elastic Compliance Matrix: (Units=1/GPa)
#
#
# Indices 1 2 3 4 5 6 
#
# 1 0.014755 -0.006027 0.002285 -0.002447 0.011264 0.004794
# 2 -0.006027 0.007304 -0.002753 0.002333 -0.005353 -0.004237
# 3 0.002285 -0.002753 0.017087 0.000961 0.009826 0.003489
# 4 -0.002447 0.002333 0.000961 0.026183 0.004137 0.001611
# 5 0.011264 -0.005353 0.009826 0.004137 0.061404 0.008562
# 6 0.004794 -0.004237 0.003489 0.001611 0.008562 0.017863
#
#
# Mechanical properties :
#
#
# Convention : Reuss Voigt Hill
#
# Bulk Modulus (GPa) = 38.23090 70.39083 54.31087
# Shear Modulus (GPa) = 30.06542 46.68393 38.37468
#
# Velocity S-wave (km/s) = 3.26896 4.07342 3.69316
# Velocity P-wave (km/s) = 5.27602 6.86604 6.12287
#
# Compressibility (1/GPa) = 0.02615685
#
# Stress axis : x y z
#
# Youngs Moduli (GPa) = 67.77350 136.90983 58.52421
#
# Poissons Ratio (x) = 0.82513 -0.13374
# Poissons Ratio (y) = 0.40846 0.16112
# Poissons Ratio (z) = -0.15488 0.37692
#
# Static dielectric constant tensor:
#      x y z
#    x 2.286220 -0.008410 -0.012670 
#    y -0.008410 2.127140 -0.042140 
#    z -0.012670 -0.042140 2.258980 
# 
# From -- ./inp_files/193847.got.cif
#   From: 2010.05.17/outbox.cif.g08.bks.cpg/sg2_97_cif.got.tgz:193847.got - 2010.06.03 11:33:40.
