data_PCOD9012293
_publ_section_title
;
Structure prediction by ZEFSAII (Michael W. Deem and Ramdas Pophale) SiO2 
 PCOD9012293
Probable space group: P -1
;
_chemical_formula_sum "Si O2"
_cell_formula_units_Z 16
_cell_length_a 22.417899
_cell_length_b 9.393758
_cell_length_c 9.933882
_cell_angle_alpha 57.869692
_cell_angle_beta 120.655034
_cell_angle_gamma 152.549940
_cell_volume 812.785818
_symmetry_space_group_name_H-M "P -1"
_symmetry_group_IT_number 2
_symmetry_cell_setting 'triclinic'
loop_
_space_group_symop_operation_xyz
x,y,z
-x,-y,-z
loop_
_atom_site_type_symbol
_atom_site_label
_atom_site_fract_x
_atom_site_fract_y
_atom_site_fract_z
Si Si1 0.451195 0.924349 0.329326
Si Si2 0.225782 0.193288 0.367421
Si Si3 0.884813 0.876694 0.989982
Si Si4 0.270421 0.754899 0.351480
Si Si5 0.385137 0.820828 0.856651
Si Si6 0.006255 0.696718 0.849961
Si Si7 0.638243 0.873194 0.461504
Si Si8 0.120281 0.124425 0.542466
O O1 0.355337 0.575609 0.346378
O O2 0.365317 0.916544 0.252891
O O3 0.500000 0.000000 0.500000
O O4 0.566489 0.166811 0.232626
O O5 0.166739 0.107407 0.196065
O O6 0.262101 0.072457 0.487257
O O7 0.126908 0.058762 0.434907
O O8 0.754525 0.519519 0.075087
O O9 0.951547 0.101191 0.080081
O O10 0.000000 0.000000 0.000000
O O11 0.235664 0.495762 0.494752
O O12 0.135929 0.553993 0.245264
O O13 0.326071 0.975411 0.427784
O O14 0.373472 0.995253 0.721051
O O15 0.500000 0.000000 0.000000
O O16 0.109131 0.951114 0.722689
O O17 0.000000 0.500000 0.000000
O O18 0.500000 0.500000 0.500000
O O19 0.000000 0.000000 0.500000
#
# Coordination Sequence:
#
# PCOD9012293 Si02
#       8
#     2   2   2   2   2   2   2   2
#     4  11  20  41  68  95 125 177 230 265 336 411
#     4  11  23  41  67  97 137 175 225 285 334 403
#     4  12  25  45  68  99 137 181 230 281 339 402
#     4  10  21  40  69  90 132 178 229 271 329 419
#     4  12  25  43  71 103 136 178 230 288 343 408
#     4  11  24  41  65  95 137 171 219 289 343 387
#     4  12  22  41  67 103 137 176 221 287 345 407
#     4   9  20  41  63  92 122 179 227 261 327 414
#
# _framework density 19.685382000000001
#
# number of rings (size 3 to 8) (size 9 to 14) (size 15 to 20)
#    0.000    1.000    3.750    3.750    1.750    2.000 
#    0.000    3.750    0.000    3.000    0.000    0.000 
#    0.000    0.000    0.000    0.000    0.000    0.000 
#
# Total GULP energy -89249.224493 kJ/mol
# GULP energy per Si atom -5578.076531 kJ/mol
# Density = 1.964058 g / cm^3
# Si number density = 19.685382 Si / 1000 Ang^3
#
#
#
# Elastic Constant Matrix: (Units=GPa)
#
#
# Indices 1 2 3 4 5 6 
#
# 1 111.4981 44.6008 46.3175 -14.6940 -1.2779 12.8074
# 2 44.6008 105.7982 56.9912 6.7115 3.0936 4.8540
# 3 46.3175 56.9912 141.6038 1.3130 5.0226 1.4690
# 4 -14.6940 6.7115 1.3130 40.3472 1.3813 -5.7424
# 5 -1.2779 3.0936 5.0226 1.3813 41.1025 -0.5687
# 6 12.8074 4.8540 1.4690 -5.7424 -0.5687 35.4833
#
#
#
# Elastic Compliance Matrix: (Units=1/GPa)
#
#
# Indices 1 2 3 4 5 6 
#
# 1 0.012707 -0.004201 -0.002508 0.004940 0.000809 -0.003096
# 2 -0.004201 0.013715 -0.004083 -0.003775 -0.000548 -0.000811
# 3 -0.002508 -0.004083 0.009551 -0.000372 -0.000912 0.000993
# 4 0.004940 -0.003775 -0.000372 0.027697 -0.000403 0.003225
# 5 0.000809 -0.000548 -0.000912 -0.000403 0.024523 0.000149
# 6 -0.003096 -0.000811 0.000993 0.003225 0.000149 0.029894
#
#
# Mechanical properties :
#
#
# Convention : Reuss Voigt Hill
#
# Bulk Modulus (GPa) = 69.49560 72.74658 71.12109
# Shear Modulus (GPa) = 34.61028 37.45264 36.03146
#
# Velocity S-wave (km/s) = 4.19760 4.36657 4.28292
# Velocity P-wave (km/s) = 7.67287 7.90300 7.78879
#
# Compressibility (1/GPa) = 0.01438940
#
# Stress axis : x y z
#
# Youngs Moduli (GPa) = 78.69788 72.91324 104.70046
#
# Poissons Ratio (x) = 0.30629 0.26259
# Poissons Ratio (y) = 0.33059 0.42749
# Poissons Ratio (z) = 0.19738 0.29770
#
# Static dielectric constant tensor:
#      x y z
#    x 1.736280 0.050500 -0.030200 
#    y 0.050500 1.646630 -0.176390 
#    z -0.030200 -0.176390 1.368940 
# 
# From -- ./inp_files/343442.got.cif
#   From: 2010.05.17/outbox.cif.g08.bks.cpg/sg2_172_cif.got.tgz:343442.got - 2010.06.03 11:33:40.
