data_PCOD9012312
_publ_section_title
;
Structure prediction by ZEFSAII (Michael W. Deem and Ramdas Pophale) SiO2 
 PCOD9012312
Probable space group: P -1
;
_chemical_formula_sum "Si O2"
_cell_formula_units_Z 16
_cell_length_a 15.648586
_cell_length_b 11.960786
_cell_length_c 9.166218
_cell_angle_alpha 112.216363
_cell_angle_beta 145.702422
_cell_angle_gamma 52.762932
_cell_volume 740.756623
_symmetry_space_group_name_H-M "P -1"
_symmetry_group_IT_number 2
_symmetry_cell_setting 'triclinic'
loop_
_space_group_symop_operation_xyz
x,y,z
-x,-y,-z
loop_
_atom_site_type_symbol
_atom_site_label
_atom_site_fract_x
_atom_site_fract_y
_atom_site_fract_z
Si Si1 0.718611 0.595540 0.649653
Si Si2 0.626338 0.075467 0.360394
Si Si3 0.819990 0.106487 0.203332
Si Si4 0.600552 0.410661 0.954431
Si Si5 0.723160 0.937590 0.135102
Si Si6 0.109673 0.043847 0.076627
Si Si7 0.431130 0.412758 0.272271
Si Si8 0.939909 0.720374 0.069757
O O1 0.530571 0.630227 0.331558
O O2 0.709153 0.580293 0.804638
O O3 0.776326 0.708687 0.771942
O O4 0.882456 0.441860 0.738725
O O5 0.580607 0.239459 0.369981
O O6 0.759584 0.966273 0.366320
O O7 0.714801 0.003269 0.603409
O O8 0.435910 0.089502 0.087579
O O9 0.667167 0.090932 0.057779
O O10 0.774802 0.265027 0.194365
O O11 0.000000 0.000000 0.500000
O O12 0.837494 0.049775 0.038976
O O13 0.635120 0.502130 0.932547
O O14 0.500000 0.500000 0.000000
O O15 0.867540 0.816204 0.163301
O O16 0.011510 0.204651 0.950825
O O17 0.000000 0.000000 0.000000
O O18 0.500000 0.500000 0.500000
#
# Coordination Sequence:
#
# PCOD9012312 Si02
#       8
#     2   2   2   2   2   2   2   2
#     4  10  22  43  65  93 136 173 230 265 344 397
#     4  11  22  42  68 101 131 176 223 280 341 405
#     4  11  25  43  66  97 136 176 221 283 337 393
#     4  11  25  39  69  98 130 179 224 274 335 410
#     4  10  23  41  69  92 139 171 219 282 342 398
#     4  11  25  38  67  97 131 171 226 271 342 399
#     4  10  21  40  69  92 132 170 223 273 326 401
#     4  10  23  41  65  94 133 182 214 285 323 409
#
# _framework density 21.599537999999999
#
# number of rings (size 3 to 8) (size 9 to 14) (size 15 to 20)
#    0.000    1.500    1.250    3.000   10.500    1.000 
#    0.000    0.000    0.000    3.750    0.000    0.000 
#    0.000    0.000    0.000    0.000    0.000    0.000 
#
# Total GULP energy -89218.239134 kJ/mol
# GULP energy per Si atom -5576.139946 kJ/mol
# Density = 2.155038 g / cm^3
# Si number density = 21.599538 Si / 1000 Ang^3
#
#
#
# Elastic Constant Matrix: (Units=GPa)
#
#
# Indices 1 2 3 4 5 6 
#
# 1 117.8455 32.6826 21.7759 5.5954 -25.1608 1.2551
# 2 32.6826 101.9911 35.2676 2.1112 -18.4097 -6.7216
# 3 21.7759 35.2676 74.3229 3.5393 -18.3324 -9.1251
# 4 5.5954 2.1112 3.5393 29.7490 4.3108 -0.7936
# 5 -25.1608 -18.4097 -18.3324 4.3108 37.5776 12.8315
# 6 1.2551 -6.7216 -9.1251 -0.7936 12.8315 40.1447
#
#
#
# Elastic Compliance Matrix: (Units=1/GPa)
#
#
# Indices 1 2 3 4 5 6 
#
# 1 0.010956 -0.002099 -0.000633 -0.003006 0.007465 -0.003283
# 2 -0.002099 0.012560 -0.004707 -0.000271 0.002368 0.000336
# 3 -0.000633 -0.004707 0.017548 -0.002416 0.005641 0.001370
# 4 -0.003006 -0.000271 -0.002416 0.035784 -0.008418 0.002898
# 5 0.007465 0.002368 0.005641 -0.008418 0.040468 -0.011656
# 6 -0.003283 0.000336 0.001370 0.002898 -0.011656 0.029163
#
#
# Mechanical properties :
#
#
# Convention : Reuss Voigt Hill
#
# Bulk Modulus (GPa) = 38.18584 52.62354 45.40469
# Shear Modulus (GPa) = 29.39709 35.12314 32.26011
#
# Velocity S-wave (km/s) = 3.69318 4.03688 3.86885
# Velocity P-wave (km/s) = 5.99195 6.79298 6.40500
#
# Compressibility (1/GPa) = 0.02618772
#
# Stress axis : x y z
#
# Youngs Moduli (GPa) = 91.27276 79.61726 56.98580
#
# Poissons Ratio (x) = 0.16710 0.03606
# Poissons Ratio (y) = 0.19156 0.26822
# Poissons Ratio (z) = 0.05776 0.37474
#
# Static dielectric constant tensor:
#      x y z
#    x 1.790260 0.054050 0.049190 
#    y 0.054050 1.858270 -0.015840 
#    z 0.049190 -0.015840 1.868620 
# 
# From -- ./inp_files/308220.got.cif
#   From: 2010.05.17/outbox.cif.g08.bks.cpg/sg2_155_cif.got.tgz:308220.got - 2010.06.03 11:33:40.
