data_PCOD9012091
_publ_section_title
;
Structure prediction by ZEFSAII (Michael W. Deem and Ramdas Pophale) SiO2 
 PCOD9012091
Probable space group: P -1
;
_chemical_formula_sum "Si O2"
_cell_formula_units_Z 16
_cell_length_a 6.677523
_cell_length_b 16.939686
_cell_length_c 19.887600
_cell_angle_alpha 159.898978
_cell_angle_beta 66.350736
_cell_angle_gamma 114.163147
_cell_volume 704.386522
_symmetry_space_group_name_H-M "P -1"
_symmetry_group_IT_number 2
_symmetry_cell_setting 'triclinic'
loop_
_space_group_symop_operation_xyz
x,y,z
-x,-y,-z
loop_
_atom_site_type_symbol
_atom_site_label
_atom_site_fract_x
_atom_site_fract_y
_atom_site_fract_z
Si Si1 0.683885 0.058212 0.315177
Si Si2 0.709947 0.631173 0.613922
Si Si3 0.406696 0.761200 0.289138
Si Si4 0.963344 0.514582 0.177497
Si Si5 0.841034 0.748660 0.166667
Si Si6 0.031318 0.878254 0.030738
Si Si7 0.114499 0.449643 0.334580
Si Si8 0.227458 0.031041 0.407338
O O1 0.782633 0.316687 0.528667
O O2 0.420875 0.044923 0.337198
O O3 0.747158 0.885411 0.226370
O O4 0.813018 0.984181 0.173108
O O5 0.500000 0.500000 0.500000
O O6 0.713429 0.593560 0.663938
O O7 0.905602 0.515924 0.457898
O O8 0.777762 0.907940 0.821389
O O9 0.216950 0.616174 0.239755
O O10 0.624464 0.637838 0.145094
O O11 0.500000 0.000000 0.500000
O O12 0.291075 0.854653 0.313899
O O13 0.801582 0.712227 0.357927
O O14 0.992884 0.413753 0.018504
O O15 0.904805 0.316457 0.081505
O O16 0.988483 0.933525 0.337356
O O17 0.965725 0.754365 0.869505
#
# Coordination Sequence:
#
# PCOD9012091 Si02
#       8
#     2   2   2   2   2   2   2   2
#     4   9  22  40  62  94 130 170 206 266 315 371
#     4  10  23  43  67  96 132 164 204 261 319 378
#     4  11  23  42  63  86 128 172 213 263 319 368
#     4  11  23  40  65  93 124 168 214 265 315 372
#     4  10  22  41  61  89 130 164 217 265 314 369
#     4  10  22  42  68  95 130 169 213 260 321 381
#     4  10  21  40  68  95 127 169 211 252 316 384
#     4  11  23  41  62  91 127 170 214 262 317 370
#
# _framework density 22.7148
#
# number of rings (size 3 to 8) (size 9 to 14) (size 15 to 20)
#    0.000    1.750    1.250    1.875    1.750    6.000 
#    4.500    3.750    0.000    0.000    0.000    0.000 
#    0.000    0.000    0.000    0.000    0.000    0.000 
#
# Total GULP energy -89359.843663 kJ/mol
# GULP energy per Si atom -5584.990229 kJ/mol
# Density = 2.266310 g / cm^3
# Si number density = 22.714800 Si / 1000 Ang^3
#
#
#
# Elastic Constant Matrix: (Units=GPa)
#
#
# Indices 1 2 3 4 5 6 
#
# 1 78.5558 17.9302 38.0918 3.2833 9.1227 9.1143
# 2 17.9302 52.1274 36.9495 8.4264 2.9554 3.8076
# 3 38.0918 36.9495 138.6192 4.0781 12.3303 -6.0518
# 4 3.2833 8.4264 4.0781 29.7117 1.8429 7.4994
# 5 9.1227 2.9554 12.3303 1.8429 43.9362 -2.0582
# 6 9.1143 3.8076 -6.0518 7.4994 -2.0582 23.3178
#
#
#
# Elastic Compliance Matrix: (Units=1/GPa)
#
#
# Indices 1 2 3 4 5 6 
#
# 1 0.016344 -0.002293 -0.004039 0.001518 -0.002534 -0.007774
# 2 -0.002293 0.025405 -0.006170 -0.005364 0.000580 -0.003077
# 3 -0.004039 -0.006170 0.010336 -0.000475 -0.001379 0.005300
# 4 0.001518 -0.005364 -0.000475 0.038315 -0.002006 -0.012340
# 5 -0.002534 0.000580 -0.001379 -0.002006 0.023873 0.003290
# 6 -0.007774 -0.003077 0.005300 -0.012340 0.003290 0.052062
#
#
# Mechanical properties :
#
#
# Convention : Reuss Voigt Hill
#
# Bulk Modulus (GPa) = 36.92415 50.58284 43.75349
# Shear Modulus (GPa) = 24.95439 31.14851 28.05145
#
# Velocity S-wave (km/s) = 3.31810 3.70711 3.51799
# Velocity P-wave (km/s) = 5.56512 6.37499 5.98377
#
# Compressibility (1/GPa) = 0.02708254
#
# Stress axis : x y z
#
# Youngs Moduli (GPa) = 61.18292 39.36267 96.74504
#
# Poissons Ratio (x) = 0.09026 0.39074
# Poissons Ratio (y) = 0.14029 0.59689
# Poissons Ratio (z) = 0.24711 0.24286
#
# Static dielectric constant tensor:
#      x y z
#    x 1.845330 0.006710 0.001740 
#    y 0.006710 1.870540 -0.019040 
#    z 0.001740 -0.019040 1.902730 
# 
# From -- ./inp_files/584074.got.cif
#   From: 2010.05.17/outbox.cif.g08.bks.cpg/sg2_293_cif.got.tgz:584074.got - 2010.06.03 11:33:40.
