data_PCOD9012349
_publ_section_title
;
Structure prediction by ZEFSAII (Michael W. Deem and Ramdas Pophale) SiO2 
 PCOD9012349
Probable space group: P -1
;
_chemical_formula_sum "Si O2"
_cell_formula_units_Z 14
_cell_length_a 11.839913
_cell_length_b 9.836193
_cell_length_c 11.621528
_cell_angle_alpha 111.671666
_cell_angle_beta 130.349304
_cell_angle_gamma 40.010115
_cell_volume 640.634174
_symmetry_space_group_name_H-M "P -1"
_symmetry_group_IT_number 2
_symmetry_cell_setting 'triclinic'
loop_
_space_group_symop_operation_xyz
x,y,z
-x,-y,-z
loop_
_atom_site_type_symbol
_atom_site_label
_atom_site_fract_x
_atom_site_fract_y
_atom_site_fract_z
Si Si1 0.617546 0.787223 0.583073
Si Si2 0.906482 0.913172 0.276296
Si Si3 0.057945 0.536524 0.669530
Si Si4 0.730208 0.747707 0.082652
Si Si5 0.612561 0.459886 0.411725
Si Si6 0.464147 0.266856 0.246978
Si Si7 0.712117 0.335784 0.173523
O O1 0.869907 0.633336 0.667352
O O2 0.553111 0.670948 0.463884
O O3 0.571133 0.817099 0.697171
O O4 0.500000 0.000000 0.500000
O O5 0.901803 0.752251 0.173622
O O6 0.144278 0.755123 0.443211
O O7 0.711376 0.064834 0.292560
O O8 0.833351 0.089960 0.191718
O O9 0.000000 0.500000 0.500000
O O10 0.264545 0.316431 0.804235
O O11 0.106043 0.672180 0.733447
O O12 0.711215 0.636251 0.939742
O O13 0.500000 0.000000 0.000000
O O14 0.453204 0.443229 0.337543
O O15 0.625655 0.436546 0.275443
O O16 0.500000 0.500000 0.000000
#
# Coordination Sequence:
#
# PCOD9012349 Si02
#       7
#     2   2   2   2   2   2   2
#     4  12  28  39  64  98 134 176 211 276 328 371
#     4  10  21  40  70  95 120 170 220 263 311 384
#     4  12  24  43  67  95 133 170 219 266 324 390
#     4  10  21  40  69  96 122 169 212 271 318 381
#     4  11  22  44  65  92 124 176 219 262 312 387
#     4  10  23  41  67  95 132 161 222 262 323 387
#     4  11  22  38  69 101 126 157 216 276 321 372
#
# _framework density 21.853345999999998
#
# number of rings (size 3 to 8) (size 9 to 14) (size 15 to 20)
#    0.000    1.143    2.857    4.714    8.000    1.714 
#    0.000    0.000    0.000    2.571    0.000    0.000 
#    0.000    0.000    0.000    0.000    0.000    0.000 
#
# Total GULP energy -78153.667187 kJ/mol
# GULP energy per Si atom -5582.404799 kJ/mol
# Density = 2.180361 g / cm^3
# Si number density = 21.853346 Si / 1000 Ang^3
#
#
#
# Elastic Constant Matrix: (Units=GPa)
#
#
# Indices 1 2 3 4 5 6 
#
# 1 125.7640 39.2353 47.7645 6.7597 -6.9199 37.3544
# 2 39.2353 99.0309 47.0238 -4.8690 -5.1969 38.1170
# 3 47.7645 47.0238 166.2751 1.1175 -8.4296 26.3142
# 4 6.7597 -4.8690 1.1175 36.4552 18.9318 0.4290
# 5 -6.9199 -5.1969 -8.4296 18.9318 31.3773 0.3830
# 6 37.3544 38.1170 26.3142 0.4290 0.3830 41.2063
#
#
#
# Elastic Compliance Matrix: (Units=1/GPa)
#
#
# Indices 1 2 3 4 5 6 
#
# 1 0.012047 -0.000275 -0.001555 -0.004819 0.005219 -0.009672
# 2 -0.000275 0.016832 -0.002462 0.002005 0.001024 -0.013779
# 3 -0.001555 -0.002462 0.007440 -0.001326 0.002061 -0.001069
# 4 -0.004819 0.002005 -0.001326 0.042496 -0.026766 0.003168
# 5 0.005219 0.001024 0.002061 -0.026766 0.049982 -0.007181
# 6 -0.009672 -0.013779 -0.001069 0.003168 -0.007181 0.046498
#
#
# Mechanical properties :
#
#
# Convention : Reuss Voigt Hill
#
# Bulk Modulus (GPa) = 36.05722 73.23522 54.64622
# Shear Modulus (GPa) = 25.89038 38.94419 32.41728
#
# Velocity S-wave (km/s) = 3.44573 4.22604 3.85567
# Velocity P-wave (km/s) = 5.68913 7.57611 6.69939
#
# Compressibility (1/GPa) = 0.02773370
#
# Stress axis : x y z
#
# Youngs Moduli (GPa) = 83.01048 59.41223 134.41244
#
# Poissons Ratio (x) = 0.01633 0.20905
# Poissons Ratio (y) = 0.02281 0.33094
# Poissons Ratio (z) = 0.12910 0.14628
#
# Static dielectric constant tensor:
#      x y z
#    x 1.897300 -0.042630 0.118820 
#    y -0.042630 1.739920 0.055900 
#    z 0.118820 0.055900 2.000560 
# 
# From -- ./inp_files/417652.got.cif
#   From: 2010.05.17/outbox.cif.g08.bks.cpg/sg2_209_cif.got.tgz:417652.got - 2010.06.03 11:33:40.
