data_PCOD9012584
_publ_section_title
;
Structure prediction by ZEFSAII (Michael W. Deem and Ramdas Pophale) SiO2 
 PCOD9012584
Probable space group: P -1
;
_chemical_formula_sum "Si O2"
_cell_formula_units_Z 16
_cell_length_a 11.460559
_cell_length_b 10.386288
_cell_length_c 19.861204
_cell_angle_alpha 150.636665
_cell_angle_beta 41.230626
_cell_angle_gamma 119.562552
_cell_volume 661.029846
_symmetry_space_group_name_H-M "P -1"
_symmetry_group_IT_number 2
_symmetry_cell_setting 'triclinic'
loop_
_space_group_symop_operation_xyz
x,y,z
-x,-y,-z
loop_
_atom_site_type_symbol
_atom_site_label
_atom_site_fract_x
_atom_site_fract_y
_atom_site_fract_z
Si Si1 0.204092 0.731527 0.510577
Si Si2 0.395183 0.686140 0.539120
Si Si3 0.247189 0.098563 0.250970
Si Si4 0.160043 0.360404 0.545978
Si Si5 0.506217 0.446088 0.817111
Si Si6 0.860409 0.331760 0.175523
Si Si7 0.820321 0.351736 0.739649
Si Si8 0.775430 0.699125 0.055768
O O1 0.280411 0.843518 0.591758
O O2 0.251712 0.393048 0.357085
O O3 0.334329 0.733277 0.391802
O O4 0.965182 0.887026 0.668853
O O5 0.255619 0.563299 0.574430
O O6 0.627451 0.422531 0.303807
O O7 0.379593 0.938760 0.712875
O O8 0.256921 0.096183 0.327763
O O9 0.426570 0.799764 0.004922
O O10 0.171832 0.390847 0.635019
O O11 0.914321 0.493497 0.709405
O O12 0.625986 0.356553 0.794850
O O13 0.309703 0.409952 0.896153
O O14 0.999293 0.337442 0.057166
O O15 0.000000 0.000000 0.000000
O O16 0.775607 0.527330 0.909179
O O17 0.000000 0.000000 0.500000
#
# Coordination Sequence:
#
# PCOD9012584 Si02
#       8
#     2   2   2   2   2   2   2   2
#     4  10  24  45  69  98 136 175 231 283 329 406
#     4  11  25  44  68 100 136 179 228 276 342 404
#     4  10  22  44  70 102 129 178 231 284 333 397
#     4  10  21  40  71  95 136 168 224 287 333 398
#     4  12  25  43  71  97 139 181 225 278 350 394
#     4  11  24  41  66 101 137 176 226 277 339 403
#     4  11  25  42  70 103 139 176 225 284 345 405
#     4  11  27  41  68 100 135 182 221 279 338 414
#
# _framework density 24.204657000000001
#
# number of rings (size 3 to 8) (size 9 to 14) (size 15 to 20)
#    0.000    1.250    2.500    1.875    5.250    4.500 
#    2.250    1.250    0.000    0.000    0.000    0.000 
#    0.000    0.000    0.000    0.000    0.000    0.000 
#
# Total GULP energy -89266.858565 kJ/mol
# GULP energy per Si atom -5579.178660 kJ/mol
# Density = 2.414957 g / cm^3
# Si number density = 24.204657 Si / 1000 Ang^3
#
#
#
# Elastic Constant Matrix: (Units=GPa)
#
#
# Indices 1 2 3 4 5 6 
#
# 1 71.4462 19.5206 42.1678 -0.9476 7.8698 6.4044
# 2 19.5206 95.8954 38.8359 -26.1203 -7.2361 20.5317
# 3 42.1678 38.8359 110.3181 -6.9002 -4.1171 10.9287
# 4 -0.9476 -26.1203 -6.9002 50.3940 -0.2226 2.0545
# 5 7.8698 -7.2361 -4.1171 -0.2226 19.7898 -0.9352
# 6 6.4044 20.5317 10.9287 2.0545 -0.9352 23.1330
#
#
#
# Elastic Compliance Matrix: (Units=1/GPa)
#
#
# Indices 1 2 3 4 5 6 
#
# 1 0.020123 -0.002372 -0.007339 -0.001892 -0.010430 -0.000252
# 2 -0.002372 0.018587 -0.003310 0.009771 0.006458 -0.014883
# 3 -0.007339 -0.003310 0.013316 0.000036 0.004425 -0.001146
# 4 -0.001892 0.009771 0.000036 0.025314 0.004133 -0.010247
# 5 -0.010430 0.006458 0.004425 0.004133 0.057867 -0.002962
# 6 -0.000252 -0.014883 -0.001146 -0.010247 -0.002962 0.057839
#
#
# Mechanical properties :
#
#
# Convention : Reuss Voigt Hill
#
# Bulk Modulus (GPa) = 38.48704 53.18981 45.83842
# Shear Modulus (GPa) = 21.95400 30.47236 26.21318
#
# Velocity S-wave (km/s) = 3.01494 3.55201 3.29444
# Velocity P-wave (km/s) = 5.29670 6.23259 5.78360
#
# Compressibility (1/GPa) = 0.02598277
#
# Stress axis : x y z
#
# Youngs Moduli (GPa) = 49.69538 53.80167 75.09741
#
# Poissons Ratio (x) = 0.12764 0.55115
# Poissons Ratio (y) = 0.11790 0.24856
# Poissons Ratio (z) = 0.36472 0.17807
#
# Static dielectric constant tensor:
#      x y z
#    x 1.999280 0.013160 -0.005160 
#    y 0.013160 2.042420 0.015160 
#    z -0.005160 0.015160 1.915810 
# 
# From -- ./inp_files/594993.got.cif
#   From: 2010.05.17/outbox.cif.g08.bks.cpg/sg2_298_cif.got.tgz:594993.got - 2010.06.03 11:33:40.
