data_PCOD9012019
_publ_section_title
;
Structure prediction by ZEFSAII (Michael W. Deem and Ramdas Pophale) SiO2 
 PCOD9012019
Probable space group: P -1
;
_chemical_formula_sum "Si O2"
_cell_formula_units_Z 16
_cell_length_a 20.262975
_cell_length_b 8.746247
_cell_length_c 23.690011
_cell_angle_alpha 39.414545
_cell_angle_beta 17.698188
_cell_angle_gamma 47.604257
_cell_volume 767.782261
_symmetry_space_group_name_H-M "P -1"
_symmetry_group_IT_number 2
_symmetry_cell_setting 'triclinic'
loop_
_space_group_symop_operation_xyz
x,y,z
-x,-y,-z
loop_
_atom_site_type_symbol
_atom_site_label
_atom_site_fract_x
_atom_site_fract_y
_atom_site_fract_z
Si Si1 0.480016 0.200567 0.246745
Si Si2 0.341649 0.130159 0.932402
Si Si3 0.163304 0.459078 0.061181
Si Si4 0.877088 0.196378 0.473923
Si Si5 0.202041 0.575279 0.181408
Si Si6 0.137415 0.316914 0.418653
Si Si7 0.427809 0.330500 0.686682
Si Si8 0.866546 0.718375 0.167184
O O1 0.242440 0.235610 0.412937
O O2 0.480292 0.912199 0.326784
O O3 0.613015 0.326347 0.158140
O O4 0.624126 0.359752 0.031184
O O5 0.602073 0.117363 0.726975
O O6 0.352316 0.312380 0.818154
O O7 0.255474 0.238706 0.026252
O O8 0.173621 0.849812 0.135926
O O9 0.980369 0.380336 0.284028
O O10 0.035543 0.557461 0.088047
O O11 0.988322 0.351285 0.394674
O O12 0.951916 0.952045 0.465663
O O13 0.277593 0.491149 0.203280
O O14 0.000000 0.500000 0.500000
O O15 0.631321 0.583103 0.431989
O O16 0.218780 0.288320 0.825566
O O17 0.000000 0.000000 0.000000
#
# Coordination Sequence:
#
# PCOD9012019 Si02
#       8
#     2   2   2   2   2   2   2   2
#     4  10  21  41  63  88 128 169 211 256 321 378
#     4  11  23  43  68  91 133 166 212 267 314 379
#     4  11  23  42  67  98 123 172 217 257 320 386
#     4  11  23  44  65  91 134 170 211 262 328 371
#     4  10  23  41  64  90 124 174 213 260 318 376
#     4  12  23  39  64  96 129 166 219 269 310 376
#     4  10  21  40  68  90 125 177 196 260 330 367
#     4  11  21  39  69  94 128 162 213 257 317 384
#
# _framework density 20.839241000000001
#
# number of rings (size 3 to 8) (size 9 to 14) (size 15 to 20)
#    0.000    1.250    5.000    1.500    1.750    0.500 
#    0.000    2.500    0.000    0.000    0.000    0.000 
#    0.000    0.000    0.000    0.000    0.000    0.000 
#
# Total GULP energy -89154.523572 kJ/mol
# GULP energy per Si atom -5572.157723 kJ/mol
# Density = 2.079181 g / cm^3
# Si number density = 20.839241 Si / 1000 Ang^3
#
#
#
# Elastic Constant Matrix: (Units=GPa)
#
#
# Indices 1 2 3 4 5 6 
#
# 1 93.9552 28.3111 40.6988 11.7372 -12.1789 -14.0904
# 2 28.3111 91.1800 28.1689 9.5199 -19.9527 4.0565
# 3 40.6988 28.1689 76.5993 -8.2640 -9.2101 9.6557
# 4 11.7372 9.5199 -8.2640 24.5191 1.4732 5.6101
# 5 -12.1789 -19.9527 -9.2101 1.4732 32.5139 -7.1138
# 6 -14.0904 4.0565 9.6557 5.6101 -7.1138 31.9319
#
#
#
# Elastic Compliance Matrix: (Units=1/GPa)
#
#
# Indices 1 2 3 4 5 6 
#
# 1 0.027738 0.002198 -0.020228 -0.027629 0.012907 0.025807
# 2 0.002198 0.015872 -0.007760 -0.011723 0.010125 0.005615
# 3 -0.020228 -0.007760 0.031802 0.029756 -0.010159 -0.025048
# 4 -0.027629 -0.011723 0.029756 0.078594 -0.021032 -0.038194
# 5 0.012907 0.010125 -0.010159 -0.021032 0.044493 0.021088
# 6 0.025807 0.005615 -0.025048 -0.038194 0.021088 0.060973
#
#
# Mechanical properties :
#
#
# Convention : Reuss Voigt Hill
#
# Bulk Modulus (GPa) = 41.95982 50.67690 46.31836
# Shear Modulus (GPa) = 15.67412 28.76338 22.21875
#
# Velocity S-wave (km/s) = 2.74550 3.71920 3.26881
# Velocity P-wave (km/s) = 5.49810 6.54325 6.04331
#
# Compressibility (1/GPa) = 0.02383232
#
# Stress axis : x y z
#
# Youngs Moduli (GPa) = 36.05120 63.00429 31.44433
#
# Poissons Ratio (x) = -0.13846 0.63606
# Poissons Ratio (y) = -0.07922 0.24399
# Poissons Ratio (z) = 0.72925 0.48888
#
# Static dielectric constant tensor:
#      x y z
#    x 1.795120 -0.024400 -0.043550 
#    y -0.024400 1.758550 0.014800 
#    z -0.043550 0.014800 1.829880 
# 
# From -- ./inp_files/613489.got.cif
#   From: 2010.05.17/outbox.cif.g08.bks.cpg/sg2_307_cif.got.tgz:613489.got - 2010.06.03 11:33:40.
