data_PCOD9012554
_publ_section_title
;
Structure prediction by ZEFSAII (Michael W. Deem and Ramdas Pophale) SiO2 
 PCOD9012554
Probable space group: P -1
;
_chemical_formula_sum "Si O2"
_cell_formula_units_Z 14
_cell_length_a 17.869418
_cell_length_b 9.929152
_cell_length_c 6.047581
_cell_angle_alpha 48.794746
_cell_angle_beta 115.460844
_cell_angle_gamma 135.611851
_cell_volume 563.003234
_symmetry_space_group_name_H-M "P -1"
_symmetry_group_IT_number 2
_symmetry_cell_setting 'triclinic'
loop_
_space_group_symop_operation_xyz
x,y,z
-x,-y,-z
loop_
_atom_site_type_symbol
_atom_site_label
_atom_site_fract_x
_atom_site_fract_y
_atom_site_fract_z
Si Si1 0.125101 0.173740 0.910431
Si Si2 0.913504 0.371488 0.332248
Si Si3 0.712281 0.166452 0.089620
Si Si4 0.739688 0.910633 0.090036
Si Si5 0.967940 0.757271 0.640083
Si Si6 0.525878 0.700244 0.158047
Si Si7 0.294988 0.449148 0.203001
O O1 0.126805 0.329115 0.558096
O O2 0.174236 0.059072 0.994148
O O3 0.000000 0.000000 0.500000
O O4 0.000000 0.000000 0.000000
O O5 0.783113 0.205872 0.352422
O O6 0.941995 0.226623 0.398446
O O7 0.000000 0.500000 0.500000
O O8 0.939169 0.581682 0.987499
O O9 0.772632 0.144440 0.988570
O O10 0.593085 0.926267 0.158206
O O11 0.702687 0.364016 0.862681
O O12 0.615312 0.771893 0.009783
O O13 0.724181 0.745196 0.449020
O O14 0.801889 0.679015 0.951538
O O15 0.500000 0.500000 0.500000
O O16 0.407853 0.599728 0.050532
#
# Coordination Sequence:
#
# PCOD9012554 Si02
#       7
#     2   2   2   2   2   2   2
#     4  12  28  41  72 106 143 198 242 292 366 436
#     4  11  25  44  68 102 141 189 239 287 358 433
#     4  10  21  40  71 101 137 183 234 299 363 424
#     4   9  23  45  66  99 144 182 238 304 359 418
#     4  11  27  44  66  96 147 190 237 294 351 424
#     4   8  19  41  73  99 134 186 234 303 368 421
#     4  11  22  44  73 100 140 184 242 295 365 433
#
# _framework density 24.86664
#
# number of rings (size 3 to 8) (size 9 to 14) (size 15 to 20)
#    0.857    0.857    0.000    3.000    8.000    0.571 
#    0.000    2.857    0.000    5.143    0.000    0.000 
#    0.000    0.000    0.000    0.143    0.000    0.143 
#
# Total GULP energy -78191.925182 kJ/mol
# GULP energy per Si atom -5585.137513 kJ/mol
# Density = 2.481004 g / cm^3
# Si number density = 24.866640 Si / 1000 Ang^3
#
#
#
# Elastic Constant Matrix: (Units=GPa)
#
#
# Indices 1 2 3 4 5 6 
#
# 1 194.5531 64.1744 25.4560 -10.7366 -10.6529 11.4556
# 2 64.1744 160.0701 42.2293 -22.4867 1.7939 2.8206
# 3 25.4560 42.2293 87.2661 -13.3231 12.7642 1.7162
# 4 -10.7366 -22.4867 -13.3231 25.2076 -7.8559 15.8166
# 5 -10.6529 1.7939 12.7642 -7.8559 32.7574 -8.3455
# 6 11.4556 2.8206 1.7162 15.8166 -8.3455 67.1491
#
#
#
# Elastic Compliance Matrix: (Units=1/GPa)
#
#
# Indices 1 2 3 4 5 6 
#
# 1 0.006236 -0.002000 -0.000935 0.001882 0.002681 -0.001066
# 2 -0.002000 0.008735 -0.002766 0.006726 0.001208 -0.001389
# 3 -0.000935 -0.002766 0.014524 0.004281 -0.005232 -0.001754
# 4 0.001882 0.006726 0.004281 0.060329 0.009544 -0.013737
# 5 0.002681 0.001208 -0.005232 0.009544 0.036137 0.001869
# 6 -0.001066 -0.001389 -0.001754 -0.013737 0.001869 0.018645
#
#
# Mechanical properties :
#
#
# Convention : Reuss Voigt Hill
#
# Bulk Modulus (GPa) = 55.27313 78.40096 66.83705
# Shear Modulus (GPa) = 30.85708 45.69145 38.27426
#
# Velocity S-wave (km/s) = 3.52647 4.29121 3.92750
# Velocity P-wave (km/s) = 6.23357 7.49331 6.89228
#
# Compressibility (1/GPa) = 0.01809197
#
# Stress axis : x y z
#
# Youngs Moduli (GPa) = 160.37156 114.48622 68.85288
#
# Poissons Ratio (x) = 0.22899 0.06438
# Poissons Ratio (y) = 0.32077 0.19044
# Poissons Ratio (z) = 0.14994 0.31665
#
# Static dielectric constant tensor:
#      x y z
#    x 2.078420 0.019480 -0.063740 
#    y 0.019480 1.999160 0.028530 
#    z -0.063740 0.028530 2.039940 
# 
# From -- ./inp_files/104585.got.cif
#   From: 2010.05.17/outbox.cif.g08.bks.cpg/sg2_53_cif.got.tgz:104585.got - 2010.06.03 11:33:40.
