data_PCOD9012253
_publ_section_title
;
Structure prediction by ZEFSAII (Michael W. Deem and Ramdas Pophale) SiO2 
 PCOD9012253
Probable space group: P -1
;
_chemical_formula_sum "Si O2"
_cell_formula_units_Z 12
_cell_length_a 7.735893
_cell_length_b 11.077052
_cell_length_c 14.597542
_cell_angle_alpha 28.170849
_cell_angle_beta 104.199531
_cell_angle_gamma 88.702090
_cell_volume 488.321951
_symmetry_space_group_name_H-M "P -1"
_symmetry_group_IT_number 2
_symmetry_cell_setting 'triclinic'
loop_
_space_group_symop_operation_xyz
x,y,z
-x,-y,-z
loop_
_atom_site_type_symbol
_atom_site_label
_atom_site_fract_x
_atom_site_fract_y
_atom_site_fract_z
Si Si1 0.508269 0.250320 0.233842
Si Si2 0.297086 0.079705 0.809950
Si Si3 0.275376 0.928608 0.434762
Si Si4 0.282645 0.675222 0.408454
Si Si5 0.222683 0.157033 0.954611
Si Si6 0.908138 0.865616 0.438248
O O1 0.560312 0.272539 0.330797
O O2 0.316742 0.196340 0.241698
O O3 0.715508 0.953898 0.420737
O O4 0.500000 0.500000 0.000000
O O5 0.212973 0.435771 0.557763
O O6 0.258581 0.022237 0.947091
O O7 0.185156 0.022834 0.750296
O O8 0.547607 0.910219 0.940945
O O9 0.311910 0.748337 0.466333
O O10 0.046660 0.010089 0.383548
O O11 0.500000 0.500000 0.500000
O O12 0.155610 0.983006 0.130759
O O13 0.061431 0.509060 0.698175
#
# Coordination Sequence:
#
# PCOD9012253 Si02
#       6
#     2   2   2   2   2   2
#     4  11  28  51  75  99 143 191 239 309 358 406
#     4  10  22  43  66 108 150 186 226 293 351 423
#     4  11  26  49  70 109 141 180 249 295 348 436
#     4  10  21  40  69 102 145 184 226 282 355 421
#     4  10  22  40  69 103 152 187 228 288 351 421
#     4  12  25  47  76 107 143 187 245 288 359 432
#
# _framework density 24.573948999999999
#
# number of rings (size 3 to 8) (size 9 to 14) (size 15 to 20)
#    0.000    1.333    1.667    3.000    4.667    1.333 
#    6.000    0.000    0.000    0.000    0.000    0.000 
#    0.000    0.000    0.000    0.000    0.000    0.000 
#
# Total GULP energy -67224.749584 kJ/mol
# GULP energy per Si atom -5602.062465 kJ/mol
# Density = 2.451802 g / cm^3
# Si number density = 24.573949 Si / 1000 Ang^3
#
#
#
# Elastic Constant Matrix: (Units=GPa)
#
#
# Indices 1 2 3 4 5 6 
#
# 1 88.4365 29.9307 20.9273 16.3636 5.2537 10.9234
# 2 29.9307 64.8989 17.6685 21.6286 -5.5763 7.8437
# 3 20.9273 17.6685 116.3267 9.7373 -4.0775 -1.0048
# 4 16.3636 21.6286 9.7373 24.6461 -11.2526 7.4085
# 5 5.2537 -5.5763 -4.0775 -11.2526 42.6323 6.8803
# 6 10.9234 7.8437 -1.0048 7.4085 6.8803 44.5048
#
#
#
# Elastic Compliance Matrix: (Units=1/GPa)
#
#
# Indices 1 2 3 4 5 6 
#
# 1 0.014824 -0.004285 -0.001583 -0.007058 -0.004226 -0.001091
# 2 -0.004285 0.023617 -0.001359 -0.017925 -0.001250 0.000036
# 3 -0.001583 -0.001359 0.009240 -0.001579 0.000315 0.001051
# 4 -0.007058 -0.017925 -0.001579 0.073647 0.019494 -0.010417
# 5 -0.004226 -0.001250 0.000315 0.019494 0.030059 -0.006628
# 6 -0.001091 0.000036 0.001051 -0.010417 -0.006628 0.025513
#
#
# Mechanical properties :
#
#
# Convention : Reuss Voigt Hill
#
# Bulk Modulus (GPa) = 30.09596 45.19056 37.64326
# Shear Modulus (GPa) = 24.70002 35.76567 30.23284
#
# Velocity S-wave (km/s) = 3.17382 3.81915 3.51134
# Velocity P-wave (km/s) = 5.06996 6.15446 5.63835
#
# Compressibility (1/GPa) = 0.03322705
#
# Stress axis : x y z
#
# Youngs Moduli (GPa) = 67.45824 42.34270 108.22554
#
# Poissons Ratio (x) = 0.18143 0.17130
# Poissons Ratio (y) = 0.28904 0.14711
# Poissons Ratio (z) = 0.10677 0.05756
#
# Static dielectric constant tensor:
#      x y z
#    x 1.977250 0.008810 0.006290 
#    y 0.008810 1.941150 -0.009820 
#    z 0.006290 -0.009820 1.980750 
# 
# From -- ./inp_files/496052.got.cif
#   From: 2010.05.17/outbox.cif.g08.bks.cpg/sg2_249_cif.got.tgz:496052.got - 2010.06.03 11:33:40.
