data_PCOD9012357
_publ_section_title
;
Structure prediction by ZEFSAII (Michael W. Deem and Ramdas Pophale) SiO2 
 PCOD9012357
Probable space group: P -1
;
_chemical_formula_sum "Si O2"
_cell_formula_units_Z 14
_cell_length_a 22.430982
_cell_length_b 5.289942
_cell_length_c 9.761493
_cell_angle_alpha 101.587016
_cell_angle_beta 144.493404
_cell_angle_gamma 90.024124
_cell_volume 631.072770
_symmetry_space_group_name_H-M "P -1"
_symmetry_group_IT_number 2
_symmetry_cell_setting 'triclinic'
loop_
_space_group_symop_operation_xyz
x,y,z
-x,-y,-z
loop_
_atom_site_type_symbol
_atom_site_label
_atom_site_fract_x
_atom_site_fract_y
_atom_site_fract_z
Si Si1 0.491802 0.211959 0.893223
Si Si2 0.976504 0.132303 0.828780
Si Si3 0.217747 0.256168 0.697619
Si Si4 0.164880 0.612894 0.218297
Si Si5 0.691888 0.045111 0.683535
Si Si6 0.369155 0.433431 0.264621
Si Si7 0.286245 0.749754 0.702180
O O1 0.387708 0.106844 0.599016
O O2 0.500000 0.500000 0.000000
O O3 0.599747 0.234309 0.014472
O O4 0.500000 0.000000 0.000000
O O5 0.900298 0.298243 0.769892
O O6 0.905629 0.933836 0.561268
O O7 0.087091 0.326148 0.999829
O O8 0.000000 0.000000 0.000000
O O9 0.211732 0.520623 0.633894
O O10 0.275241 0.051049 0.709342
O O11 0.291652 0.347909 0.978142
O O12 0.196664 0.814652 0.172464
O O13 0.271236 0.622682 0.506389
O O14 0.652235 0.295094 0.689126
O O15 0.677940 0.820014 0.749153
O O16 0.500000 0.500000 0.500000
#
# Coordination Sequence:
#
# PCOD9012357 Si02
#       7
#     2   2   2   2   2   2   2
#     4  12  23  36  59  97 132 163 203 264 335 391
#     4  10  21  40  69  96 133 166 214 285 338 401
#     4  11  23  41  67  92 126 177 226 261 328 384
#     4  10  23  39  64 103 130 167 211 277 352 382
#     4  12  26  43  68  96 139 172 222 274 322 398
#     4  12  26  47  67  92 135 187 225 263 314 397
#     4  11  21  38  64  94 131 161 213 276 327 404
#
# _framework density 22.184446999999999
#
# number of rings (size 3 to 8) (size 9 to 14) (size 15 to 20)
#    0.000    0.857    2.857    4.714    4.000    0.000 
#    0.000    1.429    0.000    0.000    0.000    0.000 
#    0.000    0.000    0.000    0.000    0.000    0.000 
#
# Total GULP energy -78036.640257 kJ/mol
# GULP energy per Si atom -5574.045733 kJ/mol
# Density = 2.213395 g / cm^3
# Si number density = 22.184447 Si / 1000 Ang^3
#
#
#
# Elastic Constant Matrix: (Units=GPa)
#
#
# Indices 1 2 3 4 5 6 
#
# 1 46.7556 43.3490 39.6166 11.5408 -6.8841 17.0047
# 2 43.3490 154.0713 58.2566 2.2384 -12.7654 22.5095
# 3 39.6166 58.2566 152.1048 17.9213 -12.9060 22.5778
# 4 11.5408 2.2384 17.9213 44.1471 5.2214 -0.8237
# 5 -6.8841 -12.7654 -12.9060 5.2214 30.7301 5.2266
# 6 17.0047 22.5095 22.5778 -0.8237 5.2266 50.2148
#
#
#
# Elastic Compliance Matrix: (Units=1/GPa)
#
#
# Indices 1 2 3 4 5 6 
#
# 1 0.037843 -0.007104 -0.004270 -0.008748 0.006674 -0.008549
# 2 -0.007104 0.009387 -0.001662 0.001857 0.001495 -0.001180
# 3 -0.004270 -0.001662 0.009296 -0.002992 0.003168 -0.002368
# 4 -0.008748 0.001857 -0.002992 0.027076 -0.007851 0.004737
# 5 0.006674 0.001495 0.003168 -0.007851 0.038771 -0.008519
# 6 -0.008549 -0.001180 -0.002368 0.004737 -0.008519 0.025368
#
#
# Mechanical properties :
#
#
# Convention : Reuss Voigt Hill
#
# Bulk Modulus (GPa) = 32.83503 70.59733 51.71618
# Shear Modulus (GPa) = 27.17943 39.13236 33.15589
#
# Velocity S-wave (km/s) = 3.50402 4.20450 3.87014
# Velocity P-wave (km/s) = 5.58605 7.44731 6.58279
#
# Compressibility (1/GPa) = 0.03045528
#
# Stress axis : x y z
#
# Youngs Moduli (GPa) = 26.42485 106.53167 107.57674
#
# Poissons Ratio (x) = 0.75680 0.45931
# Poissons Ratio (y) = 0.18772 0.17875
# Poissons Ratio (z) = 0.11282 0.17702
#
# Static dielectric constant tensor:
#      x y z
#    x 1.957750 0.011160 0.148430 
#    y 0.011160 1.767730 -0.085400 
#    z 0.148430 -0.085400 2.021480 
# 
# From -- ./inp_files/27542.got.cif
#   From: 2010.05.17/outbox.cif.g08.bks.cpg/sg2_14_cif.got.tgz:27542.got - 2010.06.03 11:33:40.
