data_PCOD9012157
_publ_section_title
;
Structure prediction by ZEFSAII (Michael W. Deem and Ramdas Pophale) SiO2 
 PCOD9012157
Probable space group: P -1
;
_chemical_formula_sum "Si O2"
_cell_formula_units_Z 14
_cell_length_a 9.602945
_cell_length_b 8.563974
_cell_length_c 18.161349
_cell_angle_alpha 64.533004
_cell_angle_beta 49.369531
_cell_angle_gamma 104.821198
_cell_volume 637.863237
_symmetry_space_group_name_H-M "P -1"
_symmetry_group_IT_number 2
_symmetry_cell_setting 'triclinic'
loop_
_space_group_symop_operation_xyz
x,y,z
-x,-y,-z
loop_
_atom_site_type_symbol
_atom_site_label
_atom_site_fract_x
_atom_site_fract_y
_atom_site_fract_z
Si Si1 0.918500 0.238818 0.092428
Si Si2 0.239815 0.839629 0.257252
Si Si3 0.349623 0.924968 0.422401
Si Si4 0.771736 0.526876 0.604755
Si Si5 0.287898 0.464761 0.782347
Si Si6 0.005282 0.447899 0.750730
Si Si7 0.674605 0.460322 0.972952
O O1 0.095332 0.315862 0.089026
O O2 0.054113 0.252160 0.970731
O O3 0.575407 0.984249 0.281445
O O4 0.000000 0.500000 0.000000
O O5 0.365234 0.748470 0.258392
O O6 0.933928 0.626362 0.450272
O O7 0.184634 0.784547 0.200474
O O8 0.442810 0.148767 0.146579
O O9 0.256407 0.736445 0.560966
O O10 0.051875 0.763035 0.515551
O O11 0.529861 0.226224 0.323552
O O12 0.528694 0.493266 0.690035
O O13 0.123867 0.393744 0.777993
O O14 0.835128 0.470308 0.851156
O O15 0.500000 0.500000 0.000000
#
# Coordination Sequence:
#
# PCOD9012157 Si02
#       7
#     2   2   2   2   2   2   2
#     4  10  21  41  65  99 136 169 217 281 329 380
#     4  10  24  46  63  97 139 174 222 273 333 397
#     4  10  21  40  68  97 139 171 222 276 329 392
#     4  10  23  41  73  93 131 183 219 274 331 394
#     4  11  22  39  69 105 130 174 227 269 333 394
#     4  11  24  42  67  99 139 176 212 283 335 385
#     4  12  26  42  71  98 133 178 225 273 332 398
#
# _framework density 21.948278999999999
#
# number of rings (size 3 to 8) (size 9 to 14) (size 15 to 20)
#    0.000    1.429    2.857    3.000    6.000    0.571 
#    0.000    5.000    0.000    0.000    0.000    0.000 
#    0.000    0.000    0.000    0.000    0.000    0.000 
#
# Total GULP energy -78289.463264 kJ/mol
# GULP energy per Si atom -5592.104519 kJ/mol
# Density = 2.189832 g / cm^3
# Si number density = 21.948279 Si / 1000 Ang^3
#
#
#
# Elastic Constant Matrix: (Units=GPa)
#
#
# Indices 1 2 3 4 5 6 
#
# 1 167.5785 52.7231 49.1009 33.5575 -17.8517 12.4593
# 2 52.7231 50.8772 23.2241 7.3011 -4.1971 13.1688
# 3 49.1009 23.2241 113.5883 15.7477 -2.3510 -10.8713
# 4 33.5575 7.3011 15.7477 45.0704 -1.8449 0.0725
# 5 -17.8517 -4.1971 -2.3510 -1.8449 27.9588 5.6283
# 6 12.4593 13.1688 -10.8713 0.0725 5.6283 35.8705
#
#
#
# Elastic Compliance Matrix: (Units=1/GPa)
#
#
# Indices 1 2 3 4 5 6 
#
# 1 0.011452 -0.008793 -0.002427 -0.006010 0.005874 -0.002395
# 2 -0.008793 0.033247 -0.004375 0.002762 0.001344 -0.010694
# 3 -0.002427 -0.004375 0.011528 -0.001630 -0.002625 0.006358
# 4 -0.006010 0.002762 -0.001630 0.026703 -0.001966 0.000834
# 5 0.005874 0.001344 -0.002625 -0.001966 0.041344 -0.009812
# 6 -0.002395 -0.010694 0.006358 0.000834 -0.009812 0.036101
#
#
# Mechanical properties :
#
#
# Convention : Reuss Voigt Hill
#
# Bulk Modulus (GPa) = 39.94251 64.68226 52.31238
# Shear Modulus (GPa) = 25.01135 35.57966 30.29550
#
# Velocity S-wave (km/s) = 3.37940 4.03062 3.71929
# Velocity P-wave (km/s) = 5.78490 7.15510 6.50617
#
# Compressibility (1/GPa) = 0.02503599
#
# Stress axis : x y z
#
# Youngs Moduli (GPa) = 87.31976 30.07816 86.74871
#
# Poissons Ratio (x) = 0.26447 0.21054
# Poissons Ratio (y) = 0.76779 0.37955
# Poissons Ratio (z) = 0.21193 0.13160
#
# Static dielectric constant tensor:
#      x y z
#    x 1.795810 0.060850 -0.003360 
#    y 0.060850 1.852870 0.005330 
#    z -0.003360 0.005330 1.819070 
# 
# From -- ./inp_files/190621.got.cif
#   From: 2010.05.17/outbox.cif.g08.bks.cpg/sg2_96_cif.got.tgz:190621.got - 2010.06.03 11:33:40.
