data_PCOD9012391
_publ_section_title
;
Structure prediction by ZEFSAII (Michael W. Deem and Ramdas Pophale) SiO2 
 PCOD9012391
Probable space group: P -1
;
_chemical_formula_sum "Si O2"
_cell_formula_units_Z 16
_cell_length_a 5.285340
_cell_length_b 11.573247
_cell_length_c 22.465720
_cell_angle_alpha 145.247183
_cell_angle_beta 55.429877
_cell_angle_gamma 122.677604
_cell_volume 637.026071
_symmetry_space_group_name_H-M "P -1"
_symmetry_group_IT_number 2
_symmetry_cell_setting 'triclinic'
loop_
_space_group_symop_operation_xyz
x,y,z
-x,-y,-z
loop_
_atom_site_type_symbol
_atom_site_label
_atom_site_fract_x
_atom_site_fract_y
_atom_site_fract_z
Si Si1 0.996835 0.011197 0.693972
Si Si2 0.683249 0.206522 0.283890
Si Si3 0.164103 0.080507 0.573144
Si Si4 0.301307 0.198075 0.931290
Si Si5 0.317317 0.652557 0.526923
Si Si6 0.360904 0.963339 0.937627
Si Si7 0.709877 0.473801 0.295728
Si Si8 0.932575 0.435374 0.913523
O O1 0.111032 0.249718 0.794531
O O2 0.958269 0.995202 0.621201
O O3 0.683227 0.899085 0.721668
O O4 0.265509 0.882355 0.617556
O O5 0.635559 0.330333 0.401372
O O6 0.885769 0.359565 0.274938
O O7 0.841719 0.002866 0.172020
O O8 0.177970 0.328514 0.675331
O O9 0.500000 0.000000 0.500000
O O10 0.000000 0.000000 0.500000
O O11 0.580121 0.314847 0.903927
O O12 0.457887 0.127041 0.940471
O O13 0.063604 0.359615 0.039112
O O14 0.503096 0.573541 0.414233
O O15 0.000000 0.500000 0.500000
O O16 0.404039 0.733182 0.814054
O O17 0.500000 0.000000 0.000000
O O18 0.000000 0.000000 0.000000
O O19 0.000000 0.500000 0.000000
#
# Coordination Sequence:
#
# PCOD9012391 Si02
#       8
#     2   2   2   2   2   2   2   2
#     4  11  24  41  65 100 134 180 228 280 345 412
#     4  10  22  43  66  97 135 169 230 286 344 409
#     4  12  28  47  68 101 145 182 229 279 344 420
#     4   9  22  42  65 100 131 178 230 285 344 406
#     4  12  23  38  71 101 132 175 228 288 349 410
#     4  11  28  49  72 101 140 187 240 289 342 416
#     4  11  25  46  69 103 136 188 230 291 350 417
#     4  10  21  40  69  98 134 177 227 287 345 407
#
# _framework density 25.116709
#
# number of rings (size 3 to 8) (size 9 to 14) (size 15 to 20)
#    0.000    1.250    2.500    1.875    5.250    3.000 
#    0.000    0.000    0.000    0.000    0.000    0.000 
#    0.000    0.000    0.000    0.000    0.000    0.000 
#
# Total GULP energy -89122.183601 kJ/mol
# GULP energy per Si atom -5570.136475 kJ/mol
# Density = 2.505954 g / cm^3
# Si number density = 25.116709 Si / 1000 Ang^3
#
#
#
# Elastic Constant Matrix: (Units=GPa)
#
#
# Indices 1 2 3 4 5 6 
#
# 1 95.1591 17.2155 51.1819 3.8544 12.1862 -21.6619
# 2 17.2155 87.7584 9.1615 8.8571 -3.7023 -22.4288
# 3 51.1819 9.1615 200.1062 30.0627 -0.9831 -33.3698
# 4 3.8544 8.8571 30.0627 53.0663 -19.1349 -1.5923
# 5 12.1862 -3.7023 -0.9831 -19.1349 36.6563 -6.9283
# 6 -21.6619 -22.4288 -33.3698 -1.5923 -6.9283 35.8809
#
#
#
# Elastic Compliance Matrix: (Units=1/GPa)
#
#
# Indices 1 2 3 4 5 6 
#
# 1 0.013726 -0.001520 -0.002703 -0.000680 -0.004399 0.003943
# 2 -0.001520 0.014436 0.001730 -0.001914 0.002938 0.010198
# 3 -0.002703 0.001730 0.007198 -0.003843 0.000404 0.006051
# 4 -0.000680 -0.001914 -0.003843 0.026143 0.013302 -0.001452
# 5 -0.004399 0.002938 0.000404 0.013302 0.037386 0.007366
# 6 0.003943 0.010198 0.006051 -0.001452 0.007366 0.043611
#
#
# Mechanical properties :
#
#
# Convention : Reuss Voigt Hill
#
# Bulk Modulus (GPa) = 32.92171 59.79351 46.35761
# Shear Modulus (GPa) = 31.72384 45.48499 38.60442
#
# Velocity S-wave (km/s) = 3.55781 4.26014 3.92471
# Velocity P-wave (km/s) = 5.47844 6.93227 6.24778
#
# Compressibility (1/GPa) = 0.03037510
#
# Stress axis : x y z
#
# Youngs Moduli (GPa) = 72.85452 69.27222 138.92821
#
# Poissons Ratio (x) = 0.10526 0.37553
# Poissons Ratio (y) = 0.11071 -0.24039
# Poissons Ratio (z) = 0.19693 -0.11986
#
# Static dielectric constant tensor:
#      x y z
#    x 2.128300 -0.045720 -0.089060 
#    y -0.045720 1.920840 0.195310 
#    z -0.089060 0.195310 2.006430 
# 
# From -- ./inp_files/604474.got.cif
#   From: 2010.05.17/outbox.cif.g08.bks.cpg/sg2_303_cif.got.tgz:604474.got - 2010.06.03 11:33:40.
