data_PCOD9012778
_publ_section_title
;
Structure prediction by ZEFSAII (Michael W. Deem and Ramdas Pophale) SiO2 
 PCOD9012778
Probable space group: P -1
;
_chemical_formula_sum "Si O2"
_cell_formula_units_Z 14
_cell_length_a 5.580974
_cell_length_b 15.992682
_cell_length_c 10.882427
_cell_angle_alpha 49.626514
_cell_angle_beta 63.435351
_cell_angle_gamma 62.418316
_cell_volume 640.090727
_symmetry_space_group_name_H-M "P -1"
_symmetry_group_IT_number 2
_symmetry_cell_setting 'triclinic'
loop_
_space_group_symop_operation_xyz
x,y,z
-x,-y,-z
loop_
_atom_site_type_symbol
_atom_site_label
_atom_site_fract_x
_atom_site_fract_y
_atom_site_fract_z
Si Si1 0.627861 0.234772 0.858752
Si Si2 0.734417 0.486516 0.228608
Si Si3 0.629124 0.603653 0.911071
Si Si4 0.900020 0.413803 0.518204
Si Si5 0.862590 0.857741 0.008357
Si Si6 0.472837 0.281433 0.411575
Si Si7 0.634683 0.096792 0.749040
O O1 0.304027 0.228441 0.932558
O O2 0.736004 0.156703 0.786142
O O3 0.711463 0.349115 0.695918
O O4 0.822841 0.185576 0.977330
O O5 0.580697 0.388777 0.329279
O O6 0.048683 0.435771 0.159025
O O7 0.761436 0.488460 0.365076
O O8 0.613736 0.598403 0.067106
O O9 0.507275 0.711046 0.748665
O O10 0.500000 0.500000 0.000000
O O11 0.155954 0.317745 0.495365
O O12 0.000000 0.500000 0.500000
O O13 0.677879 0.898529 0.135869
O O14 0.806772 0.967179 0.829581
O O15 0.622671 0.170036 0.558889
#
# Coordination Sequence:
#
# PCOD9012778 Si02
#       7
#     2   2   2   2   2   2   2
#     4  10  17  32  40  63  91 126 158 193 226 277
#     4   9  16  31  42  63  86 122 153 192 232 277
#     4   8  16  27  48  61  85 116 148 190 244 280
#     4  11  21  29  43  63  95 134 167 191 220 267
#     4   9  18  27  46  62  88 125 153 189 241 283
#     4  10  17  30  43  67  92 121 153 195 233 279
#     4   9  17  26  45  64  89 120 151 190 239 287
#
# _framework density 21.871898999999999
#
# number of rings (size 3 to 8) (size 9 to 14) (size 15 to 20)
#    0.857    1.714    2.857    0.429    0.000    0.571 
#    0.000    0.000    0.000    0.000    0.000    0.000 
#    0.000    2.286    0.000    0.000    0.000    0.000 
#
# Total GULP energy -77976.791555 kJ/mol
# GULP energy per Si atom -5569.770825 kJ/mol
# Density = 2.182212 g / cm^3
# Si number density = 21.871899 Si / 1000 Ang^3
#
#
#
# Elastic Constant Matrix: (Units=GPa)
#
#
# Indices 1 2 3 4 5 6 
#
# 1 99.5891 12.0565 46.9471 -1.9412 17.0977 4.1919
# 2 12.0565 26.6708 35.2740 -0.3692 8.7049 11.1493
# 3 46.9471 35.2740 202.4763 -1.1716 46.3112 11.8628
# 4 -1.9412 -0.3692 -1.1716 31.4407 3.0604 2.5502
# 5 17.0977 8.7049 46.3112 3.0604 45.8149 7.5968
# 6 4.1919 11.1493 11.8628 2.5502 7.5968 29.3530
#
#
#
# Elastic Compliance Matrix: (Units=1/GPa)
#
#
# Indices 1 2 3 4 5 6 
#
# 1 0.011538 -0.002304 -0.001797 0.000794 -0.002179 0.000449
# 2 -0.002304 0.057292 -0.008766 0.001528 0.001799 -0.018488
# 3 -0.001797 -0.008766 0.008223 0.000558 -0.006320 0.001850
# 4 0.000794 0.001528 0.000558 0.032412 -0.002817 -0.003006
# 5 -0.002179 0.001799 -0.006320 -0.002817 0.029749 -0.005273
# 6 0.000449 -0.018488 0.001850 -0.003006 -0.005273 0.041904
#
#
# Mechanical properties :
#
#
# Convention : Reuss Voigt Hill
#
# Bulk Modulus (GPa) = 19.48633 57.47685 38.48159
# Shear Modulus (GPa) = 22.32540 36.95232 29.63886
#
# Velocity S-wave (km/s) = 3.19836 4.11480 3.68518
# Velocity P-wave (km/s) = 4.75058 6.99366 5.97826
#
# Compressibility (1/GPa) = 0.05131802
#
# Stress axis : x y z
#
# Youngs Moduli (GPa) = 86.66946 17.45433 121.60890
#
# Poissons Ratio (x) = 0.04022 0.21855
# Poissons Ratio (y) = 0.19972 1.06605
# Poissons Ratio (z) = 0.15576 0.15301
#
# Static dielectric constant tensor:
#      x y z
#    x 1.882620 -0.026350 0.016880 
#    y -0.026350 1.830620 -0.007190 
#    z 0.016880 -0.007190 1.802160 
# 
# From -- ./inp_files/368559.got.cif
#   From: 2010.05.17/outbox.cif.g08.bks.cpg/sg2_185_cif.got.tgz:368559.got - 2010.06.03 11:33:40.
