data_PCOD9012297
_publ_section_title
;
Structure prediction by ZEFSAII (Michael W. Deem and Ramdas Pophale) SiO2 
 PCOD9012297
Probable space group: P -1
;
_chemical_formula_sum "Si O2"
_cell_formula_units_Z 12
_cell_length_a 16.253962
_cell_length_b 11.508980
_cell_length_c 7.132538
_cell_angle_alpha 65.422791
_cell_angle_beta 110.377778
_cell_angle_gamma 157.779000
_cell_volume 456.237648
_symmetry_space_group_name_H-M "P -1"
_symmetry_group_IT_number 2
_symmetry_cell_setting 'triclinic'
loop_
_space_group_symop_operation_xyz
x,y,z
-x,-y,-z
loop_
_atom_site_type_symbol
_atom_site_label
_atom_site_fract_x
_atom_site_fract_y
_atom_site_fract_z
Si Si1 0.783776 0.609069 0.044639
Si Si2 0.631189 0.069173 0.292229
Si Si3 0.930962 0.249743 0.791734
Si Si4 0.658447 0.813740 0.522571
Si Si5 0.677439 0.135995 0.861583
Si Si6 0.004150 0.920235 0.376116
O O1 0.974507 0.759314 0.048669
O O2 0.800535 0.649875 0.255634
O O3 0.549759 0.243485 0.063385
O O4 0.822964 0.784596 0.830583
O O5 0.843236 0.393145 0.365191
O O6 0.594108 0.869898 0.378084
O O7 0.409252 0.848168 0.312507
O O8 0.716090 0.222307 0.049931
O O9 0.847258 0.259475 0.836946
O O10 0.722130 0.925604 0.718066
O O11 0.500000 0.500000 0.500000
O O12 0.901888 0.089824 0.474770
O O13 0.000000 0.000000 0.500000
#
# Coordination Sequence:
#
# PCOD9012297 Si02
#       6
#     2   2   2   2   2   2
#     4   9  21  42  61  96 131 160 228 266 308 402
#     4  10  22  42  63  94 130 162 222 267 314 404
#     4  10  22  41  69  91 126 174 209 269 333 373
#     4  11  24  41  60  98 132 163 221 269 316 398
#     4  10  21  40  69  91 121 172 213 272 325 375
#     4  10  22  40  62  90 134 180 202 265 336 380
#
# _framework density 26.30208
#
# number of rings (size 3 to 8) (size 9 to 14) (size 15 to 20)
#    0.000    2.000    0.000    2.000    4.667    0.667 
#    3.000    3.333    0.000    0.000    0.000    0.000 
#    0.000    0.000    0.000    0.000    0.000    0.000 
#
# Total GULP energy -66869.098038 kJ/mol
# GULP energy per Si atom -5572.424837 kJ/mol
# Density = 2.624222 g / cm^3
# Si number density = 26.302080 Si / 1000 Ang^3
#
#
#
# Elastic Constant Matrix: (Units=GPa)
#
#
# Indices 1 2 3 4 5 6 
#
# 1 214.9399 37.1923 36.1083 6.2437 4.6819 7.0877
# 2 37.1923 148.4364 25.3488 29.7696 7.3255 -14.2195
# 3 36.1083 25.3488 65.7584 22.4459 -5.0541 0.3317
# 4 6.2437 29.7696 22.4459 37.2993 -11.1798 5.1822
# 5 4.6819 7.3255 -5.0541 -11.1798 44.6745 7.6004
# 6 7.0877 -14.2195 0.3317 5.1822 7.6004 59.3107
#
#
#
# Elastic Compliance Matrix: (Units=1/GPa)
#
#
# Indices 1 2 3 4 5 6 
#
# 1 0.005402 -0.001387 -0.003212 0.002322 0.000079 -0.001173
# 2 -0.001387 0.009516 -0.000153 -0.009105 -0.004358 0.003802
# 3 -0.003212 -0.000153 0.021243 -0.012498 -0.000600 0.001397
# 4 0.002322 -0.009105 -0.012498 0.046152 0.012756 -0.008058
# 5 0.000079 -0.004358 -0.000600 0.012756 0.027176 -0.005648
# 6 -0.001173 0.003802 0.001397 -0.008058 -0.005648 0.019332
#
#
# Mechanical properties :
#
#
# Convention : Reuss Voigt Hill
#
# Bulk Modulus (GPa) = 37.51440 69.60371 53.55906
# Shear Modulus (GPa) = 33.96526 50.28925 42.12725
#
# Velocity S-wave (km/s) = 3.59744 4.37737 4.00643
# Velocity P-wave (km/s) = 5.61687 7.21590 6.46600
#
# Compressibility (1/GPa) = 0.02665643
#
# Stress axis : x y z
#
# Youngs Moduli (GPa) = 185.13161 105.08831 47.07494
#
# Poissons Ratio (x) = 0.14574 0.15121
# Poissons Ratio (y) = 0.25675 0.00719
# Poissons Ratio (z) = 0.59467 0.01606
#
# Static dielectric constant tensor:
#      x y z
#    x 2.110310 -0.047500 0.017260 
#    y -0.047500 2.116310 0.037360 
#    z 0.017260 0.037360 2.185330 
# 
# From -- ./inp_files/330045.got.cif
#   From: 2010.05.17/outbox.cif.g08.bks.cpg/sg2_166_cif.got.tgz:330045.got - 2010.06.03 11:33:40.
