data_PCOD9012568
_publ_section_title
;
Structure prediction by ZEFSAII (Michael W. Deem and Ramdas Pophale) SiO2 
 PCOD9012568
Probable space group: P -1
;
_chemical_formula_sum "Si O2"
_cell_formula_units_Z 12
_cell_length_a 8.012005
_cell_length_b 7.550461
_cell_length_c 13.943924
_cell_angle_alpha 136.732442
_cell_angle_beta 51.201547
_cell_angle_gamma 105.296073
_cell_volume 420.333674
_symmetry_space_group_name_H-M "P -1"
_symmetry_group_IT_number 2
_symmetry_cell_setting 'triclinic'
loop_
_space_group_symop_operation_xyz
x,y,z
-x,-y,-z
loop_
_atom_site_type_symbol
_atom_site_label
_atom_site_fract_x
_atom_site_fract_y
_atom_site_fract_z
Si Si1 0.893580 0.666218 0.407053
Si Si2 0.240370 0.823796 0.795814
Si Si3 0.714794 0.061525 0.401189
Si Si4 0.756851 0.194186 0.891427
Si Si5 0.301856 0.332109 0.317617
Si Si6 0.357130 0.702928 0.241899
O O1 0.771283 0.480060 0.329463
O O2 0.864168 0.638390 0.519811
O O3 0.164090 0.564280 0.253821
O O4 0.772335 0.986963 0.549804
O O5 0.291225 0.907503 0.702451
O O6 0.442158 0.809382 0.788484
O O7 0.000000 0.000000 0.000000
O O8 0.712890 0.350151 0.563203
O O9 0.500000 0.000000 0.500000
O O10 0.977897 0.842177 0.231008
O O11 0.631650 0.225764 0.846108
O O12 0.745679 0.906030 0.822718
O O13 0.596969 0.486428 0.109333
#
# Coordination Sequence:
#
# PCOD9012568 Si02
#       6
#     2   2   2   2   2   2
#     4   9  18  37  67 101 135 189 250 286 356 437
#     4  11  24  45  74 102 150 200 246 292 373 453
#     4  11  25  45  73 111 151 189 245 316 367 425
#     4  10  21  40  71 107 148 182 253 304 368 429
#     4  10  22  43  71 101 141 203 241 289 376 453
#     4   9  19  36  68 108 141 190 241 308 360 441
#
# _framework density 28.548748
#
# number of rings (size 3 to 8) (size 9 to 14) (size 15 to 20)
#    0.000    2.000    0.000    3.500    4.667    0.000 
#    0.000   13.333    0.000    0.000    0.000    0.000 
#    0.000    0.000    0.000    0.000    0.000    0.000 
#
# Total GULP energy -67202.295156 kJ/mol
# GULP energy per Si atom -5600.191263 kJ/mol
# Density = 2.848377 g / cm^3
# Si number density = 28.548748 Si / 1000 Ang^3
#
#
#
# Elastic Constant Matrix: (Units=GPa)
#
#
# Indices 1 2 3 4 5 6 
#
# 1 91.0270 48.7094 47.5492 -7.9884 -23.6551 14.0382
# 2 48.7094 231.9179 93.2545 2.3561 -28.6616 12.8158
# 3 47.5492 93.2545 225.3174 -17.2569 -43.3309 -1.6072
# 4 -7.9884 2.3561 -17.2569 49.4726 0.3603 -13.6485
# 5 -23.6551 -28.6616 -43.3309 0.3603 55.6486 -3.5104
# 6 14.0382 12.8158 -1.6072 -13.6485 -3.5104 49.3608
#
#
#
# Elastic Compliance Matrix: (Units=1/GPa)
#
#
# Indices 1 2 3 4 5 6 
#
# 1 0.014261 -0.001763 -0.001499 0.000979 0.003784 -0.003107
# 2 -0.001763 0.005649 -0.002003 -0.001657 0.000519 -0.001452
# 3 -0.001499 -0.002003 0.006476 0.002679 0.003491 0.002146
# 4 0.000979 -0.001657 0.002679 0.023248 0.001927 0.006804
# 5 0.003784 0.000519 0.003491 0.001927 0.022618 0.001044
# 6 -0.003107 -0.001452 0.002146 0.006804 0.001044 0.023545
#
#
# Mechanical properties :
#
#
# Convention : Reuss Voigt Hill
#
# Bulk Modulus (GPa) = 63.07456 103.03206 83.05331
# Shear Modulus (GPa) = 44.79826 54.81300 49.80563
#
# Velocity S-wave (km/s) = 3.96559 4.38651 4.18135
# Velocity P-wave (km/s) = 6.56578 7.86279 7.24338
#
# Compressibility (1/GPa) = 0.01585425
#
# Stress axis : x y z
#
# Youngs Moduli (GPa) = 70.12257 177.02580 154.42628
#
# Poissons Ratio (x) = 0.31207 0.23153
# Poissons Ratio (y) = 0.12362 0.30936
# Poissons Ratio (z) = 0.10513 0.35464
#
# Static dielectric constant tensor:
#      x y z
#    x 2.372440 -0.120480 0.058340 
#    y -0.120480 2.314080 0.019730 
#    z 0.058340 0.019730 2.283090 
# 
# From -- ./inp_files/556640.got.cif
#   From: 2010.05.17/outbox.cif.g08.bks.cpg/sg2_279_cif.got.tgz:556640.got - 2010.06.03 11:33:40.
