data_PCOD9012670
_publ_section_title
;
Structure prediction by ZEFSAII (Michael W. Deem and Ramdas Pophale) SiO2 
 PCOD9012670
Probable space group: P -1
;
_chemical_formula_sum "Si O2"
_cell_formula_units_Z 16
_cell_length_a 9.602656
_cell_length_b 8.391717
_cell_length_c 12.517736
_cell_angle_alpha 120.302670
_cell_angle_beta 52.342712
_cell_angle_gamma 115.002726
_cell_volume 679.743733
_symmetry_space_group_name_H-M "P -1"
_symmetry_group_IT_number 2
_symmetry_cell_setting 'triclinic'
loop_
_space_group_symop_operation_xyz
x,y,z
-x,-y,-z
loop_
_atom_site_type_symbol
_atom_site_label
_atom_site_fract_x
_atom_site_fract_y
_atom_site_fract_z
Si Si1 0.472597 0.104870 0.168460
Si Si2 0.819860 0.348523 0.549769
Si Si3 0.233534 0.078625 0.092919
Si Si4 0.865893 0.627810 0.161179
Si Si5 0.963151 0.975542 0.379372
Si Si6 0.656818 0.304103 0.837560
Si Si7 0.751981 0.675657 0.017203
Si Si8 0.476590 0.479376 0.379311
O O1 0.419553 0.166944 0.095637
O O2 0.412500 0.259895 0.321572
O O3 0.358433 0.909449 0.194376
O O4 0.682640 0.085319 0.061923
O O5 0.768927 0.369227 0.703109
O O6 0.664137 0.404075 0.566765
O O7 0.000000 0.500000 0.500000
O O8 0.835537 0.128276 0.462948
O O9 0.159799 0.208274 0.085928
O O10 0.110551 0.038952 0.239022
O O11 0.910719 0.758842 0.290075
O O12 0.667575 0.519081 0.243400
O O13 0.833962 0.755223 0.116476
O O14 0.000000 0.500000 0.000000
O O15 0.000000 0.000000 0.500000
O O16 0.742586 0.453145 0.935550
O O17 0.454811 0.312150 0.899157
O O18 0.500000 0.500000 0.500000
#
# Coordination Sequence:
#
# PCOD9012670 Si02
#       8
#     2   2   2   2   2   2   2   2
#     4  10  22  41  74 108 144 198 254 317 383 465
#     4  12  27  46  77 109 157 206 261 317 395 471
#     4  10  22  42  74 107 144 192 263 313 376 464
#     4  12  30  50  77 113 160 205 262 332 398 461
#     4  12  29  49  77 113 156 208 266 322 399 482
#     4  10  21  40  74 107 145 193 251 317 376 466
#     4  10  22  43  72 107 148 195 255 320 387 453
#     4  12  29  49  72 114 163 205 260 329 403 464
#
# _framework density 23.538281999999999
#
# number of rings (size 3 to 8) (size 9 to 14) (size 15 to 20)
#    0.000    1.000    1.250    3.750   14.000    4.000 
#    0.000    0.000    0.000    0.000    0.000    0.000 
#    0.000    0.000    0.000    0.000    0.000    0.000 
#
# Total GULP energy -89150.432015 kJ/mol
# GULP energy per Si atom -5571.902001 kJ/mol
# Density = 2.348471 g / cm^3
# Si number density = 23.538282 Si / 1000 Ang^3
#
#
#
# Elastic Constant Matrix: (Units=GPa)
#
#
# Indices 1 2 3 4 5 6 
#
# 1 105.8202 44.9571 71.6520 8.8070 12.4431 -21.0840
# 2 44.9571 100.0112 53.2167 2.4955 10.0053 -18.3460
# 3 71.6520 53.2167 97.9176 -11.7555 7.2423 -27.4730
# 4 8.8070 2.4955 -11.7555 56.4564 -2.7804 -11.3016
# 5 12.4431 10.0053 7.2423 -2.7804 39.5364 -7.8226
# 6 -21.0840 -18.3460 -27.4730 -11.3016 -7.8226 26.1749
#
#
#
# Elastic Compliance Matrix: (Units=1/GPa)
#
#
# Indices 1 2 3 4 5 6 
#
# 1 0.022460 -0.000637 -0.019062 -0.009344 -0.005674 -0.008092
# 2 -0.000637 0.014593 -0.007488 -0.002163 -0.002222 0.000258
# 3 -0.019062 -0.007488 0.037879 0.017394 0.007923 0.029033
# 4 -0.009344 -0.002163 0.017394 0.027893 0.006876 0.023312
# 5 -0.005674 -0.002222 0.007923 0.006876 0.029434 0.013954
# 6 -0.008092 0.000258 0.029033 0.023312 0.013954 0.076576
#
#
# Mechanical properties :
#
#
# Convention : Reuss Voigt Hill
#
# Bulk Modulus (GPa) = 48.64054 71.48894 60.06474
# Shear Modulus (GPa) = 18.51435 33.36175 25.93805
#
# Velocity S-wave (km/s) = 2.80762 3.76884 3.32317
# Velocity P-wave (km/s) = 5.58745 7.02682 6.34806
#
# Compressibility (1/GPa) = 0.02055898
#
# Stress axis : x y z
#
# Youngs Moduli (GPa) = 44.52352 68.52509 26.40014
#
# Poissons Ratio (x) = 0.04365 0.50323
# Poissons Ratio (y) = 0.02836 0.19768
# Poissons Ratio (z) = 0.84869 0.51310
#
# Static dielectric constant tensor:
#      x y z
#    x 2.016840 0.077630 0.018030 
#    y 0.077630 2.090210 0.178810 
#    z 0.018030 0.178810 2.384710 
# 
# From -- ./inp_files/383134.got.cif
#   From: 2010.05.17/outbox.cif.g08.bks.cpg/sg2_192_cif.got.tgz:383134.got - 2010.06.03 11:33:40.
