data_PCOD9012038
_publ_section_title
;
Structure prediction by ZEFSAII (Michael W. Deem and Ramdas Pophale) SiO2 
 PCOD9012038
Probable space group: P -1
;
_chemical_formula_sum "Si O2"
_cell_formula_units_Z 16
_cell_length_a 8.142162
_cell_length_b 12.673779
_cell_length_c 14.226463
_cell_angle_alpha 30.994048
_cell_angle_beta 102.403465
_cell_angle_gamma 110.076821
_cell_volume 700.385319
_symmetry_space_group_name_H-M "P -1"
_symmetry_group_IT_number 2
_symmetry_cell_setting 'triclinic'
loop_
_space_group_symop_operation_xyz
x,y,z
-x,-y,-z
loop_
_atom_site_type_symbol
_atom_site_label
_atom_site_fract_x
_atom_site_fract_y
_atom_site_fract_z
Si Si1 0.160177 0.953623 0.108492
Si Si2 0.093517 0.594099 0.842421
Si Si3 0.164057 0.191988 0.117096
Si Si4 0.540189 0.769838 0.562595
Si Si5 0.489963 0.204035 0.242283
Si Si6 0.069877 0.169060 0.507912
Si Si7 0.776821 0.492249 0.573401
Si Si8 0.599986 0.643840 0.264748
O O1 0.158123 0.709219 0.288898
O O2 0.151713 0.032819 0.152082
O O3 0.333017 0.122096 0.952807
O O4 0.000000 0.000000 0.000000
O O5 0.298978 0.709988 0.802494
O O6 0.010575 0.746431 0.656634
O O7 0.085892 0.384471 0.938891
O O8 0.000000 0.500000 0.000000
O O9 0.369995 0.295558 0.091124
O O10 0.058793 0.054870 0.296858
O O11 0.561992 0.766413 0.679833
O O12 0.734749 0.840222 0.485852
O O13 0.431693 0.543125 0.675445
O O14 0.443480 0.951226 0.400920
O O15 0.099642 0.342419 0.463747
O O16 0.736818 0.610180 0.385250
O O17 0.586245 0.397014 0.674370
#
# Coordination Sequence:
#
# PCOD9012038 Si02
#       8
#     2   2   2   2   2   2   2   2
#     4  12  25  40  64  96 128 163 208 262 316 373
#     4  12  26  43  66  94 128 168 210 259 315 375
#     4  12  26  42  65  94 128 169 210 260 316 373
#     4  10  21  40  68  92 124 168 207 259 314 369
#     4  11  23  40  64  94 125 164 211 256 312 374
#     4  11  24  44  65  93 129 165 211 261 315 376
#     4  10  23  42  67  92 124 169 210 259 317 372
#     4  10  22  43  65  91 126 166 213 258 310 377
#
# _framework density 22.844570000000001
#
# number of rings (size 3 to 8) (size 9 to 14) (size 15 to 20)
#    0.000    1.000    0.000    6.750    0.000    7.500 
#    0.000    7.500    0.000    0.000    0.000    0.000 
#    0.000    0.000    0.000    0.000    0.000    0.000 
#
# Total GULP energy -89619.613353 kJ/mol
# GULP energy per Si atom -5601.225835 kJ/mol
# Density = 2.279257 g / cm^3
# Si number density = 22.844570 Si / 1000 Ang^3
#
#
#
# Elastic Constant Matrix: (Units=GPa)
#
#
# Indices 1 2 3 4 5 6 
#
# 1 46.8317 28.0207 11.0291 3.3005 -5.5801 -1.4483
# 2 28.0207 105.2909 8.5876 -4.6783 9.0639 -9.5623
# 3 11.0291 8.5876 83.7130 1.5433 4.0555 -7.5731
# 4 3.3005 -4.6783 1.5433 38.8707 -4.5668 7.3075
# 5 -5.5801 9.0639 4.0555 -4.5668 44.8824 -4.8518
# 6 -1.4483 -9.5623 -7.5731 7.3075 -4.8518 39.1977
#
#
#
# Elastic Compliance Matrix: (Units=1/GPa)
#
#
# Indices 1 2 3 4 5 6 
#
# 1 0.027369 -0.007601 -0.003052 -0.002471 0.004923 -0.000363
# 2 -0.007601 0.012020 0.000074 0.001351 -0.003021 0.002040
# 3 -0.003052 0.000074 0.012633 -0.000833 -0.001369 0.002332
# 4 -0.002471 0.001351 -0.000833 0.027237 0.001750 -0.004784
# 5 0.004923 -0.003021 -0.001369 0.001750 0.024002 0.001825
# 6 -0.000363 0.002040 0.002332 -0.004784 0.001825 0.027564
#
#
# Mechanical properties :
#
#
# Convention : Reuss Voigt Hill
#
# Bulk Modulus (GPa) = 32.39998 36.79004 34.59501
# Shear Modulus (GPa) = 30.81289 37.13669 33.97479
#
# Velocity S-wave (km/s) = 3.67659 4.03628 3.86063
# Velocity P-wave (km/s) = 5.67774 6.15317 5.92023
#
# Compressibility (1/GPa) = 0.03086421
#
# Stress axis : x y z
#
# Youngs Moduli (GPa) = 36.53716 83.19680 79.16013
#
# Poissons Ratio (x) = 0.63241 0.24159
# Poissons Ratio (y) = 0.27773 -0.00589
# Poissons Ratio (z) = 0.11151 -0.00619
#
# Static dielectric constant tensor:
#      x y z
#    x 1.834070 -0.011430 -0.038370 
#    y -0.011430 1.813490 -0.026430 
#    z -0.038370 -0.026430 1.858760 
# 
# From -- ./inp_files/499758.got.cif
#   From: 2010.05.17/outbox.cif.g08.bks.cpg/sg2_250_cif.got.tgz:499758.got - 2010.06.03 11:33:40.
