data_PCOD9012845
_publ_section_title
;
Structure prediction by ZEFSAII (Michael W. Deem and Ramdas Pophale) SiO2 
 PCOD9012845
Probable space group: P -1
;
_chemical_formula_sum "Si O2"
_cell_formula_units_Z 16
_cell_length_a 7.809822
_cell_length_b 16.531231
_cell_length_c 14.071686
_cell_angle_alpha 151.611238
_cell_angle_beta 75.546416
_cell_angle_gamma 119.606561
_cell_volume 671.560413
_symmetry_space_group_name_H-M "P -1"
_symmetry_group_IT_number 2
_symmetry_cell_setting 'triclinic'
loop_
_space_group_symop_operation_xyz
x,y,z
-x,-y,-z
loop_
_atom_site_type_symbol
_atom_site_label
_atom_site_fract_x
_atom_site_fract_y
_atom_site_fract_z
Si Si1 0.983270 0.136666 0.562226
Si Si2 0.525730 0.583353 0.189169
Si Si3 0.966303 0.656691 0.721605
Si Si4 0.690521 0.846766 0.137407
Si Si5 0.328218 0.029092 0.938078
Si Si6 0.508224 0.661758 0.595182
Si Si7 0.265341 0.962847 0.159328
Si Si8 0.643716 0.042175 0.652283
O O1 0.232811 0.337464 0.726847
O O2 0.892717 0.020661 0.354833
O O3 0.800153 0.151625 0.652129
O O4 0.000000 0.000000 0.500000
O O5 0.517137 0.785137 0.398582
O O6 0.500000 0.500000 0.000000
O O7 0.359455 0.375706 0.058517
O O8 0.705699 0.500403 0.604892
O O9 0.000000 0.500000 0.500000
O O10 0.090206 0.853962 0.834949
O O11 0.097141 0.762779 0.910225
O O12 0.709566 0.880223 0.056423
O O13 0.502443 0.874311 0.225281
O O14 0.481776 0.961926 0.811035
O O15 0.473102 0.182867 0.164680
O O16 0.500000 0.500000 0.500000
O O17 0.705443 0.829552 0.671209
O O18 0.216164 0.905263 0.216313
#
# Coordination Sequence:
#
# PCOD9012845 Si02
#       8
#     2   2   2   2   2   2   2   2
#     4  10  21  43  64  93 128 161 209 261 309 378
#     4  11  23  43  66  88 124 175 203 255 329 363
#     4  11  19  41  69  83 123 170 202 246 314 372
#     4  11  23  43  65  94 129 165 209 264 314 373
#     4  10  22  39  64  92 123 161 209 258 304 371
#     4  11  23  39  59  92 124 162 205 253 308 365
#     4  10  21  41  61  93 124 159 209 257 303 370
#     4  10  23  43  64  95 131 159 213 268 306 378
#
# _framework density 23.825109000000001
#
# number of rings (size 3 to 8) (size 9 to 14) (size 15 to 20)
#    0.000    1.500    5.000    1.125    1.750    3.500 
#    9.000    0.000    0.000    0.000    0.000    0.000 
#    0.000    0.000    0.000    0.000    0.000    0.000 
#
# Total GULP energy -89281.346973 kJ/mol
# GULP energy per Si atom -5580.084186 kJ/mol
# Density = 2.377088 g / cm^3
# Si number density = 23.825109 Si / 1000 Ang^3
#
#
#
# Elastic Constant Matrix: (Units=GPa)
#
#
# Indices 1 2 3 4 5 6 
#
# 1 55.2913 10.7210 32.6407 -2.3464 6.9330 -1.1759
# 2 10.7210 104.9254 44.3337 -24.0793 16.2923 -8.1883
# 3 32.6407 44.3337 144.8164 -8.6857 28.1555 -0.2480
# 4 -2.3464 -24.0793 -8.6857 30.7958 -8.9756 4.8359
# 5 6.9330 16.2923 28.1555 -8.9756 49.9922 -8.3458
# 6 -1.1759 -8.1883 -0.2480 4.8359 -8.3458 36.5755
#
#
#
# Elastic Compliance Matrix: (Units=1/GPa)
#
#
# Indices 1 2 3 4 5 6 
#
# 1 0.020879 -0.000084 -0.004647 0.000083 -0.000139 0.000578
# 2 -0.000084 0.013242 -0.003395 0.008986 -0.000506 0.001635
# 3 -0.004647 -0.003395 0.009737 -0.001237 -0.004230 -0.001645
# 4 0.000083 0.008986 -0.001237 0.040894 0.004710 -0.002326
# 5 -0.000139 -0.000506 -0.004230 0.004710 0.024209 0.004755
# 6 0.000578 0.001635 -0.001645 -0.002326 0.004755 0.029107
#
#
# Mechanical properties :
#
#
# Convention : Reuss Voigt Hill
#
# Bulk Modulus (GPa) = 36.22369 53.38044 44.80206
# Shear Modulus (GPa) = 30.57693 37.96187 34.26940
#
# Velocity S-wave (km/s) = 3.58633 3.99602 3.79670
# Velocity P-wave (km/s) = 5.69087 6.61397 6.16971
#
# Compressibility (1/GPa) = 0.02760624
#
# Stress axis : x y z
#
# Youngs Moduli (GPa) = 47.89486 75.51811 102.69634
#
# Poissons Ratio (x) = 0.00634 0.47725
# Poissons Ratio (y) = 0.00402 0.34864
# Poissons Ratio (z) = 0.22258 0.25637
#
# Static dielectric constant tensor:
#      x y z
#    x 1.994980 0.137470 -0.066750 
#    y 0.137470 1.920180 0.124250 
#    z -0.066750 0.124250 1.959960 
# 
# From -- ./inp_files/493459.got.cif
#   From: 2010.05.17/outbox.cif.g08.bks.cpg/sg2_247_cif.got.tgz:493459.got - 2010.06.03 11:33:40.
