data_PCOD9012657
_publ_section_title
;
Structure prediction by ZEFSAII (Michael W. Deem and Ramdas Pophale) SiO2 
 PCOD9012657
Probable space group: P -1
;
_chemical_formula_sum "Si O2"
_cell_formula_units_Z 14
_cell_length_a 7.272206
_cell_length_b 25.688676
_cell_length_c 12.729619
_cell_angle_alpha 20.323167
_cell_angle_beta 133.851680
_cell_angle_gamma 130.551983
_cell_volume 595.611175
_symmetry_space_group_name_H-M "P -1"
_symmetry_group_IT_number 2
_symmetry_cell_setting 'triclinic'
loop_
_space_group_symop_operation_xyz
x,y,z
-x,-y,-z
loop_
_atom_site_type_symbol
_atom_site_label
_atom_site_fract_x
_atom_site_fract_y
_atom_site_fract_z
Si Si1 0.404487 0.719143 0.639258
Si Si2 0.248744 0.897155 0.802082
Si Si3 0.625207 0.446837 0.755915
Si Si4 0.565639 0.154144 0.793375
Si Si5 0.273032 0.421422 0.244685
Si Si6 0.340856 0.864577 0.550648
Si Si7 0.004043 0.242214 0.218194
O O1 0.287897 0.755456 0.411377
O O2 0.582999 0.455344 0.000795
O O3 0.266792 0.807931 0.511529
O O4 0.699237 0.773449 0.654881
O O5 0.163292 0.765328 0.939736
O O6 0.484761 0.990800 0.669181
O O7 0.301892 0.864180 0.007290
O O8 0.000000 0.000000 0.500000
O O9 0.500000 0.500000 0.500000
O O10 0.612386 0.568492 0.611927
O O11 0.519190 0.285918 0.062443
O O12 0.919672 0.398355 0.942724
O O13 0.319315 0.258514 0.524497
O O14 0.500000 0.000000 0.000000
O O15 0.000000 0.500000 0.000000
O O16 0.113610 0.880676 0.514533
#
# Coordination Sequence:
#
# PCOD9012657 Si02
#       7
#     2   2   2   2   2   2   2
#     4  11  22  48  68 101 141 187 234 295 355 426
#     4  12  22  43  66 104 143 188 236 290 360 419
#     4   9  20  40  64  98 133 177 243 285 347 421
#     4  12  25  44  73 105 145 187 242 292 356 434
#     4  11  25  47  72 103 144 188 237 294 361 427
#     4   9  21  39  68  90 143 180 232 289 356 404
#     4  10  21  40  73  90 137 183 227 294 353 406
#
# _framework density 23.505267
#
# number of rings (size 3 to 8) (size 9 to 14) (size 15 to 20)
#    0.857    0.571    2.857    2.571    0.000    0.000 
#    5.143    5.000    0.000    0.000    0.000    0.000 
#    0.000    0.000    0.000    0.000    0.000    0.000 
#
# Total GULP energy -78118.725219 kJ/mol
# GULP energy per Si atom -5579.908944 kJ/mol
# Density = 2.345177 g / cm^3
# Si number density = 23.505267 Si / 1000 Ang^3
#
#
#
# Elastic Constant Matrix: (Units=GPa)
#
#
# Indices 1 2 3 4 5 6 
#
# 1 97.6642 42.2554 30.4884 18.1078 -13.0620 -13.4126
# 2 42.2554 145.2144 55.4932 12.3581 -16.0784 -32.0867
# 3 30.4884 55.4932 93.3820 22.7185 -6.4470 -16.7212
# 4 18.1078 12.3581 22.7185 52.7291 -20.4482 -3.4440
# 5 -13.0620 -16.0784 -6.4470 -20.4482 32.1604 3.6904
# 6 -13.4126 -32.0867 -16.7212 -3.4440 3.6904 38.5441
#
#
#
# Elastic Compliance Matrix: (Units=1/GPa)
#
#
# Indices 1 2 3 4 5 6 
#
# 1 0.012663 -0.002248 -0.001909 -0.002073 0.002168 0.001314
# 2 -0.002248 0.011106 -0.005080 0.002506 0.004520 0.006050
# 3 -0.001909 -0.005080 0.016004 -0.006704 -0.004586 0.001890
# 4 -0.002073 0.002506 -0.006704 0.028672 0.017371 -0.000645
# 5 0.002168 0.004520 -0.004586 0.017371 0.044379 -0.000170
# 6 0.001314 0.006050 0.001890 -0.000645 -0.000170 0.032216
#
#
# Mechanical properties :
#
#
# Convention : Reuss Voigt Hill
#
# Bulk Modulus (GPa) = 46.95424 65.85940 56.40682
# Shear Modulus (GPa) = 29.30591 38.55496 33.93044
#
# Velocity S-wave (km/s) = 3.53481 4.05442 3.80350
# Velocity P-wave (km/s) = 6.05634 7.07089 6.58319
#
# Compressibility (1/GPa) = 0.02129733
#
# Stress axis : x y z
#
# Youngs Moduli (GPa) = 78.97332 90.04130 62.48626
#
# Poissons Ratio (x) = 0.20246 0.11928
# Poissons Ratio (y) = 0.17757 0.31743
# Poissons Ratio (z) = 0.15075 0.45741
#
# Static dielectric constant tensor:
#      x y z
#    x 1.951470 -0.028590 -0.017670 
#    y -0.028590 1.977620 -0.021220 
#    z -0.017670 -0.021220 1.943670 
# 
# From -- ./inp_files/405846.got.cif
#   From: 2010.05.17/outbox.cif.g08.bks.cpg/sg2_203_cif.got.tgz:405846.got - 2010.06.03 11:33:40.
