data_PCOD9012444
_publ_section_title
;
Structure prediction by ZEFSAII (Michael W. Deem and Ramdas Pophale) SiO2 
 PCOD9012444
Probable space group: P -1
;
_chemical_formula_sum "Si O2"
_cell_formula_units_Z 14
_cell_length_a 7.597535
_cell_length_b 9.558638
_cell_length_c 19.416274
_cell_angle_alpha 151.846029
_cell_angle_beta 113.728562
_cell_angle_gamma 81.185680
_cell_volume 538.701681
_symmetry_space_group_name_H-M "P -1"
_symmetry_group_IT_number 2
_symmetry_cell_setting 'triclinic'
loop_
_space_group_symop_operation_xyz
x,y,z
-x,-y,-z
loop_
_atom_site_type_symbol
_atom_site_label
_atom_site_fract_x
_atom_site_fract_y
_atom_site_fract_z
Si Si1 0.759695 0.702164 0.415883
Si Si2 0.169997 0.236275 0.290400
Si Si3 0.619118 0.279833 0.347525
Si Si4 0.385348 0.580679 0.214245
Si Si5 0.046509 0.375772 0.804924
Si Si6 0.263742 0.285354 0.930979
Si Si7 0.149516 0.807442 0.881169
O O1 0.675398 0.551543 0.413028
O O2 0.597601 0.788982 0.383156
O O3 0.777602 0.408167 0.249744
O O4 0.986640 0.035545 0.605939
O O5 0.378535 0.181512 0.292707
O O6 0.225305 0.535618 0.483105
O O7 0.091386 0.291625 0.227724
O O8 0.962293 0.920230 0.152166
O O9 0.656712 0.980781 0.194490
O O10 0.190979 0.674891 0.231756
O O11 0.423385 0.555174 0.127776
O O12 0.295449 0.200612 0.064033
O O13 0.197828 0.415666 0.909944
O O14 0.147794 0.689512 0.906568
#
# Coordination Sequence:
#
# PCOD9012444 Si02
#       7
#     2   2   2   2   2   2   2
#     4  12  23  44  73 104 138 181 239 290 340 411
#     4  10  21  40  70 105 130 184 235 279 343 417
#     4  11  21  39  73 103 137 182 234 287 342 415
#     4  11  25  45  70  98 143 185 229 285 354 414
#     4  12  25  44  71 102 141 183 232 292 345 408
#     4  11  23  46  69 100 143 183 230 287 349 412
#     4  11  24  45  72  98 141 185 235 280 352 417
#
# _framework density 25.988408
#
# number of rings (size 3 to 8) (size 9 to 14) (size 15 to 20)
#    0.000    0.857    4.286    4.286    0.000    1.143 
#    2.571    0.714    0.000    0.000    0.000    0.000 
#    0.000    0.000    0.000    0.000    0.000    0.000 
#
# Total GULP energy -78618.644210 kJ/mol
# GULP energy per Si atom -5615.617444 kJ/mol
# Density = 2.592926 g / cm^3
# Si number density = 25.988408 Si / 1000 Ang^3
#
#
#
# Elastic Constant Matrix: (Units=GPa)
#
#
# Indices 1 2 3 4 5 6 
#
# 1 64.5756 24.5337 16.0599 2.4544 -0.5552 3.8883
# 2 24.5337 184.1449 46.0822 -35.8939 7.9194 -1.3045
# 3 16.0599 46.0822 99.8338 -19.7563 -3.9749 -5.1080
# 4 2.4544 -35.8939 -19.7563 31.5815 -7.7448 -1.1426
# 5 -0.5552 7.9194 -3.9749 -7.7448 38.8594 -4.3096
# 6 3.8883 -1.3045 -5.1080 -1.1426 -4.3096 28.6190
#
#
#
# Elastic Compliance Matrix: (Units=1/GPa)
#
#
# Indices 1 2 3 4 5 6 
#
# 1 0.017877 -0.002959 -0.003168 -0.007183 -0.001298 -0.003611
# 2 -0.002959 0.007795 -0.001462 0.008190 -0.000058 0.000815
# 3 -0.003168 -0.001462 0.013054 0.007743 0.003523 0.003533
# 4 -0.007183 0.008190 0.007743 0.048912 0.009446 0.006106
# 5 -0.001298 -0.000058 0.003523 0.009446 0.028578 0.005483
# 6 -0.003611 0.000815 0.003533 0.006106 0.005483 0.037170
#
#
# Mechanical properties :
#
#
# Convention : Reuss Voigt Hill
#
# Bulk Modulus (GPa) = 42.46447 57.98954 50.22701
# Shear Modulus (GPa) = 28.34243 37.27056 32.80649
#
# Velocity S-wave (km/s) = 3.30598 3.79109 3.55681
# Velocity P-wave (km/s) = 5.56308 6.44401 6.01968
#
# Compressibility (1/GPa) = 0.02354910
#
# Stress axis : x y z
#
# Youngs Moduli (GPa) = 55.93770 128.28148 76.60258
#
# Poissons Ratio (x) = 0.37957 0.24267
# Poissons Ratio (y) = 0.16551 0.11200
# Poissons Ratio (z) = 0.17721 0.18756
#
# Static dielectric constant tensor:
#      x y z
#    x 2.039260 -0.007070 -0.016260 
#    y -0.007070 2.004370 -0.004660 
#    z -0.016260 -0.004660 2.026400 
# 
# From -- ./inp_files/217135.got.cif
#   From: 2010.05.17/outbox.cif.g08.bks.cpg/sg2_109_cif.got.tgz:217135.got - 2010.06.03 11:33:40.
