data_PCOD9012922
_publ_section_title
;
Structure prediction by ZEFSAII (Michael W. Deem and Ramdas Pophale) SiO2 
 PCOD9012922
Probable space group: P -1
;
_chemical_formula_sum "Si O2"
_cell_formula_units_Z 10
_cell_length_a 10.125402
_cell_length_b 8.615269
_cell_length_c 5.220720
_cell_angle_alpha 83.545101
_cell_angle_beta 109.082377
_cell_angle_gamma 95.166959
_cell_volume 426.975901
_symmetry_space_group_name_H-M "P -1"
_symmetry_group_IT_number 2
_symmetry_cell_setting 'triclinic'
loop_
_space_group_symop_operation_xyz
x,y,z
-x,-y,-z
loop_
_atom_site_type_symbol
_atom_site_label
_atom_site_fract_x
_atom_site_fract_y
_atom_site_fract_z
Si Si1 0.971478 0.704098 0.204805
Si Si2 0.350752 0.908528 0.449336
Si Si3 0.133850 0.659962 0.818064
Si Si4 0.553850 0.326948 0.089692
Si Si5 0.285241 0.086505 0.882111
O O1 0.086503 0.719467 0.499223
O O2 0.910025 0.525110 0.185350
O O3 0.845187 0.808399 0.179815
O O4 0.042917 0.733658 0.969774
O O5 0.393169 0.734158 0.587611
O O6 0.500000 0.000000 0.500000
O O7 0.282311 0.989628 0.636545
O O8 0.280300 0.965375 0.136795
O O9 0.299672 0.672384 0.968305
O O10 0.500000 0.500000 0.000000
O O11 0.428996 0.200067 0.954962
#
# Coordination Sequence:
#
# PCOD9012922 Si02
#       5
#     2   2   2   2   2
#     4  10  21  41  62  89 128 167 197 255 324 368
#     4  10  23  41  63  94 132 162 203 260 319 373
#     4  10  22  39  61  94 126 158 210 260 304 366
#     4  11  22  42  66  98 120 165 218 263 298 367
#     4  11  22  44  67  92 126 171 204 253 324 373
#
# _framework density 23.420524
#
# number of rings (size 3 to 8) (size 9 to 14) (size 15 to 20)
#    0.000    1.600    2.000    3.600    0.000    4.800 
#    0.000   16.000    0.000    0.000    0.000    0.000 
#    0.000    0.000    0.000    0.000    0.000    0.000 
#
# Total GULP energy -55894.134779 kJ/mol
# GULP energy per Si atom -5589.413478 kJ/mol
# Density = 2.336722 g / cm^3
# Si number density = 23.420524 Si / 1000 Ang^3
#
#
#
# Elastic Constant Matrix: (Units=GPa)
#
#
# Indices 1 2 3 4 5 6 
#
# 1 135.7843 67.2675 60.5793 13.9976 25.3483 -26.3367
# 2 67.2675 136.3908 63.9204 6.9749 7.3761 3.6474
# 3 60.5793 63.9204 123.5684 3.2150 -20.6939 -14.7198
# 4 13.9976 6.9749 3.2150 22.7803 -4.1989 -1.5128
# 5 25.3483 7.3761 -20.6939 -4.1989 44.8820 8.3643
# 6 -26.3367 3.6474 -14.7198 -1.5128 8.3643 49.0862
#
#
#
# Elastic Compliance Matrix: (Units=1/GPa)
#
#
# Indices 1 2 3 4 5 6 
#
# 1 0.020717 -0.004561 -0.009203 -0.012687 -0.018517 0.011459
# 2 -0.004561 0.011921 -0.004579 -0.000635 -0.000696 -0.004607
# 3 -0.009203 -0.004579 0.017054 0.007264 0.014826 -0.001786
# 4 -0.012687 -0.000635 0.007264 0.053558 0.016706 -0.005777
# 5 -0.018517 -0.000696 0.014826 0.016706 0.043552 -0.012344
# 6 0.011459 -0.004607 -0.001786 -0.005777 -0.012344 0.028253
#
#
# Mechanical properties :
#
#
# Convention : Reuss Voigt Hill
#
# Bulk Modulus (GPa) = 76.88855 86.58643 81.73749
# Shear Modulus (GPa) = 23.14002 36.94810 30.04406
#
# Velocity S-wave (km/s) = 3.14669 3.97620 3.58552
# Velocity P-wave (km/s) = 6.78992 7.62436 7.21921
#
# Compressibility (1/GPa) = 0.01300584
#
# Stress axis : x y z
#
# Youngs Moduli (GPa) = 48.26961 83.88843 58.63558
#
# Poissons Ratio (x) = 0.38259 0.53963
# Poissons Ratio (y) = 0.22014 0.26851
# Poissons Ratio (z) = 0.44423 0.38415
#
# Static dielectric constant tensor:
#      x y z
#    x 1.864160 0.052990 -0.017680 
#    y 0.052990 1.896000 0.019970 
#    z -0.017680 0.019970 1.942440 
# 
# From -- ./inp_files/17388.got.cif
#   From: 2010.05.17/outbox.cif.g08.bks.cpg/sg2_9_cif.got.tgz:17388.got - 2010.06.03 11:33:40.
