data_PCOD9012053
_publ_section_title
;
Structure prediction by ZEFSAII (Michael W. Deem and Ramdas Pophale) SiO2 
 PCOD9012053
Probable space group: P -1
;
_chemical_formula_sum "Si O2"
_cell_formula_units_Z 15
_cell_length_a 7.131532
_cell_length_b 11.420834
_cell_length_c 7.854658
_cell_angle_alpha 84.058328
_cell_angle_beta 68.313876
_cell_angle_gamma 103.071667
_cell_volume 566.557881
_symmetry_space_group_name_H-M "P -1"
_symmetry_group_IT_number 2
_symmetry_cell_setting 'triclinic'
loop_
_space_group_symop_operation_xyz
x,y,z
-x,-y,-z
loop_
_atom_site_type_symbol
_atom_site_label
_atom_site_fract_x
_atom_site_fract_y
_atom_site_fract_z
Si Si1 0.655194 0.896206 0.294566
Si Si2 0.391031 0.515058 0.319564
Si Si3 0.523507 0.654052 0.943450
Si Si4 0.778400 0.162486 0.385362
Si Si5 0.656362 0.922982 0.910859
Si Si6 0.034707 0.366793 0.035038
Si Si7 0.000000 0.000000 0.500000
Si Si8 0.208379 0.319029 0.642029
O O1 0.409512 0.836977 0.423821
O O2 0.772386 0.817363 0.381345
O O3 0.703457 0.035986 0.318627
O O4 0.731401 0.892125 0.076977
O O5 0.507736 0.422476 0.206851
O O6 0.194464 0.418312 0.489397
O O7 0.558004 0.609000 0.369671
O O8 0.359503 0.595201 0.157083
O O9 0.535882 0.793063 0.890500
O O10 0.748097 0.642077 0.944331
O O11 0.969248 0.132936 0.422116
O O12 0.854363 0.280473 0.225073
O O13 0.826038 0.992249 0.710189
O O14 0.500000 0.000000 0.000000
O O15 0.048177 0.312711 0.850293
O O16 0.000000 0.500000 0.000000
#
# Coordination Sequence:
#
# PCOD9012053 Si02
#       8
#     2   2   2   2   2   2   1   2
#     4  11  24  45  70 100 132 180 233 282 341 425
#     4   9  20  37  67  93 123 174 224 266 333 406
#     4  10  21  42  63  93 133 175 221 280 336 405
#     4  11  26  43  71 103 136 177 232 284 352 411
#     4  12  24  44  67  99 136 177 231 279 353 412
#     4  11  24  42  64  96 138 175 219 282 339 402
#     4  12  24  44  68  96 140 180 216 302 336 400
#     4  10  21  40  68  93 128 175 221 276 340 407
#
# _framework density 26.475670000000001
#
# number of rings (size 3 to 8) (size 9 to 14) (size 15 to 20)
#    0.000    1.333    5.333    0.000    7.467    2.133 
#    2.400    0.667    2.933    0.000    0.000    0.000 
#    0.000    0.000    0.000    0.000    0.000    0.000 
#
# Total GULP energy -83716.481585 kJ/mol
# GULP energy per Si atom -5581.098772 kJ/mol
# Density = 2.641541 g / cm^3
# Si number density = 26.475670 Si / 1000 Ang^3
#
#
#
# Elastic Constant Matrix: (Units=GPa)
#
#
# Indices 1 2 3 4 5 6 
#
# 1 88.5093 27.3856 21.5033 -2.4462 -1.9337 -24.4491
# 2 27.3856 148.9166 42.0154 -30.7437 -10.2881 -35.5112
# 3 21.5033 42.0154 207.2550 -33.9983 -10.8578 -11.8393
# 4 -2.4462 -30.7437 -33.9983 50.4936 -3.1851 0.2070
# 5 -1.9337 -10.2881 -10.8578 -3.1851 21.5510 8.4928
# 6 -24.4491 -35.5112 -11.8393 0.2070 8.4928 30.8073
#
#
#
# Elastic Compliance Matrix: (Units=1/GPa)
#
#
# Indices 1 2 3 4 5 6 
#
# 1 0.014959 0.000347 -0.001123 -0.000138 -0.004201 0.012999
# 2 0.000347 0.011246 -0.000451 0.006580 0.001137 0.012707
# 3 -0.001123 -0.000451 0.005818 0.003791 0.003209 -0.000085
# 4 -0.000138 0.006580 0.003791 0.026720 0.006214 0.007039
# 5 -0.004201 0.001137 0.003209 0.006214 0.055455 -0.016119
# 6 0.012999 0.012707 -0.000085 0.007039 -0.016119 0.061787
#
#
# Mechanical properties :
#
#
# Convention : Reuss Voigt Hill
#
# Bulk Modulus (GPa) = 33.81875 69.60995 51.71435
# Shear Modulus (GPa) = 26.55420 44.15546 35.35483
#
# Velocity S-wave (km/s) = 3.17040 4.08827 3.65824
# Velocity P-wave (km/s) = 5.11890 6.97384 6.11709
#
# Compressibility (1/GPa) = 0.02956939
#
# Stress axis : x y z
#
# Youngs Moduli (GPa) = 66.85035 88.92199 171.87923
#
# Poissons Ratio (x) = -0.03084 0.19294
# Poissons Ratio (y) = -0.02318 0.07750
# Poissons Ratio (z) = 0.07504 0.04010
#
# Static dielectric constant tensor:
#      x y z
#    x 2.387550 -0.361280 -0.059130 
#    y -0.361280 3.816960 0.566760 
#    z -0.059130 0.566760 2.279920 
# 
# From -- ./inp_files/169273.got.cif
#   From: 2010.05.17/outbox.cif.g08.bks.cpg/sg2_85_cif.got.tgz:169273.got - 2010.06.03 11:33:40.
