data_PCOD9012399
_publ_section_title
;
Structure prediction by ZEFSAII (Michael W. Deem and Ramdas Pophale) SiO2 
 PCOD9012399
Probable space group: P -1
;
_chemical_formula_sum "Si O2"
_cell_formula_units_Z 14
_cell_length_a 8.447179
_cell_length_b 12.436594
_cell_length_c 8.180511
_cell_angle_alpha 94.942372
_cell_angle_beta 109.095469
_cell_angle_gamma 49.046724
_cell_volume 603.352487
_symmetry_space_group_name_H-M "P -1"
_symmetry_group_IT_number 2
_symmetry_cell_setting 'triclinic'
loop_
_space_group_symop_operation_xyz
x,y,z
-x,-y,-z
loop_
_atom_site_type_symbol
_atom_site_label
_atom_site_fract_x
_atom_site_fract_y
_atom_site_fract_z
Si Si1 0.688829 0.500503 0.504722
Si Si2 0.251129 0.021047 0.743244
Si Si3 0.876359 0.121788 0.115335
Si Si4 0.908425 0.597263 0.779148
Si Si5 0.272797 0.204281 0.959423
Si Si6 0.089085 0.210579 0.406897
Si Si7 0.593817 0.665086 0.180033
O O1 0.500000 0.500000 0.500000
O O2 0.578446 0.630350 0.353854
O O3 0.805216 0.526572 0.683380
O O4 0.880965 0.347962 0.459685
O O5 0.142022 0.155707 0.848571
O O6 0.222093 0.077217 0.559491
O O7 0.160932 0.942461 0.750643
O O8 0.509178 0.914814 0.873686
O O9 0.009292 0.168323 0.227093
O O10 0.631481 0.262063 0.985810
O O11 0.000000 0.000000 0.000000
O O12 0.175177 0.487298 0.824298
O O13 0.805240 0.729693 0.634576
O O14 0.859198 0.657823 0.951769
O O15 0.358890 0.229180 0.828771
#
# Coordination Sequence:
#
# PCOD9012399 Si02
#       7
#     2   2   2   2   2   2   2
#     4  11  26  42  69 100 133 174 221 277 345 395
#     4  10  22  40  65  96 138 172 221 274 325 398
#     4  11  25  42  66  98 136 179 227 272 334 386
#     4  11  23  43  69  98 131 177 224 271 343 398
#     4  10  21  40  69  99 129 177 221 272 335 395
#     4  11  24  44  65  95 140 175 222 279 325 399
#     4  10  23  44  65  95 137 169 226 278 325 400
#
# _framework density 23.203682000000001
#
# number of rings (size 3 to 8) (size 9 to 14) (size 15 to 20)
#    0.000    1.429    0.000    5.143    6.000    4.000 
#    2.571    0.000    0.000    0.000    0.000    0.000 
#    0.000    0.000    0.000    0.000    0.000    0.000 
#
# Total GULP energy -78261.805372 kJ/mol
# GULP energy per Si atom -5590.128955 kJ/mol
# Density = 2.315087 g / cm^3
# Si number density = 23.203682 Si / 1000 Ang^3
#
#
#
# Elastic Constant Matrix: (Units=GPa)
#
#
# Indices 1 2 3 4 5 6 
#
# 1 97.6684 25.7969 48.0817 4.0682 -3.5151 13.3908
# 2 25.7969 78.5360 43.5631 5.1309 13.4822 13.2760
# 3 48.0817 43.5631 117.4020 -14.9913 -7.0821 11.8106
# 4 4.0682 5.1309 -14.9913 53.0117 18.2578 -1.9205
# 5 -3.5151 13.4822 -7.0821 18.2578 36.0104 0.8812
# 6 13.3908 13.2760 11.8106 -1.9205 0.8812 26.2248
#
#
#
# Elastic Compliance Matrix: (Units=1/GPa)
#
#
# Indices 1 2 3 4 5 6 
#
# 1 0.013925 -0.001228 -0.005071 -0.003477 0.002696 -0.004550
# 2 -0.001228 0.019281 -0.006678 -0.001146 -0.007925 -0.005944
# 3 -0.005071 -0.006678 0.013747 0.003999 0.002682 -0.000018
# 4 -0.003477 -0.001146 0.003999 0.024465 -0.011595 0.002736
# 5 0.002696 -0.007925 0.002682 -0.011595 0.037423 -0.000679
# 6 -0.004550 -0.005944 -0.000018 0.002736 -0.000679 0.043696
#
#
# Mechanical properties :
#
#
# Convention : Reuss Voigt Hill
#
# Bulk Modulus (GPa) = 47.62088 58.72108 53.17098
# Shear Modulus (GPa) = 26.95574 34.79369 30.87471
#
# Velocity S-wave (km/s) = 3.41207 3.87653 3.65169
# Velocity P-wave (km/s) = 6.00754 6.73783 6.38314
#
# Compressibility (1/GPa) = 0.02099919
#
# Stress axis : x y z
#
# Youngs Moduli (GPa) = 71.81214 51.86559 72.74433
#
# Poissons Ratio (x) = 0.06367 0.36890
# Poissons Ratio (y) = 0.08815 0.48579
# Poissons Ratio (z) = 0.36417 0.34636
#
# Static dielectric constant tensor:
#      x y z
#    x 1.849090 0.021380 -0.048590 
#    y 0.021380 1.956720 -0.043210 
#    z -0.048590 -0.043210 1.890520 
# 
# From -- ./inp_files/202054.got.cif
#   From: 2010.05.17/outbox.cif.g08.bks.cpg/sg2_102_cif.got.tgz:202054.got - 2010.06.03 11:33:40.
