data_PCOD9012585
_publ_section_title
;
Structure prediction by ZEFSAII (Michael W. Deem and Ramdas Pophale) SiO2 
 PCOD9012585
Probable space group: P -1
;
_chemical_formula_sum "Si O2"
_cell_formula_units_Z 11
_cell_length_a 5.154393
_cell_length_b 7.987735
_cell_length_c 18.133403
_cell_angle_alpha 37.016545
_cell_angle_beta 126.410129
_cell_angle_gamma 120.321452
_cell_volume 360.999012
_symmetry_space_group_name_H-M "P -1"
_symmetry_group_IT_number 2
_symmetry_cell_setting 'triclinic'
loop_
_space_group_symop_operation_xyz
x,y,z
-x,-y,-z
loop_
_atom_site_type_symbol
_atom_site_label
_atom_site_fract_x
_atom_site_fract_y
_atom_site_fract_z
Si Si1 0.638206 0.939763 0.373785
Si Si2 0.874325 0.437489 0.784943
Si Si3 0.500000 0.000000 0.500000
Si Si4 0.570813 0.320139 0.921719
Si Si5 0.967407 0.452165 0.597584
Si Si6 0.588683 0.039984 0.165840
O O1 0.975260 0.784558 0.502182
O O2 0.369806 0.703004 0.382928
O O3 0.672209 0.095582 0.245827
O O4 0.491186 0.019873 0.398486
O O5 0.832457 0.433964 0.867348
O O6 0.759456 0.122937 0.848759
O O7 0.237581 0.472623 0.803310
O O8 0.663273 0.684499 0.632761
O O9 0.500000 0.000000 0.000000
O O10 0.648013 0.295810 0.029915
O O11 0.000000 0.500000 0.500000
O O12 0.205340 0.215175 0.737817
#
# Coordination Sequence:
#
# PCOD9012585 Si02
#       6
#     2   2   1   2   2   2
#     4  10  22  38  61  93 131 174 220 276 330 397
#     4  11  25  43  68 105 134 179 219 277 339 400
#     4  12  26  44  62  96 144 182 214 272 344 420
#     4  10  23  42  71 104 131 171 229 285 329 387
#     4   9  18  36  61  95 119 166 226 274 323 376
#     4  10  21  40  71  96 124 168 231 287 323 384
#
# _framework density 30.470998000000002
#
# number of rings (size 3 to 8) (size 9 to 14) (size 15 to 20)
#    0.000    1.818    0.000    5.455   12.727    0.727 
#    6.545    1.818    0.000    0.000    0.000    0.000 
#    0.000    0.000    0.000    0.000    0.000    0.000 
#
# Total GULP energy -61359.653329 kJ/mol
# GULP energy per Si atom -5578.150303 kJ/mol
# Density = 3.040164 g / cm^3
# Si number density = 30.470998 Si / 1000 Ang^3
#
#
#
# Elastic Constant Matrix: (Units=GPa)
#
#
# Indices 1 2 3 4 5 6 
#
# 1 151.5338 30.9045 65.7359 14.1709 -38.8082 -38.5190
# 2 30.9045 132.2736 18.8196 4.9081 -11.8197 -33.6612
# 3 65.7359 18.8196 188.6308 14.4549 -28.5759 -23.3617
# 4 14.1709 4.9081 14.4549 52.3061 -18.5868 -18.0516
# 5 -38.8082 -11.8197 -28.5759 -18.5868 75.8008 4.7330
# 6 -38.5190 -33.6612 -23.3617 -18.0516 4.7330 65.7368
#
#
#
# Elastic Compliance Matrix: (Units=1/GPa)
#
#
# Indices 1 2 3 4 5 6 
#
# 1 0.009811 -0.000445 -0.002256 0.001085 0.004075 0.004724
# 2 -0.000445 0.008884 -0.000094 0.001285 0.001154 0.004525
# 3 -0.002256 -0.000094 0.006382 -0.000533 0.001064 0.000675
# 4 0.001085 0.001285 -0.000533 0.023379 0.005844 0.007104
# 5 0.004075 0.001154 0.001064 0.005844 0.017059 0.003733
# 6 0.004724 0.004525 0.000675 0.007104 0.003733 0.022219
#
#
# Mechanical properties :
#
#
# Convention : Reuss Voigt Hill
#
# Bulk Modulus (GPa) = 51.31502 78.15090 64.73296
# Shear Modulus (GPa) = 50.08894 62.56729 56.32812
#
# Velocity S-wave (km/s) = 4.05881 4.53629 4.30418
# Velocity P-wave (km/s) = 6.23237 7.28976 6.78170
#
# Compressibility (1/GPa) = 0.01948747
#
# Stress axis : x y z
#
# Youngs Moduli (GPa) = 101.92310 112.55597 156.68013
#
# Poissons Ratio (x) = 0.05013 0.35340
# Poissons Ratio (y) = 0.04540 0.01479
# Poissons Ratio (z) = 0.22989 0.01063
#
# Static dielectric constant tensor:
#      x y z
#    x 2.233760 0.208430 0.059070 
#    y 0.208430 2.471900 0.043020 
#    z 0.059070 0.043020 2.471780 
# 
# From -- ./inp_files/62280.got.cif
#   From: 2010.05.17/outbox.cif.g08.bks.cpg/sg2_32_cif.got.tgz:62280.got - 2010.06.03 11:33:40.
