data_PCOD9012832
_publ_section_title
;
Structure prediction by ZEFSAII (Michael W. Deem and Ramdas Pophale) SiO2 
 PCOD9012832
Probable space group: P -1
;
_chemical_formula_sum "Si O2"
_cell_formula_units_Z 12
_cell_length_a 13.142312
_cell_length_b 16.635138
_cell_length_c 8.891993
_cell_angle_alpha 138.511191
_cell_angle_beta 133.967696
_cell_angle_gamma 23.499804
_cell_volume 513.329871
_symmetry_space_group_name_H-M "P -1"
_symmetry_group_IT_number 2
_symmetry_cell_setting 'triclinic'
loop_
_space_group_symop_operation_xyz
x,y,z
-x,-y,-z
loop_
_atom_site_type_symbol
_atom_site_label
_atom_site_fract_x
_atom_site_fract_y
_atom_site_fract_z
Si Si1 0.542598 0.270364 0.162323
Si Si2 0.267238 0.001568 0.278333
Si Si3 0.649532 0.766529 0.836205
Si Si4 0.264625 0.893537 0.441363
Si Si5 0.126782 0.374669 0.613141
Si Si6 0.772401 0.295484 0.674766
O O1 0.406262 0.261219 0.103234
O O2 0.648555 0.290051 0.419882
O O3 0.362990 0.480045 0.165538
O O4 0.759020 0.057661 0.982288
O O5 0.190723 0.987361 0.331192
O O6 0.574338 0.805000 0.327730
O O7 0.127249 0.229692 0.439633
O O8 0.530246 0.763976 0.581714
O O9 0.946624 0.564750 0.819943
O O10 0.500000 0.000000 0.000000
O O11 0.262025 0.751916 0.271902
O O12 0.062717 0.094136 0.634965
O O13 0.000000 0.500000 0.500000
#
# Coordination Sequence:
#
# PCOD9012832 Si02
#       6
#     2   2   2   2   2   2
#     4  10  22  40  62  93 120 170 212 259 312 370
#     4  11  24  39  66  94 128 169 206 258 322 372
#     4  11  23  39  66  93 129 167 209 260 319 372
#     4  10  21  41  61  92 123 169 209 259 313 370
#     4  11  23  42  60  95 137 163 204 257 319 384
#     4   9  21  42  63  85 130 164 216 261 300 375
#
# _framework density 23.376783
#
# number of rings (size 3 to 8) (size 9 to 14) (size 15 to 20)
#    0.000    1.667    1.667    2.000    4.667    2.000 
#    3.000    0.000    0.000    0.000    0.000    0.000 
#    0.000    0.000    0.000    0.000    0.000    0.000 
#
# Total GULP energy -67129.432911 kJ/mol
# GULP energy per Si atom -5594.119409 kJ/mol
# Density = 2.332358 g / cm^3
# Si number density = 23.376783 Si / 1000 Ang^3
#
#
#
# Elastic Constant Matrix: (Units=GPa)
#
#
# Indices 1 2 3 4 5 6 
#
# 1 160.4001 52.1581 51.6649 12.4374 0.2166 41.9086
# 2 52.1581 113.2959 30.1599 24.7575 14.4992 21.1215
# 3 51.6649 30.1599 69.6443 23.1483 3.3129 24.1286
# 4 12.4374 24.7575 23.1483 44.1988 5.3755 5.0440
# 5 0.2166 14.4992 3.3129 5.3755 26.7470 0.5012
# 6 41.9086 21.1215 24.1286 5.0440 0.5012 53.3800
#
#
#
# Elastic Compliance Matrix: (Units=1/GPa)
#
#
# Indices 1 2 3 4 5 6 
#
# 1 0.009901 -0.003000 -0.005242 0.001913 0.001894 -0.004415
# 2 -0.003000 0.012518 -0.000675 -0.004924 -0.005655 -0.001774
# 3 -0.005242 -0.000675 0.023723 -0.009901 -0.000439 -0.005401
# 4 0.001913 -0.004924 -0.009901 0.030058 -0.002200 0.002102
# 5 0.001894 -0.005655 -0.000439 -0.002200 0.040920 0.000773
# 6 -0.004415 -0.001774 -0.005401 0.002102 0.000773 0.025137
#
#
# Mechanical properties :
#
#
# Convention : Reuss Voigt Hill
#
# Bulk Modulus (GPa) = 35.32700 67.92291 51.62495
# Shear Modulus (GPa) = 29.49380 38.82232 34.15806
#
# Velocity S-wave (km/s) = 3.55585 4.07962 3.82671
# Velocity P-wave (km/s) = 5.65717 7.16309 6.45420
#
# Compressibility (1/GPa) = 0.02830696
#
# Stress axis : x y z
#
# Youngs Moduli (GPa) = 100.99822 79.88718 42.15331
#
# Poissons Ratio (x) = 0.23966 0.22098
# Poissons Ratio (y) = 0.30299 0.02846
# Poissons Ratio (z) = 0.52946 0.05394
#
# Static dielectric constant tensor:
#      x y z
#    x 1.872560 -0.015770 -0.008960 
#    y -0.015770 1.930440 -0.051000 
#    z -0.008960 -0.051000 1.891620 
# 
# From -- ./inp_files/183196.got.cif
#   From: 2010.05.17/outbox.cif.g08.bks.cpg/sg2_92_cif.got.tgz:183196.got - 2010.06.03 11:33:40.
