data_PCOD9012132
_publ_section_title
;
Structure prediction by ZEFSAII (Michael W. Deem and Ramdas Pophale) SiO2 
 PCOD9012132
Probable space group: P -1
;
_chemical_formula_sum "Si O2"
_cell_formula_units_Z 12
_cell_length_a 8.411001
_cell_length_b 9.175426
_cell_length_c 10.868848
_cell_angle_alpha 39.623030
_cell_angle_beta 74.772641
_cell_angle_gamma 77.667708
_cell_volume 516.062398
_symmetry_space_group_name_H-M "P -1"
_symmetry_group_IT_number 2
_symmetry_cell_setting 'triclinic'
loop_
_space_group_symop_operation_xyz
x,y,z
-x,-y,-z
loop_
_atom_site_type_symbol
_atom_site_label
_atom_site_fract_x
_atom_site_fract_y
_atom_site_fract_z
Si Si1 0.901481 0.604063 0.565335
Si Si2 0.955154 0.181156 0.996530
Si Si3 0.127077 0.924682 0.672569
Si Si4 0.379338 0.142997 0.289973
Si Si5 0.236828 0.426827 0.909315
Si Si6 0.482315 0.318854 0.411396
O O1 0.905396 0.420693 0.791755
O O2 0.707099 0.625729 0.558307
O O3 0.000000 0.500000 0.500000
O O4 0.984168 0.844222 0.431093
O O5 0.116987 0.235015 0.007880
O O6 0.822071 0.106148 0.173489
O O7 0.000000 0.000000 0.000000
O O8 0.127393 0.659428 0.804448
O O9 0.231820 0.040417 0.468077
O O10 0.486939 0.254935 0.304259
O O11 0.466130 0.910091 0.377422
O O12 0.318779 0.318993 0.085518
O O13 0.378120 0.491011 0.739600
#
# Coordination Sequence:
#
# PCOD9012132 Si02
#       6
#     2   2   2   2   2   2
#     4  11  23  44  68  90 136 183 216 266 335 404
#     4  12  26  44  64  96 140 183 220 271 339 393
#     4  10  21  40  68  97 128 170 223 270 327 390
#     4   9  19  38  68 103 133 168 215 283 337 385
#     4  11  23  41  70 104 133 166 229 283 324 396
#     4   9  20  38  67 100 129 173 220 274 335 391
#
# _framework density 23.253001999999999
#
# number of rings (size 3 to 8) (size 9 to 14) (size 15 to 20)
#    0.000    1.667    1.667    4.000    0.000    8.000 
#    0.000    1.667    0.000    0.000    0.000    0.000 
#    0.000    0.000    0.000    0.000    0.000    0.000 
#
# Total GULP energy -66832.023307 kJ/mol
# GULP energy per Si atom -5569.335276 kJ/mol
# Density = 2.320008 g / cm^3
# Si number density = 23.253002 Si / 1000 Ang^3
#
#
#
# Elastic Constant Matrix: (Units=GPa)
#
#
# Indices 1 2 3 4 5 6 
#
# 1 59.3030 36.5720 21.4790 -12.9143 -9.5243 -14.7704
# 2 36.5720 90.6252 31.7014 -13.8674 -1.5102 -15.8907
# 3 21.4790 31.7014 169.8645 -20.6288 2.5321 -7.4913
# 4 -12.9143 -13.8674 -20.6288 31.8049 -5.8479 -6.3210
# 5 -9.5243 -1.5102 2.5321 -5.8479 43.1257 0.1258
# 6 -14.7704 -15.8907 -7.4913 -6.3210 0.1258 32.0904
#
#
#
# Elastic Compliance Matrix: (Units=1/GPa)
#
#
# Indices 1 2 3 4 5 6 
#
# 1 0.028104 -0.007280 -0.000384 0.011659 0.007522 0.011508
# 2 -0.007280 0.015931 -0.001333 0.004043 -0.000438 0.005025
# 3 -0.000384 -0.001333 0.006728 0.003926 0.000002 0.001507
# 4 0.011659 0.004043 0.003926 0.045488 0.008604 0.017211
# 5 0.007522 -0.000438 0.000002 0.008604 0.025986 0.004838
# 6 0.011508 0.005025 0.001507 0.017211 0.004838 0.042670
#
#
# Mechanical properties :
#
#
# Convention : Reuss Voigt Hill
#
# Bulk Modulus (GPa) = 30.51689 55.47751 42.99720
# Shear Modulus (GPa) = 25.79639 36.74021 31.26830
#
# Velocity S-wave (km/s) = 3.33435 3.97926 3.67099
# Velocity P-wave (km/s) = 5.28925 6.70989 6.04148
#
# Compressibility (1/GPa) = 0.03276874
#
# Stress axis : x y z
#
# Youngs Moduli (GPa) = 35.58154 62.76937 148.63984
#
# Poissons Ratio (x) = 0.45697 0.05705
# Poissons Ratio (y) = 0.25904 0.19821
# Poissons Ratio (z) = 0.01366 0.08370
#
# Static dielectric constant tensor:
#      x y z
#    x 2.023910 -0.000840 -0.060100 
#    y -0.000840 1.910500 -0.014070 
#    z -0.060100 -0.014070 1.914660 
# 
# From -- ./inp_files/380849.got.cif
#   From: 2010.05.17/outbox.cif.g08.bks.cpg/sg2_191_cif.got.tgz:380849.got - 2010.06.03 11:33:40.
