data_PCOD9012327
_publ_section_title
;
Structure prediction by ZEFSAII (Michael W. Deem and Ramdas Pophale) SiO2 
 PCOD9012327
Probable space group: P -1
;
_chemical_formula_sum "Si O2"
_cell_formula_units_Z 16
_cell_length_a 13.568832
_cell_length_b 11.535809
_cell_length_c 5.432473
_cell_angle_alpha 54.424785
_cell_angle_beta 73.827445
_cell_angle_gamma 76.503421
_cell_volume 661.473420
_symmetry_space_group_name_H-M "P -1"
_symmetry_group_IT_number 2
_symmetry_cell_setting 'triclinic'
loop_
_space_group_symop_operation_xyz
x,y,z
-x,-y,-z
loop_
_atom_site_type_symbol
_atom_site_label
_atom_site_fract_x
_atom_site_fract_y
_atom_site_fract_z
Si Si1 0.286870 0.364270 0.334262
Si Si2 0.911594 0.540326 0.815402
Si Si3 0.030757 0.736321 0.202827
Si Si4 0.168719 0.167147 0.971053
Si Si5 0.538225 0.619603 0.501504
Si Si6 0.770096 0.135613 0.896095
Si Si7 0.356830 0.823500 0.567889
Si Si8 0.357129 0.144775 0.188547
O O1 0.211529 0.437057 0.087826
O O2 0.209578 0.312981 0.658247
O O3 0.370137 0.449684 0.303409
O O4 0.351617 0.224189 0.354161
O O5 0.923096 0.411088 0.771363
O O6 0.948853 0.690423 0.514483
O O7 0.000000 0.500000 0.000000
O O8 0.955059 0.821337 0.952992
O O9 0.120529 0.808298 0.184520
O O10 0.207583 0.035199 0.932998
O O11 0.236886 0.138899 0.201276
O O12 0.500000 0.500000 0.500000
O O13 0.445030 0.697507 0.623045
O O14 0.585817 0.747842 0.157256
O O15 0.698640 0.179153 0.126059
O O16 0.719672 0.183093 0.608614
O O17 0.401325 0.980564 0.340245
#
# Coordination Sequence:
#
# PCOD9012327 Si02
#       8
#     2   2   2   2   2   2   2   2
#     4  10  21  40  69  93 134 176 229 279 346 411
#     4  10  22  39  63  98 134 181 227 273 346 420
#     4  10  22  38  63  94 136 181 222 280 341 415
#     4   9  19  41  62 100 131 171 223 278 347 408
#     4  11  27  44  66  99 137 184 231 292 346 414
#     4  11  24  43  69 102 137 177 230 291 339 408
#     4  11  26  46  71 102 140 182 237 285 350 410
#     4  10  21  43  70  97 129 183 227 290 345 419
#
# _framework density 24.188421999999999
#
# number of rings (size 3 to 8) (size 9 to 14) (size 15 to 20)
#    0.000    1.750    1.250    1.500    5.250    3.000 
#    0.000    1.875    0.000    0.000    0.000    0.000 
#    0.000    0.000    0.000    0.000    0.000    0.000 
#
# Total GULP energy -89338.243379 kJ/mol
# GULP energy per Si atom -5583.640211 kJ/mol
# Density = 2.413337 g / cm^3
# Si number density = 24.188422 Si / 1000 Ang^3
#
#
#
# Elastic Constant Matrix: (Units=GPa)
#
#
# Indices 1 2 3 4 5 6 
#
# 1 167.7206 74.7572 21.3357 -0.8129 11.7888 24.6752
# 2 74.7572 117.8851 14.3820 16.0913 5.9232 10.0558
# 3 21.3357 14.3820 34.4374 4.4679 4.2767 13.4190
# 4 -0.8129 16.0913 4.4679 27.0694 1.2537 5.0311
# 5 11.7888 5.9232 4.2767 1.2537 20.6449 4.4624
# 6 24.6752 10.0558 13.4190 5.0311 4.4624 45.4563
#
#
#
# Elastic Compliance Matrix: (Units=1/GPa)
#
#
# Indices 1 2 3 4 5 6 
#
# 1 0.009751 -0.006146 -0.002419 0.005130 -0.002857 -0.003507
# 2 -0.006146 0.013544 -0.001431 -0.008314 0.000063 0.001677
# 3 -0.002419 -0.001431 0.035138 -0.003366 -0.003549 -0.008023
# 4 0.005130 -0.008314 -0.003366 0.043522 -0.001490 -0.004622
# 5 -0.002857 0.000063 -0.003549 -0.001490 0.051373 -0.002294
# 6 -0.003507 0.001677 -0.008023 -0.004622 -0.002294 0.026637
#
#
# Mechanical properties :
#
#
# Convention : Reuss Voigt Hill
#
# Bulk Modulus (GPa) = 26.01374 60.11034 43.06204
# Shear Modulus (GPa) = 23.49961 32.60532 28.05247
#
# Velocity S-wave (km/s) = 3.12031 3.67546 3.40920
# Velocity P-wave (km/s) = 4.87440 6.55109 5.77393
#
# Compressibility (1/GPa) = 0.03844123
#
# Stress axis : x y z
#
# Youngs Moduli (GPa) = 102.55297 73.83542 28.45933
#
# Poissons Ratio (x) = 0.45380 0.06884
# Poissons Ratio (y) = 0.63030 0.04072
# Poissons Ratio (z) = 0.24805 0.10565
#
# Static dielectric constant tensor:
#      x y z
#    x 2.057470 -0.032160 0.101510 
#    y -0.032160 1.904070 -0.025990 
#    z 0.101510 -0.025990 2.082910 
# 
# From -- ./inp_files/68434.got.cif
#   From: 2010.05.17/outbox.cif.g08.bks.cpg/sg2_35_cif.got.tgz:68434.got - 2010.06.03 11:33:40.
