data_PCOD9012276
_publ_section_title
;
Structure prediction by ZEFSAII (Michael W. Deem and Ramdas Pophale) SiO2 
 PCOD9012276
Probable space group: P -1
;
_chemical_formula_sum "Si O2"
_cell_formula_units_Z 11
_cell_length_a 10.176375
_cell_length_b 8.044812
_cell_length_c 8.099052
_cell_angle_alpha 92.533924
_cell_angle_beta 133.990015
_cell_angle_gamma 65.574066
_cell_volume 403.351846
_symmetry_space_group_name_H-M "P -1"
_symmetry_group_IT_number 2
_symmetry_cell_setting 'triclinic'
loop_
_space_group_symop_operation_xyz
x,y,z
-x,-y,-z
loop_
_atom_site_type_symbol
_atom_site_label
_atom_site_fract_x
_atom_site_fract_y
_atom_site_fract_z
Si Si1 0.408248 0.727337 0.916382
Si Si2 0.500000 0.000000 0.000000
Si Si3 0.835163 0.246815 0.709041
Si Si4 0.919302 0.880524 0.556854
Si Si5 0.472706 0.312594 0.629640
Si Si6 0.860866 0.719953 0.822038
O O1 0.534613 0.799605 0.920480
O O2 0.154652 0.817904 0.696981
O O3 0.500000 0.500000 0.000000
O O4 0.469105 0.794141 0.146604
O O5 0.241674 0.103594 0.725414
O O6 0.681683 0.299069 0.737312
O O7 0.715105 0.454445 0.514208
O O8 0.836773 0.077071 0.602209
O O9 0.071200 0.171485 0.984744
O O10 0.937172 0.730157 0.704922
O O11 0.381131 0.223008 0.418259
O O12 0.000000 0.500000 0.000000
#
# Coordination Sequence:
#
# PCOD9012276 Si02
#       6
#     2   1   2   2   2   2
#     4  12  27  49  70 100 146 193 244 294 346 423
#     4  12  28  50  70 102 142 200 244 284 348 432
#     4  10  22  41  71 104 138 175 228 300 359 425
#     4  12  25  47  70 105 143 187 240 290 356 424
#     4  10  21  42  67 103 139 179 229 290 367 414
#     4  10  21  40  69 107 137 177 227 293 365 420
#
# _framework density 27.271477999999998
#
# number of rings (size 3 to 8) (size 9 to 14) (size 15 to 20)
#    0.000    1.091    3.636    2.182    0.000    2.909 
#    6.545    0.000    0.000    0.000    0.000    0.000 
#    0.000    0.000    0.000    0.000    0.000    0.000 
#
# Total GULP energy -61319.258421 kJ/mol
# GULP energy per Si atom -5574.478038 kJ/mol
# Density = 2.720941 g / cm^3
# Si number density = 27.271478 Si / 1000 Ang^3
#
#
#
# Elastic Constant Matrix: (Units=GPa)
#
#
# Indices 1 2 3 4 5 6 
#
# 1 64.0949 5.6483 38.9303 15.8047 7.7773 14.3420
# 2 5.6483 121.6171 42.0613 -0.4603 42.2647 13.4662
# 3 38.9303 42.0613 251.9796 31.6907 24.5050 6.5555
# 4 15.8047 -0.4603 31.6907 42.3934 10.8261 9.3587
# 5 7.7773 42.2647 24.5050 10.8261 55.6818 12.4105
# 6 14.3420 13.4662 6.5555 9.3587 12.4105 36.4455
#
#
#
# Elastic Compliance Matrix: (Units=1/GPa)
#
#
# Indices 1 2 3 4 5 6 
#
# 1 0.019453 0.000596 -0.002443 -0.004029 0.000125 -0.006444
# 2 0.000596 0.012107 -0.001695 0.003950 -0.008752 -0.002437
# 3 -0.002443 -0.001695 0.005012 -0.003124 -0.000327 0.001600
# 4 -0.004029 0.003950 -0.003124 0.030062 -0.005776 -0.005064
# 5 0.000125 -0.008752 -0.000327 -0.005776 0.026835 -0.004411
# 6 -0.006444 -0.002437 0.001600 -0.005064 -0.004411 0.033389
#
#
# Mechanical properties :
#
#
# Convention : Reuss Voigt Hill
#
# Bulk Modulus (GPa) = 33.91098 67.88572 50.89835
# Shear Modulus (GPa) = 34.77708 50.30759 42.54233
#
# Velocity S-wave (km/s) = 3.57489 4.29965 3.95391
# Velocity P-wave (km/s) = 5.43152 7.04244 6.28877
#
# Compressibility (1/GPa) = 0.02948897
#
# Stress axis : x y z
#
# Youngs Moduli (GPa) = 51.40512 82.59357 199.51921
#
# Poissons Ratio (x) = -0.04924 0.48738
# Poissons Ratio (y) = -0.03065 0.33825
# Poissons Ratio (z) = 0.12557 0.14002
#
# Static dielectric constant tensor:
#      x y z
#    x 1.809480 -0.060280 -0.052130 
#    y -0.060280 2.220150 -0.069460 
#    z -0.052130 -0.069460 2.214890 
# 
# From -- ./inp_files/235451.got.cif
#   From: 2010.05.17/outbox.cif.g08.bks.cpg/sg2_118_cif.got.tgz:235451.got - 2010.06.03 11:33:40.
