data_PCOD9012472
_publ_section_title
;
Structure prediction by ZEFSAII (Michael W. Deem and Ramdas Pophale) SiO2 
 PCOD9012472
Probable space group: P -1
;
_chemical_formula_sum "Si O2"
_cell_formula_units_Z 10
_cell_length_a 6.998653
_cell_length_b 8.032549
_cell_length_c 9.004319
_cell_angle_alpha 71.363512
_cell_angle_beta 52.546032
_cell_angle_gamma 78.826373
_cell_volume 380.769207
_symmetry_space_group_name_H-M "P -1"
_symmetry_group_IT_number 2
_symmetry_cell_setting 'triclinic'
loop_
_space_group_symop_operation_xyz
x,y,z
-x,-y,-z
loop_
_atom_site_type_symbol
_atom_site_label
_atom_site_fract_x
_atom_site_fract_y
_atom_site_fract_z
Si Si1 0.024822 0.795961 0.593608
Si Si2 0.749773 0.908138 0.937265
Si Si3 0.736724 0.520690 0.485597
Si Si4 0.027198 0.778408 0.106573
Si Si5 0.416247 0.812085 0.659157
O O1 0.150490 0.661839 0.457064
O O2 0.219041 0.767648 0.641322
O O3 0.790505 0.781677 0.813514
O O4 0.000000 0.000000 0.500000
O O5 0.795391 0.809574 0.099058
O O6 0.500000 0.000000 0.000000
O O7 0.942715 0.067159 0.830351
O O8 0.500000 0.500000 0.500000
O O9 0.639780 0.676177 0.594496
O O10 0.959916 0.596686 0.263829
O O11 0.264601 0.795873 0.887578
O O12 0.500000 0.000000 0.500000
#
# Coordination Sequence:
#
# PCOD9012472 Si02
#       5
#     2   2   2   2   2
#     4  10  23  39  61  96 128 165 222 272 326 391
#     4  10  22  39  68  93 128 176 209 277 333 376
#     4  10  22  40  68  95 128 180 216 270 334 380
#     4  10  22  43  65  97 130 167 234 262 319 412
#     4  10  21  40  70  93 124 178 212 266 334 387
#
# _framework density 26.262630000000001
#
# number of rings (size 3 to 8) (size 9 to 14) (size 15 to 20)
#    0.000    2.000    0.000    3.600    8.400    7.200 
#    0.000    5.000    0.000    0.000    0.000    0.000 
#    0.000    0.000    0.000    0.000    0.000    0.000 
#
# Total GULP energy -55723.069538 kJ/mol
# GULP energy per Si atom -5572.306954 kJ/mol
# Density = 2.620286 g / cm^3
# Si number density = 26.262630 Si / 1000 Ang^3
#
#
#
# Elastic Constant Matrix: (Units=GPa)
#
#
# Indices 1 2 3 4 5 6 
#
# 1 109.4631 25.5524 28.4527 18.7848 7.2378 -20.7008
# 2 25.5524 204.7884 66.8810 48.7574 0.5703 -34.9111
# 3 28.4527 66.8810 123.2073 24.1332 -8.4926 0.1778
# 4 18.7848 48.7574 24.1332 48.4033 -8.3402 -17.0654
# 5 7.2378 0.5703 -8.4926 -8.3402 35.9582 9.9164
# 6 -20.7008 -34.9111 0.1778 -17.0654 9.9164 45.1491
#
#
#
# Elastic Compliance Matrix: (Units=1/GPa)
#
#
# Indices 1 2 3 4 5 6 
#
# 1 0.011832 0.001511 -0.003359 -0.003065 -0.005761 0.006714
# 2 0.001511 0.008433 -0.004134 -0.005640 -0.004394 0.006063
# 3 -0.003359 -0.004134 0.011861 -0.001922 0.004914 -0.006589
# 4 -0.003065 -0.005640 -0.001922 0.031205 0.006201 0.004674
# 5 -0.005761 -0.004394 0.004914 0.006201 0.034769 -0.011352
# 6 0.006714 0.006063 -0.006589 0.004674 -0.011352 0.034202
#
#
# Mechanical properties :
#
#
# Convention : Reuss Voigt Hill
#
# Bulk Modulus (GPa) = 49.59674 75.47010 62.53342
# Shear Modulus (GPa) = 33.11542 47.00696 40.06119
#
# Velocity S-wave (km/s) = 3.55481 4.23529 3.90988
# Velocity P-wave (km/s) = 5.98121 7.26058 6.65172
#
# Compressibility (1/GPa) = 0.02016261
#
# Stress axis : x y z
#
# Youngs Moduli (GPa) = 84.51307 118.57869 84.31068
#
# Poissons Ratio (x) = -0.17916 0.28322
# Poissons Ratio (y) = -0.12769 0.34852
# Poissons Ratio (z) = 0.28389 0.49017
#
# Static dielectric constant tensor:
#      x y z
#    x 2.193890 0.166460 0.110280 
#    y 0.166460 2.418220 0.173350 
#    z 0.110280 0.173350 2.291940 
# 
# From -- ./inp_files/144269.got.cif
#   From: 2010.05.17/outbox.cif.g08.bks.cpg/sg2_73_cif.got.tgz:144269.got - 2010.06.03 11:33:40.
