data_PCOD9012308
_publ_section_title
;
Structure prediction by ZEFSAII (Michael W. Deem and Ramdas Pophale) SiO2 
 PCOD9012308
Probable space group: P -1
;
_chemical_formula_sum "Si O2"
_cell_formula_units_Z 12
_cell_length_a 8.566041
_cell_length_b 14.114264
_cell_length_c 7.978497
_cell_angle_alpha 131.419602
_cell_angle_beta 51.687318
_cell_angle_gamma 98.537092
_cell_volume 508.349461
_symmetry_space_group_name_H-M "P -1"
_symmetry_group_IT_number 2
_symmetry_cell_setting 'triclinic'
loop_
_space_group_symop_operation_xyz
x,y,z
-x,-y,-z
loop_
_atom_site_type_symbol
_atom_site_label
_atom_site_fract_x
_atom_site_fract_y
_atom_site_fract_z
Si Si1 0.349491 0.421430 0.540298
Si Si2 0.753248 0.971609 0.302751
Si Si3 0.820100 0.862630 0.488971
Si Si4 0.364504 0.861993 0.875202
Si Si5 0.913690 0.416531 0.792351
Si Si6 0.151581 0.792987 0.621604
O O1 0.500000 0.500000 0.500000
O O2 0.513167 0.258432 0.210170
O O3 0.114426 0.452974 0.645780
O O4 0.265972 0.457342 0.831667
O O5 0.864626 0.880641 0.287728
O O6 0.500000 0.000000 0.500000
O O7 0.770798 0.118656 0.452966
O O8 0.890659 0.885070 0.947691
O O9 0.567724 0.882766 0.685670
O O10 0.975860 0.717119 0.307535
O O11 0.806255 0.995010 0.759068
O O12 0.269141 0.797906 0.721788
O O13 0.814822 0.356671 0.643719
#
# Coordination Sequence:
#
# PCOD9012308 Si02
#       6
#     2   2   2   2   2   2
#     4  10  24  44  67  87 124 173 213 250 320 381
#     4  11  23  37  61  99 135 162 203 261 325 367
#     4  10  21  40  69  92 128 168 207 259 314 372
#     4  10  22  41  65  98 125 163 216 258 308 380
#     4  10  24  44  64  93 129 162 212 266 307 378
#     4  11  24  38  61  99 130 159 213 266 309 370
#
# _framework density 23.605810000000002
#
# number of rings (size 3 to 8) (size 9 to 14) (size 15 to 20)
#    0.000    1.667    1.667    2.000    9.333    2.000 
#    0.000    0.833    0.000    0.000    0.000    0.000 
#    0.000    0.000    0.000    0.000    0.000    0.000 
#
# Total GULP energy -67066.990238 kJ/mol
# GULP energy per Si atom -5588.915853 kJ/mol
# Density = 2.355208 g / cm^3
# Si number density = 23.605810 Si / 1000 Ang^3
#
#
#
# Elastic Constant Matrix: (Units=GPa)
#
#
# Indices 1 2 3 4 5 6 
#
# 1 95.9735 17.2086 26.0171 -11.2127 7.5407 29.6149
# 2 17.2086 98.5823 15.3189 -19.3010 -7.2456 28.4928
# 3 26.0171 15.3189 78.7519 11.5339 3.5689 12.2843
# 4 -11.2127 -19.3010 11.5339 31.1630 8.2086 0.5669
# 5 7.5407 -7.2456 3.5689 8.2086 43.5156 4.8646
# 6 29.6149 28.4928 12.2843 0.5669 4.8646 50.5484
#
#
#
# Elastic Compliance Matrix: (Units=1/GPa)
#
#
# Indices 1 2 3 4 5 6 
#
# 1 0.015717 0.002576 -0.005641 0.010226 -0.002739 -0.009140
# 2 0.002576 0.015520 -0.004193 0.011923 0.001294 -0.009496
# 3 -0.005641 -0.004193 0.016701 -0.011052 0.000809 0.001656
# 4 0.010226 0.011923 -0.011052 0.049286 -0.007071 -0.009898
# 5 -0.002739 0.001294 0.000809 -0.007071 0.025124 -0.001660
# 6 -0.009140 -0.009496 0.001656 -0.009898 -0.001660 0.030359
#
#
# Mechanical properties :
#
#
# Convention : Reuss Voigt Hill
#
# Bulk Modulus (GPa) = 29.92202 43.37744 36.64973
# Shear Modulus (GPa) = 28.03219 39.36291 33.69755
#
# Velocity S-wave (km/s) = 3.44977 4.08795 3.78234
# Velocity P-wave (km/s) = 5.34519 6.37945 5.88509
#
# Compressibility (1/GPa) = 0.03342021
#
# Stress axis : x y z
#
# Youngs Moduli (GPa) = 63.62351 64.43283 59.87613
#
# Poissons Ratio (x) = -0.16595 0.33778
# Poissons Ratio (y) = -0.16387 0.25109
# Poissons Ratio (z) = 0.35892 0.27020
#
# Static dielectric constant tensor:
#      x y z
#    x 1.951280 -0.005130 -0.018740 
#    y -0.005130 1.925160 0.013710 
#    z -0.018740 0.013710 1.858840 
# 
# From -- ./inp_files/204633.got.cif
#   From: 2010.05.17/outbox.cif.g08.bks.cpg/sg2_103_cif.got.tgz:204633.got - 2010.06.03 11:33:40.
