data_PCOD9012139
_publ_section_title
;
Structure prediction by ZEFSAII (Michael W. Deem and Ramdas Pophale) SiO2 
 PCOD9012139
Probable space group: P -1
;
_chemical_formula_sum "Si O2"
_cell_formula_units_Z 16
_cell_length_a 9.375635
_cell_length_b 12.072213
_cell_length_c 7.744642
_cell_angle_alpha 52.500169
_cell_angle_beta 91.815324
_cell_angle_gamma 101.657683
_cell_volume 676.368315
_symmetry_space_group_name_H-M "P -1"
_symmetry_group_IT_number 2
_symmetry_cell_setting 'triclinic'
loop_
_space_group_symop_operation_xyz
x,y,z
-x,-y,-z
loop_
_atom_site_type_symbol
_atom_site_label
_atom_site_fract_x
_atom_site_fract_y
_atom_site_fract_z
Si Si1 0.324471 0.158707 0.195032
Si Si2 0.162705 0.596254 0.389317
Si Si3 0.388143 0.434634 0.744778
Si Si4 0.159009 0.512687 0.082884
Si Si5 0.828282 0.121901 0.650898
Si Si6 0.150192 0.184713 0.492210
Si Si7 0.372244 0.761200 0.681160
Si Si8 0.558684 0.716895 0.434462
O O1 0.212377 0.122143 0.385703
O O2 0.493083 0.175997 0.246296
O O3 0.272354 0.035365 0.169386
O O4 0.312880 0.316498 0.987478
O O5 0.272803 0.510481 0.569915
O O6 0.183314 0.602727 0.177810
O O7 0.171139 0.749820 0.334827
O O8 0.000000 0.500000 0.500000
O O9 0.521941 0.564106 0.683170
O O10 0.460745 0.338781 0.706704
O O11 0.152792 0.350112 0.291618
O O12 0.289588 0.598891 0.882703
O O13 0.000000 0.500000 0.000000
O O14 0.762993 0.166924 0.424117
O O15 0.994048 0.112675 0.630643
O O16 0.278135 0.194931 0.626141
O O17 0.450238 0.788861 0.468672
#
# Coordination Sequence:
#
# PCOD9012139 Si02
#       8
#     2   2   2   2   2   2   2   2
#     4  11  27  41  69 100 138 185 223 270 339 407
#     4  12  24  43  71 100 134 174 224 284 334 395
#     4  11  22  42  67  99 135 172 229 276 338 393
#     4  12  23  41  73 106 127 167 231 283 334 388
#     4  12  24  47  65  99 143 180 222 275 340 402
#     4  11  22  42  66  97 134 174 231 276 329 390
#     4  11  23  42  68 101 134 181 225 281 330 395
#     4  10  21  40  68  97 130 169 224 291 325 384
#
# _framework density 23.655750000000001
#
# number of rings (size 3 to 8) (size 9 to 14) (size 15 to 20)
#    0.000    0.750    5.000    2.250    3.500    2.000 
#    0.000    7.500    0.000    0.000    0.000    0.000 
#    0.000    0.000    0.000    0.000    0.000    0.000 
#
# Total GULP energy -89301.543254 kJ/mol
# GULP energy per Si atom -5581.346453 kJ/mol
# Density = 2.360191 g / cm^3
# Si number density = 23.655750 Si / 1000 Ang^3
#
#
#
# Elastic Constant Matrix: (Units=GPa)
#
#
# Indices 1 2 3 4 5 6 
#
# 1 121.5811 43.5389 6.8927 6.2008 -11.2056 41.0942
# 2 43.5389 131.9282 20.6819 -13.0771 -2.0768 17.1701
# 3 6.8927 20.6819 33.2259 -0.1276 1.1029 4.4762
# 4 6.2008 -13.0771 -0.1276 33.4292 2.8192 -6.1228
# 5 -11.2056 -2.0768 1.1029 2.8192 24.1101 -0.9194
# 6 41.0942 17.1701 4.4762 -6.1228 -0.9194 29.1896
#
#
#
# Elastic Compliance Matrix: (Units=1/GPa)
#
#
# Indices 1 2 3 4 5 6 
#
# 1 0.021346 -0.004508 0.002041 -0.012015 0.009703 -0.029928
# 2 -0.004508 0.010155 -0.005626 0.005336 -0.001499 0.002308
# 3 0.002041 -0.005626 0.033934 -0.003382 -0.000903 -0.005506
# 4 -0.012015 0.005336 -0.003382 0.039017 -0.008685 0.022206
# 5 0.009703 -0.001499 -0.000903 -0.008685 0.046418 -0.013000
# 6 -0.029928 0.002308 -0.005506 0.022206 -0.013000 0.080128
#
#
# Mechanical properties :
#
#
# Convention : Reuss Voigt Hill
#
# Bulk Modulus (GPa) = 20.30478 47.66248 33.98363
# Shear Modulus (GPa) = 18.96816 31.72058 25.34437
#
# Velocity S-wave (km/s) = 2.83475 3.66584 3.27675
# Velocity P-wave (km/s) = 4.39505 6.17332 5.35847
#
# Compressibility (1/GPa) = 0.04924950
#
# Stress axis : x y z
#
# Youngs Moduli (GPa) = 46.84675 98.47820 29.46860
#
# Poissons Ratio (x) = 0.44392 -0.06016
# Poissons Ratio (y) = 0.21118 0.16580
# Poissons Ratio (z) = -0.09563 0.55407
#
# Static dielectric constant tensor:
#      x y z
#    x 1.965680 -0.042160 0.009560 
#    y -0.042160 2.002730 0.017190 
#    z 0.009560 0.017190 1.946040 
# 
# From -- ./inp_files/184294.got.cif
#   From: 2010.05.17/outbox.cif.g08.bks.cpg/sg2_93_cif.got.tgz:184294.got - 2010.06.03 11:33:40.
