data_PCOD9012957
_publ_section_title
;
Structure prediction by ZEFSAII (Michael W. Deem and Ramdas Pophale) SiO2 
 PCOD9012957
Probable space group: P -1
;
_chemical_formula_sum "Si O2"
_cell_formula_units_Z 16
_cell_length_a 8.174296
_cell_length_b 8.079421
_cell_length_c 15.987644
_cell_angle_alpha 114.696852
_cell_angle_beta 92.249603
_cell_angle_gamma 127.969762
_cell_volume 688.496325
_symmetry_space_group_name_H-M "P -1"
_symmetry_group_IT_number 2
_symmetry_cell_setting 'triclinic'
loop_
_space_group_symop_operation_xyz
x,y,z
-x,-y,-z
loop_
_atom_site_type_symbol
_atom_site_label
_atom_site_fract_x
_atom_site_fract_y
_atom_site_fract_z
Si Si1 0.035966 0.328781 0.425314
Si Si2 0.809587 0.087971 0.696084
Si Si3 0.353612 0.418486 0.324543
Si Si4 0.384371 0.900994 0.718280
Si Si5 0.539083 0.903954 0.061756
Si Si6 0.989060 0.931882 0.890299
Si Si7 0.846806 0.673571 0.395205
Si Si8 0.082729 0.398238 0.920569
O O1 0.249284 0.485952 0.399950
O O2 0.075396 0.239119 0.489205
O O3 0.000000 0.500000 0.500000
O O4 0.810522 0.112497 0.320583
O O5 0.945061 0.161429 0.629639
O O6 0.984105 0.334294 0.811833
O O7 0.729024 0.833267 0.682707
O O8 0.575154 0.019486 0.676461
O O9 0.624268 0.624292 0.363612
O O10 0.228247 0.328255 0.213232
O O11 0.256557 0.611798 0.672204
O O12 0.509346 0.044472 0.838009
O O13 0.793450 0.029736 0.104963
O O14 0.355155 0.606108 0.977664
O O15 0.500000 0.000000 0.000000
O O16 0.003785 0.139644 0.891836
O O17 0.000000 0.000000 0.000000
O O18 0.000000 0.500000 0.000000
#
# Coordination Sequence:
#
# PCOD9012957 Si02
#       8
#     2   2   2   2   2   2   2   2
#     4  10  21  42  66  90 124 165 214 270 327 381
#     4  10  22  39  63  93 126 168 214 262 323 387
#     4  10  22  43  64  91 132 164 210 271 324 383
#     4  10  21  41  62  91 130 167 210 273 321 382
#     4  12  23  39  66  90 131 178 219 268 328 388
#     4  11  25  40  62  98 132 172 219 265 325 399
#     4  10  22  39  67  92 120 166 217 262 329 390
#     4  11  22  40  62  91 132 172 216 265 319 391
#
# _framework density 23.239049000000001
#
# number of rings (size 3 to 8) (size 9 to 14) (size 15 to 20)
#    0.000    1.500    2.500    2.250    5.250    1.000 
#    0.000    2.500    0.000    0.000    0.000    0.000 
#    0.000    0.000    0.000    0.000    0.000    0.000 
#
# Total GULP energy -89368.104579 kJ/mol
# GULP energy per Si atom -5585.506536 kJ/mol
# Density = 2.318616 g / cm^3
# Si number density = 23.239049 Si / 1000 Ang^3
#
#
#
# Elastic Constant Matrix: (Units=GPa)
#
#
# Indices 1 2 3 4 5 6 
#
# 1 113.9039 14.4082 18.6669 -14.1888 8.5977 20.3026
# 2 14.4082 46.4626 18.8302 -7.3314 -2.8568 22.1086
# 3 18.6669 18.8302 97.0489 -17.2596 2.8298 1.7426
# 4 -14.1888 -7.3314 -17.2596 32.9983 3.9039 -11.0116
# 5 8.5977 -2.8568 2.8298 3.9039 39.8044 2.0238
# 6 20.3026 22.1086 1.7426 -11.0116 2.0238 30.6482
#
#
#
# Elastic Compliance Matrix: (Units=1/GPa)
#
#
# Indices 1 2 3 4 5 6 
#
# 1 0.010513 0.000726 -0.001660 0.001839 -0.001945 -0.006604
# 2 0.000726 0.038454 -0.008325 -0.006260 0.005352 -0.030350
# 3 -0.001660 -0.008325 0.013554 0.007936 -0.002456 0.009348
# 4 0.001839 -0.006260 0.007936 0.040550 -0.006294 0.017831
# 5 -0.001945 0.005352 -0.002456 -0.006294 0.027049 -0.006480
# 6 -0.006604 -0.030350 0.009348 0.017831 -0.006480 0.065199
#
#
# Mechanical properties :
#
#
# Convention : Reuss Voigt Hill
#
# Bulk Modulus (GPa) = 22.72648 40.13622 31.43135
# Shear Modulus (GPa) = 21.88130 34.39086 28.13608
#
# Velocity S-wave (km/s) = 3.07184 3.85109 3.48332
# Velocity P-wave (km/s) = 4.73099 6.08958 5.45276
#
# Compressibility (1/GPa) = 0.04400153
#
# Stress axis : x y z
#
# Youngs Moduli (GPa) = 95.12302 26.00486 73.77966
#
# Poissons Ratio (x) = -0.01888 0.12251
# Poissons Ratio (y) = -0.06906 0.61423
# Poissons Ratio (z) = 0.15795 0.21650
#
# Static dielectric constant tensor:
#      x y z
#    x 1.909950 0.036020 -0.078650 
#    y 0.036020 1.918440 -0.091340 
#    z -0.078650 -0.091340 2.187030 
# 
# From -- ./inp_files/327117.got.cif
#   From: 2010.05.17/outbox.cif.g08.bks.cpg/sg2_164_cif.got.tgz:327117.got - 2010.06.03 11:33:40.
