data_PCOD9012195
_publ_section_title
;
Structure prediction by ZEFSAII (Michael W. Deem and Ramdas Pophale) SiO2 
 PCOD9012195
Probable space group: P -1
;
_chemical_formula_sum "Si O2"
_cell_formula_units_Z 14
_cell_length_a 16.744355
_cell_length_b 8.562489
_cell_length_c 11.316287
_cell_angle_alpha 59.658511
_cell_angle_beta 22.816591
_cell_angle_gamma 60.818656
_cell_volume 541.814160
_symmetry_space_group_name_H-M "P -1"
_symmetry_group_IT_number 2
_symmetry_cell_setting 'triclinic'
loop_
_space_group_symop_operation_xyz
x,y,z
-x,-y,-z
loop_
_atom_site_type_symbol
_atom_site_label
_atom_site_fract_x
_atom_site_fract_y
_atom_site_fract_z
Si Si1 0.844301 0.687334 0.496891
Si Si2 0.117657 0.705018 0.485813
Si Si3 0.552842 0.242124 0.585710
Si Si4 0.295088 0.204578 0.612655
Si Si5 0.259888 0.081873 0.221621
Si Si6 0.272068 0.841603 0.871822
Si Si7 0.195249 0.459895 0.860881
O O1 0.791058 0.775459 0.408370
O O2 0.741138 0.812770 0.692405
O O3 0.793570 0.474396 0.640178
O O4 0.091724 0.706210 0.170481
O O5 0.943928 0.816250 0.601040
O O6 0.008278 0.606455 0.780031
O O7 0.240720 0.866275 0.313186
O O8 0.602710 0.158406 0.422519
O O9 0.363018 0.388227 0.758861
O O10 0.764972 0.331325 0.289758
O O11 0.461521 0.125349 0.855921
O O12 0.547110 0.187124 0.268905
O O13 0.251085 0.374987 0.691982
O O14 0.191982 0.050642 0.892684
#
# Coordination Sequence:
#
# PCOD9012195 Si02
#       7
#     2   2   2   2   2   2   2
#     4  12  23  43  71 101 135 183 228 282 344 411
#     4  10  21  40  68  99 133 186 231 273 346 410
#     4   9  18  38  66  91 128 179 221 276 344 395
#     4  10  23  38  66 108 133 169 233 289 337 407
#     4  10  23  41  67  98 143 181 225 283 346 409
#     4  10  21  43  70  97 137 178 224 289 343 401
#     4   9  17  37  64  94 125 171 230 278 328 409
#
# _framework density 25.839117000000002
#
# number of rings (size 3 to 8) (size 9 to 14) (size 15 to 20)
#    0.000    2.000    1.429    1.714    2.000    4.000 
#    5.143    1.429    0.000    0.000    0.000    0.000 
#    0.000    0.000    0.000    0.000    0.000    0.000 
#
# Total GULP energy -78200.057390 kJ/mol
# GULP energy per Si atom -5585.718385 kJ/mol
# Density = 2.578031 g / cm^3
# Si number density = 25.839117 Si / 1000 Ang^3
#
#
#
# Elastic Constant Matrix: (Units=GPa)
#
#
# Indices 1 2 3 4 5 6 
#
# 1 108.3482 48.7894 53.2006 -7.1146 -6.9805 10.2202
# 2 48.7894 129.0333 54.6117 -28.2313 -9.0273 21.7424
# 3 53.2006 54.6117 109.5473 -31.3972 17.8503 16.5392
# 4 -7.1146 -28.2313 -31.3972 36.5802 0.2992 -11.7841
# 5 -6.9805 -9.0273 17.8503 0.2992 27.2387 7.7143
# 6 10.2202 21.7424 16.5392 -11.7841 7.7143 38.8765
#
#
#
# Elastic Compliance Matrix: (Units=1/GPa)
#
#
# Indices 1 2 3 4 5 6 
#
# 1 0.015758 -0.002091 -0.010412 -0.008673 0.011227 -0.003401
# 2 -0.002091 0.012878 -0.004991 0.003527 0.008417 -0.005130
# 3 -0.010412 -0.004991 0.024284 0.016606 -0.021704 0.004537
# 4 -0.008673 0.003527 0.016606 0.046051 -0.015344 0.010247
# 5 0.011227 0.008417 -0.021704 -0.015344 0.061074 -0.015195
# 6 -0.003401 -0.005130 0.004537 0.010247 -0.015195 0.033677
#
#
# Mechanical properties :
#
#
# Convention : Reuss Voigt Hill
#
# Bulk Modulus (GPa) = 55.76464 73.34802 64.55633
# Shear Modulus (GPa) = 21.30504 33.22757 27.26631
#
# Velocity S-wave (km/s) = 2.87457 3.58989 3.25196
# Velocity P-wave (km/s) = 5.71366 6.75508 6.25608
#
# Compressibility (1/GPa) = 0.01793251
#
# Stress axis : x y z
#
# Youngs Moduli (GPa) = 63.45937 77.65443 41.17969
#
# Poissons Ratio (x) = 0.16234 0.42878
# Poissons Ratio (y) = 0.13267 0.20551
# Poissons Ratio (z) = 0.66076 0.38754
#
# Static dielectric constant tensor:
#      x y z
#    x 2.009120 -0.025160 -0.029030 
#    y -0.025160 2.227140 0.060580 
#    z -0.029030 0.060580 2.046240 
# 
# From -- ./inp_files/172683.got.cif
#   From: 2010.05.17/outbox.cif.g08.bks.cpg/sg2_87_cif.got.tgz:172683.got - 2010.06.03 11:33:40.
