data_PCOD9012859
_publ_section_title
;
Structure prediction by ZEFSAII (Michael W. Deem and Ramdas Pophale) SiO2 
 PCOD9012859
Probable space group: P -1
;
_chemical_formula_sum "Si O2"
_cell_formula_units_Z 14
_cell_length_a 8.352960
_cell_length_b 6.530293
_cell_length_c 22.621120
_cell_angle_alpha 131.126148
_cell_angle_beta 40.726700
_cell_angle_gamma 116.122926
_cell_volume 602.173787
_symmetry_space_group_name_H-M "P -1"
_symmetry_group_IT_number 2
_symmetry_cell_setting 'triclinic'
loop_
_space_group_symop_operation_xyz
x,y,z
-x,-y,-z
loop_
_atom_site_type_symbol
_atom_site_label
_atom_site_fract_x
_atom_site_fract_y
_atom_site_fract_z
Si Si1 0.786670 0.084740 0.658953
Si Si2 0.633213 0.492697 0.141255
Si Si3 0.717422 0.876220 0.871150
Si Si4 0.068324 0.619193 0.215040
Si Si5 0.851377 0.454800 0.943815
Si Si6 0.183143 0.353301 0.519749
Si Si7 0.362871 0.934205 0.586569
O O1 0.511106 0.218398 0.746470
O O2 0.823318 0.155344 0.730943
O O3 0.966490 0.254540 0.601921
O O4 0.836448 0.775862 0.564398
O O5 0.445991 0.264631 0.158011
O O6 0.891704 0.435512 0.090768
O O7 0.688318 0.514244 0.059219
O O8 0.918239 0.637047 0.793448
O O9 0.866244 0.129201 0.867289
O O10 0.500000 0.000000 0.000000
O O11 0.219249 0.468244 0.088881
O O12 0.806985 0.778617 0.298858
O O13 0.205500 0.675247 0.574267
O O14 0.428892 0.186614 0.448363
O O15 0.500000 0.000000 0.500000
#
# Coordination Sequence:
#
# PCOD9012859 Si02
#       7
#     2   2   2   2   2   2   2
#     4  10  21  41  61  94 128 172 213 264 332 381
#     4   9  20  39  64  93 126 169 214 255 330 384
#     4   9  21  40  62  90 129 166 208 263 322 376
#     4  11  23  37  66  97 124 167 221 257 317 394
#     4  10  21  41  65  90 133 169 205 275 317 381
#     4  10  23  42  64  86 137 169 208 279 322 374
#     4  11  23  41  64  95 125 171 224 262 322 391
#
# _framework density 23.249103999999999
#
# number of rings (size 3 to 8) (size 9 to 14) (size 15 to 20)
#    0.000    2.000    1.429    0.857    4.000    6.857 
#    0.000   10.714    0.000    0.000    0.000    0.000 
#    0.000    0.000    0.000    0.000    0.000    0.000 
#
# Total GULP energy -77983.831568 kJ/mol
# GULP energy per Si atom -5570.273683 kJ/mol
# Density = 2.319619 g / cm^3
# Si number density = 23.249104 Si / 1000 Ang^3
#
#
#
# Elastic Constant Matrix: (Units=GPa)
#
#
# Indices 1 2 3 4 5 6 
#
# 1 65.4380 13.2404 20.4176 -3.6010 9.6637 0.6717
# 2 13.2404 81.6483 11.2604 8.1186 -9.4397 10.9425
# 3 20.4176 11.2604 88.6696 -0.2913 5.2221 7.0259
# 4 -3.6010 8.1186 -0.2913 24.1494 -6.7182 -6.8754
# 5 9.6637 -9.4397 5.2221 -6.7182 48.5993 5.5284
# 6 0.6717 10.9425 7.0259 -6.8754 5.5284 20.0838
#
#
#
# Elastic Compliance Matrix: (Units=1/GPa)
#
#
# Indices 1 2 3 4 5 6 
#
# 1 0.018080 -0.004059 -0.003841 0.004496 -0.003985 0.005586
# 2 -0.004059 0.015939 -0.000380 -0.008336 0.004205 -0.012427
# 3 -0.003841 -0.000380 0.012587 -0.001692 -0.000380 -0.004543
# 4 0.004496 -0.008336 -0.001692 0.051791 0.002317 0.022075
# 5 -0.003985 0.004205 -0.000380 0.002317 0.023420 -0.007679
# 6 0.005586 -0.012427 -0.004543 0.022075 -0.007679 0.067635
#
#
# Mechanical properties :
#
#
# Convention : Reuss Voigt Hill
#
# Bulk Modulus (GPa) = 33.28137 36.17695 34.72916
# Shear Modulus (GPa) = 23.14536 31.28901 27.21718
#
# Velocity S-wave (km/s) = 3.15864 3.67252 3.42523
# Velocity P-wave (km/s) = 5.25822 5.79461 5.53292
#
# Compressibility (1/GPa) = 0.03004684
#
# Stress axis : x y z
#
# Youngs Moduli (GPa) = 55.31043 62.74058 79.44535
#
# Poissons Ratio (x) = 0.25464 0.30515
# Poissons Ratio (y) = 0.22448 0.03018
# Poissons Ratio (z) = 0.21245 0.02384
#
# Static dielectric constant tensor:
#      x y z
#    x 1.938590 -0.036660 0.063810 
#    y -0.036660 1.900700 -0.092550 
#    z 0.063810 -0.092550 2.009450 
# 
# From -- ./inp_files/206605.got.cif
#   From: 2010.05.17/outbox.cif.g08.bks.cpg/sg2_104_cif.got.tgz:206605.got - 2010.06.03 11:33:40.
