data_PCOD9012414
_publ_section_title
;
Structure prediction by ZEFSAII (Michael W. Deem and Ramdas Pophale) SiO2 
 PCOD9012414
Probable space group: P -1
;
_chemical_formula_sum "Si O2"
_cell_formula_units_Z 14
_cell_length_a 9.923282
_cell_length_b 16.619766
_cell_length_c 9.103346
_cell_angle_alpha 34.312087
_cell_angle_beta 59.676644
_cell_angle_gamma 42.863578
_cell_volume 555.564890
_symmetry_space_group_name_H-M "P -1"
_symmetry_group_IT_number 2
_symmetry_cell_setting 'triclinic'
loop_
_space_group_symop_operation_xyz
x,y,z
-x,-y,-z
loop_
_atom_site_type_symbol
_atom_site_label
_atom_site_fract_x
_atom_site_fract_y
_atom_site_fract_z
Si Si1 0.428120 0.192113 0.176221
Si Si2 0.661401 0.590652 0.672493
Si Si3 0.765205 0.998976 0.060889
Si Si4 0.269319 0.190350 0.873443
Si Si5 0.959359 0.130445 0.604345
Si Si6 0.323958 0.758205 0.821386
Si Si7 0.006209 0.371705 0.028308
O O1 0.536849 0.121296 0.065038
O O2 0.500000 0.000000 0.500000
O O3 0.529876 0.261650 0.102993
O O4 0.183464 0.345754 0.063064
O O5 0.721837 0.647240 0.414045
O O6 0.683975 0.407649 0.919258
O O7 0.817972 0.551845 0.772360
O O8 0.432012 0.745569 0.630261
O O9 0.841737 0.829662 0.167198
O O10 0.906256 0.916280 0.253365
O O11 0.781643 0.136519 0.754969
O O12 0.150152 0.227472 0.032067
O O13 0.500000 0.000000 0.000000
O O14 0.914180 0.299618 0.285880
O O15 0.103865 0.953498 0.683293
#
# Coordination Sequence:
#
# PCOD9012414 Si02
#       7
#     2   2   2   2   2   2   2
#     4  11  20  43  71 103 133 182 228 277 330 406
#     4  11  26  42  64 102 140 180 222 287 342 401
#     4  10  21  40  70 100 131 171 235 272 334 396
#     4  12  24  42  70  95 131 179 228 281 336 409
#     4  10  22  42  71  99 131 182 223 280 328 413
#     4  10  22  44  67  91 145 179 221 270 346 402
#     4  12  24  41  70 106 136 172 237 275 340 394
#
# _framework density 25.199576
#
# number of rings (size 3 to 8) (size 9 to 14) (size 15 to 20)
#    0.000    1.143    4.286    3.000    0.000    5.143 
#    0.000    0.714    0.000    0.000    0.000    0.000 
#    0.000    0.000    0.000    0.000    0.000    0.000 
#
# Total GULP energy -78365.624694 kJ/mol
# GULP energy per Si atom -5597.544621 kJ/mol
# Density = 2.514222 g / cm^3
# Si number density = 25.199576 Si / 1000 Ang^3
#
#
#
# Elastic Constant Matrix: (Units=GPa)
#
#
# Indices 1 2 3 4 5 6 
#
# 1 89.2580 4.4594 25.9564 7.9147 -7.1309 4.0729
# 2 4.4594 71.5123 10.6190 18.4442 -4.2788 -17.0327
# 3 25.9564 10.6190 135.1958 35.7378 -12.8425 -10.8343
# 4 7.9147 18.4442 35.7378 37.7679 -3.6041 -4.2316
# 5 -7.1309 -4.2788 -12.8425 -3.6041 37.3297 4.2235
# 6 4.0729 -17.0327 -10.8343 -4.2316 4.2235 50.7629
#
#
#
# Elastic Compliance Matrix: (Units=1/GPa)
#
#
# Indices 1 2 3 4 5 6 
#
# 1 0.012115 -0.000732 -0.002226 -0.000123 0.001661 -0.001841
# 2 -0.000732 0.017546 0.001773 -0.009390 0.000957 0.005462
# 3 -0.002226 0.001773 0.010737 -0.010115 0.002265 0.002033
# 4 -0.000123 -0.009390 -0.010115 0.040404 -0.000465 -0.001893
# 5 0.001661 0.000957 0.002265 -0.000465 0.028143 -0.001709
# 6 -0.001841 0.005462 0.002033 -0.001893 -0.001709 0.022098
#
#
# Mechanical properties :
#
#
# Convention : Reuss Voigt Hill
#
# Bulk Modulus (GPa) = 26.29671 42.00396 34.15034
# Shear Modulus (GPa) = 34.22581 42.16751 38.19666
#
# Velocity S-wave (km/s) = 3.68936 4.09509 3.89751
# Velocity P-wave (km/s) = 5.34851 6.25015 5.81683
#
# Compressibility (1/GPa) = 0.03802756
#
# Stress axis : x y z
#
# Youngs Moduli (GPa) = 82.54277 56.99313 93.13869
#
# Poissons Ratio (x) = 0.04174 0.20730
# Poissons Ratio (y) = 0.06046 -0.16515
# Poissons Ratio (z) = 0.18372 -0.10106
#
# Static dielectric constant tensor:
#      x y z
#    x 2.126140 0.021370 0.029300 
#    y 0.021370 1.986660 -0.011940 
#    z 0.029300 -0.011940 1.916410 
# 
# From -- ./inp_files/278633.got.cif
#   From: 2010.05.17/outbox.cif.g08.bks.cpg/sg2_140_cif.got.tgz:278633.got - 2010.06.03 11:33:40.
