data_PCOD9012326
_publ_section_title
;
Structure prediction by ZEFSAII (Michael W. Deem and Ramdas Pophale) SiO2 
 PCOD9012326
Probable space group: P -1
;
_chemical_formula_sum "Si O2"
_cell_formula_units_Z 16
_cell_length_a 9.062257
_cell_length_b 25.655781
_cell_length_c 20.302595
_cell_angle_alpha 162.004389
_cell_angle_beta 39.262525
_cell_angle_gamma 149.037256
_cell_volume 724.509119
_symmetry_space_group_name_H-M "P -1"
_symmetry_group_IT_number 2
_symmetry_cell_setting 'triclinic'
loop_
_space_group_symop_operation_xyz
x,y,z
-x,-y,-z
loop_
_atom_site_type_symbol
_atom_site_label
_atom_site_fract_x
_atom_site_fract_y
_atom_site_fract_z
Si Si1 0.889167 0.488143 0.313452
Si Si2 0.532869 0.994839 0.560218
Si Si3 0.330311 0.914438 0.024581
Si Si4 0.114206 0.380851 0.851371
Si Si5 0.661654 0.719911 0.991093
Si Si6 0.234036 0.510463 0.109202
Si Si7 0.374468 0.307019 0.182799
Si Si8 0.761752 0.133445 0.254480
O O1 0.700195 0.297391 0.201675
O O2 0.661954 0.488569 0.345252
O O3 0.035996 0.414780 0.126765
O O4 0.143720 0.702538 0.521529
O O5 0.356402 0.755019 0.357588
O O6 0.500000 0.000000 0.500000
O O7 0.415110 0.116086 0.777544
O O8 0.885409 0.131626 0.614173
O O9 0.001970 0.841026 0.038622
O O10 0.500000 0.000000 0.000000
O O11 0.516682 0.076085 0.215743
O O12 0.445518 0.519048 0.874226
O O13 0.067413 0.397013 0.963343
O O14 0.000000 0.500000 0.000000
O O15 0.601179 0.645797 0.846585
O O16 0.500000 0.500000 0.000000
O O17 0.070084 0.245983 0.243253
O O18 0.339249 0.090002 0.947599
#
# Coordination Sequence:
#
# PCOD9012326 Si02
#       8
#     2   2   2   2   2   2   2   2
#     4  11  24  41  67  98 133 180 228 270 346 403
#     4  11  23  42  69  99 133 177 231 273 336 404
#     4  11  24  46  65  97 142 176 222 285 335 405
#     4  10  21  42  67  97 138 173 228 280 330 402
#     4  11  21  43  70 100 137 182 222 279 346 393
#     4  12  25  45  67 100 140 176 224 286 339 405
#     4  10  21  40  69  93 134 174 225 282 331 398
#     4  10  22  44  65  95 132 177 225 279 334 401
#
# _framework density 22.083919000000002
#
# number of rings (size 3 to 8) (size 9 to 14) (size 15 to 20)
#    0.000    1.250    3.750    3.375    0.000    2.000 
#    6.750    0.000    0.000    0.000    0.000    0.000 
#    0.000    0.000    0.000    0.000    0.000    0.000 
#
# Total GULP energy -89389.786077 kJ/mol
# GULP energy per Si atom -5586.861630 kJ/mol
# Density = 2.203365 g / cm^3
# Si number density = 22.083919 Si / 1000 Ang^3
#
#
#
# Elastic Constant Matrix: (Units=GPa)
#
#
# Indices 1 2 3 4 5 6 
#
# 1 124.1373 43.9375 34.7379 -2.2217 41.3665 7.9018
# 2 43.9375 118.7373 20.3098 -0.4551 24.0865 6.8076
# 3 34.7379 20.3098 61.6393 6.9912 33.6994 -0.8661
# 4 -2.2217 -0.4551 6.9912 28.6529 3.3880 7.1515
# 5 41.3665 24.0865 33.6994 3.3880 37.4786 1.0445
# 6 7.9018 6.8076 -0.8661 7.1515 1.0445 47.6462
#
#
#
# Elastic Compliance Matrix: (Units=1/GPa)
#
#
# Indices 1 2 3 4 5 6 
#
# 1 0.013636 -0.002080 0.000463 0.003136 -0.014355 -0.002112
# 2 -0.002080 0.010122 0.000111 0.000766 -0.004347 -0.001119
# 3 0.000463 0.000111 0.032678 -0.004909 -0.029575 0.001886
# 4 0.003136 0.000766 -0.004909 0.038285 -0.002821 -0.006403
# 5 -0.014355 -0.004347 -0.029575 -0.002821 0.072131 0.001306
# 6 -0.002112 -0.001119 0.001886 -0.006403 0.001306 0.022465
#
#
# Mechanical properties :
#
#
# Convention : Reuss Voigt Hill
#
# Bulk Modulus (GPa) = 18.71774 55.83158 37.27466
# Shear Modulus (GPa) = 23.79408 36.45746 30.12577
#
# Velocity S-wave (km/s) = 3.28600 4.06749 3.69745
# Velocity P-wave (km/s) = 4.78447 6.88445 5.92819
#
# Compressibility (1/GPa) = 0.05342526
#
# Stress axis : x y z
#
# Youngs Moduli (GPa) = 73.33326 98.79921 30.60173
#
# Poissons Ratio (x) = 0.20551 -0.01418
# Poissons Ratio (y) = 0.15254 -0.00341
# Poissons Ratio (z) = -0.03398 -0.01101
#
# Static dielectric constant tensor:
#      x y z
#    x 1.902050 -0.003960 0.007900 
#    y -0.003960 1.866370 0.021920 
#    z 0.007900 0.021920 1.809310 
# 
# From -- ./inp_files/592103.got.cif
#   From: 2010.05.17/outbox.cif.g08.bks.cpg/sg2_297_cif.got.tgz:592103.got - 2010.06.03 11:33:40.
