data_PCOD9012871
_publ_section_title
;
Structure prediction by ZEFSAII (Michael W. Deem and Ramdas Pophale) SiO2 
 PCOD9012871
Probable space group: P -1
;
_chemical_formula_sum "Si O2"
_cell_formula_units_Z 16
_cell_length_a 20.599422
_cell_length_b 14.517877
_cell_length_c 9.686371
_cell_angle_alpha 27.517172
_cell_angle_beta 129.584112
_cell_angle_gamma 146.269767
_cell_volume 683.939228
_symmetry_space_group_name_H-M "P -1"
_symmetry_group_IT_number 2
_symmetry_cell_setting 'triclinic'
loop_
_space_group_symop_operation_xyz
x,y,z
-x,-y,-z
loop_
_atom_site_type_symbol
_atom_site_label
_atom_site_fract_x
_atom_site_fract_y
_atom_site_fract_z
Si Si1 0.717992 0.563001 0.112362
Si Si2 0.806393 0.997151 0.884218
Si Si3 0.330471 0.860819 0.167781
Si Si4 0.725347 0.534526 0.612161
Si Si5 0.942778 0.654118 0.856186
Si Si6 0.406907 0.545378 0.186773
Si Si7 0.818895 0.124018 0.206613
Si Si8 0.908121 0.605462 0.200021
O O1 0.679221 0.326298 0.483009
O O2 0.847966 0.705618 0.034902
O O3 0.620445 0.404125 0.065106
O O4 0.739224 0.800597 0.914522
O O5 0.815689 0.251839 0.575544
O O6 0.953915 0.189624 0.820862
O O7 0.744188 0.764082 0.237367
O O8 0.346930 0.763533 0.178022
O O9 0.201490 0.755628 0.105259
O O10 0.445725 0.205625 0.910574
O O11 0.863676 0.684142 0.631825
O O12 0.655045 0.450080 0.772713
O O13 0.088679 0.887735 0.699332
O O14 0.880340 0.339596 0.133449
O O15 0.924805 0.636267 0.017349
O O16 0.322240 0.197401 0.524476
#
# Coordination Sequence:
#
# PCOD9012871 Si02
#       8
#     2   2   2   2   2   2   2   2
#     4  11  24  41  63  92 127 167 211 259 315 368
#     4  10  24  39  61  94 132 164 203 259 318 384
#     4  10  24  43  61  88 126 169 208 258 309 371
#     4  10  22  41  64  91 124 161 209 257 316 370
#     4  10  21  41  61  97 127 160 202 263 318 378
#     4  12  22  40  66  90 122 166 215 256 309 371
#     4  10  23  38  65  92 129 159 207 263 317 369
#     4  11  22  39  64  92 131 166 208 250 323 383
#
# _framework density 23.393892000000001
#
# number of rings (size 3 to 8) (size 9 to 14) (size 15 to 20)
#    0.000    1.500    1.250    3.000    7.000    1.000 
#    0.000    0.000    0.000    3.000    0.000    0.000 
#    0.000    0.000    0.000    0.000    0.000    0.000 
#
# Total GULP energy -89500.915045 kJ/mol
# GULP energy per Si atom -5593.807190 kJ/mol
# Density = 2.334065 g / cm^3
# Si number density = 23.393892 Si / 1000 Ang^3
#
#
#
# Elastic Constant Matrix: (Units=GPa)
#
#
# Indices 1 2 3 4 5 6 
#
# 1 65.5144 29.0794 -2.9938 7.4669 -0.9710 -23.4986
# 2 29.0794 121.0456 21.2824 2.8264 -11.2015 -13.6605
# 3 -2.9938 21.2824 60.1075 2.6608 -2.4496 -11.9417
# 4 7.4669 2.8264 2.6608 43.2677 -7.7278 2.5224
# 5 -0.9710 -11.2015 -2.4496 -7.7278 20.2069 1.1328
# 6 -23.4986 -13.6605 -11.9417 2.5224 1.1328 40.0272
#
#
#
# Elastic Compliance Matrix: (Units=1/GPa)
#
#
# Indices 1 2 3 4 5 6 
#
# 1 0.023636 -0.005364 0.006004 -0.005660 -0.004077 0.014308
# 2 -0.005364 0.010655 -0.004069 0.001576 0.005814 -0.000991
# 3 0.006004 -0.004069 0.020109 -0.002675 -0.001020 0.008332
# 4 -0.005660 0.001576 -0.002675 0.026381 0.010677 -0.005547
# 5 -0.004077 0.005814 -0.001020 0.010677 0.056642 -0.002989
# 6 0.014308 -0.000991 0.008332 -0.005547 -0.002989 0.035965
#
#
# Mechanical properties :
#
#
# Convention : Reuss Voigt Hill
#
# Bulk Modulus (GPa) = 21.03496 37.93372 29.48434
# Shear Modulus (GPa) = 25.49801 33.98699 29.74250
#
# Velocity S-wave (km/s) = 3.30501 3.81572 3.56951
# Velocity P-wave (km/s) = 4.85544 5.97188 5.44236
#
# Compressibility (1/GPa) = 0.04753991
#
# Stress axis : x y z
#
# Youngs Moduli (GPa) = 42.30875 93.85399 49.72894
#
# Poissons Ratio (x) = 0.50343 -0.29855
# Poissons Ratio (y) = 0.22694 0.20237
# Poissons Ratio (z) = -0.25400 0.38193
#
# Static dielectric constant tensor:
#      x y z
#    x 1.861750 -0.015010 0.013700 
#    y -0.015010 1.871760 -0.003450 
#    z 0.013700 -0.003450 1.957510 
# 
# From -- ./inp_files/354491.got.cif
#   From: 2010.05.17/outbox.cif.g08.bks.cpg/sg2_178_cif.got.tgz:354491.got - 2010.06.03 11:33:40.
