data_PCOD9012041
_publ_section_title
;
Structure prediction by ZEFSAII (Michael W. Deem and Ramdas Pophale) SiO2 
 PCOD9012041
Probable space group: P -1
;
_chemical_formula_sum "Si O2"
_cell_formula_units_Z 16
_cell_length_a 8.084549
_cell_length_b 8.719036
_cell_length_c 13.873453
_cell_angle_alpha 110.635709
_cell_angle_beta 82.584858
_cell_angle_gamma 51.660670
_cell_volume 632.200481
_symmetry_space_group_name_H-M "P -1"
_symmetry_group_IT_number 2
_symmetry_cell_setting 'triclinic'
loop_
_space_group_symop_operation_xyz
x,y,z
-x,-y,-z
loop_
_atom_site_type_symbol
_atom_site_label
_atom_site_fract_x
_atom_site_fract_y
_atom_site_fract_z
Si Si1 0.472415 0.147995 0.817986
Si Si2 0.589271 0.368640 0.754379
Si Si3 0.842914 0.846706 0.887075
Si Si4 0.742710 0.336466 0.311281
Si Si5 0.164511 0.519747 0.160608
Si Si6 0.370232 0.044472 0.618539
Si Si7 0.888857 0.099393 0.424231
Si Si8 0.890890 0.881776 0.104597
O O1 0.421345 0.363159 0.824653
O O2 0.536168 0.000556 0.681975
O O3 0.278386 0.156941 0.873485
O O4 0.647692 0.052379 0.873015
O O5 0.511672 0.433426 0.662960
O O6 0.618402 0.535338 0.819799
O O7 0.856254 0.113636 0.696356
O O8 0.774152 0.712639 0.894185
O O9 0.074210 0.680643 0.764786
O O10 0.897349 0.901907 0.994302
O O11 0.787881 0.321186 0.418288
O O12 0.802675 0.109114 0.215996
O O13 0.907518 0.706133 0.279649
O O14 0.121013 0.646347 0.091576
O O15 0.500000 0.000000 0.500000
O O16 0.312463 0.894050 0.580627
O O17 0.000000 0.000000 0.500000
#
# Coordination Sequence:
#
# PCOD9012041 Si02
#       8
#     2   2   2   2   2   2   2   2
#     4  11  21  41  64  94 135 173 216 276 317 389
#     4  11  23  42  67  94 136 173 215 270 328 383
#     4  12  24  39  67  96 132 177 222 270 328 387
#     4  12  23  43  68  96 134 174 217 273 327 394
#     4  10  22  42  63  96 136 168 222 276 318 392
#     4  10  21  40  68  92 130 172 210 266 335 387
#     4  11  23  44  69  97 132 171 216 274 329 390
#     4  11  22  43  63  96 133 175 221 273 327 385
#
# _framework density 25.308426000000001
#
# number of rings (size 3 to 8) (size 9 to 14) (size 15 to 20)
#    0.000    1.000    5.000    4.125    0.000    0.500 
#    0.000    2.500    0.000    0.000    0.000    0.000 
#    0.000    0.000    0.000    0.000    0.000    0.000 
#
# Total GULP energy -89198.112893 kJ/mol
# GULP energy per Si atom -5574.882056 kJ/mol
# Density = 2.525082 g / cm^3
# Si number density = 25.308426 Si / 1000 Ang^3
#
#
#
# Elastic Constant Matrix: (Units=GPa)
#
#
# Indices 1 2 3 4 5 6 
#
# 1 104.4989 32.4815 23.1979 -16.1323 8.1420 17.5307
# 2 32.4815 141.4366 39.3340 -32.9019 17.5618 -15.9602
# 3 23.1979 39.3340 128.2016 -51.5299 13.1706 -4.1797
# 4 -16.1323 -32.9019 -51.5299 47.5556 -10.3919 13.0214
# 5 8.1420 17.5618 13.1706 -10.3919 28.4649 -2.7578
# 6 17.5307 -15.9602 -4.1797 13.0214 -2.7578 50.3898
#
#
#
# Elastic Compliance Matrix: (Units=1/GPa)
#
#
# Indices 1 2 3 4 5 6 
#
# 1 0.011994 -0.002406 0.000026 0.003820 -0.001143 -0.005983
# 2 -0.002406 0.009313 -0.000560 0.003592 -0.003232 0.002635
# 3 0.000026 -0.000560 0.014296 0.015789 -0.000815 -0.003125
# 4 0.003820 0.003592 0.015789 0.045904 0.005130 -0.010463
# 5 -0.001143 -0.003232 -0.000815 0.005130 0.039717 0.000155
# 6 -0.005983 0.002635 -0.003125 -0.010463 0.000155 0.025214
#
#
# Mechanical properties :
#
#
# Convention : Reuss Voigt Hill
#
# Bulk Modulus (GPa) = 33.64502 62.68489 48.16495
# Shear Modulus (GPa) = 30.82119 43.89029 37.35574
#
# Velocity S-wave (km/s) = 3.49352 4.16891 3.84607
# Velocity P-wave (km/s) = 5.44020 6.92786 6.22860
#
# Compressibility (1/GPa) = 0.02972208
#
# Stress axis : x y z
#
# Youngs Moduli (GPa) = 83.37420 107.37737 69.95144
#
# Poissons Ratio (x) = 0.25836 -0.00181
# Poissons Ratio (y) = 0.20061 0.03918
# Poissons Ratio (z) = -0.00216 0.06014
#
# Static dielectric constant tensor:
#      x y z
#    x 2.020420 0.004670 -0.005220 
#    y 0.004670 2.020330 0.024460 
#    z -0.005220 0.024460 2.116880 
# 
# From -- ./inp_files/495209.got.cif
#   From: 2010.05.17/outbox.cif.g08.bks.cpg/sg2_248_cif.got.tgz:495209.got - 2010.06.03 11:33:40.
