data_PCOD9012749
_publ_section_title
;
Structure prediction by ZEFSAII (Michael W. Deem and Ramdas Pophale) SiO2 
 PCOD9012749
Probable space group: P -1
;
_chemical_formula_sum "Si O2"
_cell_formula_units_Z 16
_cell_length_a 24.574885
_cell_length_b 9.154354
_cell_length_c 18.121766
_cell_angle_alpha 41.644621
_cell_angle_beta 161.312655
_cell_angle_gamma 126.722782
_cell_volume 743.321513
_symmetry_space_group_name_H-M "P -1"
_symmetry_group_IT_number 2
_symmetry_cell_setting 'triclinic'
loop_
_space_group_symop_operation_xyz
x,y,z
-x,-y,-z
loop_
_atom_site_type_symbol
_atom_site_label
_atom_site_fract_x
_atom_site_fract_y
_atom_site_fract_z
Si Si1 0.314988 0.616279 0.774327
Si Si2 0.608498 0.565588 0.511002
Si Si3 0.197580 0.700362 0.750381
Si Si4 0.244577 0.878448 0.027455
Si Si5 0.981587 0.568875 0.290377
Si Si6 0.306289 0.097565 0.605949
Si Si7 0.650064 0.072160 0.698909
Si Si8 0.250357 0.150784 0.682287
O O1 0.341896 0.571109 0.914324
O O2 0.165054 0.525520 0.592238
O O3 0.221030 0.924315 0.533385
O O4 0.500000 0.500000 0.000000
O O5 0.398690 0.779860 0.195358
O O6 0.733690 0.378724 0.810681
O O7 0.710210 0.697236 0.550618
O O8 0.588287 0.368678 0.504914
O O9 0.161361 0.508075 0.823446
O O10 0.257672 0.881497 0.801935
O O11 0.975613 0.908365 0.357186
O O12 0.317728 0.978883 0.151983
O O13 0.071682 0.382076 0.407812
O O14 0.856549 0.872255 0.000935
O O15 0.229990 0.206365 0.548095
O O16 0.541657 0.900812 0.999103
O O17 0.500000 0.000000 0.500000
#
# Coordination Sequence:
#
# PCOD9012749 Si02
#       8
#     2   2   2   2   2   2   2   2
#     4  11  22  38  59  93 129 158 201 256 308 371
#     4   9  20  39  62  82 121 168 206 241 304 373
#     4  11  23  38  64  95 124 161 208 259 309 362
#     4   9  20  38  61  91 120 155 215 249 296 377
#     4  12  23  40  64  94 128 160 208 264 309 349
#     4  10  21  41  60  88 127 169 203 242 315 376
#     4  10  23  38  58  92 127 155 204 262 301 363
#     4  10  23  37  61  93 123 161 208 255 303 376
#
# _framework density 21.525005
#
# number of rings (size 3 to 8) (size 9 to 14) (size 15 to 20)
#    0.750    1.000    2.500    1.500    3.500    0.000 
#    0.000    7.500    0.000    1.500    0.000    0.000 
#    0.000    0.000    0.000    0.000    0.000    0.000 
#
# Total GULP energy -89295.616147 kJ/mol
# GULP energy per Si atom -5580.976009 kJ/mol
# Density = 2.147601 g / cm^3
# Si number density = 21.525005 Si / 1000 Ang^3
#
#
#
# Elastic Constant Matrix: (Units=GPa)
#
#
# Indices 1 2 3 4 5 6 
#
# 1 107.0114 56.2217 18.0913 -20.5264 23.4345 -0.1912
# 2 56.2217 99.7214 2.4526 -1.7240 18.5828 -5.5812
# 3 18.0913 2.4526 51.0142 -8.3717 12.0963 -12.2907
# 4 -20.5264 -1.7240 -8.3717 29.4208 -8.7312 10.1734
# 5 23.4345 18.5828 12.0963 -8.7312 30.1270 -8.5194
# 6 -0.1912 -5.5812 -12.2907 10.1734 -8.5194 38.8453
#
#
#
# Elastic Compliance Matrix: (Units=1/GPa)
#
#
# Indices 1 2 3 4 5 6 
#
# 1 0.018583 -0.009579 -0.004623 0.011972 -0.005207 -0.007025
# 2 -0.009579 0.016404 0.003604 -0.007720 -0.005122 0.004349
# 3 -0.004623 0.003604 0.024193 -0.000431 -0.006534 0.006829
# 4 0.011972 -0.007720 -0.000431 0.047830 0.005977 -0.012402
# 5 -0.005207 -0.005122 -0.006534 0.005977 0.046393 0.005781
# 6 -0.007025 0.004349 0.006829 -0.012402 0.005781 0.033010
#
#
# Mechanical properties :
#
#
# Convention : Reuss Voigt Hill
#
# Bulk Modulus (GPa) = 26.32724 45.69757 36.01240
# Shear Modulus (GPa) = 22.69936 31.74406 27.22171
#
# Velocity S-wave (km/s) = 3.25092 3.84442 3.56006
# Velocity P-wave (km/s) = 5.13311 6.40173 5.80220
#
# Compressibility (1/GPa) = 0.03798348
#
# Stress axis : x y z
#
# Youngs Moduli (GPa) = 53.81162 60.95964 41.33510
#
# Poissons Ratio (x) = 0.58394 0.19108
# Poissons Ratio (y) = 0.51547 -0.14896
# Poissons Ratio (z) = 0.24876 -0.21968
#
# Static dielectric constant tensor:
#      x y z
#    x 1.787950 -0.004370 -0.004850 
#    y -0.004370 1.788990 -0.008850 
#    z -0.004850 -0.008850 1.823020 
# 
# From -- ./inp_files/578902.got.cif
#   From: 2010.05.17/outbox.cif.g08.bks.cpg/sg2_290_cif.got.tgz:578902.got - 2010.06.03 11:33:40.
