data_PCOD9012115
_publ_section_title
;
Structure prediction by ZEFSAII (Michael W. Deem and Ramdas Pophale) SiO2 
 PCOD9012115
Probable space group: P -1
;
_chemical_formula_sum "Si O2"
_cell_formula_units_Z 16
_cell_length_a 9.227546
_cell_length_b 18.234290
_cell_length_c 13.216598
_cell_angle_alpha 145.049139
_cell_angle_beta 135.386362
_cell_angle_gamma 70.737499
_cell_volume 694.662386
_symmetry_space_group_name_H-M "P -1"
_symmetry_group_IT_number 2
_symmetry_cell_setting 'triclinic'
loop_
_space_group_symop_operation_xyz
x,y,z
-x,-y,-z
loop_
_atom_site_type_symbol
_atom_site_label
_atom_site_fract_x
_atom_site_fract_y
_atom_site_fract_z
Si Si1 0.578249 0.479091 0.625643
Si Si2 0.695069 0.434059 0.276551
Si Si3 0.343385 0.131898 0.087388
Si Si4 0.293693 0.081172 0.775434
Si Si5 0.607641 0.961257 0.785116
Si Si6 0.154883 0.911204 0.147061
Si Si7 0.115614 0.618576 0.094667
Si Si8 0.650761 0.277575 0.881012
O O1 0.500000 0.500000 0.500000
O O2 0.379742 0.457483 0.589106
O O3 0.583510 0.326055 0.441922
O O4 0.882715 0.634067 0.980073
O O5 0.000000 0.500000 0.500000
O O6 0.508736 0.272722 0.071798
O O7 0.597151 0.366557 0.037381
O O8 0.325718 0.023908 0.047309
O O9 0.312401 0.063366 0.883999
O O10 0.102066 0.135817 0.981499
O O11 0.416235 0.001624 0.698931
O O12 0.000000 0.000000 0.500000
O O13 0.414164 0.768561 0.447894
O O14 0.856801 0.074920 0.964133
O O15 0.202395 0.784280 0.060513
O O16 0.390215 0.100062 0.511947
O O17 0.177482 0.601001 0.989692
O O18 0.000000 0.500000 0.000000
#
# Coordination Sequence:
#
# PCOD9012115 Si02
#       8
#     2   2   2   2   2   2   2   2
#     4  12  24  41  68  97 129 183 229 274 331 410
#     4  12  24  41  64 101 136 171 229 286 334 397
#     4  12  24  41  66  99 136 174 224 284 344 403
#     4  12  26  44  70 101 134 178 232 287 335 409
#     4  11  24  43  68  97 138 175 219 285 347 404
#     4  10  21  40  68  96 129 173 230 273 341 409
#     4  11  23  44  67  97 136 175 224 275 343 410
#     4  10  22  40  67  96 131 179 224 285 333 402
#
# _framework density 23.032774
#
# number of rings (size 3 to 8) (size 9 to 14) (size 15 to 20)
#    0.000    0.750    3.750    4.500    3.500    0.000 
#    0.000    0.625    0.000    0.000    0.000    0.000 
#    0.000    0.000    0.000    0.000    0.000    0.000 
#
# Total GULP energy -89218.793580 kJ/mol
# GULP energy per Si atom -5576.174599 kJ/mol
# Density = 2.298035 g / cm^3
# Si number density = 23.032774 Si / 1000 Ang^3
#
#
#
# Elastic Constant Matrix: (Units=GPa)
#
#
# Indices 1 2 3 4 5 6 
#
# 1 94.1620 1.4981 5.7342 -10.1237 -14.6232 21.1728
# 2 1.4981 75.8441 -1.5877 -16.1968 -11.3864 28.2206
# 3 5.7342 -1.5877 48.3257 -9.2504 0.8927 8.2082
# 4 -10.1237 -16.1968 -9.2504 32.1589 2.2649 -2.1497
# 5 -14.6232 -11.3864 0.8927 2.2649 30.6548 -0.4196
# 6 21.1728 28.2206 8.2082 -2.1497 -0.4196 40.3532
#
#
#
# Elastic Compliance Matrix: (Units=1/GPa)
#
#
# Indices 1 2 3 4 5 6 
#
# 1 0.015851 0.008060 0.002097 0.008042 0.009710 -0.013850
# 2 0.008060 0.027147 0.006727 0.015703 0.012249 -0.023618
# 3 0.002097 0.006727 0.024318 0.010229 0.001895 -0.010186
# 4 0.008042 0.015703 0.010229 0.043059 0.005986 -0.014926
# 5 0.009710 0.012249 0.001895 0.005986 0.041123 -0.013300
# 6 -0.013850 -0.023618 -0.010186 -0.014926 -0.013300 0.049704
#
#
# Mechanical properties :
#
#
# Convention : Reuss Voigt Hill
#
# Bulk Modulus (GPa) = 9.89300 25.51346 17.70323
# Shear Modulus (GPa) = 24.85947 34.81253 29.83600
#
# Velocity S-wave (km/s) = 3.28885 3.89193 3.60303
# Velocity P-wave (km/s) = 4.32742 5.59440 5.00119
#
# Compressibility (1/GPa) = 0.10108161
#
# Stress axis : x y z
#
# Youngs Moduli (GPa) = 63.08744 36.83674 41.12138
#
# Poissons Ratio (x) = -0.29689 -0.08621
# Poissons Ratio (y) = -0.50846 -0.27661
# Poissons Ratio (z) = -0.13226 -0.24779
#
# Static dielectric constant tensor:
#      x y z
#    x 1.914720 -0.010420 -0.072380 
#    y -0.010420 1.919240 0.070850 
#    z -0.072380 0.070850 2.097080 
# 
# From -- ./inp_files/185125.got.cif
#   From: 2010.05.17/outbox.cif.g08.bks.cpg/sg2_93_cif.got.tgz:185125.got - 2010.06.03 11:33:40.
