data_PCOD9012442
_publ_section_title
;
Structure prediction by ZEFSAII (Michael W. Deem and Ramdas Pophale) SiO2 
 PCOD9012442
Probable space group: P -1
;
_chemical_formula_sum "Si O2"
_cell_formula_units_Z 16
_cell_length_a 13.686279
_cell_length_b 11.409262
_cell_length_c 16.731113
_cell_angle_alpha 55.202665
_cell_angle_beta 145.679884
_cell_angle_gamma 148.752389
_cell_volume 677.271009
_symmetry_space_group_name_H-M "P -1"
_symmetry_group_IT_number 2
_symmetry_cell_setting 'triclinic'
loop_
_space_group_symop_operation_xyz
x,y,z
-x,-y,-z
loop_
_atom_site_type_symbol
_atom_site_label
_atom_site_fract_x
_atom_site_fract_y
_atom_site_fract_z
Si Si1 0.087714 0.828783 0.100055
Si Si2 0.124537 0.743709 0.976415
Si Si3 0.396231 0.275075 0.221831
Si Si4 0.860927 0.715954 0.652664
Si Si5 0.994565 0.123204 0.575245
Si Si6 0.731390 0.452456 0.136962
Si Si7 0.935417 0.869904 0.205159
Si Si8 0.206071 0.815748 0.713537
O O1 0.107702 0.802097 0.031349
O O2 0.966692 0.619386 0.155571
O O3 0.378141 0.116261 0.220041
O O4 0.800587 0.742561 0.953094
O O5 0.483228 0.973458 0.106618
O O6 0.000000 0.500000 0.000000
O O7 0.963671 0.721122 0.805263
O O8 0.708435 0.568673 0.342219
O O9 0.187426 0.103117 0.224804
O O10 0.500000 0.500000 0.500000
O O11 0.928591 0.657900 0.647350
O O12 0.037244 0.983809 0.641477
O O13 0.899182 0.047749 0.631924
O O14 0.770963 0.046976 0.391597
O O15 0.817986 0.639278 0.181679
O O16 0.795902 0.343650 0.261609
O O17 0.371584 0.238962 0.953401
#
# Coordination Sequence:
#
# PCOD9012442 Si02
#       8
#     2   2   2   2   2   2   2   2
#     4  10  21  40  70 104 142 184 247 290 362 432
#     4  12  27  46  75 105 146 189 242 308 373 433
#     4  10  22  40  70 108 139 190 242 298 347 444
#     4  12  29  51  77 104 143 197 253 305 368 443
#     4  12  26  44  74 103 148 191 247 298 366 440
#     4  10  21  43  69 106 146 191 239 303 354 446
#     4  10  22  42  73 104 146 194 244 287 370 435
#     4  12  28  46  70 109 147 189 245 312 369 429
#
# _framework density 23.624219
#
# number of rings (size 3 to 8) (size 9 to 14) (size 15 to 20)
#    0.000    1.000    1.250    4.500    8.750    0.500 
#    0.000    1.250    0.000    0.000    0.000    0.000 
#    0.000    0.000    0.000    0.000    0.000    0.000 
#
# Total GULP energy -89435.526065 kJ/mol
# GULP energy per Si atom -5589.720379 kJ/mol
# Density = 2.357045 g / cm^3
# Si number density = 23.624219 Si / 1000 Ang^3
#
#
#
# Elastic Constant Matrix: (Units=GPa)
#
#
# Indices 1 2 3 4 5 6 
#
# 1 120.0270 40.5485 38.4905 -16.9948 -2.3465 6.2481
# 2 40.5485 126.0726 33.6846 -19.2035 5.3827 -14.0039
# 3 38.4905 33.6846 118.2860 -19.8194 -8.0358 -0.4115
# 4 -16.9948 -19.2035 -19.8194 46.7640 5.2642 -0.9749
# 5 -2.3465 5.3827 -8.0358 5.2642 26.7264 -0.5716
# 6 6.2481 -14.0039 -0.4115 -0.9749 -0.5716 26.7788
#
#
#
# Elastic Compliance Matrix: (Units=1/GPa)
#
#
# Indices 1 2 3 4 5 6 
#
# 1 0.010510 -0.003004 -0.002300 0.001476 0.000460 -0.003995
# 2 -0.003004 0.010681 -0.001761 0.003063 -0.003413 0.006298
# 3 -0.002300 -0.001761 0.010310 0.002499 0.002759 -0.000076
# 4 0.001476 0.003063 0.002499 0.024796 -0.004575 0.002101
# 5 0.000460 -0.003413 0.002759 -0.004575 0.039850 -0.001166
# 6 -0.003995 0.006298 -0.000076 0.002101 -0.001166 0.041619
#
#
# Mechanical properties :
#
#
# Convention : Reuss Voigt Hill
#
# Bulk Modulus (GPa) = 57.56835 65.53700 61.55267
# Shear Modulus (GPa) = 31.70893 36.83130 34.27012
#
# Velocity S-wave (km/s) = 3.66761 3.95276 3.81285
# Velocity P-wave (km/s) = 6.50818 6.97382 6.74502
#
# Compressibility (1/GPa) = 0.01737066
#
# Stress axis : x y z
#
# Youngs Moduli (GPa) = 95.14875 93.62824 96.99746
#
# Poissons Ratio (x) = 0.28130 0.22306
# Poissons Ratio (y) = 0.28587 0.17077
# Poissons Ratio (z) = 0.21881 0.16484
#
# Static dielectric constant tensor:
#      x y z
#    x 1.912520 -0.026880 -0.018590 
#    y -0.026880 1.982440 0.013270 
#    z -0.018590 0.013270 1.891540 
# 
# From -- ./inp_files/573591.got.cif
#   From: 2010.05.17/outbox.cif.g08.bks.cpg/sg2_287_cif.got.tgz:573591.got - 2010.06.03 11:33:40.
