data_PCOD9012526
_publ_section_title
;
Structure prediction by ZEFSAII (Michael W. Deem and Ramdas Pophale) SiO2 
 PCOD9012526
Probable space group: P -1
;
_chemical_formula_sum "Si O2"
_cell_formula_units_Z 16
_cell_length_a 9.013343
_cell_length_b 8.941550
_cell_length_c 13.443169
_cell_angle_alpha 110.593162
_cell_angle_beta 74.163882
_cell_angle_gamma 59.953896
_cell_volume 730.817088
_symmetry_space_group_name_H-M "P -1"
_symmetry_group_IT_number 2
_symmetry_cell_setting 'triclinic'
loop_
_space_group_symop_operation_xyz
x,y,z
-x,-y,-z
loop_
_atom_site_type_symbol
_atom_site_label
_atom_site_fract_x
_atom_site_fract_y
_atom_site_fract_z
Si Si1 0.972516 0.207346 0.039638
Si Si2 0.671698 0.417183 0.320902
Si Si3 0.698300 0.475086 0.959756
Si Si4 0.401904 0.906088 0.534877
Si Si5 0.589471 0.918285 0.073064
Si Si6 0.120347 0.728915 0.535164
Si Si7 0.417678 0.276653 0.331133
Si Si8 0.920045 0.170152 0.662840
O O1 0.849860 0.340061 0.193056
O O2 0.841717 0.332527 0.993797
O O3 0.191168 0.143088 0.974292
O O4 0.000000 0.000000 0.000000
O O5 0.520690 0.671312 0.414864
O O6 0.754070 0.324532 0.396571
O O7 0.547317 0.345758 0.290686
O O8 0.809763 0.356659 0.807359
O O9 0.500000 0.500000 0.000000
O O10 0.629591 0.705403 0.036778
O O11 0.453312 0.869845 0.632752
O O12 0.500000 0.000000 0.500000
O O13 0.160446 0.055694 0.594460
O O14 0.427479 0.124649 0.218965
O O15 0.500000 0.000000 0.000000
O O16 0.191020 0.495265 0.454630
O O17 0.156109 0.755957 0.418625
O O18 0.920412 0.980253 0.648043
#
# Coordination Sequence:
#
# PCOD9012526 Si02
#       8
#     2   2   2   2   2   2   2   2
#     4  12  25  44  75 104 144 191 240 293 363 435
#     4  11  22  43  70  99 141 181 238 271 368 426
#     4  12  29  48  74 107 143 194 245 298 364 427
#     4  11  24  41  68 104 135 185 228 298 353 420
#     4  12  27  48  70 104 147 192 242 304 354 428
#     4  10  21  40  70  98 129 181 221 291 342 416
#     4  11  21  46  68  95 141 182 234 282 350 427
#     4  11  22  42  71  99 137 170 243 287 354 410
#
# _framework density 21.893301999999998
#
# number of rings (size 3 to 8) (size 9 to 14) (size 15 to 20)
#    0.000    0.750    3.750    4.125    5.250    0.000 
#    2.250    1.250    0.000    0.000    0.000    0.000 
#    0.000    0.000    0.000    0.000    0.000    0.000 
#
# Total GULP energy -89265.521459 kJ/mol
# GULP energy per Si atom -5579.095091 kJ/mol
# Density = 2.184347 g / cm^3
# Si number density = 21.893302 Si / 1000 Ang^3
#
#
#
# Elastic Constant Matrix: (Units=GPa)
#
#
# Indices 1 2 3 4 5 6 
#
# 1 84.9864 40.1067 4.6631 6.5155 11.2516 1.7121
# 2 40.1067 105.8671 0.1602 9.3448 25.6424 -11.6793
# 3 4.6631 0.1602 106.5436 11.9072 37.5903 2.7645
# 4 6.5155 9.3448 11.9072 27.7479 5.0508 7.5582
# 5 11.2516 25.6424 37.5903 5.0508 36.8382 1.7028
# 6 1.7121 -11.6793 2.7645 7.5582 1.7028 41.7463
#
#
#
# Elastic Compliance Matrix: (Units=1/GPa)
#
#
# Indices 1 2 3 4 5 6 
#
# 1 0.014573 -0.005790 -0.000650 -0.000710 0.000435 -0.002064
# 2 -0.005790 0.016602 0.006228 -0.005731 -0.015642 0.006145
# 3 -0.000650 0.006228 0.017562 -0.006315 -0.021313 0.002619
# 4 -0.000710 -0.005731 -0.006315 0.042350 0.005261 -0.009038
# 5 0.000435 -0.015642 -0.021313 0.005261 0.059221 -0.006351
# 6 -0.002064 0.006145 0.002619 -0.009038 -0.006351 0.027480
#
#
# Mechanical properties :
#
#
# Convention : Reuss Voigt Hill
#
# Bulk Modulus (GPa) = 20.69789 43.02857 31.86323
# Shear Modulus (GPa) = 25.73111 38.09761 31.91436
#
# Velocity S-wave (km/s) = 3.43198 4.17604 3.82216
# Velocity P-wave (km/s) = 5.01788 6.55353 5.83643
#
# Compressibility (1/GPa) = 0.04831411
#
# Stress axis : x y z
#
# Youngs Moduli (GPa) = 68.61906 60.23196 56.94029
#
# Poissons Ratio (x) = 0.34876 0.03700
# Poissons Ratio (y) = 0.39733 -0.35463
# Poissons Ratio (z) = 0.04459 -0.37514
#
# Static dielectric constant tensor:
#      x y z
#    x 1.841790 0.043480 -0.057400 
#    y 0.043480 1.787170 0.009520 
#    z -0.057400 0.009520 1.917550 
# 
# From -- ./inp_files/495597.got.cif
#   From: 2010.05.17/outbox.cif.g08.bks.cpg/sg2_248_cif.got.tgz:495597.got - 2010.06.03 11:33:40.
