data_PCOD9012666
_publ_section_title
;
Structure prediction by ZEFSAII (Michael W. Deem and Ramdas Pophale) SiO2 
 PCOD9012666
Probable space group: P -1
;
_chemical_formula_sum "Si O2"
_cell_formula_units_Z 16
_cell_length_a 7.980056
_cell_length_b 14.684844
_cell_length_c 10.685955
_cell_angle_alpha 61.440276
_cell_angle_beta 64.493186
_cell_angle_gamma 112.696546
_cell_volume 660.566946
_symmetry_space_group_name_H-M "P -1"
_symmetry_group_IT_number 2
_symmetry_cell_setting 'triclinic'
loop_
_space_group_symop_operation_xyz
x,y,z
-x,-y,-z
loop_
_atom_site_type_symbol
_atom_site_label
_atom_site_fract_x
_atom_site_fract_y
_atom_site_fract_z
Si Si1 0.846481 0.104433 0.442067
Si Si2 0.297568 0.628729 0.254666
Si Si3 0.403149 0.582327 0.652615
Si Si4 0.621323 0.219591 0.309688
Si Si5 0.484636 0.965524 0.176126
Si Si6 0.569262 0.588489 0.043052
Si Si7 0.875021 0.283674 0.924795
Si Si8 0.306283 0.173570 0.791244
O O1 0.722713 0.161238 0.391262
O O2 0.765612 0.084262 0.629227
O O3 0.682847 0.939322 0.541730
O O4 0.158076 0.232972 0.202662
O O5 0.313561 0.552457 0.189720
O O6 0.312092 0.742700 0.103910
O O7 0.569801 0.725111 0.188798
O O8 0.000000 0.500000 0.500000
O O9 0.346136 0.661824 0.701272
O O10 0.406015 0.486575 0.807011
O O11 0.666164 0.731141 0.390499
O O12 0.187359 0.453904 0.699139
O O13 0.802564 0.297402 0.074872
O O14 0.487816 0.841950 0.274922
O O15 0.500000 0.000000 0.000000
O O16 0.770206 0.123021 0.051876
O O17 0.500000 0.500000 0.000000
O O18 0.000000 0.000000 0.000000
#
# Coordination Sequence:
#
# PCOD9012666 Si02
#       8
#     2   2   2   2   2   2   2   2
#     4  10  23  43  74 106 145 192 248 309 368 448
#     4  12  28  50  74 108 156 199 252 315 380 451
#     4  12  25  45  75 105 149 197 252 309 378 450
#     4  10  21  40  74 105 145 190 242 303 380 437
#     4  11  24  46  75 108 150 197 247 303 383 448
#     4  12  30  47  75 112 151 193 257 319 373 445
#     4  11  23  43  75 106 139 200 245 301 377 456
#     4  12  29  46  75 108 149 199 252 310 372 456
#
# _framework density 24.221619
#
# number of rings (size 3 to 8) (size 9 to 14) (size 15 to 20)
#    0.000    0.750    5.000    1.125    7.000    2.500 
#    0.000    3.125    0.000    0.000    0.000    0.000 
#    0.000    0.000    0.000    0.000    0.000    0.000 
#
# Total GULP energy -89334.323276 kJ/mol
# GULP energy per Si atom -5583.395205 kJ/mol
# Density = 2.416649 g / cm^3
# Si number density = 24.221619 Si / 1000 Ang^3
#
#
#
# Elastic Constant Matrix: (Units=GPa)
#
#
# Indices 1 2 3 4 5 6 
#
# 1 41.7069 10.9512 22.2506 7.4202 12.5248 8.1987
# 2 10.9512 109.7060 23.8545 -2.1490 -1.3598 -9.2728
# 3 22.2506 23.8545 160.3746 5.2672 0.1671 9.9450
# 4 7.4202 -2.1490 5.2672 44.4388 4.8264 6.4430
# 5 12.5248 -1.3598 0.1671 4.8264 30.4975 4.9140
# 6 8.1987 -9.2728 9.9450 6.4430 4.9140 38.4861
#
#
#
# Elastic Compliance Matrix: (Units=1/GPa)
#
#
# Indices 1 2 3 4 5 6 
#
# 1 0.031663 -0.002976 -0.003558 -0.003062 -0.011905 -0.004510
# 2 -0.002976 0.009982 -0.001286 0.000560 0.001080 0.003140
# 3 -0.003558 -0.001286 0.007022 -0.000258 0.001653 -0.001535
# 4 -0.003062 0.000560 -0.000258 0.023704 -0.002007 -0.002858
# 5 -0.011905 0.001080 0.001653 -0.002007 0.038390 -0.002197
# 6 -0.004510 0.003140 -0.001535 -0.002858 -0.002197 0.028856
#
#
# Mechanical properties :
#
#
# Convention : Reuss Voigt Hill
#
# Bulk Modulus (GPa) = 30.27767 47.32223 38.79995
# Shear Modulus (GPa) = 30.07250 39.66655 34.86952
#
# Velocity S-wave (km/s) = 3.52739 4.05118 3.79833
# Velocity P-wave (km/s) = 5.39606 6.43913 5.94053
#
# Compressibility (1/GPa) = 0.03302764
#
# Stress axis : x y z
#
# Youngs Moduli (GPa) = 31.58276 100.18349 142.40614
#
# Poissons Ratio (x) = 0.29813 0.50663
# Poissons Ratio (y) = 0.09399 0.18314
# Poissons Ratio (z) = 0.11236 0.12884
#
# Static dielectric constant tensor:
#      x y z
#    x 1.955290 -0.229490 0.151690 
#    y -0.229490 1.441660 0.216780 
#    z 0.151690 0.216780 2.066870 
# 
# From -- ./inp_files/398762.got.cif
#   From: 2010.05.17/outbox.cif.g08.bks.cpg/sg2_200_cif.got.tgz:398762.got - 2010.06.03 11:33:40.
