data_PCOD9012689
_publ_section_title
;
Structure prediction by ZEFSAII (Michael W. Deem and Ramdas Pophale) SiO2 
 PCOD9012689
Probable space group: P -1
;
_chemical_formula_sum "Si O2"
_cell_formula_units_Z 16
_cell_length_a 9.498000
_cell_length_b 5.900779
_cell_length_c 16.521573
_cell_angle_alpha 62.414264
_cell_angle_beta 61.578792
_cell_angle_gamma 56.157598
_cell_volume 651.057304
_symmetry_space_group_name_H-M "P -1"
_symmetry_group_IT_number 2
_symmetry_cell_setting 'triclinic'
loop_
_space_group_symop_operation_xyz
x,y,z
-x,-y,-z
loop_
_atom_site_type_symbol
_atom_site_label
_atom_site_fract_x
_atom_site_fract_y
_atom_site_fract_z
Si Si1 0.449483 0.547009 0.413137
Si Si2 0.235346 0.963997 0.834552
Si Si3 0.324252 0.055062 0.091191
Si Si4 0.716615 0.334829 0.963870
Si Si5 0.378519 0.064330 0.257043
Si Si6 0.190831 0.799215 0.709521
Si Si7 0.156930 0.374691 0.541971
Si Si8 0.007298 0.441560 0.278969
O O1 0.500000 0.500000 0.500000
O O2 0.631168 0.451514 0.330648
O O3 0.332249 0.379142 0.455781
O O4 0.340943 0.871898 0.364603
O O5 0.437457 0.923031 0.778672
O O6 0.206571 0.774141 0.805101
O O7 0.100932 0.273383 0.788532
O O8 0.213098 0.876690 0.944554
O O9 0.231922 0.400817 0.075038
O O10 0.383892 0.944130 0.184711
O O11 0.241695 0.874605 0.091819
O O12 0.500000 0.000000 0.000000
O O13 0.500000 0.500000 0.000000
O O14 0.208814 0.367511 0.256187
O O15 0.008959 0.797883 0.731545
O O16 0.194048 0.072511 0.620313
O O17 0.093002 0.562147 0.609977
O O18 0.000000 0.500000 0.500000
#
# Coordination Sequence:
#
# PCOD9012689 Si02
#       8
#     2   2   2   2   2   2   2   2
#     4  12  24  42  70 100 134 190 236 284 363 424
#     4  11  24  45  71 101 136 188 231 298 354 432
#     4  10  22  43  70 112 140 189 243 297 367 439
#     4  10  21  40  76 102 145 186 241 297 367 433
#     4  12  25  44  76 100 140 188 234 297 359 435
#     4  11  24  43  68  97 142 180 238 292 355 434
#     4  11  25  43  63  97 137 184 233 300 351 420
#     4  11  26  47  65 104 141 180 241 291 361 425
#
# _framework density 24.575406999999998
#
# number of rings (size 3 to 8) (size 9 to 14) (size 15 to 20)
#    0.000    1.000    5.000    1.875    8.750    1.000 
#    4.500    1.250    0.000    0.000    0.000    0.000 
#    0.000    0.000    0.000    0.000    0.000    0.000 
#
# Total GULP energy -89410.472971 kJ/mol
# GULP energy per Si atom -5588.154561 kJ/mol
# Density = 2.451947 g / cm^3
# Si number density = 24.575407 Si / 1000 Ang^3
#
#
#
# Elastic Constant Matrix: (Units=GPa)
#
#
# Indices 1 2 3 4 5 6 
#
# 1 130.4133 43.1269 34.4626 -6.0397 7.9838 -3.7724
# 2 43.1269 61.5012 11.4773 0.1887 3.8229 1.9331
# 3 34.4626 11.4773 101.4262 -19.3174 26.7555 4.6000
# 4 -6.0397 0.1887 -19.3174 40.5598 2.5611 1.4780
# 5 7.9838 3.8229 26.7555 2.5611 52.2249 2.8771
# 6 -3.7724 1.9331 4.6000 1.4780 2.8771 50.2607
#
#
#
# Elastic Compliance Matrix: (Units=1/GPa)
#
#
# Indices 1 2 3 4 5 6 
#
# 1 0.010833 -0.007100 -0.002992 0.000152 0.000315 0.001338
# 2 -0.007100 0.021316 -0.000073 -0.001124 -0.000311 -0.001295
# 3 -0.002992 -0.000073 0.014078 0.006750 -0.007009 -0.001308
# 4 0.000152 -0.001124 0.006750 0.028237 -0.004722 -0.001123
# 5 0.000315 -0.000311 -0.007009 -0.004722 0.022972 -0.000499
# 6 0.001338 -0.001295 -0.001308 -0.001123 -0.000499 0.020228
#
#
# Mechanical properties :
#
#
# Convention : Reuss Voigt Hill
#
# Bulk Modulus (GPa) = 38.61576 52.38604 45.50090
# Shear Modulus (GPa) = 34.10021 42.22734 38.16378
#
# Velocity S-wave (km/s) = 3.72906 4.14971 3.94499
# Velocity P-wave (km/s) = 5.85563 6.65754 6.26942
#
# Compressibility (1/GPa) = 0.02589616
#
# Stress axis : x y z
#
# Youngs Moduli (GPa) = 92.30957 46.91323 71.03265
#
# Poissons Ratio (x) = 0.33310 0.21255
# Poissons Ratio (y) = 0.65542 0.00518
# Poissons Ratio (z) = 0.27621 0.00342
#
# Static dielectric constant tensor:
#      x y z
#    x 1.931620 0.028940 -0.009070 
#    y 0.028940 2.113330 -0.012740 
#    z -0.009070 -0.012740 1.917530 
# 
# From -- ./inp_files/46524.got.cif
#   From: 2010.05.17/outbox.cif.g08.bks.cpg/sg2_24_cif.got.tgz:46524.got - 2010.06.03 11:33:40.
