data_PCOD9012154
_publ_section_title
;
Structure prediction by ZEFSAII (Michael W. Deem and Ramdas Pophale) SiO2 
 PCOD9012154
Probable space group: P -1
;
_chemical_formula_sum "Si O2"
_cell_formula_units_Z 14
_cell_length_a 8.218818
_cell_length_b 27.074501
_cell_length_c 29.688764
_cell_angle_alpha 8.877402
_cell_angle_beta 33.461467
_cell_angle_gamma 34.137903
_cell_volume 561.670620
_symmetry_space_group_name_H-M "P -1"
_symmetry_group_IT_number 2
_symmetry_cell_setting 'triclinic'
loop_
_space_group_symop_operation_xyz
x,y,z
-x,-y,-z
loop_
_atom_site_type_symbol
_atom_site_label
_atom_site_fract_x
_atom_site_fract_y
_atom_site_fract_z
Si Si1 0.475610 0.152756 0.541103
Si Si2 0.708112 0.257011 0.198092
Si Si3 0.000000 0.500000 0.000000
Si Si4 0.273476 0.406450 0.765107
Si Si5 0.243154 0.819878 0.976051
Si Si6 0.061648 0.066353 0.201469
Si Si7 0.000000 0.000000 0.500000
Si Si8 0.097992 0.860395 0.150704
O O1 0.781830 0.955938 0.635698
O O2 0.215814 0.028960 0.680285
O O3 0.402238 0.078514 0.676571
O O4 0.469826 0.532478 0.195747
O O5 0.500000 0.000000 0.500000
O O6 0.500000 0.500000 0.000000
O O7 0.871809 0.482046 0.993214
O O8 0.936472 0.121751 0.230209
O O9 0.238741 0.764820 0.684389
O O10 0.304823 0.776086 0.411882
O O11 0.547559 0.173087 0.898682
O O12 0.994928 0.313909 0.883156
O O13 0.198159 0.350754 0.885125
O O14 0.059284 0.945814 0.947497
O O15 0.000000 0.500000 0.500000
O O16 0.000000 0.000000 0.000000
#
# Coordination Sequence:
#
# PCOD9012154 Si02
#       8
#     2   2   1   2   2   2   1   2
#     4  10  21  40  68  97 137 176 235 283 342 411
#     4  12  25  45  72  98 145 190 240 306 362 423
#     4  12  26  44  66 106 132 188 250 282 370 432
#     4  10  22  43  70  95 131 174 229 274 338 429
#     4  10  22  43  68  99 126 185 227 277 337 421
#     4  10  21  41  68  97 130 178 231 283 345 407
#     4  12  24  44  64 104 148 182 234 302 348 420
#     4  12  25  44  66  98 141 170 218 281 359 414
#
# _framework density 24.925640999999999
#
# number of rings (size 3 to 8) (size 9 to 14) (size 15 to 20)
#    0.000    1.143    0.000    6.429    0.000    2.286 
#   15.429    5.714    0.000    0.000    0.000    0.000 
#    0.000    0.000    0.000    0.000    0.000    0.000 
#
# Total GULP energy -78118.191870 kJ/mol
# GULP energy per Si atom -5579.870848 kJ/mol
# Density = 2.486891 g / cm^3
# Si number density = 24.925641 Si / 1000 Ang^3
#
#
#
# Elastic Constant Matrix: (Units=GPa)
#
#
# Indices 1 2 3 4 5 6 
#
# 1 140.3084 45.5207 46.7893 4.0729 18.8015 18.9764
# 2 45.5207 171.3394 28.5656 -9.3545 18.6548 18.7359
# 3 46.7893 28.5656 86.5696 6.2931 34.4199 6.2142
# 4 4.0729 -9.3545 6.2931 40.0454 6.2840 2.4242
# 5 18.8015 18.6548 34.4199 6.2840 42.6995 7.7734
# 6 18.9764 18.7359 6.2142 2.4242 7.7734 45.2638
#
#
#
# Elastic Compliance Matrix: (Units=1/GPa)
#
#
# Indices 1 2 3 4 5 6 
#
# 1 0.009483 -0.001553 -0.004734 -0.000556 0.000912 -0.002810
# 2 -0.001553 0.006899 -0.000801 0.002274 -0.001668 -0.001930
# 3 -0.004734 -0.000801 0.019748 -0.000775 -0.013735 0.002005
# 4 -0.000556 0.002274 -0.000775 0.026353 -0.003753 -0.001369
# 5 0.000912 -0.001668 -0.013735 -0.003753 0.036063 -0.003798
# 6 -0.002810 -0.001930 0.002005 -0.001369 -0.003798 0.024520
#
#
# Mechanical properties :
#
#
# Convention : Reuss Voigt Hill
#
# Bulk Modulus (GPa) = 45.54576 71.10763 58.32670
# Shear Modulus (GPa) = 34.58792 44.09118 39.33955
#
# Velocity S-wave (km/s) = 3.72915 4.21040 3.97706
# Velocity P-wave (km/s) = 6.07078 7.22679 6.67386
#
# Compressibility (1/GPa) = 0.02195594
#
# Stress axis : x y z
#
# Youngs Moduli (GPa) = 105.44640 144.94329 50.63898
#
# Poissons Ratio (x) = 0.22505 0.23971
# Poissons Ratio (y) = 0.16373 0.04055
# Poissons Ratio (z) = 0.49915 0.11607
#
# Static dielectric constant tensor:
#      x y z
#    x 1.869970 0.184800 -0.123670 
#    y 0.184800 1.925410 0.086580 
#    z -0.123670 0.086580 1.596960 
# 
# From -- ./inp_files/56558.got.cif
#   From: 2010.05.17/outbox.cif.g08.bks.cpg/sg2_29_cif.got.tgz:56558.got - 2010.06.03 11:33:40.
