data_PCOD9012795
_publ_section_title
;
Structure prediction by ZEFSAII (Michael W. Deem and Ramdas Pophale) SiO2 
 PCOD9012795
Probable space group: P -1
;
_chemical_formula_sum "Si O2"
_cell_formula_units_Z 16
_cell_length_a 6.505113
_cell_length_b 8.823950
_cell_length_c 13.084178
_cell_angle_alpha 95.454447
_cell_angle_beta 90.769867
_cell_angle_gamma 112.517323
_cell_volume 689.629099
_symmetry_space_group_name_H-M "P -1"
_symmetry_group_IT_number 2
_symmetry_cell_setting 'triclinic'
loop_
_space_group_symop_operation_xyz
x,y,z
-x,-y,-z
loop_
_atom_site_type_symbol
_atom_site_label
_atom_site_fract_x
_atom_site_fract_y
_atom_site_fract_z
Si Si1 0.950347 0.732851 0.030243
Si Si2 0.895251 0.465633 0.677520
Si Si3 0.215724 0.594261 0.866493
Si Si4 0.118264 0.824142 0.477047
Si Si5 0.674425 0.662265 0.567896
Si Si6 0.419010 0.153709 0.013713
Si Si7 0.492947 0.073790 0.352772
Si Si8 0.649202 0.192558 0.820609
O O1 0.802154 0.565329 0.078090
O O2 0.823446 0.844296 0.997080
O O3 0.137087 0.822354 0.123354
O O4 0.063600 0.674005 0.932858
O O5 0.905078 0.355897 0.574163
O O6 0.812232 0.601941 0.645175
O O7 0.725253 0.336908 0.747164
O O8 0.118528 0.542385 0.750381
O O9 0.460841 0.731112 0.884137
O O10 0.284182 0.892232 0.578099
O O11 0.862301 0.789679 0.501066
O O12 0.263964 0.944183 0.396203
O O13 0.500000 0.500000 0.500000
O O14 0.544058 0.757890 0.630203
O O15 0.527757 0.243291 0.914275
O O16 0.500000 0.000000 0.000000
O O17 0.499776 0.979403 0.243443
#
# Coordination Sequence:
#
# PCOD9012795 Si02
#       8
#     2   2   2   2   2   2   2   2
#     4   9  19  40  63  86 123 159 205 261 311 377
#     4  10  21  41  61  87 124 161 210 267 311 377
#     4   9  20  39  61  87 120 162 207 255 314 376
#     4  10  22  43  61  86 129 166 209 264 319 387
#     4  12  24  40  63  95 125 164 216 270 324 373
#     4  11  23  38  60  93 127 164 207 262 323 380
#     4  10  22  41  65  89 124 171 209 262 324 379
#     4   9  22  42  59  88 125 166 212 255 317 388
#
# _framework density 23.200876999999998
#
# number of rings (size 3 to 8) (size 9 to 14) (size 15 to 20)
#    0.000    2.000    1.250    1.875    0.000    6.000 
#    9.000    0.000    0.000    0.000    0.000    0.000 
#    0.000    0.000    0.000    0.000    0.000    0.000 
#
# Total GULP energy -89321.100619 kJ/mol
# GULP energy per Si atom -5582.568789 kJ/mol
# Density = 2.314807 g / cm^3
# Si number density = 23.200877 Si / 1000 Ang^3
#
#
#
# Elastic Constant Matrix: (Units=GPa)
#
#
# Indices 1 2 3 4 5 6 
#
# 1 62.8322 28.1930 -1.7210 -5.1788 8.5579 -3.0341
# 2 28.1930 67.0044 35.2664 10.8144 19.6774 7.9010
# 3 -1.7210 35.2664 81.0312 23.5049 14.5989 12.1691
# 4 -5.1788 10.8144 23.5049 41.7093 9.3408 1.9742
# 5 8.5579 19.6774 14.5989 9.3408 21.7264 -2.1205
# 6 -3.0341 7.9010 12.1691 1.9742 -2.1205 37.8838
#
#
#
# Elastic Compliance Matrix: (Units=1/GPa)
#
#
# Indices 1 2 3 4 5 6 
#
# 1 0.022151 -0.011968 0.004685 0.003625 -0.002353 0.002445
# 2 -0.011968 0.030734 -0.009816 0.000151 -0.017096 -0.005180
# 3 0.004685 -0.009816 0.020034 -0.007148 -0.003719 -0.003849
# 4 0.003625 0.000151 -0.007148 0.030608 -0.009881 0.000407
# 5 -0.002353 -0.017096 -0.003719 -0.009881 0.070064 0.009008
# 6 0.002445 -0.005180 -0.003849 0.000407 0.009008 0.029392
#
#
# Mechanical properties :
#
#
# Convention : Reuss Voigt Hill
#
# Bulk Modulus (GPa) = 25.82654 37.14941 31.48797
# Shear Modulus (GPa) = 19.99290 30.20585 25.09938
#
# Velocity S-wave (km/s) = 2.93871 3.61214 3.29268
# Velocity P-wave (km/s) = 4.76136 5.78304 5.29689
#
# Compressibility (1/GPa) = 0.03871986
#
# Stress axis : x y z
#
# Youngs Moduli (GPa) = 45.14404 32.53760 49.91509
#
# Poissons Ratio (x) = 0.38942 -0.23384
# Poissons Ratio (y) = 0.54030 0.48996
# Poissons Ratio (z) = -0.21149 0.31939
#
# Static dielectric constant tensor:
#      x y z
#    x 1.888320 0.059110 -0.010220 
#    y 0.059110 1.977730 -0.030360 
#    z -0.010220 -0.030360 1.869040 
# 
# From -- ./inp_files/480664.got.cif
#   From: 2010.05.17/outbox.cif.g08.bks.cpg/sg2_241_cif.got.tgz:480664.got - 2010.06.03 11:33:40.
