data_PCOD9012624
_publ_section_title
;
Structure prediction by ZEFSAII (Michael W. Deem and Ramdas Pophale) SiO2 
 PCOD9012624
Probable space group: P -1
;
_chemical_formula_sum "Si O2"
_cell_formula_units_Z 14
_cell_length_a 13.320671
_cell_length_b 5.519027
_cell_length_c 7.149736
_cell_angle_alpha 104.324362
_cell_angle_beta 100.666140
_cell_angle_gamma 79.616100
_cell_volume 495.472790
_symmetry_space_group_name_H-M "P -1"
_symmetry_group_IT_number 2
_symmetry_cell_setting 'triclinic'
loop_
_space_group_symop_operation_xyz
x,y,z
-x,-y,-z
loop_
_atom_site_type_symbol
_atom_site_label
_atom_site_fract_x
_atom_site_fract_y
_atom_site_fract_z
Si Si1 0.471932 0.053850 0.717478
Si Si2 0.730890 0.002431 0.551405
Si Si3 0.740449 0.370762 0.137045
Si Si4 0.522384 0.441258 0.272894
Si Si5 0.749751 0.575770 0.778676
Si Si6 0.088390 0.325816 0.602726
Si Si7 0.095050 0.120030 0.970575
O O1 0.348216 0.056120 0.651755
O O2 0.517167 0.311109 0.810811
O O3 0.500000 0.000000 0.500000
O O4 0.517608 0.823043 0.816581
O O5 0.706371 0.809967 0.672741
O O6 0.850214 0.911392 0.529230
O O7 0.727099 0.302824 0.641569
O O8 0.640225 0.388605 0.234666
O O9 0.824734 0.494784 0.303860
O O10 0.716490 0.540815 0.975355
O O11 0.802941 0.095865 0.049719
O O12 0.500000 0.500000 0.500000
O O13 0.866300 0.644228 0.861931
O O14 0.000000 0.500000 0.500000
O O15 0.937403 0.780038 0.226445
O O16 0.000000 0.000000 0.000000
#
# Coordination Sequence:
#
# PCOD9012624 Si02
#       7
#     2   2   2   2   2   2   2
#     4  10  21  40  72 108 136 178 235 303 368 425
#     4  12  24  47  73 111 145 190 249 313 363 438
#     4  11  24  47  73 106 147 203 240 303 378 446
#     4  10  21  40  73 109 133 180 242 302 361 435
#     4  11  27  45  73 103 152 198 239 303 384 440
#     4  11  28  43  75 111 145 191 262 308 365 442
#     4  11  27  51  72 102 153 208 249 303 378 449
#
# _framework density 28.255842999999999
#
# number of rings (size 3 to 8) (size 9 to 14) (size 15 to 20)
#    0.000    1.143    2.857    1.714    8.000    1.714 
#    0.000    2.857    0.000   20.571    0.000    0.000 
#    0.000    0.000    0.000    0.000    0.000    0.000 
#
# Total GULP energy -78340.612432 kJ/mol
# GULP energy per Si atom -5595.758031 kJ/mol
# Density = 2.819153 g / cm^3
# Si number density = 28.255843 Si / 1000 Ang^3
#
#
#
# Elastic Constant Matrix: (Units=GPa)
#
#
# Indices 1 2 3 4 5 6 
#
# 1 188.6081 67.5504 54.2899 -9.6220 -10.7765 8.0990
# 2 67.5504 267.5448 55.8862 -16.3995 12.8016 34.0077
# 3 54.2899 55.8862 97.7688 -4.4394 1.5391 5.5822
# 4 -9.6220 -16.3995 -4.4394 72.4641 5.4556 7.1994
# 5 -10.7765 12.8016 1.5391 5.4556 46.0293 -3.3982
# 6 8.0990 34.0077 5.5822 7.1994 -3.3982 51.1296
#
#
#
# Elastic Compliance Matrix: (Units=1/GPa)
#
#
# Indices 1 2 3 4 5 6 
#
# 1 0.006728 -0.001142 -0.003108 0.000284 0.001972 0.000125
# 2 -0.001142 0.005030 -0.001962 0.001342 -0.002001 -0.003272
# 3 -0.003108 -0.001962 0.013063 -0.000046 -0.000589 0.000338
# 4 0.000284 0.001342 -0.000046 0.014622 -0.002270 -0.003142
# 5 0.001972 -0.002001 -0.000589 -0.002270 0.023250 0.002948
# 6 0.000125 -0.003272 0.000338 -0.003142 0.002948 0.022316
#
#
# Mechanical properties :
#
#
# Convention : Reuss Voigt Hill
#
# Bulk Modulus (GPa) = 80.66555 101.04162 90.85359
# Shear Modulus (GPa) = 49.22960 59.00430 54.11695
#
# Velocity S-wave (km/s) = 4.17859 4.57466 4.38110
# Velocity P-wave (km/s) = 7.20355 7.98376 7.60367
#
# Compressibility (1/GPa) = 0.01239687
#
# Stress axis : x y z
#
# Youngs Moduli (GPa) = 148.64300 198.81472 76.55043
#
# Poissons Ratio (x) = 0.22708 0.23793
# Poissons Ratio (y) = 0.16977 0.15016
# Poissons Ratio (z) = 0.46200 0.38999
#
# Static dielectric constant tensor:
#      x y z
#    x 2.407300 -0.003130 -0.008360 
#    y -0.003130 2.270500 0.115840 
#    z -0.008360 0.115840 2.316720 
# 
# From -- ./inp_files/289175.got.cif
#   From: 2010.05.17/outbox.cif.g08.bks.cpg/sg2_145_cif.got.tgz:289175.got - 2010.06.03 11:33:40.
