data_PCOD9012745
_publ_section_title
;
Structure prediction by ZEFSAII (Michael W. Deem and Ramdas Pophale) SiO2 
 PCOD9012745
Probable space group: P -1
;
_chemical_formula_sum "Si O2"
_cell_formula_units_Z 13
_cell_length_a 17.315811
_cell_length_b 4.874806
_cell_length_c 7.425698
_cell_angle_alpha 63.238955
_cell_angle_beta 103.104529
_cell_angle_gamma 105.509726
_cell_volume 535.161295
_symmetry_space_group_name_H-M "P -1"
_symmetry_group_IT_number 2
_symmetry_cell_setting 'triclinic'
loop_
_space_group_symop_operation_xyz
x,y,z
-x,-y,-z
loop_
_atom_site_type_symbol
_atom_site_label
_atom_site_fract_x
_atom_site_fract_y
_atom_site_fract_z
Si Si1 0.791201 0.735430 0.553015
Si Si2 0.000000 0.500000 0.000000
Si Si3 0.953218 0.582564 0.622644
Si Si4 0.276013 0.883036 0.107829
Si Si5 0.665448 0.132535 0.229076
Si Si6 0.874330 0.923233 0.917068
Si Si7 0.416055 0.339517 0.920630
O O1 0.869633 0.682547 0.499342
O O2 0.744534 0.388453 0.679278
O O3 0.832256 0.894680 0.708593
O O4 0.728442 0.942302 0.398164
O O5 0.002371 0.780858 0.750017
O O6 0.924221 0.649658 0.025325
O O7 0.929619 0.279040 0.847579
O O8 0.000000 0.500000 0.500000
O O9 0.290387 0.724587 0.972609
O O10 0.199908 0.055666 0.997463
O O11 0.359235 0.128841 0.100969
O O12 0.634537 0.398009 0.242498
O O13 0.587084 0.892329 0.181096
O O14 0.500000 0.500000 0.000000
#
# Coordination Sequence:
#
# PCOD9012745 Si02
#       7
#     2   1   2   2   2   2   2
#     4  10  22  41  61  95 125 169 231 267 327 406
#     4  10  22  38  60  88 124 174 216 272 342 382
#     4  10  23  40  57  90 127 171 218 287 328 403
#     4   9  22  39  66  90 130 173 211 278 323 397
#     4  10  23  40  69  96 127 178 215 271 335 396
#     4  10  21  41  60  86 130 163 224 269 331 395
#     4  10  22  43  67  99 134 169 217 271 335 404
#
# _framework density 24.291740000000001
#
# number of rings (size 3 to 8) (size 9 to 14) (size 15 to 20)
#    0.923    1.231    0.000    1.846    6.462    2.462 
#   11.077    1.538    0.000    0.000    0.000    0.000 
#    0.000    0.000    0.000    0.000    0.000    0.000 
#
# Total GULP energy -72380.177816 kJ/mol
# GULP energy per Si atom -5567.705986 kJ/mol
# Density = 2.423645 g / cm^3
# Si number density = 24.291740 Si / 1000 Ang^3
#
#
#
# Elastic Constant Matrix: (Units=GPa)
#
#
# Indices 1 2 3 4 5 6 
#
# 1 101.2455 33.1847 37.9627 -17.3536 5.7741 20.4078
# 2 33.1847 104.0703 9.5366 -15.5055 -8.2395 -0.3137
# 3 37.9627 9.5366 63.8703 -4.6477 14.6213 6.7844
# 4 -17.3536 -15.5055 -4.6477 38.1683 -1.9542 3.4269
# 5 5.7741 -8.2395 14.6213 -1.9542 29.3707 -6.5510
# 6 20.4078 -0.3137 6.7844 3.4269 -6.5510 46.0238
#
#
#
# Elastic Compliance Matrix: (Units=1/GPa)
#
#
# Indices 1 2 3 4 5 6 
#
# 1 0.016442 -0.003870 -0.007693 0.005495 -0.001645 -0.006826
# 2 -0.003870 0.011762 -0.000668 0.002984 0.005127 0.002402
# 3 -0.007693 -0.000668 0.022744 -0.001413 -0.010385 -0.001319
# 4 0.005495 0.002984 -0.001413 0.030197 0.001524 -0.004240
# 5 -0.001645 0.005127 -0.010385 0.001524 0.042930 0.008293
# 6 -0.006826 0.002402 -0.001319 -0.004240 0.008293 0.026462
#
#
# Mechanical properties :
#
#
# Convention : Reuss Voigt Hill
#
# Bulk Modulus (GPa) = 37.75608 47.83934 42.79771
# Shear Modulus (GPa) = 27.19964 35.27937 31.23950
#
# Velocity S-wave (km/s) = 3.34983 3.81507 3.58999
# Velocity P-wave (km/s) = 5.52615 6.25641 5.90259
#
# Compressibility (1/GPa) = 0.02648580
#
# Stress axis : x y z
#
# Youngs Moduli (GPa) = 60.82150 85.02074 43.96823
#
# Poissons Ratio (x) = 0.32902 0.33825
# Poissons Ratio (y) = 0.23537 0.02936
# Poissons Ratio (z) = 0.46790 0.05678
#
# Static dielectric constant tensor:
#      x y z
#    x 1.970840 0.071950 -0.015510 
#    y 0.071950 2.108130 0.004850 
#    z -0.015510 0.004850 2.064390 
# 
# From -- ./inp_files/322124.got.cif
#   From: 2010.05.17/outbox.cif.g08.bks.cpg/sg2_162_cif.got.tgz:322124.got - 2010.06.03 11:33:40.
