data_PCOD9012633
_publ_section_title
;
Structure prediction by ZEFSAII (Michael W. Deem and Ramdas Pophale) SiO2 
 PCOD9012633
Probable space group: P -1
;
_chemical_formula_sum "Si O2"
_cell_formula_units_Z 14
_cell_length_a 12.475777
_cell_length_b 12.144409
_cell_length_c 17.358241
_cell_angle_alpha 39.355326
_cell_angle_beta 158.225257
_cell_angle_gamma 144.918213
_cell_volume 559.636088
_symmetry_space_group_name_H-M "P -1"
_symmetry_group_IT_number 2
_symmetry_cell_setting 'triclinic'
loop_
_space_group_symop_operation_xyz
x,y,z
-x,-y,-z
loop_
_atom_site_type_symbol
_atom_site_label
_atom_site_fract_x
_atom_site_fract_y
_atom_site_fract_z
Si Si1 0.279696 0.648800 0.526821
Si Si2 0.557361 0.358553 0.198172
Si Si3 0.781765 0.785095 0.502861
Si Si4 0.217129 0.710532 0.063208
Si Si5 0.227769 0.122817 0.377617
Si Si6 0.274074 0.642819 0.854661
Si Si7 0.668631 0.747765 0.213446
O O1 0.440865 0.739835 0.666459
O O2 0.429245 0.789917 0.479741
O O3 0.357746 0.462845 0.671531
O O4 0.895922 0.553582 0.324745
O O5 0.583367 0.271625 0.180242
O O6 0.282889 0.434948 0.972389
O O7 0.943057 0.655024 0.644045
O O8 0.782680 0.790190 0.592916
O O9 0.965456 0.103805 0.622103
O O10 0.000000 0.000000 0.500000
O O11 0.419424 0.715493 0.270251
O O12 0.487976 0.805496 0.128028
O O13 0.000000 0.500000 0.000000
O O14 0.990764 0.817285 0.857852
O O15 0.496917 0.747259 0.019107
#
# Coordination Sequence:
#
# PCOD9012633 Si02
#       7
#     2   2   2   2   2   2   2
#     4  10  22  44  70  97 133 186 237 287 347 416
#     4   9  21  43  69  96 134 185 241 287 339 409
#     4  12  25  42  72 106 144 185 227 290 366 423
#     4  12  24  41  64 105 144 184 223 281 358 426
#     4  12  25  43  69 108 142 181 230 285 365 421
#     4  10  21  40  72  95 134 190 229 283 355 409
#     4  11  21  42  67  99 147 175 224 298 347 416
#
# _framework density 25.016258000000001
#
# number of rings (size 3 to 8) (size 9 to 14) (size 15 to 20)
#    0.000    1.143    4.286    2.143    0.000    1.714 
#    2.571    7.143    0.000    0.000    0.000    0.000 
#    0.000    0.000    0.000    0.000    0.000    0.000 
#
# Total GULP energy -78385.833518 kJ/mol
# GULP energy per Si atom -5598.988108 kJ/mol
# Density = 2.495932 g / cm^3
# Si number density = 25.016258 Si / 1000 Ang^3
#
#
#
# Elastic Constant Matrix: (Units=GPa)
#
#
# Indices 1 2 3 4 5 6 
#
# 1 143.5554 12.1355 18.8651 6.6497 -10.3227 4.9093
# 2 12.1355 71.8859 9.1129 5.7810 -7.7257 17.7678
# 3 18.8651 9.1129 113.4437 10.9723 -1.5554 -12.1864
# 4 6.6497 5.7810 10.9723 25.1170 -12.1313 -2.2588
# 5 -10.3227 -7.7257 -1.5554 -12.1313 40.1174 10.3953
# 6 4.9093 17.7678 -12.1864 -2.2588 10.3953 36.2359
#
#
#
# Elastic Compliance Matrix: (Units=1/GPa)
#
#
# Indices 1 2 3 4 5 6 
#
# 1 0.007412 -0.000335 -0.001343 -0.000428 0.002164 -0.001939
# 2 -0.000335 0.017751 -0.002380 -0.001169 0.005787 -0.011192
# 3 -0.001343 -0.002380 0.010214 -0.004622 -0.003209 0.005417
# 4 -0.000428 -0.001169 -0.004622 0.049232 0.014927 -0.002136
# 5 0.002164 0.005787 -0.003209 0.014927 0.034394 -0.013146
# 6 -0.001939 -0.011192 0.005417 -0.002136 -0.013146 0.038808
#
#
# Mechanical properties :
#
#
# Convention : Reuss Voigt Hill
#
# Bulk Modulus (GPa) = 36.68075 45.45688 41.06881
# Shear Modulus (GPa) = 28.56893 39.54549 34.05721
#
# Velocity S-wave (km/s) = 3.38304 3.98023 3.69372
# Velocity P-wave (km/s) = 5.47307 6.27163 5.88591
#
# Compressibility (1/GPa) = 0.02726226
#
# Stress axis : x y z
#
# Youngs Moduli (GPa) = 134.90758 56.33333 97.90145
#
# Poissons Ratio (x) = 0.01886 0.13148
# Poissons Ratio (y) = 0.04517 0.23302
# Poissons Ratio (z) = 0.18118 0.13408
#
# Static dielectric constant tensor:
#      x y z
#    x 2.003170 -0.000420 -0.002520 
#    y -0.000420 2.005790 -0.006230 
#    z -0.002520 -0.006230 2.032630 
# 
# From -- ./inp_files/567907.got.cif
#   From: 2010.05.17/outbox.cif.g08.bks.cpg/sg2_284_cif.got.tgz:567907.got - 2010.06.03 11:33:40.
