data_PCOD9012519
_publ_section_title
;
Structure prediction by ZEFSAII (Michael W. Deem and Ramdas Pophale) SiO2 
 PCOD9012519
Probable space group: P -1
;
_chemical_formula_sum "Si O2"
_cell_formula_units_Z 15
_cell_length_a 19.383617
_cell_length_b 7.883396
_cell_length_c 11.889409
_cell_angle_alpha 127.376532
_cell_angle_beta 143.385111
_cell_angle_gamma 33.302893
_cell_volume 583.569084
_symmetry_space_group_name_H-M "P -1"
_symmetry_group_IT_number 2
_symmetry_cell_setting 'triclinic'
loop_
_space_group_symop_operation_xyz
x,y,z
-x,-y,-z
loop_
_atom_site_type_symbol
_atom_site_label
_atom_site_fract_x
_atom_site_fract_y
_atom_site_fract_z
Si Si1 0.817047 0.309174 0.102916
Si Si2 0.500000 0.000000 0.500000
Si Si3 0.224839 0.151133 0.774246
Si Si4 0.472835 0.756400 0.731323
Si Si5 0.959340 0.339938 0.951363
Si Si6 0.092415 0.679840 0.549555
Si Si7 0.744695 0.925976 0.620126
Si Si8 0.612660 0.952440 0.846827
O O1 0.833356 0.523985 0.161602
O O2 0.781973 0.398797 0.223898
O O3 0.655927 0.421969 0.875090
O O4 0.983997 0.939433 0.158878
O O5 0.382601 0.989123 0.416141
O O6 0.501294 0.833086 0.322401
O O7 0.063460 0.233186 0.561044
O O8 0.364800 0.940968 0.776167
O O9 0.297395 0.001158 0.933985
O O10 0.519637 0.916633 0.795001
O O11 0.356568 0.809645 0.503978
O O12 0.092659 0.166423 0.158194
O O13 0.000000 0.500000 0.000000
O O14 0.762475 0.617605 0.841093
O O15 0.173316 0.396988 0.459581
O O16 0.000000 0.000000 0.500000
#
# Coordination Sequence:
#
# PCOD9012519 Si02
#       8
#     2   1   2   2   2   2   2   2
#     4  11  25  44  73 101 142 187 241 289 348 429
#     4  10  22  38  68 100 138 186 224 290 360 408
#     4  11  23  47  72 102 141 186 238 296 346 427
#     4  10  24  44  70 103 138 191 239 294 353 414
#     4  12  24  44  70 104 146 185 237 292 359 420
#     4  12  26  44  73 108 137 188 240 292 358 420
#     4  11  23  45  72  96 147 186 234 297 349 425
#     4  10  21  40  70  97 141 188 232 285 354 415
#
# _framework density 25.703897000000001
#
# number of rings (size 3 to 8) (size 9 to 14) (size 15 to 20)
#    0.000    1.067    4.000    2.800    1.867    2.667 
#    2.400    0.667    0.000    0.000    0.000    0.000 
#    0.000    0.000    0.000    0.000    0.000    0.000 
#
# Total GULP energy -83665.848541 kJ/mol
# GULP energy per Si atom -5577.723236 kJ/mol
# Density = 2.564539 g / cm^3
# Si number density = 25.703897 Si / 1000 Ang^3
#
#
#
# Elastic Constant Matrix: (Units=GPa)
#
#
# Indices 1 2 3 4 5 6 
#
# 1 97.5066 27.2216 -8.8232 9.2465 -4.7381 -25.6076
# 2 27.2216 94.6477 -20.8472 11.6301 11.2317 -19.6905
# 3 -8.8232 -20.8472 60.9315 3.6529 -18.7588 18.4952
# 4 9.2465 11.6301 3.6529 28.9839 -7.8008 -3.2137
# 5 -4.7381 11.2317 -18.7588 -7.8008 50.9955 -1.2961
# 6 -25.6076 -19.6905 18.4952 -3.2137 -1.2961 38.0562
#
#
#
# Elastic Compliance Matrix: (Units=1/GPa)
#
#
# Indices 1 2 3 4 5 6 
#
# 1 0.013142 -0.002206 -0.000730 -0.001976 0.001338 0.007935
# 2 -0.002206 0.013570 0.002610 -0.005460 -0.002975 0.003706
# 3 -0.000730 0.002610 0.022593 -0.002910 0.006966 -0.010129
# 4 -0.001976 -0.005460 -0.002910 0.039391 0.005994 0.000791
# 5 0.001338 -0.002975 0.006966 0.005994 0.023799 -0.002707
# 6 0.007935 0.003706 -0.010129 0.000791 -0.002707 0.038431
#
#
# Mechanical properties :
#
#
# Convention : Reuss Voigt Hill
#
# Bulk Modulus (GPa) = 20.55384 27.57646 24.06515
# Shear Modulus (GPa) = 29.79834 40.64276 35.22055
#
# Velocity S-wave (km/s) = 3.40853 3.98073 3.70569
# Velocity P-wave (km/s) = 4.84815 5.64625 5.26235
#
# Compressibility (1/GPa) = 0.04865271
#
# Stress axis : x y z
#
# Youngs Moduli (GPa) = 76.09331 73.69399 44.26202
#
# Poissons Ratio (x) = 0.16254 0.03231
# Poissons Ratio (y) = 0.16783 -0.11552
# Poissons Ratio (z) = 0.05555 -0.19234
#
# Static dielectric constant tensor:
#      x y z
#    x 2.051340 0.087710 -0.066150 
#    y 0.087710 2.110510 -0.115700 
#    z -0.066150 -0.115700 2.185630 
# 
# From -- ./inp_files/470153.got.cif
#   From: 2010.05.17/outbox.cif.g08.bks.cpg/sg2_236_cif.got.tgz:470153.got - 2010.06.03 11:33:40.
