data_PCOD9012750
_publ_section_title
;
Structure prediction by ZEFSAII (Michael W. Deem and Ramdas Pophale) SiO2 
 PCOD9012750
Probable space group: P -1
;
_chemical_formula_sum "Si O2"
_cell_formula_units_Z 15
_cell_length_a 8.323570
_cell_length_b 12.588462
_cell_length_c 10.471322
_cell_angle_alpha 60.974114
_cell_angle_beta 44.633796
_cell_angle_gamma 72.099301
_cell_volume 672.755439
_symmetry_space_group_name_H-M "P -1"
_symmetry_group_IT_number 2
_symmetry_cell_setting 'triclinic'
loop_
_space_group_symop_operation_xyz
x,y,z
-x,-y,-z
loop_
_atom_site_type_symbol
_atom_site_label
_atom_site_fract_x
_atom_site_fract_y
_atom_site_fract_z
Si Si1 0.093275 0.342727 0.408344
Si Si2 0.545376 0.476301 0.784742
Si Si3 0.729086 0.927497 0.922890
Si Si4 0.252108 0.266027 0.752897
Si Si5 0.500000 0.500000 0.500000
Si Si6 0.435236 0.217021 0.129974
Si Si7 0.070410 0.526098 0.090692
Si Si8 0.911924 0.157599 0.806224
O O1 0.219398 0.450185 0.357374
O O2 0.285202 0.248553 0.318105
O O3 0.015331 0.411634 0.283899
O O4 0.906411 0.265051 0.641043
O O5 0.513411 0.453951 0.666645
O O6 0.502001 0.348414 0.954090
O O7 0.341078 0.551621 0.916246
O O8 0.737235 0.859988 0.822542
O O9 0.916876 0.030067 0.803952
O O10 0.708094 0.825209 0.102477
O O11 0.500000 0.000000 0.000000
O O12 0.469377 0.356490 0.547311
O O13 0.072129 0.366319 0.838034
O O14 0.132262 0.192455 0.747361
O O15 0.680671 0.156308 0.025150
O O16 0.000000 0.500000 0.000000
#
# Coordination Sequence:
#
# PCOD9012750 Si02
#       8
#     2   2   2   2   1   2   2   2
#     4  11  23  38  63  96 128 162 203 249 312 384
#     4  11  21  39  57  92 130 158 194 251 321 370
#     4  10  23  43  64  83 121 169 210 257 310 356
#     4  12  22  40  62  92 124 157 209 259 308 368
#     4  12  22  34  66  92 128 156 196 260 318 368
#     4  10  21  41  60  88 128 162 199 253 308 365
#     4  11  22  37  60  92 127 161 195 253 317 367
#     4  11  24  38  67  89 121 171 213 251 297 366
#
# _framework density 22.296364000000001
#
# number of rings (size 3 to 8) (size 9 to 14) (size 15 to 20)
#    0.000    1.067    4.000    4.400    1.867    1.600 
#    0.000    0.000    2.933    4.800    0.000    0.000 
#    0.000    0.000    0.000    0.000    0.000    0.000 
#
# Total GULP energy -83564.011893 kJ/mol
# GULP energy per Si atom -5570.934126 kJ/mol
# Density = 2.224562 g / cm^3
# Si number density = 22.296364 Si / 1000 Ang^3
#
#
#
# Elastic Constant Matrix: (Units=GPa)
#
#
# Indices 1 2 3 4 5 6 
#
# 1 73.5536 11.8266 6.3349 -1.6599 1.4356 23.5162
# 2 11.8266 69.1903 6.4745 -2.8957 -12.8433 13.0766
# 3 6.3349 6.4745 47.1259 4.4097 -3.1915 -6.5938
# 4 -1.6599 -2.8957 4.4097 40.7767 6.1114 -5.9049
# 5 1.4356 -12.8433 -3.1915 6.1114 24.9755 -10.1236
# 6 23.5162 13.0766 -6.5938 -5.9049 -10.1236 46.5943
#
#
#
# Elastic Compliance Matrix: (Units=1/GPa)
#
#
# Indices 1 2 3 4 5 6 
#
# 1 0.017737 -0.001937 -0.004094 0.000552 -0.006896 -0.010416
# 2 -0.001937 0.016809 -0.001851 -0.000167 0.007598 -0.002372
# 3 -0.004094 -0.001851 0.023623 -0.002724 0.005737 0.006830
# 4 0.000552 -0.000167 -0.002724 0.025961 -0.006289 0.001306
# 5 -0.006896 0.007598 0.005737 -0.006289 0.051722 0.012601
# 6 -0.010416 -0.002372 0.006830 0.001306 0.012601 0.031254
#
#
# Mechanical properties :
#
#
# Convention : Reuss Voigt Hill
#
# Bulk Modulus (GPa) = 23.58192 26.57132 25.07662
# Shear Modulus (GPa) = 25.38006 33.48490 29.43248
#
# Velocity S-wave (km/s) = 3.37754 3.87952 3.63720
# Velocity P-wave (km/s) = 5.08034 5.65781 5.37683
#
# Compressibility (1/GPa) = 0.04240537
#
# Stress axis : x y z
#
# Youngs Moduli (GPa) = 56.38019 59.49262 42.33085
#
# Poissons Ratio (x) = 0.11524 0.17331
# Poissons Ratio (y) = 0.10921 0.07834
# Poissons Ratio (z) = 0.23083 0.11010
#
# Static dielectric constant tensor:
#      x y z
#    x 2.047000 0.026790 -0.162350 
#    y 0.026790 1.898090 -0.002650 
#    z -0.162350 -0.002650 1.899790 
# 
# From -- ./inp_files/171690.got.cif
#   From: 2010.05.17/outbox.cif.g08.bks.cpg/sg2_86_cif.got.tgz:171690.got - 2010.06.03 11:33:40.
