data_PCOD9012768
_publ_section_title
;
Structure prediction by ZEFSAII (Michael W. Deem and Ramdas Pophale) SiO2 
 PCOD9012768
Probable space group: P -1
;
_chemical_formula_sum "Si O2"
_cell_formula_units_Z 16
_cell_length_a 8.381741
_cell_length_b 20.790182
_cell_length_c 16.278965
_cell_angle_alpha 160.291506
_cell_angle_beta 53.191597
_cell_angle_gamma 116.554192
_cell_volume 690.288281
_symmetry_space_group_name_H-M "P -1"
_symmetry_group_IT_number 2
_symmetry_cell_setting 'triclinic'
loop_
_space_group_symop_operation_xyz
x,y,z
-x,-y,-z
loop_
_atom_site_type_symbol
_atom_site_label
_atom_site_fract_x
_atom_site_fract_y
_atom_site_fract_z
Si Si1 0.106005 0.985518 0.360489
Si Si2 0.671001 0.605221 0.581351
Si Si3 0.778819 0.480260 0.223842
Si Si4 0.752531 0.629095 0.041021
Si Si5 0.558648 0.957565 0.172856
Si Si6 0.427264 0.628759 0.371030
Si Si7 0.298058 0.726333 0.278357
Si Si8 0.160206 0.381216 0.186587
O O1 0.915502 0.097020 0.486139
O O2 0.294500 0.067572 0.401682
O O3 0.000000 0.000000 0.500000
O O4 0.233735 0.734815 0.003730
O O5 0.500000 0.500000 0.500000
O O6 0.741177 0.623304 0.487776
O O7 0.903417 0.449702 0.365306
O O8 0.590450 0.822076 0.916835
O O9 0.594530 0.597530 0.356008
O O10 0.027298 0.395850 0.010880
O O11 0.761597 0.398969 0.782767
O O12 0.795856 0.683955 0.001214
O O13 0.493977 0.782169 0.318637
O O14 0.646193 0.135448 0.353848
O O15 0.681899 0.792985 0.009223
O O16 0.230392 0.574785 0.397912
O O17 0.575789 0.446263 0.040359
#
# Coordination Sequence:
#
# PCOD9012768 Si02
#       8
#     2   2   2   2   2   2   2   2
#     4  12  22  38  67  97 131 176 217 265 333 389
#     4  11  23  46  70  97 132 171 218 276 324 389
#     4  11  22  41  65  95 134 168 218 277 324 380
#     4   9  21  40  59  91 131 175 208 278 319 376
#     4  12  25  42  72  98 125 183 222 261 338 388
#     4  11  23  43  67  99 134 172 221 269 326 393
#     4  10  21  41  60  92 139 172 220 264 318 399
#     4  10  22  47  67  94 135 165 222 277 323 387
#
# _framework density 23.178720999999999
#
# number of rings (size 3 to 8) (size 9 to 14) (size 15 to 20)
#    0.000    1.250    3.750    1.875    1.750    2.500 
#   13.500    1.250    0.000    0.000    0.000    0.000 
#    0.000    0.000    0.000    0.000    0.000    0.000 
#
# Total GULP energy -89366.543426 kJ/mol
# GULP energy per Si atom -5585.408964 kJ/mol
# Density = 2.312597 g / cm^3
# Si number density = 23.178721 Si / 1000 Ang^3
#
#
#
# Elastic Constant Matrix: (Units=GPa)
#
#
# Indices 1 2 3 4 5 6 
#
# 1 111.8099 37.1117 18.2149 -0.0453 -25.4911 19.6381
# 2 37.1117 79.8826 49.3283 11.3279 -3.9447 7.7598
# 3 18.2149 49.3283 69.7907 -2.2905 7.8685 -1.8050
# 4 -0.0453 11.3279 -2.2905 37.6113 -7.3480 5.8856
# 5 -25.4911 -3.9447 7.8685 -7.3480 42.1258 0.1201
# 6 19.6381 7.7598 -1.8050 5.8856 0.1201 55.6013
#
#
#
# Elastic Compliance Matrix: (Units=1/GPa)
#
#
# Indices 1 2 3 4 5 6 
#
# 1 0.013682 -0.005851 -0.000378 0.004124 0.008534 -0.004483
# 2 -0.005851 0.028590 -0.019150 -0.009327 0.001091 -0.001560
# 3 -0.000378 -0.019150 0.028959 0.005781 -0.006432 0.003148
# 4 0.004124 -0.009327 0.005781 0.031451 0.006038 -0.003310
# 5 0.008534 0.001091 -0.006432 0.006038 0.031271 -0.004082
# 6 -0.004483 -0.001560 0.003148 -0.003310 -0.004082 0.020248
#
#
# Mechanical properties :
#
#
# Convention : Reuss Voigt Hill
#
# Bulk Modulus (GPa) = 48.84531 52.31031 50.57781
# Shear Modulus (GPa) = 23.60909 37.52290 30.56600
#
# Velocity S-wave (km/s) = 3.19496 4.02786 3.63534
# Velocity P-wave (km/s) = 5.89317 6.65198 6.28404
#
# Compressibility (1/GPa) = 0.02047280
#
# Stress axis : x y z
#
# Youngs Moduli (GPa) = 73.08784 34.97774 34.53191
#
# Poissons Ratio (x) = 0.20464 0.01307
# Poissons Ratio (y) = 0.42761 0.66128
# Poissons Ratio (z) = 0.02766 0.66981
#
# Static dielectric constant tensor:
#      x y z
#    x 1.990320 0.019790 0.064920 
#    y 0.019790 1.889530 -0.043270 
#    z 0.064920 -0.043270 1.892040 
# 
# From -- ./inp_files/445493.got.cif
#   From: 2010.05.17/outbox.cif.g08.bks.cpg/sg2_223_cif.got.tgz:445493.got - 2010.06.03 11:33:40.
