data_PCOD9012152
_publ_section_title
;
Structure prediction by ZEFSAII (Michael W. Deem and Ramdas Pophale) SiO2 
 PCOD9012152
Probable space group: P -1
;
_chemical_formula_sum "Si O2"
_cell_formula_units_Z 16
_cell_length_a 10.708955
_cell_length_b 11.281714
_cell_length_c 15.221451
_cell_angle_alpha 29.432694
_cell_angle_beta 55.272774
_cell_angle_gamma 74.917039
_cell_volume 602.807521
_symmetry_space_group_name_H-M "P -1"
_symmetry_group_IT_number 2
_symmetry_cell_setting 'triclinic'
loop_
_space_group_symop_operation_xyz
x,y,z
-x,-y,-z
loop_
_atom_site_type_symbol
_atom_site_label
_atom_site_fract_x
_atom_site_fract_y
_atom_site_fract_z
Si Si1 0.220718 0.755596 0.766045
Si Si2 0.008041 0.095787 0.790823
Si Si3 0.178647 0.600911 0.253217
Si Si4 0.152705 0.481269 0.141458
Si Si5 0.319665 0.379194 0.872430
Si Si6 0.631174 0.548790 0.497467
Si Si7 0.737100 0.930324 0.614026
Si Si8 0.381248 0.987975 0.213429
O O1 0.329382 0.630383 0.761420
O O2 0.291743 0.044720 0.493425
O O3 0.234361 0.754884 0.865697
O O4 0.000000 0.500000 0.000000
O O5 0.889981 0.208768 0.804169
O O6 0.110421 0.316958 0.524103
O O7 0.166876 0.148269 0.759315
O O8 0.858260 0.766749 0.027575
O O9 0.116040 0.520421 0.230095
O O10 0.401408 0.805201 0.030290
O O11 0.955323 0.201530 0.365014
O O12 0.287763 0.373075 0.158734
O O13 0.498692 0.476229 0.680417
O O14 0.284055 0.125286 0.117543
O O15 0.500000 0.500000 0.500000
O O16 0.686618 0.322260 0.602794
O O17 0.637983 0.004859 0.678521
#
# Coordination Sequence:
#
# PCOD9012152 Si02
#       8
#     2   2   2   2   2   2   2   2
#     4  10  23  43  70 104 138 187 240 300 351 421
#     4  11  24  43  73 105 137 187 235 293 359 426
#     4  11  23  41  70 105 137 182 247 291 350 433
#     4  10  21  41  68  98 136 188 238 290 359 420
#     4  12  23  45  74 102 141 187 242 294 356 425
#     4  12  26  45  67 105 149 183 233 296 360 429
#     4  10  21  40  68  97 135 185 238 294 356 413
#     4  12  22  44  69 100 142 188 236 297 356 422
#
# _framework density 26.542470000000002
#
# number of rings (size 3 to 8) (size 9 to 14) (size 15 to 20)
#    0.000    1.000    3.750    4.125    3.500    2.000 
#    4.500    0.625    0.000    0.000    0.000    0.000 
#    0.000    0.000    0.000    0.000    0.000    0.000 
#
# Total GULP energy -89771.501972 kJ/mol
# GULP energy per Si atom -5610.718873 kJ/mol
# Density = 2.648206 g / cm^3
# Si number density = 26.542470 Si / 1000 Ang^3
#
#
#
# Elastic Constant Matrix: (Units=GPa)
#
#
# Indices 1 2 3 4 5 6 
#
# 1 121.0150 15.8073 35.9607 10.1069 -2.2219 16.1103
# 2 15.8073 123.8589 25.3394 30.4941 15.3403 -12.0305
# 3 35.9607 25.3394 72.0684 29.6477 -2.9753 2.2537
# 4 10.1069 30.4941 29.6477 44.8771 5.7762 -0.3423
# 5 -2.2219 15.3403 -2.9753 5.7762 38.9203 5.2969
# 6 16.1103 -12.0305 2.2537 -0.3423 5.2969 38.3128
#
#
#
# Elastic Compliance Matrix: (Units=1/GPa)
#
#
# Indices 1 2 3 4 5 6 
#
# 1 0.010509 -0.001285 -0.005382 0.001893 0.001045 -0.004633
# 2 -0.001285 0.010847 -0.001114 -0.005771 -0.004195 0.004541
# 3 -0.005382 -0.001114 0.022673 -0.013510 0.003881 -0.000077
# 4 0.001893 -0.005771 -0.013510 0.035177 -0.003737 -0.000982
# 5 0.001045 -0.004195 0.003881 -0.003737 0.029080 -0.006039
# 6 -0.004633 0.004541 -0.000077 -0.000982 -0.006039 0.030306
#
#
# Mechanical properties :
#
#
# Convention : Reuss Voigt Hill
#
# Bulk Modulus (GPa) = 35.12910 52.35078 43.73994
# Shear Modulus (GPa) = 30.55428 40.41103 35.48266
#
# Velocity S-wave (km/s) = 3.39654 3.90616 3.66023
# Velocity P-wave (km/s) = 5.35217 6.33327 5.86328
#
# Compressibility (1/GPa) = 0.02846643
#
# Stress axis : x y z
#
# Youngs Moduli (GPa) = 95.15951 92.19163 44.10453
#
# Poissons Ratio (x) = 0.11851 0.23738
# Poissons Ratio (y) = 0.12233 0.04911
# Poissons Ratio (z) = 0.51217 0.10266
#
# Static dielectric constant tensor:
#      x y z
#    x 2.158150 0.069520 -0.004940 
#    y 0.069520 2.045960 -0.009930 
#    z -0.004940 -0.009930 2.061950 
# 
# From -- ./inp_files/519482.got.cif
#   From: 2010.05.17/outbox.cif.g08.bks.cpg/sg2_260_cif.got.tgz:519482.got - 2010.06.03 11:33:40.
