data_PCOD9012531
_publ_section_title
;
Structure prediction by ZEFSAII (Michael W. Deem and Ramdas Pophale) SiO2 
 PCOD9012531
Probable space group: P -1
;
_chemical_formula_sum "Si O2"
_cell_formula_units_Z 16
_cell_length_a 15.466898
_cell_length_b 9.146153
_cell_length_c 17.316556
_cell_angle_alpha 142.120259
_cell_angle_beta 149.989281
_cell_angle_gamma 40.783825
_cell_volume 730.308744
_symmetry_space_group_name_H-M "P -1"
_symmetry_group_IT_number 2
_symmetry_cell_setting 'triclinic'
loop_
_space_group_symop_operation_xyz
x,y,z
-x,-y,-z
loop_
_atom_site_type_symbol
_atom_site_label
_atom_site_fract_x
_atom_site_fract_y
_atom_site_fract_z
Si Si1 0.066079 0.570510 0.663468
Si Si2 0.782972 0.979574 0.010876
Si Si3 0.676962 0.060426 0.196891
Si Si4 0.231184 0.501999 0.479955
Si Si5 0.675353 0.297147 0.527763
Si Si6 0.048834 0.299138 0.843336
Si Si7 0.888377 0.806126 0.854086
Si Si8 0.380724 0.161876 0.781052
O O1 0.077481 0.851933 0.797632
O O2 0.265450 0.417784 0.770607
O O3 0.000000 0.500000 0.500000
O O4 0.943660 0.487920 0.599730
O O5 0.834437 0.740508 0.005475
O O6 0.587190 0.131575 0.944745
O O7 0.782661 0.901161 0.889511
O O8 0.658870 0.351848 0.318393
O O9 0.848419 0.933800 0.225497
O O10 0.702260 0.919427 0.239162
O O11 0.500000 0.000000 0.000000
O O12 0.252118 0.643187 0.475404
O O13 0.239023 0.239938 0.333759
O O14 0.500000 0.500000 0.500000
O O15 0.849686 0.288701 0.708873
O O16 0.632784 0.035958 0.377385
O O17 0.024173 0.548743 0.878842
O O18 0.000000 0.000000 0.000000
#
# Coordination Sequence:
#
# PCOD9012531 Si02
#       8
#     2   2   2   2   2   2   2   2
#     4  12  25  42  68  97 144 185 234 289 358 417
#     4  12  24  42  67 102 139 186 233 286 349 423
#     4  11  22  41  73 106 136 174 234 297 357 414
#     4  10  22  43  67  97 137 179 232 285 348 418
#     4  10  21  40  70  98 134 178 234 289 352 415
#     4  11  23  43  71 103 136 183 239 289 353 421
#     4  11  23  43  66  96 138 188 230 280 351 417
#     4  11  22  39  65 103 135 178 232 291 350 417
#
# _framework density 21.908543000000002
#
# number of rings (size 3 to 8) (size 9 to 14) (size 15 to 20)
#    0.000    1.000    2.500    6.000    0.000    3.500 
#    0.000    0.000    0.000    3.000    0.000    0.000 
#    0.000    0.000    0.000    0.000    0.000    0.000 
#
# Total GULP energy -89123.141021 kJ/mol
# GULP energy per Si atom -5570.196314 kJ/mol
# Density = 2.185868 g / cm^3
# Si number density = 21.908543 Si / 1000 Ang^3
#
#
#
# Elastic Constant Matrix: (Units=GPa)
#
#
# Indices 1 2 3 4 5 6 
#
# 1 109.2369 26.1330 26.6310 -5.9399 -3.1897 -16.2637
# 2 26.1330 77.3196 35.1126 -1.4116 1.6026 2.2554
# 3 26.6310 35.1126 123.2774 19.8955 0.8138 -4.5549
# 4 -5.9399 -1.4116 19.8955 43.8364 -4.5659 1.7690
# 5 -3.1897 1.6026 0.8138 -4.5659 28.1333 7.6607
# 6 -16.2637 2.2554 -4.5549 1.7690 7.6607 22.6969
#
#
#
# Elastic Compliance Matrix: (Units=1/GPa)
#
#
# Indices 1 2 3 4 5 6 
#
# 1 0.011691 -0.003471 -0.001508 0.001771 -0.000441 0.008431
# 2 -0.003471 0.016334 -0.004492 0.002383 0.000669 -0.005423
# 3 -0.001508 -0.004492 0.010712 -0.005503 -0.001814 0.002556
# 4 0.001771 0.002383 -0.005503 0.026371 0.005598 -0.004017
# 5 -0.000441 0.000669 -0.001814 0.005598 0.040458 -0.014839
# 6 0.008431 -0.005423 0.002556 -0.004017 -0.014839 0.056473
#
#
# Mechanical properties :
#
#
# Convention : Reuss Voigt Hill
#
# Bulk Modulus (GPa) = 50.51944 53.95412 52.23678
# Shear Modulus (GPa) = 26.65521 33.73048 30.19285
#
# Velocity S-wave (km/s) = 3.49185 3.92804 3.71635
# Velocity P-wave (km/s) = 6.27428 6.72704 6.50460
#
# Compressibility (1/GPa) = 0.01979436
#
# Stress axis : x y z
#
# Youngs Moduli (GPa) = 85.53535 61.22125 93.35708
#
# Poissons Ratio (x) = 0.21249 0.14081
# Poissons Ratio (y) = 0.29688 0.41936
# Poissons Ratio (z) = 0.12902 0.27501
#
# Static dielectric constant tensor:
#      x y z
#    x 1.834380 0.005160 -0.037340 
#    y 0.005160 1.811790 0.034010 
#    z -0.037340 0.034010 1.876720 
# 
# From -- ./inp_files/279496.got.cif
#   From: 2010.05.17/outbox.cif.g08.bks.cpg/sg2_140_cif.got.tgz:279496.got - 2010.06.03 11:33:40.
