data_PCOD9012175
_publ_section_title
;
Structure prediction by ZEFSAII (Michael W. Deem and Ramdas Pophale) SiO2 
 PCOD9012175
Probable space group: P -1
;
_chemical_formula_sum "Si O2"
_cell_formula_units_Z 15
_cell_length_a 11.688415
_cell_length_b 19.841282
_cell_length_c 5.277831
_cell_angle_alpha 86.934797
_cell_angle_beta 76.469357
_cell_angle_gamma 146.542745
_cell_volume 581.204077
_symmetry_space_group_name_H-M "P -1"
_symmetry_group_IT_number 2
_symmetry_cell_setting 'triclinic'
loop_
_space_group_symop_operation_xyz
x,y,z
-x,-y,-z
loop_
_atom_site_type_symbol
_atom_site_label
_atom_site_fract_x
_atom_site_fract_y
_atom_site_fract_z
Si Si1 0.673915 0.688375 0.842862
Si Si2 0.337550 0.479199 0.688220
Si Si3 0.637177 0.976927 0.936970
Si Si4 0.509681 0.706089 0.307587
Si Si5 0.000000 0.500000 0.500000
Si Si6 0.863443 0.153274 0.277441
Si Si7 0.974782 0.931403 0.312982
Si Si8 0.085974 0.700744 0.412087
O O1 0.428555 0.529056 0.921847
O O2 0.849481 0.799306 0.504687
O O3 0.866861 0.744589 0.903110
O O4 0.581448 0.712155 0.998857
O O5 0.500000 0.500000 0.500000
O O6 0.425246 0.597127 0.526641
O O7 0.083734 0.348352 0.701851
O O8 0.726071 0.068546 0.105554
O O9 0.352324 0.827906 0.134882
O O10 0.714737 0.043288 0.606976
O O11 0.767949 0.970505 0.914001
O O12 0.769204 0.857101 0.251318
O O13 0.282386 0.640853 0.430032
O O14 0.013645 0.424301 0.463908
O O15 0.897823 0.245746 0.353211
O O16 0.000000 0.000000 0.500000
#
# Coordination Sequence:
#
# PCOD9012175 Si02
#       8
#     2   2   2   2   1   2   2   2
#     4  10  21  40  68  98 134 178 243 300 355 436
#     4  10  21  42  65  99 132 179 238 294 367 417
#     4  11  25  46  75 115 146 192 247 312 381 441
#     4  10  22  45  65  93 139 182 240 297 354 449
#     4  10  26  46  66 102 144 200 244 296 376 440
#     4  11  23  47  77 110 149 189 248 315 378 437
#     4  10  23  41  68 100 137 187 238 298 366 436
#     4  11  24  46  72 105 154 191 248 309 371 452
#
# _framework density 25.808489000000002
#
# number of rings (size 3 to 8) (size 9 to 14) (size 15 to 20)
#    0.000    1.600    2.667    0.800    1.867    3.200 
#   12.000    2.000    0.000    0.000    0.000    0.000 
#    0.000    0.000    0.000    0.000    0.000    0.000 
#
# Total GULP energy -83586.942213 kJ/mol
# GULP energy per Si atom -5572.462814 kJ/mol
# Density = 2.574975 g / cm^3
# Si number density = 25.808489 Si / 1000 Ang^3
#
#
#
# Elastic Constant Matrix: (Units=GPa)
#
#
# Indices 1 2 3 4 5 6 
#
# 1 176.2529 52.3871 13.1796 -3.7091 -32.4803 28.9417
# 2 52.3871 172.4952 32.3428 7.9089 -27.7964 32.5653
# 3 13.1796 32.3428 68.2059 1.7741 -5.7827 9.2471
# 4 -3.7091 7.9089 1.7741 42.9407 -0.9125 -11.5436
# 5 -32.4803 -27.7964 -5.7827 -0.9125 32.7532 -17.0414
# 6 28.9417 32.5653 9.2471 -11.5436 -17.0414 63.1928
#
#
#
# Elastic Compliance Matrix: (Units=1/GPa)
#
#
# Indices 1 2 3 4 5 6 
#
# 1 0.007251 -0.001057 -0.000288 0.000665 0.005702 -0.001075
# 2 -0.001057 0.007805 -0.002791 -0.002003 0.003732 -0.002489
# 3 -0.000288 -0.002791 0.016156 -0.000443 -0.000313 -0.000959
# 4 0.000665 -0.002003 -0.000443 0.025460 0.002818 0.006203
# 5 0.005702 0.003732 -0.000313 0.002818 0.043397 0.007729
# 6 -0.001075 -0.002489 -0.000959 0.006203 0.007729 0.020958
#
#
# Mechanical properties :
#
#
# Convention : Reuss Voigt Hill
#
# Bulk Modulus (GPa) = 43.59287 68.08587 55.83937
# Shear Modulus (GPa) = 36.51137 49.04695 42.77916
#
# Velocity S-wave (km/s) = 3.76534 4.36411 4.07573
# Velocity P-wave (km/s) = 5.98592 7.19947 6.62056
#
# Compressibility (1/GPa) = 0.02293953
#
# Stress axis : x y z
#
# Youngs Moduli (GPa) = 137.92110 128.12938 61.89827
#
# Poissons Ratio (x) = 0.13540 0.01783
# Poissons Ratio (y) = 0.14575 0.17274
# Poissons Ratio (z) = 0.03973 0.35757
#
# Static dielectric constant tensor:
#      x y z
#    x 2.012620 -0.008120 0.084670 
#    y -0.008120 2.081880 -0.041100 
#    z 0.084670 -0.041100 1.998200 
# 
# From -- ./inp_files/82658.got.cif
#   From: 2010.05.17/outbox.cif.g08.bks.cpg/sg2_42_cif.got.tgz:82658.got - 2010.06.03 11:33:40.
