data_PCOD9012605
_publ_section_title
;
Structure prediction by ZEFSAII (Michael W. Deem and Ramdas Pophale) SiO2 
 PCOD9012605
Probable space group: P -1
;
_chemical_formula_sum "Si O2"
_cell_formula_units_Z 16
_cell_length_a 9.572822
_cell_length_b 12.886566
_cell_length_c 11.876922
_cell_angle_alpha 94.768571
_cell_angle_beta 61.711750
_cell_angle_gamma 48.602190
_cell_volume 774.036817
_symmetry_space_group_name_H-M "P -1"
_symmetry_group_IT_number 2
_symmetry_cell_setting 'triclinic'
loop_
_space_group_symop_operation_xyz
x,y,z
-x,-y,-z
loop_
_atom_site_type_symbol
_atom_site_label
_atom_site_fract_x
_atom_site_fract_y
_atom_site_fract_z
Si Si1 0.019001 0.273256 0.948174
Si Si2 0.554706 0.027320 0.599789
Si Si3 0.185821 0.903014 0.528422
Si Si4 0.776940 0.564420 0.901147
Si Si5 0.793762 0.230676 0.856554
Si Si6 0.198333 0.200829 0.116792
Si Si7 0.877061 0.359429 0.653557
Si Si8 0.251568 0.628826 0.526256
O O1 0.322374 0.120158 0.779288
O O2 0.889100 0.446504 0.959128
O O3 0.879539 0.251817 0.933795
O O4 0.040885 0.244325 0.069710
O O5 0.578498 0.139331 0.586902
O O6 0.500000 0.000000 0.500000
O O7 0.840304 0.835268 0.508001
O O8 0.245004 0.752725 0.506335
O O9 0.000000 0.000000 0.500000
O O10 0.025843 0.034603 0.706502
O O11 0.797556 0.676992 0.895842
O O12 0.910508 0.440817 0.729193
O O13 0.471051 0.693825 0.020633
O O14 0.754834 0.336185 0.781158
O O15 0.012770 0.267861 0.298504
O O16 0.500000 0.000000 0.000000
O O17 0.719111 0.453424 0.607062
O O18 0.500000 0.500000 0.500000
#
# Coordination Sequence:
#
# PCOD9012605 Si02
#       8
#     2   2   2   2   2   2   2   2
#     4  11  23  42  72  99 129 169 226 277 322 396
#     4  11  19  38  71 104 125 158 225 282 322 378
#     4  11  22  42  72  93 129 176 223 268 329 389
#     4  11  24  42  73  96 126 175 228 276 328 382
#     4  10  21  40  72 100 123 166 227 281 323 382
#     4  12  29  48  62  96 146 180 214 271 341 404
#     4  10  21  42  66  98 133 169 218 283 325 388
#     4  12  28  43  65 100 139 177 220 273 331 398
#
# _framework density 20.670853000000001
#
# number of rings (size 3 to 8) (size 9 to 14) (size 15 to 20)
#    0.000    1.000    6.250    3.375    7.000    0.500 
#    2.250    1.250    0.000    0.000    0.000    0.000 
#    0.000    0.000    0.000    0.000    0.000    0.000 
#
# Total GULP energy -89372.249676 kJ/mol
# GULP energy per Si atom -5585.765605 kJ/mol
# Density = 2.062381 g / cm^3
# Si number density = 20.670853 Si / 1000 Ang^3
#
#
#
# Elastic Constant Matrix: (Units=GPa)
#
#
# Indices 1 2 3 4 5 6 
#
# 1 93.2376 17.5580 9.1865 -17.8188 6.4962 -17.4513
# 2 17.5580 74.0526 -16.3577 -6.1620 18.1246 -20.1942
# 3 9.1865 -16.3577 42.2960 -9.8971 0.5618 -16.5801
# 4 -17.8188 -6.1620 -9.8971 24.9401 -8.7366 8.1524
# 5 6.4962 18.1246 0.5618 -8.7366 39.0323 -2.7957
# 6 -17.4513 -20.1942 -16.5801 8.1524 -2.7957 31.1013
#
#
#
# Elastic Compliance Matrix: (Units=1/GPa)
#
#
# Indices 1 2 3 4 5 6 
#
# 1 0.013307 -0.001182 0.000419 0.007946 0.000456 0.004881
# 2 -0.001182 0.030884 0.025121 0.002491 -0.011722 0.031075
# 3 0.000419 0.025121 0.051949 0.011381 -0.007025 0.040625
# 4 0.007946 0.002491 0.011381 0.054668 0.009498 -0.001333
# 5 0.000456 -0.011722 -0.007025 0.009498 0.032450 -0.010673
# 6 0.004881 0.031075 0.040625 -0.001333 -0.010673 0.076116
#
#
# Mechanical properties :
#
#
# Convention : Reuss Voigt Hill
#
# Bulk Modulus (GPa) = 6.90344 25.59553 16.24948
# Shear Modulus (GPa) = 19.30936 32.29470 25.80203
#
# Velocity S-wave (km/s) = 3.05968 3.95692 3.53687
# Velocity P-wave (km/s) = 3.97858 5.76937 4.95554
#
# Compressibility (1/GPa) = 0.14485541
#
# Stress axis : x y z
#
# Youngs Moduli (GPa) = 75.14904 32.37958 19.24976
#
# Poissons Ratio (x) = 0.03827 -0.00807
# Poissons Ratio (y) = 0.08882 -0.48357
# Poissons Ratio (z) = -0.03151 -0.81340
#
# Static dielectric constant tensor:
#      x y z
#    x 1.725580 -0.014150 0.061260 
#    y -0.014150 1.718240 0.026070 
#    z 0.061260 0.026070 1.792350 
# 
# From -- ./inp_files/392583.got.cif
#   From: 2010.05.17/outbox.cif.g08.bks.cpg/sg2_197_cif.got.tgz:392583.got - 2010.06.03 11:33:40.
