data_PCOD9012387
_publ_section_title
;
Structure prediction by ZEFSAII (Michael W. Deem and Ramdas Pophale) SiO2 
 PCOD9012387
Probable space group: P -1
;
_chemical_formula_sum "Si O2"
_cell_formula_units_Z 15
_cell_length_a 8.865331
_cell_length_b 21.175425
_cell_length_c 11.451344
_cell_angle_alpha 32.472672
_cell_angle_beta 40.756232
_cell_angle_gamma 35.328570
_cell_volume 650.631137
_symmetry_space_group_name_H-M "P -1"
_symmetry_group_IT_number 2
_symmetry_cell_setting 'triclinic'
loop_
_space_group_symop_operation_xyz
x,y,z
-x,-y,-z
loop_
_atom_site_type_symbol
_atom_site_label
_atom_site_fract_x
_atom_site_fract_y
_atom_site_fract_z
Si Si1 0.500000 0.500000 0.500000
Si Si2 0.781497 0.919511 0.525038
Si Si3 0.679685 0.925978 0.833574
Si Si4 0.873364 0.356798 0.974225
Si Si5 0.962278 0.639467 0.751684
Si Si6 0.111033 0.050555 0.073320
Si Si7 0.086743 0.648094 0.309304
Si Si8 0.634966 0.656462 0.708464
O O1 0.310240 0.541437 0.429527
O O2 0.773497 0.403720 0.411441
O O3 0.747151 0.965166 0.609050
O O4 0.901987 0.757673 0.694516
O O5 0.500000 0.000000 0.500000
O O6 0.975224 0.960698 0.284152
O O7 0.790541 0.956723 0.838838
O O8 0.825837 0.762052 0.999057
O O9 0.365970 0.994388 0.928397
O O10 0.854530 0.400489 0.782215
O O11 0.774396 0.492133 0.894531
O O12 0.673531 0.297189 0.203315
O O13 0.709201 0.702055 0.713312
O O14 0.000000 0.500000 0.000000
O O15 0.916844 0.208914 0.910708
O O16 0.793094 0.682267 0.472368
#
# Coordination Sequence:
#
# PCOD9012387 Si02
#       8
#     1   2   2   2   2   2   2   2
#     4  10  24  42  68  94 136 180 226 284 354 418
#     4  12  29  44  72 106 145 191 235 292 361 431
#     4  10  24  46  73 100 138 186 238 296 342 428
#     4  10  21  40  69  98 132 176 236 291 343 416
#     4  11  25  44  67 100 139 184 231 290 359 420
#     4  10  25  47  71 102 139 189 240 293 352 420
#     4  10  22  40  67  95 135 176 228 292 350 414
#     4  10  22  39  64  98 133 176 225 291 349 410
#
# _framework density 23.054538999999998
#
# number of rings (size 3 to 8) (size 9 to 14) (size 15 to 20)
#    0.000    1.600    0.000    2.400    9.333    8.000 
#    0.000    0.000    0.000    0.000    0.000    0.000 
#    0.000    0.000    0.000    0.000    0.000    0.000 
#
# Total GULP energy -83666.146634 kJ/mol
# GULP energy per Si atom -5577.743109 kJ/mol
# Density = 2.300207 g / cm^3
# Si number density = 23.054539 Si / 1000 Ang^3
#
#
#
# Elastic Constant Matrix: (Units=GPa)
#
#
# Indices 1 2 3 4 5 6 
#
# 1 22.5912 2.9913 6.3155 11.2858 3.0456 8.6905
# 2 2.9913 79.5328 14.8285 -5.0640 -11.4250 3.7824
# 3 6.3155 14.8285 77.0476 2.6391 -17.0180 5.6181
# 4 11.2858 -5.0640 2.6391 28.9180 5.3839 3.6659
# 5 3.0456 -11.4250 -17.0180 5.3839 27.1646 0.1384
# 6 8.6905 3.7824 5.6181 3.6659 0.1384 25.6298
#
#
#
# Elastic Compliance Matrix: (Units=1/GPa)
#
#
# Indices 1 2 3 4 5 6 
#
# 1 0.064298 -0.003182 -0.004136 -0.021833 -0.006723 -0.017267
# 2 -0.003182 0.013879 -0.001390 0.003063 0.004722 -0.001128
# 3 -0.004136 -0.001390 0.016046 -0.001794 0.010296 -0.001709
# 4 -0.021833 0.003063 -0.001794 0.044849 -0.006281 0.000963
# 5 -0.006723 0.004722 0.010296 -0.006281 0.047247 -0.000031
# 6 -0.017267 -0.001128 -0.001709 0.000963 -0.000031 0.045275
#
#
# Mechanical properties :
#
#
# Convention : Reuss Voigt Hill
#
# Bulk Modulus (GPa) = 13.01969 25.27136 19.14552
# Shear Modulus (GPa) = 18.20743 26.67822 22.44283
#
# Velocity S-wave (km/s) = 2.81331 3.40542 3.12343
# Velocity P-wave (km/s) = 4.02648 5.14275 4.61846
#
# Compressibility (1/GPa) = 0.07680673
#
# Stress axis : x y z
#
# Youngs Moduli (GPa) = 15.55253 72.04979 62.32228
#
# Poissons Ratio (x) = 0.22925 0.25778
# Poissons Ratio (y) = 0.04949 0.08663
# Poissons Ratio (z) = 0.06433 0.10015
#
# Static dielectric constant tensor:
#      x y z
#    x 1.838130 0.000970 -0.004480 
#    y 0.000970 1.851990 -0.023780 
#    z -0.004480 -0.023780 1.867540 
# 
# From -- ./inp_files/404430.got.cif
#   From: 2010.05.17/outbox.cif.g08.bks.cpg/sg2_203_cif.got.tgz:404430.got - 2010.06.03 11:33:40.
