data_PCOD9012812
_publ_section_title
;
Structure prediction by ZEFSAII (Michael W. Deem and Ramdas Pophale) SiO2 
 PCOD9012812
Probable space group: P -1
;
_chemical_formula_sum "Si O2"
_cell_formula_units_Z 16
_cell_length_a 7.194752
_cell_length_b 9.094630
_cell_length_c 19.856893
_cell_angle_alpha 85.899062
_cell_angle_beta 89.993871
_cell_angle_gamma 33.215365
_cell_volume 705.668859
_symmetry_space_group_name_H-M "P -1"
_symmetry_group_IT_number 2
_symmetry_cell_setting 'triclinic'
loop_
_space_group_symop_operation_xyz
x,y,z
-x,-y,-z
loop_
_atom_site_type_symbol
_atom_site_label
_atom_site_fract_x
_atom_site_fract_y
_atom_site_fract_z
Si Si1 0.585519 0.035830 0.564895
Si Si2 0.632859 0.489369 0.431877
Si Si3 0.562376 0.617087 0.026627
Si Si4 0.569970 0.810012 0.690339
Si Si5 0.492726 0.389549 0.823028
Si Si6 0.189957 0.671401 0.299487
Si Si7 0.644546 0.824878 0.940730
Si Si8 0.705311 0.940480 0.804891
O O1 0.379128 0.324986 0.564920
O O2 0.500000 0.000000 0.500000
O O3 0.543036 0.943379 0.625688
O O4 0.980854 0.818496 0.569221
O O5 0.500000 0.500000 0.500000
O O6 0.421428 0.584221 0.362249
O O7 0.383019 0.735133 0.096592
O O8 0.946176 0.420941 0.049576
O O9 0.500000 0.500000 0.000000
O O10 0.491942 0.766388 0.956565
O O11 0.796382 0.515320 0.686917
O O12 0.693969 0.828383 0.750574
O O13 0.186732 0.014113 0.700507
O O14 0.688293 0.371321 0.774844
O O15 0.107944 0.703857 0.822417
O O16 0.514025 0.221786 0.787187
O O17 0.534754 0.975513 0.867957
O O18 0.500000 0.000000 0.000000
#
# Coordination Sequence:
#
# PCOD9012812 Si02
#       8
#     2   2   2   2   2   2   2   2
#     4  12  24  43  68  96 130 170 214 254 315 376
#     4  12  24  43  68  96 132 169 206 266 312 367
#     4  10  23  39  63  90 126 164 216 265 329 389
#     4  12  25  42  65  96 126 169 211 261 310 383
#     4  11  23  43  62  91 124 168 208 263 319 381
#     4  12  25  42  64  96 130 162 217 258 316 376
#     4  10  21  41  61  90 124 167 210 270 324 393
#     4  11  23  42  65  87 127 166 211 258 325 375
#
# _framework density 22.673522999999999
#
# number of rings (size 3 to 8) (size 9 to 14) (size 15 to 20)
#    0.000    0.750    1.250    6.750    1.750    1.500 
#    0.000    0.000    0.000    0.000    0.000    0.000 
#    0.000    0.000    0.000    0.000    0.000    0.000 
#
# Total GULP energy -89369.785859 kJ/mol
# GULP energy per Si atom -5585.611616 kJ/mol
# Density = 2.262192 g / cm^3
# Si number density = 22.673523 Si / 1000 Ang^3
#
#
#
# Elastic Constant Matrix: (Units=GPa)
#
#
# Indices 1 2 3 4 5 6 
#
# 1 89.2315 -8.1864 23.9723 0.5858 -15.9751 29.9978
# 2 -8.1864 58.0369 -15.3870 6.8453 -5.6688 4.3538
# 3 23.9723 -15.3870 91.9083 13.3128 -30.0160 3.1068
# 4 0.5858 6.8453 13.3128 23.8783 3.7448 -2.0042
# 5 -15.9751 -5.6688 -30.0160 3.7448 54.2523 8.1046
# 6 29.9978 4.3538 3.1068 -2.0042 8.1046 54.5025
#
#
#
# Elastic Compliance Matrix: (Units=1/GPa)
#
#
# Indices 1 2 3 4 5 6 
#
# 1 0.016475 0.003953 -0.000652 -0.003099 0.006679 -0.010454
# 2 0.003953 0.023029 0.008266 -0.013424 0.010037 -0.006473
# 3 -0.000652 0.008266 0.018946 -0.015243 0.012780 -0.003843
# 4 -0.003099 -0.013424 -0.015243 0.057483 -0.015931 0.008130
# 5 0.006679 0.010037 0.012780 -0.015931 0.031176 -0.010428
# 6 -0.010454 -0.006473 -0.003843 0.008130 -0.010428 0.026687
#
#
# Mechanical properties :
#
#
# Convention : Reuss Voigt Hill
#
# Bulk Modulus (GPa) = 12.25735 26.66382 19.46059
# Shear Modulus (GPa) = 28.11264 42.44515 35.27890
#
# Velocity S-wave (km/s) = 3.52503 4.33137 3.94883
# Velocity P-wave (km/s) = 4.68887 6.06628 5.42150
#
# Compressibility (1/GPa) = 0.08158371
#
# Stress axis : x y z
#
# Youngs Moduli (GPa) = 60.69824 43.42396 52.78208
#
# Poissons Ratio (x) = -0.17166 0.03440
# Poissons Ratio (y) = -0.23995 -0.43627
# Poissons Ratio (z) = 0.03956 -0.35892
#
# Static dielectric constant tensor:
#      x y z
#    x 1.702830 -0.082340 0.034410 
#    y -0.082340 1.774400 0.008360 
#    z 0.034410 0.008360 1.834590 
# 
# From -- ./inp_files/10755.got.cif
#   From: 2010.05.17/outbox.cif.g08.bks.cpg/sg2_6_cif.got.tgz:10755.got - 2010.06.03 11:33:40.
