data_PCOD9012618
_publ_section_title
;
Structure prediction by ZEFSAII (Michael W. Deem and Ramdas Pophale) SiO2 
 PCOD9012618
Probable space group: P -1
;
_chemical_formula_sum "Si O2"
_cell_formula_units_Z 12
_cell_length_a 11.798266
_cell_length_b 12.197862
_cell_length_c 6.898201
_cell_angle_alpha 50.433721
_cell_angle_beta 135.795640
_cell_angle_gamma 132.279640
_cell_volume 488.537288
_symmetry_space_group_name_H-M "P -1"
_symmetry_group_IT_number 2
_symmetry_cell_setting 'triclinic'
loop_
_space_group_symop_operation_xyz
x,y,z
-x,-y,-z
loop_
_atom_site_type_symbol
_atom_site_label
_atom_site_fract_x
_atom_site_fract_y
_atom_site_fract_z
Si Si1 0.595622 0.122410 0.644548
Si Si2 0.869800 0.677910 0.165672
Si Si3 0.961598 0.134911 0.199717
Si Si4 0.745771 0.636557 0.469666
Si Si5 0.227020 0.644328 0.726948
Si Si6 0.530706 0.282836 0.717198
O O1 0.693979 0.279543 0.465996
O O2 0.479771 0.155281 0.631189
O O3 0.500000 0.000000 0.500000
O O4 0.753533 0.089750 0.973986
O O5 0.758560 0.688225 0.202477
O O6 0.768204 0.525395 0.081803
O O7 0.031109 0.641240 0.495031
O O8 0.953066 0.821274 0.960500
O O9 0.059598 0.288138 0.279112
O O10 0.000000 0.000000 0.500000
O O11 0.647987 0.451318 0.577286
O O12 0.630854 0.705311 0.378588
O O13 0.342992 0.740383 0.938454
#
# Coordination Sequence:
#
# PCOD9012618 Si02
#       6
#     2   2   2   2   2   2
#     4  11  26  48  74 104 146 192 242 298 359 432
#     4  10  21  42  72 104 140 186 244 298 355 425
#     4  11  26  48  70 105 145 195 238 296 363 426
#     4  11  24  43  71 109 147 184 237 303 360 429
#     4  10  21  40  72 105 137 186 244 298 356 422
#     4  11  24  43  74 108 143 188 240 299 362 425
#
# _framework density 24.563117999999999
#
# number of rings (size 3 to 8) (size 9 to 14) (size 15 to 20)
#    0.000    1.333    3.333    1.000    2.333    4.667 
#    6.000    0.000    0.000    0.000    0.000    0.000 
#    0.000    0.000    0.000    0.000    0.000    0.000 
#
# Total GULP energy -67215.390676 kJ/mol
# GULP energy per Si atom -5601.282556 kJ/mol
# Density = 2.450721 g / cm^3
# Si number density = 24.563118 Si / 1000 Ang^3
#
#
#
# Elastic Constant Matrix: (Units=GPa)
#
#
# Indices 1 2 3 4 5 6 
#
# 1 142.8390 50.8826 47.7582 6.3271 -31.7915 -29.0171
# 2 50.8826 80.4299 40.0473 15.3195 -1.6196 -18.9062
# 3 47.7582 40.0473 100.6133 -0.0725 -10.0629 -14.3028
# 4 6.3271 15.3195 -0.0725 52.7626 5.1575 -12.9206
# 5 -31.7915 -1.6196 -10.0629 5.1575 36.1405 11.1147
# 6 -29.0171 -18.9062 -14.3028 -12.9206 11.1147 29.7416
#
#
#
# Elastic Compliance Matrix: (Units=1/GPa)
#
#
# Indices 1 2 3 4 5 6 
#
# 1 0.012637 -0.005742 -0.002192 0.000390 0.008808 0.004503
# 2 -0.005742 0.020624 -0.005304 -0.003078 -0.007093 0.006271
# 3 -0.002192 -0.005304 0.013392 0.002128 0.000779 0.001564
# 4 0.000390 -0.003078 0.002128 0.023319 -0.006186 0.011890
# 5 0.008808 -0.007093 0.000779 -0.006186 0.040285 -0.013283
# 6 0.004503 0.006271 0.001564 0.011890 -0.013283 0.052885
#
#
# Mechanical properties :
#
#
# Convention : Reuss Voigt Hill
#
# Bulk Modulus (GPa) = 49.55647 66.80648 58.18148
# Shear Modulus (GPa) = 25.46578 36.07520 30.77049
#
# Velocity S-wave (km/s) = 3.22335 3.83649 3.54321
# Velocity P-wave (km/s) = 5.83715 6.84703 6.36216
#
# Compressibility (1/GPa) = 0.02017900
#
# Stress axis : x y z
#
# Youngs Moduli (GPa) = 79.13329 48.48726 74.67088
#
# Poissons Ratio (x) = 0.27840 0.16365
# Poissons Ratio (y) = 0.45436 0.39603
# Poissons Ratio (z) = 0.17343 0.25716
#
# Static dielectric constant tensor:
#      x y z
#    x 1.963930 0.017310 0.019910 
#    y 0.017310 2.007010 -0.005280 
#    z 0.019910 -0.005280 1.954520 
# 
# From -- ./inp_files/63055.got.cif
#   From: 2010.05.17/outbox.cif.g08.bks.cpg/sg2_32_cif.got.tgz:63055.got - 2010.06.03 11:33:40.
