data_PCOD9012883
_publ_section_title
;
Structure prediction by ZEFSAII (Michael W. Deem and Ramdas Pophale) SiO2 
 PCOD9012883
Probable space group: P -1
;
_chemical_formula_sum "Si O2"
_cell_formula_units_Z 14
_cell_length_a 8.021419
_cell_length_b 6.220578
_cell_length_c 19.815788
_cell_angle_alpha 52.062162
_cell_angle_beta 48.839276
_cell_angle_gamma 64.554918
_cell_volume 586.578041
_symmetry_space_group_name_H-M "P -1"
_symmetry_group_IT_number 2
_symmetry_cell_setting 'triclinic'
loop_
_space_group_symop_operation_xyz
x,y,z
-x,-y,-z
loop_
_atom_site_type_symbol
_atom_site_label
_atom_site_fract_x
_atom_site_fract_y
_atom_site_fract_z
Si Si1 0.381212 0.087269 0.446310
Si Si2 0.320540 0.262808 0.012808
Si Si3 0.178690 0.581409 0.380900
Si Si4 0.887921 0.856189 0.774119
Si Si5 0.876485 0.134117 0.073421
Si Si6 0.051651 0.654448 0.639191
Si Si7 0.286493 0.118743 0.703424
O O1 0.146042 0.947937 0.543618
O O2 0.483063 0.983622 0.369346
O O3 0.500000 0.000000 0.500000
O O4 0.393270 0.412674 0.380030
O O5 0.282423 0.234268 0.108023
O O6 0.095875 0.200661 0.044842
O O7 0.296022 0.599471 0.942797
O O8 0.500000 0.000000 0.000000
O O9 0.000000 0.500000 0.500000
O O10 0.111982 0.435475 0.357321
O O11 0.200007 0.889727 0.296306
O O12 0.950828 0.633217 0.744654
O O13 0.102348 0.957607 0.738837
O O14 0.751785 0.938256 0.196779
O O15 0.000000 0.000000 0.000000
O O16 0.249778 0.428902 0.630049
#
# Coordination Sequence:
#
# PCOD9012883 Si02
#       7
#     2   2   2   2   2   2   2
#     4  12  22  39  60  89 123 157 203 249 299 371
#     4  10  23  42  67  94 124 167 215 265 321 378
#     4  11  23  39  59  87 123 163 203 249 299 367
#     4  10  21  41  62  85 123 161 201 254 311 367
#     4  10  22  44  65  92 132 163 211 271 320 373
#     4  11  21  41  61  84 125 165 198 247 312 366
#     4  10  22  38  62  90 120 160 203 252 310 366
#
# _framework density 23.867239000000001
#
# number of rings (size 3 to 8) (size 9 to 14) (size 15 to 20)
#    0.000    1.429    2.857    2.571    2.000    0.571 
#    2.571    0.000    0.000    0.000    0.000    0.000 
#    0.000    0.000    0.000    0.000    0.000    0.000 
#
# Total GULP energy -78003.126379 kJ/mol
# GULP energy per Si atom -5571.651884 kJ/mol
# Density = 2.381292 g / cm^3
# Si number density = 23.867239 Si / 1000 Ang^3
#
#
#
# Elastic Constant Matrix: (Units=GPa)
#
#
# Indices 1 2 3 4 5 6 
#
# 1 65.0005 14.9421 9.3011 -2.6525 11.9757 -4.1819
# 2 14.9421 104.9354 33.0085 -0.7202 13.7869 -38.9351
# 3 9.3011 33.0085 123.9021 13.2040 31.9017 -14.6318
# 4 -2.6525 -0.7202 13.2040 48.5377 1.3259 13.7690
# 5 11.9757 13.7869 31.9017 1.3259 26.7381 -1.6834
# 6 -4.1819 -38.9351 -14.6318 13.7690 -1.6834 47.2096
#
#
#
# Elastic Compliance Matrix: (Units=1/GPa)
#
#
# Indices 1 2 3 4 5 6 
#
# 1 0.017170 -0.001772 0.001211 0.000838 -0.008269 -0.000105
# 2 -0.001772 0.015618 -0.000720 -0.003285 -0.005402 0.013266
# 3 0.001211 -0.000720 0.013068 -0.004294 -0.015281 0.004271
# 4 0.000838 -0.003285 -0.004294 0.024773 0.004518 -0.011030
# 5 -0.008269 -0.005402 -0.015281 0.004518 0.061327 -0.009055
# 6 -0.000105 0.013266 0.004271 -0.011030 -0.009055 0.036331
#
#
# Mechanical properties :
#
#
# Convention : Reuss Voigt Hill
#
# Bulk Modulus (GPa) = 23.09926 45.37127 34.23527
# Shear Modulus (GPa) = 26.98596 40.26949 33.62773
#
# Velocity S-wave (km/s) = 3.36619 4.11205 3.75767
# Velocity P-wave (km/s) = 4.98072 6.44952 5.76211
#
# Compressibility (1/GPa) = 0.04329143
#
# Stress axis : x y z
#
# Youngs Moduli (GPa) = 58.24242 64.02928 76.52085
#
# Poissons Ratio (x) = 0.11349 -0.09263
# Poissons Ratio (y) = 0.10323 0.05511
# Poissons Ratio (z) = -0.07051 0.04612
#
# Static dielectric constant tensor:
#      x y z
#    x 2.078770 0.765890 0.133410 
#    y 0.765890 7.320710 1.034410 
#    z 0.133410 1.034410 2.074050 
# 
# From -- ./inp_files/39068.got.cif
#   From: 2010.05.17/outbox.cif.g08.bks.cpg/sg2_20_cif.got.tgz:39068.got - 2010.06.03 11:33:40.
