data_PCOD9012288
_publ_section_title
;
Structure prediction by ZEFSAII (Michael W. Deem and Ramdas Pophale) SiO2 
 PCOD9012288
Probable space group: P -1
;
_chemical_formula_sum "Si O2"
_cell_formula_units_Z 14
_cell_length_a 12.121331
_cell_length_b 8.023351
_cell_length_c 12.532067
_cell_angle_alpha 118.457908
_cell_angle_beta 105.203449
_cell_angle_gamma 36.337802
_cell_volume 617.383854
_symmetry_space_group_name_H-M "P -1"
_symmetry_group_IT_number 2
_symmetry_cell_setting 'triclinic'
loop_
_space_group_symop_operation_xyz
x,y,z
-x,-y,-z
loop_
_atom_site_type_symbol
_atom_site_label
_atom_site_fract_x
_atom_site_fract_y
_atom_site_fract_z
Si Si1 0.749669 0.292486 0.256252
Si Si2 0.888583 0.459650 0.925575
Si Si3 0.161804 0.263432 0.667619
Si Si4 0.720837 0.705083 0.498120
Si Si5 0.184130 0.498296 0.306076
Si Si6 0.513652 0.606953 0.641890
Si Si7 0.158141 0.633001 0.899132
O O1 0.789678 0.405255 0.386717
O O2 0.576151 0.393932 0.285164
O O3 0.705741 0.453315 0.181174
O O4 0.942099 0.915812 0.172381
O O5 0.773626 0.642241 0.842901
O O6 0.771714 0.537734 0.021179
O O7 0.000000 0.500000 0.000000
O O8 0.183716 0.270328 0.549792
O O9 0.069624 0.570105 0.793813
O O10 0.042289 0.234787 0.653517
O O11 0.366218 0.972506 0.688440
O O12 0.741664 0.700599 0.627896
O O13 0.500000 0.000000 0.500000
O O14 0.277848 0.580886 0.350506
O O15 0.500000 0.500000 0.500000
O O16 0.000000 0.000000 0.000000
#
# Coordination Sequence:
#
# PCOD9012288 Si02
#       7
#     2   2   2   2   2   2   2
#     4  10  21  40  69  88 133 174 208 278 333 366
#     4  11  21  42  68  97 130 171 228 271 312 394
#     4  11  22  42  67  94 134 171 219 272 331 385
#     4  11  22  42  64  99 134 169 213 278 329 398
#     4  12  24  39  73  96 132 177 222 258 351 378
#     4  12  23  41  64 101 136 167 216 274 325 404
#     4   9  20  40  70  90 127 176 217 275 318 375
#
# _framework density 22.676328999999999
#
# number of rings (size 3 to 8) (size 9 to 14) (size 15 to 20)
#    0.000    1.143    5.714    0.429    0.000    2.286 
#    0.000    9.286    0.000    0.000    0.000    0.000 
#    0.000    0.000    0.000    0.000    0.000    0.000 
#
# Total GULP energy -78134.579718 kJ/mol
# GULP energy per Si atom -5581.041408 kJ/mol
# Density = 2.262472 g / cm^3
# Si number density = 22.676329 Si / 1000 Ang^3
#
#
#
# Elastic Constant Matrix: (Units=GPa)
#
#
# Indices 1 2 3 4 5 6 
#
# 1 175.2478 13.4152 60.8114 -19.6206 -43.0435 7.9221
# 2 13.4152 42.7490 45.0256 -2.9063 -2.9459 11.2871
# 3 60.8114 45.0256 149.0309 -38.4899 -26.3421 14.7124
# 4 -19.6206 -2.9063 -38.4899 46.1446 25.6586 -11.4740
# 5 -43.0435 -2.9459 -26.3421 25.6586 58.0206 -11.2382
# 6 7.9221 11.2871 14.7124 -11.4740 -11.2382 29.6131
#
#
#
# Elastic Compliance Matrix: (Units=1/GPa)
#
#
# Indices 1 2 3 4 5 6 
#
# 1 0.007785 0.000959 -0.003093 -0.002152 0.005433 0.000316
# 2 0.000959 0.041604 -0.014965 -0.012206 -0.001262 -0.013887
# 3 -0.003093 -0.014965 0.015009 0.011444 -0.000671 0.003254
# 4 -0.002152 -0.012206 0.011444 0.038822 -0.012265 0.009930
# 5 0.005433 -0.001262 -0.000671 -0.012265 0.027282 0.004962
# 6 0.000316 -0.013887 0.003254 0.009930 0.004962 0.043091
#
#
# Mechanical properties :
#
#
# Convention : Reuss Voigt Hill
#
# Bulk Modulus (GPa) = 33.11293 67.28133 50.19713
# Shear Modulus (GPa) = 22.95062 43.27401 33.11232
#
# Velocity S-wave (km/s) = 3.18480 4.37319 3.82542
# Velocity P-wave (km/s) = 5.30641 7.43198 6.45726
#
# Compressibility (1/GPa) = 0.03019968
#
# Stress axis : x y z
#
# Youngs Moduli (GPa) = 128.44688 24.03642 66.62491
#
# Poissons Ratio (x) = -0.02306 0.20609
# Poissons Ratio (y) = -0.12324 0.99707
# Poissons Ratio (z) = 0.39732 0.35972
#
# Static dielectric constant tensor:
#      x y z
#    x 1.874190 0.041370 -0.008180 
#    y 0.041370 1.908460 0.023700 
#    z -0.008180 0.023700 1.888290 
# 
# From -- ./inp_files/259268.got.cif
#   From: 2010.05.17/outbox.cif.g08.bks.cpg/sg2_130_cif.got.tgz:259268.got - 2010.06.03 11:33:40.
