data_PCOD9012283
_publ_section_title
;
Structure prediction by ZEFSAII (Michael W. Deem and Ramdas Pophale) SiO2 
 PCOD9012283
Probable space group: P -1
;
_chemical_formula_sum "Si O2"
_cell_formula_units_Z 12
_cell_length_a 16.964380
_cell_length_b 12.934642
_cell_length_c 5.265254
_cell_angle_alpha 59.143650
_cell_angle_beta 131.279201
_cell_angle_gamma 149.501180
_cell_volume 435.952098
_symmetry_space_group_name_H-M "P -1"
_symmetry_group_IT_number 2
_symmetry_cell_setting 'triclinic'
loop_
_space_group_symop_operation_xyz
x,y,z
-x,-y,-z
loop_
_atom_site_type_symbol
_atom_site_label
_atom_site_fract_x
_atom_site_fract_y
_atom_site_fract_z
Si Si1 0.557832 0.709283 0.150173
Si Si2 0.113233 0.546190 0.453244
Si Si3 0.895399 0.858125 0.704138
Si Si4 0.785310 0.552605 0.529624
Si Si5 0.335652 0.925093 0.133212
Si Si6 0.543094 0.205581 0.811706
O O1 0.700217 0.737308 0.428990
O O2 0.522403 0.721325 0.347146
O O3 0.364232 0.506848 0.862805
O O4 0.647188 0.916422 0.959417
O O5 0.073821 0.378601 0.447878
O O6 0.163641 0.697959 0.165773
O O7 0.000000 0.500000 0.500000
O O8 0.303545 0.683821 0.802344
O O9 0.870765 0.695903 0.775866
O O10 0.000000 0.000000 0.500000
O O11 0.000000 0.000000 0.000000
O O12 0.661622 0.330692 0.658612
O O13 0.373799 0.968675 0.852626
O O14 0.500000 0.000000 0.500000
#
# Coordination Sequence:
#
# PCOD9012283 Si02
#       6
#     2   2   2   2   2   2
#     4   9  22  46  76 113 147 209 264 324 386 476
#     4  10  21  40  69 115 163 205 249 327 402 481
#     4  12  31  50  76 116 165 209 263 344 410 468
#     4  11  23  45  79 109 154 210 275 316 397 480
#     4   8  16  40  67 111 149 196 258 317 386 464
#     4   8  20  38  72 106 146 196 263 315 376 475
#
# _framework density 27.525960000000001
#
# number of rings (size 3 to 8) (size 9 to 14) (size 15 to 20)
#    1.000    1.333    1.667    0.500    7.000    3.333 
#    0.000    0.000    0.000    0.000    0.000    3.500 
#    0.000    0.000    0.000    0.000    0.000    0.000 
#
# Total GULP energy -66868.961516 kJ/mol
# GULP energy per Si atom -5572.413460 kJ/mol
# Density = 2.746331 g / cm^3
# Si number density = 27.525960 Si / 1000 Ang^3
#
#
#
# Elastic Constant Matrix: (Units=GPa)
#
#
# Indices 1 2 3 4 5 6 
#
# 1 226.9389 55.7076 47.5930 6.1946 -8.0659 -14.5537
# 2 55.7076 136.7650 13.4613 -2.6556 -20.1164 -9.6480
# 3 47.5930 13.4613 97.3217 14.0666 8.6918 -16.9844
# 4 6.1946 -2.6556 14.0666 41.0304 4.7280 -17.9554
# 5 -8.0659 -20.1164 8.6918 4.7280 47.7668 4.9077
# 6 -14.5537 -9.6480 -16.9844 -17.9554 4.9077 60.5908
#
#
#
# Elastic Compliance Matrix: (Units=1/GPa)
#
#
# Indices 1 2 3 4 5 6 
#
# 1 0.005402 -0.001870 -0.002374 -0.000066 0.000535 0.000272
# 2 -0.001870 0.008688 -0.000586 0.001023 0.003265 0.000809
# 3 -0.002374 -0.000586 0.012562 -0.002639 -0.002909 0.002311
# 4 -0.000066 0.001023 -0.002639 0.029328 -0.002859 0.008330
# 5 0.000535 0.003265 -0.002909 -0.002859 0.023513 -0.002919
# 6 0.000272 0.000809 0.002311 0.008330 -0.002919 0.020051
#
#
# Mechanical properties :
#
#
# Convention : Reuss Voigt Hill
#
# Bulk Modulus (GPa) = 58.84817 77.17216 68.01016
# Shear Modulus (GPa) = 43.52889 52.82852 48.17870
#
# Velocity S-wave (km/s) = 3.98097 4.38565 4.18820
# Velocity P-wave (km/s) = 6.52352 7.33091 6.93897
#
# Compressibility (1/GPa) = 0.01699288
#
# Stress axis : x y z
#
# Youngs Moduli (GPa) = 185.13243 115.09658 79.60668
#
# Poissons Ratio (x) = 0.21522 0.18897
# Poissons Ratio (y) = 0.34619 0.04662
# Poissons Ratio (z) = 0.43947 0.06741
#
# Static dielectric constant tensor:
#      x y z
#    x 2.380450 -0.098250 -0.147480 
#    y -0.098250 2.800250 -0.143250 
#    z -0.147480 -0.143250 2.272150 
# 
# From -- ./inp_files/28810.got.cif
#   From: 2010.05.17/outbox.cif.g08.bks.cpg/sg2_15_cif.got.tgz:28810.got - 2010.06.03 11:33:40.
