data_PCOD9012142
_publ_section_title
;
Structure prediction by ZEFSAII (Michael W. Deem and Ramdas Pophale) SiO2 
 PCOD9012142
Probable space group: P -1
;
_chemical_formula_sum "Si O2"
_cell_formula_units_Z 14
_cell_length_a 10.636490
_cell_length_b 14.652415
_cell_length_c 13.767483
_cell_angle_alpha 152.178878
_cell_angle_beta 119.186457
_cell_angle_gamma 43.489076
_cell_volume 604.818818
_symmetry_space_group_name_H-M "P -1"
_symmetry_group_IT_number 2
_symmetry_cell_setting 'triclinic'
loop_
_space_group_symop_operation_xyz
x,y,z
-x,-y,-z
loop_
_atom_site_type_symbol
_atom_site_label
_atom_site_fract_x
_atom_site_fract_y
_atom_site_fract_z
Si Si1 0.406349 0.804934 0.673998
Si Si2 0.351931 0.657291 0.832523
Si Si3 0.172265 0.682522 0.541119
Si Si4 0.008439 0.720932 0.721705
Si Si5 0.561721 0.662078 0.095663
Si Si6 0.791799 0.063581 0.628065
Si Si7 0.769717 0.812927 0.209025
O O1 0.492227 0.563548 0.399580
O O2 0.236619 0.845471 0.704938
O O3 0.609456 0.646431 0.667710
O O4 0.316993 0.061651 0.813553
O O5 0.203493 0.614576 0.754431
O O6 0.451263 0.640464 0.950978
O O7 0.203945 0.975385 0.037517
O O8 0.045216 0.771077 0.674996
O O9 0.015516 0.781547 0.489289
O O10 0.000000 0.500000 0.500000
O O11 0.398250 0.840042 0.289319
O O12 0.627795 0.798969 0.201099
O O13 0.758866 0.329189 0.880423
O O14 0.776175 0.003557 0.455763
O O15 0.000000 0.500000 0.000000
#
# Coordination Sequence:
#
# PCOD9012142 Si02
#       7
#     2   2   2   2   2   2   2
#     4  10  23  44  68  95 139 176 224 275 337 407
#     4  10  21  40  68  97 130 180 223 270 340 395
#     4  10  22  42  67  96 134 175 214 280 338 390
#     4  10  22  41  67 101 138 176 220 277 338 407
#     4  11  24  43  72  98 135 181 229 280 344 397
#     4  11  24  45  67  99 137 176 227 289 335 403
#     4  12  27  45  69 100 135 184 233 276 341 410
#
# _framework density 23.147427
#
# number of rings (size 3 to 8) (size 9 to 14) (size 15 to 20)
#    0.000    1.429    2.857    1.286    6.000    1.143 
#    5.143    5.714    0.000    0.000    0.000    0.000 
#    0.000    0.000    0.000    0.000    0.000    0.000 
#
# Total GULP energy -78235.118875 kJ/mol
# GULP energy per Si atom -5588.222777 kJ/mol
# Density = 2.309474 g / cm^3
# Si number density = 23.147427 Si / 1000 Ang^3
#
#
#
# Elastic Constant Matrix: (Units=GPa)
#
#
# Indices 1 2 3 4 5 6 
#
# 1 69.6927 21.1832 36.3461 22.7493 10.2965 14.9354
# 2 21.1832 124.4820 20.8904 22.7463 1.0313 -8.1047
# 3 36.3461 20.8904 89.5540 11.5612 6.3199 -4.6851
# 4 22.7493 22.7463 11.5612 34.7212 5.1102 7.4523
# 5 10.2965 1.0313 6.3199 5.1102 26.2962 2.2578
# 6 14.9354 -8.1047 -4.6851 7.4523 2.2578 28.5573
#
#
#
# Elastic Compliance Matrix: (Units=1/GPa)
#
#
# Indices 1 2 3 4 5 6 
#
# 1 0.026475 -0.002040 -0.009395 -0.009314 -0.005091 -0.013134
# 2 -0.002040 0.009966 -0.000484 -0.006377 0.001302 0.005377
# 3 -0.009395 -0.000484 0.015553 -0.000207 -0.000638 0.007432
# 4 -0.009314 -0.006377 -0.000207 0.041258 -0.003430 -0.007468
# 5 -0.005091 0.001302 -0.000638 -0.003430 0.040739 0.000601
# 6 -0.013134 0.005377 0.007432 -0.007468 0.000601 0.046533
#
#
# Mechanical properties :
#
#
# Convention : Reuss Voigt Hill
#
# Bulk Modulus (GPa) = 35.51528 48.95199 42.23363
# Shear Modulus (GPa) = 23.39214 31.60220 27.49717
#
# Velocity S-wave (km/s) = 3.18240 3.69895 3.45035
# Velocity P-wave (km/s) = 5.37401 6.27987 5.84452
#
# Compressibility (1/GPa) = 0.02815690
#
# Stress axis : x y z
#
# Youngs Moduli (GPa) = 37.77115 100.33894 64.29644
#
# Poissons Ratio (x) = 0.20466 0.60405
# Poissons Ratio (y) = 0.07704 0.03114
# Poissons Ratio (z) = 0.35485 0.04860
#
# Static dielectric constant tensor:
#      x y z
#    x 1.866840 0.000070 -0.002350 
#    y 0.000070 1.926600 0.065960 
#    z -0.002350 0.065960 1.881350 
# 
# From -- ./inp_files/522654.got.cif
#   From: 2010.05.17/outbox.cif.g08.bks.cpg/sg2_262_cif.got.tgz:522654.got - 2010.06.03 11:33:40.
