data_PCOD9012447
_publ_section_title
;
Structure prediction by ZEFSAII (Michael W. Deem and Ramdas Pophale) SiO2 
 PCOD9012447
Probable space group: P -1
;
_chemical_formula_sum "Si O2"
_cell_formula_units_Z 16
_cell_length_a 7.496547
_cell_length_b 18.704862
_cell_length_c 11.062901
_cell_angle_alpha 45.309722
_cell_angle_beta 69.726952
_cell_angle_gamma 105.807885
_cell_volume 655.166996
_symmetry_space_group_name_H-M "P -1"
_symmetry_group_IT_number 2
_symmetry_cell_setting 'triclinic'
loop_
_space_group_symop_operation_xyz
x,y,z
-x,-y,-z
loop_
_atom_site_type_symbol
_atom_site_label
_atom_site_fract_x
_atom_site_fract_y
_atom_site_fract_z
Si Si1 0.425632 0.901590 0.517359
Si Si2 0.234516 0.004220 0.306509
Si Si3 0.308916 0.510244 0.589503
Si Si4 0.489719 0.809925 0.201211
Si Si5 0.846800 0.929956 0.282681
Si Si6 0.440773 0.580938 0.753481
Si Si7 0.663031 0.289325 0.039310
Si Si8 0.871526 0.582928 0.736283
O O1 0.206640 0.882565 0.514171
O O2 0.712859 0.985657 0.270595
O O3 0.500000 0.000000 0.500000
O O4 0.326220 0.758385 0.774819
O O5 0.516163 0.893748 0.980094
O O6 0.945347 0.928004 0.396137
O O7 0.369657 0.135585 0.217946
O O8 0.500000 0.500000 0.500000
O O9 0.429775 0.670831 0.337235
O O10 0.336948 0.512254 0.725541
O O11 0.957423 0.365588 0.812211
O O12 0.219920 0.729388 0.446441
O O13 0.831425 0.949187 0.002005
O O14 0.590329 0.751471 0.508716
O O15 0.703483 0.614755 0.698586
O O16 0.189094 0.468367 0.049208
O O17 0.719999 0.430147 0.876890
#
# Coordination Sequence:
#
# PCOD9012447 Si02
#       8
#     2   2   2   2   2   2   2   2
#     4  10  21  40  70 105 145 193 239 293 356 418
#     4   9  23  42  72 102 144 184 233 301 345 422
#     4  11  27  43  71 105 138 188 243 291 360 426
#     4   9  24  44  69 102 139 188 234 297 358 417
#     4  10  23  46  67 107 139 191 242 286 365 413
#     4  11  25  45  71 102 145 189 238 299 349 441
#     4  10  22  42  68 102 139 188 236 299 352 420
#     4  10  23  45  68 104 140 190 238 285 376 410
#
# _framework density 24.421253
#
# number of rings (size 3 to 8) (size 9 to 14) (size 15 to 20)
#    0.750    1.250    1.250    0.000    7.000    8.000 
#    4.500    0.000    0.000    0.000    0.000    0.000 
#    0.000    0.000    0.000    0.000    0.000    0.000 
#
# Total GULP energy -89483.956975 kJ/mol
# GULP energy per Si atom -5592.747311 kJ/mol
# Density = 2.436567 g / cm^3
# Si number density = 24.421253 Si / 1000 Ang^3
#
#
#
# Elastic Constant Matrix: (Units=GPa)
#
#
# Indices 1 2 3 4 5 6 
#
# 1 78.5400 18.2812 -0.0920 -4.6253 5.3944 2.2893
# 2 18.2812 97.4624 26.3481 7.3244 -20.9427 -2.9539
# 3 -0.0920 26.3481 95.7815 15.3699 -6.6116 -8.8556
# 4 -4.6253 7.3244 15.3699 21.6648 -2.7714 -9.1253
# 5 5.3944 -20.9427 -6.6116 -2.7714 39.1642 3.0863
# 6 2.2893 -2.9539 -8.8556 -9.1253 3.0863 44.5606
#
#
#
# Elastic Compliance Matrix: (Units=1/GPa)
#
#
# Indices 1 2 3 4 5 6 
#
# 1 0.014073 -0.003757 0.000210 0.003692 -0.003657 0.000079
# 2 -0.003757 0.013435 -0.002834 -0.002644 0.007077 -0.000511
# 3 0.000210 -0.002834 0.012499 -0.007557 -0.000027 0.000740
# 4 0.003692 -0.002644 -0.007557 0.057371 0.000084 0.009876
# 5 -0.003657 0.007077 -0.000027 0.000084 0.029933 -0.001405
# 6 0.000079 -0.000511 0.000740 0.009876 -0.001405 0.024670
#
#
# Mechanical properties :
#
#
# Convention : Reuss Voigt Hill
#
# Bulk Modulus (GPa) = 36.70474 40.09538 38.40006
# Shear Modulus (GPa) = 28.76412 36.22770 32.49591
#
# Velocity S-wave (km/s) = 3.43568 3.85574 3.65175
# Velocity P-wave (km/s) = 5.54986 6.02297 5.79125
#
# Compressibility (1/GPa) = 0.02724444
#
# Stress axis : x y z
#
# Youngs Moduli (GPa) = 71.05558 74.43194 80.00439
#
# Poissons Ratio (x) = 0.27967 -0.01677
# Poissons Ratio (y) = 0.26698 0.22673
# Poissons Ratio (z) = -0.01489 0.21094
#
# Static dielectric constant tensor:
#      x y z
#    x 1.916570 0.029410 0.008930 
#    y 0.029410 1.969510 0.051750 
#    z 0.008930 0.051750 1.971860 
# 
# From -- ./inp_files/402975.got.cif
#   From: 2010.05.17/outbox.cif.g08.bks.cpg/sg2_202_cif.got.tgz:402975.got - 2010.06.03 11:33:40.
