data_PCOD9012643
_publ_section_title
;
Structure prediction by ZEFSAII (Michael W. Deem and Ramdas Pophale) SiO2 
 PCOD9012643
Probable space group: P -1
;
_chemical_formula_sum "Si O2"
_cell_formula_units_Z 14
_cell_length_a 12.234837
_cell_length_b 22.356508
_cell_length_c 8.062439
_cell_angle_alpha 33.280465
_cell_angle_beta 45.597432
_cell_angle_gamma 30.706719
_cell_volume 616.512221
_symmetry_space_group_name_H-M "P -1"
_symmetry_group_IT_number 2
_symmetry_cell_setting 'triclinic'
loop_
_space_group_symop_operation_xyz
x,y,z
-x,-y,-z
loop_
_atom_site_type_symbol
_atom_site_label
_atom_site_fract_x
_atom_site_fract_y
_atom_site_fract_z
Si Si1 0.463547 0.915091 0.115463
Si Si2 0.841371 0.227385 0.550358
Si Si3 0.359877 0.501909 0.414528
Si Si4 0.156277 0.550361 0.853618
Si Si5 0.066224 0.037555 0.070920
Si Si6 0.598473 0.275169 0.174756
Si Si7 0.165311 0.392897 0.721660
O O1 0.438897 0.813441 0.474020
O O2 0.669738 0.786757 0.079247
O O3 0.239626 0.030574 0.985391
O O4 0.500000 0.000000 0.000000
O O5 0.594751 0.354400 0.579003
O O6 0.882535 0.334270 0.235731
O O7 0.847188 0.130326 0.632796
O O8 0.018146 0.101866 0.786980
O O9 0.190898 0.586342 0.552002
O O10 0.294480 0.439596 0.505314
O O11 0.385281 0.606519 0.058417
O O12 0.385069 0.382779 0.038529
O O13 0.963088 0.567126 0.064192
O O14 0.833032 0.145695 0.147506
O O15 0.000000 0.500000 0.500000
#
# Coordination Sequence:
#
# PCOD9012643 Si02
#       7
#     2   2   2   2   2   2   2
#     4  12  29  47  64 102 145 187 225 276 357 417
#     4  10  21  40  72  99 134 174 236 287 335 401
#     4  11  22  46  73 104 134 176 245 282 337 402
#     4  11  22  44  72 104 135 179 232 288 342 400
#     4  11  22  43  67 101 137 181 227 284 344 404
#     4  11  23  43  74  97 130 184 232 286 333 399
#     4  12  27  45  66 101 146 185 225 278 345 418
#
# _framework density 22.708389
#
# number of rings (size 3 to 8) (size 9 to 14) (size 15 to 20)
#    0.000    0.857    5.714    1.714    4.000    1.714 
#    2.571    0.714    0.000    0.000    0.000    0.000 
#    0.000    0.000    0.000    0.000    0.000    0.000 
#
# Total GULP energy -78090.041447 kJ/mol
# GULP energy per Si atom -5577.860103 kJ/mol
# Density = 2.265670 g / cm^3
# Si number density = 22.708389 Si / 1000 Ang^3
#
#
#
# Elastic Constant Matrix: (Units=GPa)
#
#
# Indices 1 2 3 4 5 6 
#
# 1 114.0607 22.6373 42.4884 -2.5113 -22.2874 -6.8086
# 2 22.6373 127.5090 32.2403 -0.9690 -13.8108 -2.3007
# 3 42.4884 32.2403 89.9672 -2.9592 -15.9653 -6.1232
# 4 -2.5113 -0.9690 -2.9592 31.0410 -2.4320 -7.5629
# 5 -22.2874 -13.8108 -15.9653 -2.4320 32.2381 -8.9941
# 6 -6.8086 -2.3007 -6.1232 -7.5629 -8.9941 33.0069
#
#
#
# Elastic Compliance Matrix: (Units=1/GPa)
#
#
# Indices 1 2 3 4 5 6 
#
# 1 0.012079 -0.000231 -0.003878 0.002273 0.007725 0.004382
# 2 -0.000231 0.008826 -0.002499 0.000457 0.002680 0.000939
# 3 -0.003878 -0.002499 0.015039 0.002323 0.004899 0.003683
# 4 0.002273 0.000457 0.002323 0.036169 0.008895 0.011643
# 5 0.007725 0.002680 0.004899 0.008895 0.045373 0.017091
# 6 0.004382 0.000939 0.003683 0.011643 0.017091 0.039274
#
#
# Mechanical properties :
#
#
# Convention : Reuss Voigt Hill
#
# Bulk Modulus (GPa) = 43.99914 58.47429 51.23671
# Shear Modulus (GPa) = 28.16085 34.86860 31.51473
#
# Velocity S-wave (km/s) = 3.52534 3.92279 3.72936
# Velocity P-wave (km/s) = 5.99904 6.80615 6.41530
#
# Compressibility (1/GPa) = 0.02272772
#
# Stress axis : x y z
#
# Youngs Moduli (GPa) = 82.79047 113.29849 66.49599
#
# Poissons Ratio (x) = 0.02615 0.25785
# Poissons Ratio (y) = 0.01911 0.16619
# Poissons Ratio (z) = 0.32104 0.28317
#
# Static dielectric constant tensor:
#      x y z
#    x 1.895360 0.027270 0.008310 
#    y 0.027270 1.878800 0.008560 
#    z 0.008310 0.008560 1.870170 
# 
# From -- ./inp_files/285109.got.cif
#   From: 2010.05.17/outbox.cif.g08.bks.cpg/sg2_143_cif.got.tgz:285109.got - 2010.06.03 11:33:40.
