data_PCOD9012763
_publ_section_title
;
Structure prediction by ZEFSAII (Michael W. Deem and Ramdas Pophale) SiO2 
 PCOD9012763
Probable space group: P -1
;
_chemical_formula_sum "Si O2"
_cell_formula_units_Z 10
_cell_length_a 6.745267
_cell_length_b 10.333126
_cell_length_c 12.542627
_cell_angle_alpha 127.541677
_cell_angle_beta 110.160347
_cell_angle_gamma 43.705056
_cell_volume 471.560904
_symmetry_space_group_name_H-M "P -1"
_symmetry_group_IT_number 2
_symmetry_cell_setting 'triclinic'
loop_
_space_group_symop_operation_xyz
x,y,z
-x,-y,-z
loop_
_atom_site_type_symbol
_atom_site_label
_atom_site_fract_x
_atom_site_fract_y
_atom_site_fract_z
Si Si1 0.173747 0.738599 0.916270
Si Si2 0.661658 0.141622 0.504334
Si Si3 0.128055 0.603295 0.617845
Si Si4 0.255448 0.475395 0.992917
Si Si5 0.585593 0.067648 0.688324
O O1 0.087266 0.665867 0.766921
O O2 0.124223 0.683032 0.994751
O O3 0.525550 0.577577 0.901820
O O4 0.000000 0.000000 0.000000
O O5 0.470144 0.395945 0.556103
O O6 0.539763 0.164494 0.611418
O O7 0.585808 0.012082 0.366045
O O8 0.000000 0.000000 0.500000
O O9 0.000000 0.500000 0.500000
O O10 0.929586 0.845993 0.648389
O O11 0.467722 0.254881 0.846927
O O12 0.000000 0.500000 0.000000
#
# Coordination Sequence:
#
# PCOD9012763 Si02
#       5
#     2   2   2   2   2
#     4  11  23  44  66  93 131 172 213 268 322 380
#     4  10  22  38  65  89 123 169 214 259 318 378
#     4  10  21  41  64  90 130 167 205 266 322 373
#     4  11  25  41  68  96 129 172 218 263 319 385
#     4  10  21  41  60  90 130 163 209 270 313 373
#
# _framework density 21.206167000000001
#
# number of rings (size 3 to 8) (size 9 to 14) (size 15 to 20)
#    0.000    1.600    4.000    0.000    2.800    1.600 
#    0.000    2.000    0.000    0.000    0.000    0.000 
#    0.000    0.000    0.000    0.000    0.000    0.000 
#
# Total GULP energy -55782.364644 kJ/mol
# GULP energy per Si atom -5578.236464 kJ/mol
# Density = 2.115790 g / cm^3
# Si number density = 21.206167 Si / 1000 Ang^3
#
#
#
# Elastic Constant Matrix: (Units=GPa)
#
#
# Indices 1 2 3 4 5 6 
#
# 1 99.0631 35.8620 8.6152 0.9523 10.5159 -6.6525
# 2 35.8620 165.8512 29.9342 14.9264 8.0330 2.5156
# 3 8.6152 29.9342 111.0724 0.7708 20.5838 1.9375
# 4 0.9523 14.9264 0.7708 39.5124 -7.8773 2.2123
# 5 10.5159 8.0330 20.5838 -7.8773 13.5746 -1.7780
# 6 -6.6525 2.5156 1.9375 2.2123 -1.7780 30.0354
#
#
#
# Elastic Compliance Matrix: (Units=1/GPa)
#
#
# Indices 1 2 3 4 5 6 
#
# 1 0.012155 -0.002249 0.001793 -0.001920 -0.011627 0.002218
# 2 -0.002249 0.007153 -0.001254 -0.003068 -0.002492 -0.000938
# 3 0.001793 -0.001254 0.013788 -0.004626 -0.024435 -0.001493
# 4 -0.001920 -0.003068 -0.004626 0.032429 0.029066 -0.000538
# 5 -0.011627 -0.002492 -0.024435 0.029066 0.138761 0.005283
# 6 0.002218 -0.000938 -0.001493 -0.000538 0.005283 0.034313
#
#
# Mechanical properties :
#
#
# Convention : Reuss Voigt Hill
#
# Bulk Modulus (GPa) = 33.69772 58.31217 46.00495
# Shear Modulus (GPa) = 19.84824 36.72949 28.28887
#
# Velocity S-wave (km/s) = 3.06267 4.16627 3.65635
# Velocity P-wave (km/s) = 5.33213 7.12047 6.29018
#
# Compressibility (1/GPa) = 0.02967560
#
# Stress axis : x y z
#
# Youngs Moduli (GPa) = 82.27295 139.79652 72.52460
#
# Poissons Ratio (x) = 0.31446 -0.13003
# Poissons Ratio (y) = 0.18507 0.09093
# Poissons Ratio (z) = -0.14750 0.17527
#
# Static dielectric constant tensor:
#      x y z
#    x 1.752530 -0.005600 0.047710 
#    y -0.005600 1.803310 0.001730 
#    z 0.047710 0.001730 1.795340 
# 
# From -- ./inp_files/18674.got.cif
#   From: 2010.05.17/outbox.cif.g08.bks.cpg/sg2_10_cif.got.tgz:18674.got - 2010.06.03 11:33:40.
