data_PCOD9012982
_publ_section_title
;
Structure prediction by ZEFSAII (Michael W. Deem and Ramdas Pophale) SiO2 
 PCOD9012982
Probable space group: P -1
;
_chemical_formula_sum "Si O2"
_cell_formula_units_Z 14
_cell_length_a 7.220970
_cell_length_b 9.530911
_cell_length_c 25.913415
_cell_angle_alpha 31.897066
_cell_angle_beta 133.393781
_cell_angle_gamma 125.058931
_cell_volume 684.577465
_symmetry_space_group_name_H-M "P -1"
_symmetry_group_IT_number 2
_symmetry_cell_setting 'triclinic'
loop_
_space_group_symop_operation_xyz
x,y,z
-x,-y,-z
loop_
_atom_site_type_symbol
_atom_site_label
_atom_site_fract_x
_atom_site_fract_y
_atom_site_fract_z
Si Si1 0.787863 0.468536 0.045150
Si Si2 0.983680 0.916510 0.870026
Si Si3 0.208684 0.652108 0.459734
Si Si4 0.756958 0.639486 0.543834
Si Si5 0.001088 0.211885 0.266613
Si Si6 0.101072 0.508568 0.739248
Si Si7 0.549345 0.093687 0.284734
O O1 0.810341 0.247509 0.073345
O O2 0.955367 0.372071 0.155891
O O3 0.500000 0.500000 0.000000
O O4 0.896055 0.734063 0.957709
O O5 0.734159 0.939044 0.778481
O O6 0.074370 0.201968 0.816665
O O7 0.502806 0.556485 0.552001
O O8 0.154324 0.580534 0.412124
O O9 0.000000 0.500000 0.500000
O O10 0.190702 0.963413 0.371926
O O11 0.976589 0.672564 0.616739
O O12 0.659697 0.884086 0.413152
O O13 0.734693 0.079386 0.274753
O O14 0.050374 0.400478 0.266166
O O15 0.384058 0.615708 0.770537
#
# Coordination Sequence:
#
# PCOD9012982 Si02
#       7
#     2   2   2   2   2   2   2
#     4  11  22  43  68  94 120 164 210 263 312 375
#     4  11  23  43  71  87 124 170 204 255 331 362
#     4  11  21  37  62  95 125 169 214 255 302 371
#     4  11  21  37  65  87 132 176 202 248 321 364
#     4  10  22  39  61  90 132 155 207 268 298 362
#     4  10  23  40  64  96 124 167 211 253 308 378
#     4  10  21  41  62  93 129 160 208 257 301 374
#
# _framework density 20.450571
#
# number of rings (size 3 to 8) (size 9 to 14) (size 15 to 20)
#    0.857    0.571    2.857    3.857    0.000    1.143 
#    0.000   10.714    0.000    0.000    0.000    0.000 
#    0.000    0.000    0.000    0.000    0.000    0.000 
#
# Total GULP energy -78081.975752 kJ/mol
# GULP energy per Si atom -5577.283982 kJ/mol
# Density = 2.040402 g / cm^3
# Si number density = 20.450571 Si / 1000 Ang^3
#
#
#
# Elastic Constant Matrix: (Units=GPa)
#
#
# Indices 1 2 3 4 5 6 
#
# 1 113.5697 28.0272 34.1680 -14.9027 -1.1588 -7.3224
# 2 28.0272 130.4774 34.4179 -30.0304 -1.1850 -10.8911
# 3 34.1680 34.4179 82.8090 -24.7221 -24.0926 -4.7129
# 4 -14.9027 -30.0304 -24.7221 29.8670 -2.8547 0.1596
# 5 -1.1588 -1.1850 -24.0926 -2.8547 36.1951 -3.1080
# 6 -7.3224 -10.8911 -4.7129 0.1596 -3.1080 24.7904
#
#
#
# Elastic Compliance Matrix: (Units=1/GPa)
#
#
# Indices 1 2 3 4 5 6 
#
# 1 0.010499 -0.000873 -0.004501 0.000385 -0.002526 0.001543
# 2 -0.000873 0.010652 -0.000523 0.009926 0.001133 0.004400
# 3 -0.004501 -0.000523 0.026430 0.020945 0.019580 0.005785
# 4 0.000385 0.009926 0.020945 0.062860 0.020145 0.010577
# 5 -0.002526 0.001133 0.019580 0.020145 0.042956 0.008730
# 6 0.001543 0.004400 0.005785 0.010577 0.008730 0.044853
#
#
# Mechanical properties :
#
#
# Convention : Reuss Voigt Hill
#
# Bulk Modulus (GPa) = 27.94502 57.78692 42.86597
# Shear Modulus (GPa) = 22.52518 33.52003 28.02260
#
# Velocity S-wave (km/s) = 3.32240 4.05294 3.70572
# Velocity P-wave (km/s) = 5.33030 7.08661 6.27025
#
# Compressibility (1/GPa) = 0.03578455
#
# Stress axis : x y z
#
# Youngs Moduli (GPa) = 95.24605 93.87906 37.83647
#
# Poissons Ratio (x) = 0.08200 0.17031
# Poissons Ratio (y) = 0.08320 0.01981
# Poissons Ratio (z) = 0.42871 0.04914
#
# Static dielectric constant tensor:
#      x y z
#    x 1.749450 0.017020 -0.001010 
#    y 0.017020 1.745700 -0.027220 
#    z -0.001010 -0.027220 1.768080 
# 
# From -- ./inp_files/603955.got.cif
#   From: 2010.05.17/outbox.cif.g08.bks.cpg/sg2_302_cif.got.tgz:603955.got - 2010.06.03 11:33:40.
