data_PCOD9012353
_publ_section_title
;
Structure prediction by ZEFSAII (Michael W. Deem and Ramdas Pophale) SiO2 
 PCOD9012353
Probable space group: P -1
;
_chemical_formula_sum "Si O2"
_cell_formula_units_Z 15
_cell_length_a 9.117834
_cell_length_b 11.818933
_cell_length_c 14.964635
_cell_angle_alpha 152.407605
_cell_angle_beta 110.581003
_cell_angle_gamma 64.135618
_cell_volume 669.729242
_symmetry_space_group_name_H-M "P -1"
_symmetry_group_IT_number 2
_symmetry_cell_setting 'triclinic'
loop_
_space_group_symop_operation_xyz
x,y,z
-x,-y,-z
loop_
_atom_site_type_symbol
_atom_site_label
_atom_site_fract_x
_atom_site_fract_y
_atom_site_fract_z
Si Si1 0.511397 0.732943 0.604045
Si Si2 0.250959 0.957264 0.358962
Si Si3 0.999540 0.437513 0.689424
Si Si4 0.500000 0.500000 0.000000
Si Si5 0.368891 0.269195 0.985577
Si Si6 0.731157 0.262042 0.596453
Si Si7 0.148314 0.554744 0.520358
Si Si8 0.952341 0.850856 0.116984
O O1 0.500000 0.500000 0.500000
O O2 0.366424 0.809182 0.555300
O O3 0.689222 0.620644 0.523081
O O4 0.491580 0.992115 0.833998
O O5 0.408769 0.802093 0.227970
O O6 0.274042 0.889532 0.420857
O O7 0.104527 0.859110 0.216445
O O8 0.168611 0.264225 0.561620
O O9 0.912663 0.262802 0.606921
O O10 0.871019 0.526031 0.642952
O O11 0.013965 0.664408 0.915158
O O12 0.579669 0.607517 0.005700
O O13 0.182918 0.248700 0.930179
O O14 0.365437 0.449499 0.195332
O O15 0.000000 0.500000 0.500000
O O16 0.131003 0.856108 0.725786
#
# Coordination Sequence:
#
# PCOD9012353 Si02
#       8
#     2   2   2   1   2   2   2   2
#     4  12  22  42  71  93 129 177 217 271 330 386
#     4  10  22  42  64  97 137 167 218 270 324 392
#     4  10  21  40  69  96 127 174 220 272 319 394
#     4  10  24  42  62  96 142 162 206 278 324 378
#     4  10  23  42  67 101 133 170 218 267 326 390
#     4  10  22  40  66 101 125 170 226 266 321 392
#     4  11  25  43  64  97 135 171 224 277 320 387
#     4  10  22  43  71  96 128 180 222 263 331 389
#
# _framework density 22.397110999999999
#
# number of rings (size 3 to 8) (size 9 to 14) (size 15 to 20)
#    0.000    1.600    2.667    1.200    3.733    9.067 
#    4.800    3.333    0.000    0.000    0.000    0.000 
#    0.000    0.000    0.000    0.000    0.000    0.000 
#
# Total GULP energy -83508.078272 kJ/mol
# GULP energy per Si atom -5567.205218 kJ/mol
# Density = 2.234613 g / cm^3
# Si number density = 22.397111 Si / 1000 Ang^3
#
#
#
# Elastic Constant Matrix: (Units=GPa)
#
#
# Indices 1 2 3 4 5 6 
#
# 1 56.1483 -7.4340 29.3868 -0.1696 -24.8206 20.4176
# 2 -7.4340 45.2356 34.6770 -0.9815 -7.2980 0.5758
# 3 29.3868 34.6770 145.8643 -0.6627 -26.5287 -5.9457
# 4 -0.1696 -0.9815 -0.6627 35.4562 -1.0404 -5.4136
# 5 -24.8206 -7.2980 -26.5287 -1.0404 37.3621 -1.2331
# 6 20.4176 0.5758 -5.9457 -5.4136 -1.2331 36.1301
#
#
#
# Elastic Compliance Matrix: (Units=1/GPa)
#
#
# Indices 1 2 3 4 5 6 
#
# 1 0.050133 0.021851 -0.011364 -0.003121 0.028425 -0.030047
# 2 0.021851 0.036662 -0.011324 -0.000919 0.013133 -0.014485
# 3 -0.011364 -0.011324 0.012035 0.001163 -0.000895 0.008727
# 4 -0.003121 -0.000919 0.001163 0.029139 -0.000407 0.006322
# 5 0.028425 0.013133 -0.000895 -0.000407 0.047076 -0.014874
# 6 -0.030047 -0.014485 0.008727 0.006322 -0.014874 0.046764
#
#
# Mechanical properties :
#
#
# Convention : Reuss Voigt Hill
#
# Bulk Modulus (GPa) = 10.29277 40.05643 25.17460
# Shear Modulus (GPa) = 19.54134 34.49758 27.01946
#
# Velocity S-wave (km/s) = 2.95701 3.92888 3.47707
# Velocity P-wave (km/s) = 4.03287 6.20524 5.23302
#
# Compressibility (1/GPa) = 0.09715553
#
# Stress axis : x y z
#
# Youngs Moduli (GPa) = 19.94704 27.27651 83.08773
#
# Poissons Ratio (x) = -0.59602 0.94421
# Poissons Ratio (y) = -0.43586 0.94089
# Poissons Ratio (z) = 0.22668 0.30888
#
# Static dielectric constant tensor:
#      x y z
#    x 1.887480 -0.043110 -0.019080 
#    y -0.043110 1.821450 0.036570 
#    z -0.019080 0.036570 1.862910 
# 
# From -- ./inp_files/417806.got.cif
#   From: 2010.05.17/outbox.cif.g08.bks.cpg/sg2_209_cif.got.tgz:417806.got - 2010.06.03 11:33:40.
