data_PCOD9012482
_publ_section_title
;
Structure prediction by ZEFSAII (Michael W. Deem and Ramdas Pophale) SiO2 
 PCOD9012482
Probable space group: P -1
;
_chemical_formula_sum "Si O2"
_cell_formula_units_Z 14
_cell_length_a 8.687763
_cell_length_b 11.872369
_cell_length_c 9.043682
_cell_angle_alpha 126.963938
_cell_angle_beta 121.259570
_cell_angle_gamma 65.442536
_cell_volume 629.753586
_symmetry_space_group_name_H-M "P -1"
_symmetry_group_IT_number 2
_symmetry_cell_setting 'triclinic'
loop_
_space_group_symop_operation_xyz
x,y,z
-x,-y,-z
loop_
_atom_site_type_symbol
_atom_site_label
_atom_site_fract_x
_atom_site_fract_y
_atom_site_fract_z
Si Si1 0.098836 0.839680 0.423751
Si Si2 0.451342 0.922665 0.763367
Si Si3 0.339750 0.458451 0.189465
Si Si4 0.141398 0.660971 0.034069
Si Si5 0.700925 0.785572 0.222977
Si Si6 0.326666 0.439846 0.724408
Si Si7 0.229109 0.334774 0.311746
O O1 0.275753 0.837665 0.614200
O O2 0.168072 0.793811 0.256157
O O3 0.923220 0.765079 0.321101
O O4 0.000000 0.000000 0.500000
O O5 0.623077 0.807161 0.712641
O O6 0.389530 0.050698 0.715511
O O7 0.500000 0.000000 0.000000
O O8 0.169518 0.540673 0.080146
O O9 0.501489 0.534127 0.266925
O O10 0.306534 0.451825 0.340059
O O11 0.359512 0.296543 0.015663
O O12 0.267324 0.581402 0.904136
O O13 0.946038 0.696458 0.889533
O O14 0.637526 0.695872 0.256334
O O15 0.184986 0.400094 0.502051
#
# Coordination Sequence:
#
# PCOD9012482 Si02
#       7
#     2   2   2   2   2   2   2
#     4  10  21  40  70  94 127 177 222 263 335 399
#     4  11  22  42  70  98 129 169 230 278 321 400
#     4  11  22  43  68  95 134 183 225 264 332 399
#     4  11  22  43  67  96 137 173 221 275 329 398
#     4  10  21  43  67  97 133 176 222 273 333 391
#     4  11  26  41  67 102 138 173 222 279 331 382
#     4  12  23  42  65 103 133 179 225 272 327 395
#
# _framework density 22.230916000000001
#
# number of rings (size 3 to 8) (size 9 to 14) (size 15 to 20)
#    0.000    1.143    2.857    4.714    2.000    0.571 
#    2.571    1.429    0.000    7.714    0.000    0.000 
#    0.000    0.000    0.000    0.000    0.000    0.000 
#
# Total GULP energy -78057.009778 kJ/mol
# GULP energy per Si atom -5575.500698 kJ/mol
# Density = 2.218032 g / cm^3
# Si number density = 22.230916 Si / 1000 Ang^3
#
#
#
# Elastic Constant Matrix: (Units=GPa)
#
#
# Indices 1 2 3 4 5 6 
#
# 1 64.6258 41.1213 35.5267 -10.3263 5.4386 -6.5402
# 2 41.1213 90.3604 33.0517 -0.9497 -3.6900 -17.2414
# 3 35.5267 33.0517 151.2505 -14.3435 -7.1554 -5.9925
# 4 -10.3263 -0.9497 -14.3435 36.9063 -2.4366 -0.7068
# 5 5.4386 -3.6900 -7.1554 -2.4366 46.2518 -3.4611
# 6 -6.5402 -17.2414 -5.9925 -0.7068 -3.4611 39.7899
#
#
#
# Elastic Compliance Matrix: (Units=1/GPa)
#
#
# Indices 1 2 3 4 5 6 
#
# 1 0.025053 -0.010525 -0.003340 0.005146 -0.004122 -0.001213
# 2 -0.010525 0.017515 -0.001248 -0.002686 0.002739 0.005862
# 3 -0.003340 -0.001248 0.007972 0.002248 0.001667 0.000296
# 4 0.005146 -0.002686 0.002248 0.029426 0.001127 0.000641
# 5 -0.004122 0.002739 0.001667 0.001127 0.022848 0.002768
# 6 -0.001213 0.005862 0.000296 0.000641 0.002768 0.027769
#
#
# Mechanical properties :
#
#
# Convention : Reuss Voigt Hill
#
# Bulk Modulus (GPa) = 49.22550 58.40402 53.81476
# Shear Modulus (GPa) = 29.83588 37.69206 33.76397
#
# Velocity S-wave (km/s) = 3.66743 4.12209 3.90139
# Velocity P-wave (km/s) = 6.33437 6.99886 6.67489
#
# Compressibility (1/GPa) = 0.02031467
#
# Stress axis : x y z
#
# Youngs Moduli (GPa) = 39.91501 57.09268 125.43128
#
# Poissons Ratio (x) = 0.60092 0.41891
# Poissons Ratio (y) = 0.42012 0.15656
# Poissons Ratio (z) = 0.13331 0.07126
#
# Static dielectric constant tensor:
#      x y z
#    x 1.884320 -0.021030 0.040960 
#    y -0.021030 1.822310 0.041680 
#    z 0.040960 0.041680 1.938260 
# 
# From -- ./inp_files/190978.got.cif
#   From: 2010.05.17/outbox.cif.g08.bks.cpg/sg2_96_cif.got.tgz:190978.got - 2010.06.03 11:33:40.
