data_PCOD9012556
_publ_section_title
;
Structure prediction by ZEFSAII (Michael W. Deem and Ramdas Pophale) SiO2 
 PCOD9012556
Probable space group: P -1
;
_chemical_formula_sum "Si O2"
_cell_formula_units_Z 14
_cell_length_a 18.600424
_cell_length_b 12.368724
_cell_length_c 9.021872
_cell_angle_alpha 121.506465
_cell_angle_beta 129.031626
_cell_angle_gamma 20.614531
_cell_volume 550.456656
_symmetry_space_group_name_H-M "P -1"
_symmetry_group_IT_number 2
_symmetry_cell_setting 'triclinic'
loop_
_space_group_symop_operation_xyz
x,y,z
-x,-y,-z
loop_
_atom_site_type_symbol
_atom_site_label
_atom_site_fract_x
_atom_site_fract_y
_atom_site_fract_z
Si Si1 0.885444 0.632335 0.282025
Si Si2 0.893925 0.360168 0.210089
Si Si3 0.241704 0.365200 0.449049
Si Si4 0.429738 0.680641 0.383006
Si Si5 0.114581 0.756098 0.355760
Si Si6 0.308647 0.847138 0.025212
Si Si7 0.523302 0.273974 0.143335
O O1 0.843464 0.535770 0.151621
O O2 0.000000 0.500000 0.500000
O O3 0.073660 0.454741 0.289157
O O4 0.661384 0.001350 0.230485
O O5 0.793871 0.530490 0.359925
O O6 0.740623 0.433988 0.017300
O O7 0.168189 0.000129 0.332391
O O8 0.176475 0.554519 0.384907
O O9 0.500000 0.000000 0.500000
O O10 0.654309 0.475731 0.581353
O O11 0.523602 0.419056 0.301034
O O12 0.374682 0.815442 0.248496
O O13 0.000000 0.000000 0.500000
O O14 0.926122 0.939573 0.128226
O O15 0.342480 0.894721 0.962253
O O16 0.500000 0.500000 0.000000
#
# Coordination Sequence:
#
# PCOD9012556 Si02
#       7
#     2   2   2   2   2   2   2
#     4  10  22  44  63  96 137 176 229 280 324 411
#     4  11  25  44  69  97 144 177 224 285 347 403
#     4  11  24  46  69  96 131 180 235 281 337 411
#     4  11  24  44  68 110 141 174 226 288 343 407
#     4  12  21  43  75 101 134 182 229 282 344 399
#     4  10  21  40  71 101 140 172 230 280 333 406
#     4  11  21  44  68  99 138 183 222 276 342 408
#
# _framework density 25.433427999999999
#
# number of rings (size 3 to 8) (size 9 to 14) (size 15 to 20)
#    0.000    1.143    4.286    2.571    2.000    0.000 
#   12.857    5.000    0.000    0.000    0.000    0.000 
#    0.000    0.000    0.000    0.000    0.000    0.000 
#
# Total GULP energy -78388.633470 kJ/mol
# GULP energy per Si atom -5599.188105 kJ/mol
# Density = 2.537554 g / cm^3
# Si number density = 25.433428 Si / 1000 Ang^3
#
#
#
# Elastic Constant Matrix: (Units=GPa)
#
#
# Indices 1 2 3 4 5 6 
#
# 1 133.1790 41.5433 46.5213 -23.6582 15.9883 15.2416
# 2 41.5433 133.5351 27.9429 -40.4801 -3.5279 -7.3266
# 3 46.5213 27.9429 127.9901 -40.7133 29.7750 -8.9770
# 4 -23.6582 -40.4801 -40.7133 41.5746 -5.6893 3.8412
# 5 15.9883 -3.5279 29.7750 -5.6893 49.4724 -10.6646
# 6 15.2416 -7.3266 -8.9770 3.8412 -10.6646 54.9833
#
#
#
# Elastic Compliance Matrix: (Units=1/GPa)
#
#
# Indices 1 2 3 4 5 6 
#
# 1 0.010180 -0.002746 -0.002546 0.000632 -0.002784 -0.004188
# 2 -0.002746 0.011708 0.001726 0.011661 0.002515 0.002276
# 3 -0.002546 0.001726 0.013878 0.012936 -0.005660 0.001200
# 4 0.000632 0.011661 0.012936 0.048228 -0.001655 -0.000200
# 5 -0.002784 0.002515 -0.005660 -0.001655 0.025645 0.005273
# 6 -0.004188 0.002276 0.001200 -0.000200 0.005273 0.020884
#
#
# Mechanical properties :
#
#
# Convention : Reuss Voigt Hill
#
# Bulk Modulus (GPa) = 34.92311 69.63547 52.27929
# Shear Modulus (GPa) = 33.96752 47.78584 40.87668
#
# Velocity S-wave (km/s) = 3.65848 4.33928 4.01334
# Velocity P-wave (km/s) = 5.62200 7.24878 6.48659
#
# Compressibility (1/GPa) = 0.02863434
#
# Stress axis : x y z
#
# Youngs Moduli (GPa) = 98.22868 85.40999 72.05882
#
# Poissons Ratio (x) = 0.23454 0.18344
# Poissons Ratio (y) = 0.26974 -0.12437
# Poissons Ratio (z) = 0.25007 -0.14741
#
# Static dielectric constant tensor:
#      x y z
#    x 2.017160 -0.021160 -0.020550 
#    y -0.021160 1.963970 0.052950 
#    z -0.020550 0.052950 2.057980 
# 
# From -- ./inp_files/465122.got.cif
#   From: 2010.05.17/outbox.cif.g08.bks.cpg/sg2_233_cif.got.tgz:465122.got - 2010.06.03 11:33:40.
