data_PCOD9012921
_publ_section_title
;
Structure prediction by ZEFSAII (Michael W. Deem and Ramdas Pophale) SiO2 
 PCOD9012921
Probable space group: P -1
;
_chemical_formula_sum "Si O2"
_cell_formula_units_Z 16
_cell_length_a 11.729705
_cell_length_b 11.586511
_cell_length_c 12.321314
_cell_angle_alpha 60.336099
_cell_angle_beta 137.399896
_cell_angle_gamma 86.316783
_cell_volume 674.601344
_symmetry_space_group_name_H-M "P -1"
_symmetry_group_IT_number 2
_symmetry_cell_setting 'triclinic'
loop_
_space_group_symop_operation_xyz
x,y,z
-x,-y,-z
loop_
_atom_site_type_symbol
_atom_site_label
_atom_site_fract_x
_atom_site_fract_y
_atom_site_fract_z
Si Si1 0.395564 0.033099 0.716106
Si Si2 0.114108 0.248902 0.223260
Si Si3 0.098864 0.366111 0.734733
Si Si4 0.080778 0.812720 0.595574
Si Si5 0.098814 0.523292 0.223680
Si Si6 0.589158 0.221362 0.797753
Si Si7 0.609110 0.429940 0.879812
Si Si8 0.905090 0.179790 0.655128
O O1 0.324035 0.054379 0.528689
O O2 0.499239 0.119743 0.778160
O O3 0.609597 0.806870 0.993604
O O4 0.151885 0.147455 0.560867
O O5 0.135094 0.380188 0.234131
O O6 0.093568 0.271387 0.069200
O O7 0.852697 0.341296 0.032857
O O8 0.000000 0.500000 0.500000
O O9 0.014407 0.461732 0.749671
O O10 0.999359 0.272271 0.708742
O O11 0.109088 0.814014 0.487750
O O12 0.313734 0.626984 0.913904
O O13 0.000000 0.000000 0.500000
O O14 0.375932 0.416826 0.487599
O O15 0.566620 0.307551 0.857264
O O16 0.879433 0.045859 0.052316
O O17 0.379809 0.657182 0.586291
#
# Coordination Sequence:
#
# PCOD9012921 Si02
#       8
#     2   2   2   2   2   2   2   2
#     4   9  23  41  63  93 126 171 216 259 320 377
#     4   9  22  43  68  90 124 173 213 267 315 371
#     4  11  25  36  66 100 127 168 213 260 314 392
#     4  11  23  38  60  88 132 171 203 266 315 376
#     4  10  21  44  67  91 128 169 214 263 318 371
#     4  10  21  41  62  89 128 162 211 264 315 374
#     4  11  22  41  63  93 124 169 214 261 320 371
#     4  11  24  38  60  93 132 167 210 256 316 388
#
# _framework density 23.717711000000001
#
# number of rings (size 3 to 8) (size 9 to 14) (size 15 to 20)
#    0.000    1.750    2.500    0.375    8.750    3.000 
#    0.000    0.625    0.000    0.000    0.000    0.000 
#    0.000    0.000    0.000    0.000    0.000    0.000 
#
# Total GULP energy -89312.369950 kJ/mol
# GULP energy per Si atom -5582.023122 kJ/mol
# Density = 2.366373 g / cm^3
# Si number density = 23.717711 Si / 1000 Ang^3
#
#
#
# Elastic Constant Matrix: (Units=GPa)
#
#
# Indices 1 2 3 4 5 6 
#
# 1 44.6749 -2.1533 36.3516 8.2367 -10.6344 -13.5762
# 2 -2.1533 7.4260 54.7647 -11.4614 7.9894 -16.4149
# 3 36.3516 54.7647 172.0974 6.5707 -9.2619 -12.2316
# 4 8.2367 -11.4614 6.5707 24.2004 -2.1761 0.7938
# 5 -10.6344 7.9894 -9.2619 -2.1761 33.3554 9.5568
# 6 -13.5762 -16.4149 -12.2316 0.7938 9.5568 19.1975
#
#
#
# Elastic Compliance Matrix: (Units=1/GPa)
#
#
# Indices 1 2 3 4 5 6 
#
# 1 0.028535 -0.013211 -0.000406 -0.015107 0.009930 0.004306
# 2 -0.013211 -0.023257 0.009025 -0.006962 0.011728 -0.029029
# 3 -0.000406 0.009025 0.003519 0.002663 -0.004525 0.011815
# 4 -0.015107 -0.006962 0.002663 0.043641 0.006106 -0.019784
# 5 0.009930 0.011728 -0.004525 0.006106 0.029733 -0.000887
# 6 0.004306 -0.029029 0.011815 -0.019784 -0.000887 0.039102
#
#
# Mechanical properties :
#
#
# Convention : Reuss Voigt Hill
#
# Bulk Modulus (GPa) = -2583.97642 44.68049 -1269.64796
# Shear Modulus (GPa) = 38.36492 24.36633 31.36563
#
# Velocity S-wave (km/s) = 4.02626 3.20870 3.64050
# Velocity P-wave (km/s) = 32.71425 5.71026 22.77735
#
# Compressibility (1/GPa) = -0.00038700
#
# Stress axis : x y z
#
# Youngs Moduli (GPa) = 35.04435 -42.99719 284.17553
#
# Poissons Ratio (x) = -0.56804 0.11543
# Poissons Ratio (y) = 0.46297 -2.56475
# Poissons Ratio (z) = 0.01423 0.38806
#
# Static dielectric constant tensor:
#      x y z
#    x 1.908630 0.041240 -0.031090 
#    y 0.041240 1.930740 -0.030610 
#    z -0.031090 -0.030610 1.987960 
# 
# From -- ./inp_files/428034.got.cif
#   From: 2010.05.17/outbox.cif.g08.bks.cpg/sg2_215_cif.got.tgz:428034.got - 2010.06.03 11:33:40.
