data_PCOD9012672
_publ_section_title
;
Structure prediction by ZEFSAII (Michael W. Deem and Ramdas Pophale) SiO2 
 PCOD9012672
Probable space group: P -1
;
_chemical_formula_sum "Si O2"
_cell_formula_units_Z 16
_cell_length_a 9.718194
_cell_length_b 19.615376
_cell_length_c 8.076355
_cell_angle_alpha 141.372784
_cell_angle_beta 45.958813
_cell_angle_gamma 131.486014
_cell_volume 665.975011
_symmetry_space_group_name_H-M "P -1"
_symmetry_group_IT_number 2
_symmetry_cell_setting 'triclinic'
loop_
_space_group_symop_operation_xyz
x,y,z
-x,-y,-z
loop_
_atom_site_type_symbol
_atom_site_label
_atom_site_fract_x
_atom_site_fract_y
_atom_site_fract_z
Si Si1 0.850846 0.275483 0.419306
Si Si2 0.793448 0.696837 0.334851
Si Si3 0.544809 0.954544 0.058976
Si Si4 0.834818 0.887774 0.466091
Si Si5 0.471993 0.158522 0.668323
Si Si6 0.344552 0.714777 0.754854
Si Si7 0.012654 0.521426 0.835997
Si Si8 0.912728 0.864477 0.853679
O O1 0.669519 0.260172 0.675693
O O2 0.739038 0.269243 0.326591
O O3 0.996720 0.400110 0.539969
O O4 0.964423 0.179776 0.186378
O O5 0.896851 0.775206 0.243602
O O6 0.559508 0.688666 0.513334
O O7 0.902022 0.768219 0.538659
O O8 0.830081 0.574873 0.053431
O O9 0.554518 0.048739 0.365527
O O10 0.739074 0.917052 0.773827
O O11 0.383016 0.841748 0.035443
O O12 0.500000 0.000000 0.000000
O O13 0.671248 0.853883 0.396483
O O14 0.000000 0.000000 0.500000
O O15 0.316894 0.154353 0.935174
O O16 0.200637 0.617137 0.794990
O O17 0.000000 0.500000 0.000000
O O18 0.000000 0.000000 0.000000
#
# Coordination Sequence:
#
# PCOD9012672 Si02
#       8
#     2   2   2   2   2   2   2   2
#     4  12  27  52  72 112 149 193 258 309 371 441
#     4  11  26  49  72 109 145 196 252 297 382 443
#     4   9  19  39  67 110 145 179 234 297 373 426
#     4  10  21  40  74 109 143 189 239 299 366 446
#     4  11  25  42  74 107 149 198 238 309 370 437
#     4  11  26  47  79 109 145 194 252 314 366 443
#     4  12  29  50  77 106 149 203 248 312 373 448
#     4  12  30  45  72 115 158 195 247 306 386 453
#
# _framework density 24.024923999999999
#
# number of rings (size 3 to 8) (size 9 to 14) (size 15 to 20)
#    0.000    1.000    5.000    1.125   14.000    2.500 
#    0.000    0.000    0.000    0.000    0.000    0.000 
#    0.000    0.000    0.000    0.000    0.000    0.000 
#
# Total GULP energy -89425.330873 kJ/mol
# GULP energy per Si atom -5589.083180 kJ/mol
# Density = 2.397024 g / cm^3
# Si number density = 24.024924 Si / 1000 Ang^3
#
#
#
# Elastic Constant Matrix: (Units=GPa)
#
#
# Indices 1 2 3 4 5 6 
#
# 1 105.0867 36.9638 6.3528 3.4528 -13.2812 -13.2878
# 2 36.9638 198.1947 36.9743 1.4598 -16.2673 0.1555
# 3 6.3528 36.9743 62.2315 1.3826 -15.3961 -3.1089
# 4 3.4528 1.4598 1.3826 48.9060 0.9780 -10.1062
# 5 -13.2812 -16.2673 -15.3961 0.9780 39.2214 4.3430
# 6 -13.2878 0.1555 -3.1089 -10.1062 4.3430 36.5766
#
#
#
# Elastic Compliance Matrix: (Units=1/GPa)
#
#
# Indices 1 2 3 4 5 6 
#
# 1 0.010995 -0.001998 0.000959 -0.000029 0.002858 0.003737
# 2 -0.001998 0.006093 -0.003299 -0.000203 0.000690 -0.001170
# 3 0.000959 -0.003299 0.019616 -0.000420 0.006541 0.001137
# 4 -0.000029 -0.000203 -0.000420 0.021767 -0.001482 0.006145
# 5 0.002858 0.000690 0.006541 -0.001482 0.029613 -0.002334
# 6 0.003737 -0.001170 0.001137 0.006145 -0.002334 0.030774
#
#
# Mechanical properties :
#
#
# Convention : Reuss Voigt Hill
#
# Bulk Modulus (GPa) = 35.67899 58.45497 47.06698
# Shear Modulus (GPa) = 36.52927 43.95561 40.24244
#
# Velocity S-wave (km/s) = 3.90356 4.28200 4.09715
# Velocity P-wave (km/s) = 5.93296 6.98793 6.48195
#
# Compressibility (1/GPa) = 0.02802770
#
# Stress axis : x y z
#
# Youngs Moduli (GPa) = 90.94740 164.13219 50.97960
#
# Poissons Ratio (x) = 0.32788 -0.04888
# Poissons Ratio (y) = 0.18168 0.16819
# Poissons Ratio (z) = -0.08721 0.54150
#
# Static dielectric constant tensor:
#      x y z
#    x 2.034540 -0.035390 -0.031710 
#    y -0.035390 1.943930 0.016890 
#    z -0.031710 0.016890 2.008150 
# 
# From -- ./inp_files/282400.got.cif
#   From: 2010.05.17/outbox.cif.g08.bks.cpg/sg2_142_cif.got.tgz:282400.got - 2010.06.03 11:33:40.
