data_PCOD9012419
_publ_section_title
;
Structure prediction by ZEFSAII (Michael W. Deem and Ramdas Pophale) SiO2 
 PCOD9012419
Probable space group: P -1
;
_chemical_formula_sum "Si O2"
_cell_formula_units_Z 15
_cell_length_a 9.744948
_cell_length_b 20.199736
_cell_length_c 8.719533
_cell_angle_alpha 121.509578
_cell_angle_beta 108.200123
_cell_angle_gamma 30.003241
_cell_volume 690.990794
_symmetry_space_group_name_H-M "P -1"
_symmetry_group_IT_number 2
_symmetry_cell_setting 'triclinic'
loop_
_space_group_symop_operation_xyz
x,y,z
-x,-y,-z
loop_
_atom_site_type_symbol
_atom_site_label
_atom_site_fract_x
_atom_site_fract_y
_atom_site_fract_z
Si Si1 0.262283 0.167632 0.548606
Si Si2 0.080636 0.547463 0.019146
Si Si3 0.221895 0.988920 0.581058
Si Si4 0.123389 0.522972 0.644357
Si Si5 0.174497 0.654286 0.637450
Si Si6 0.761773 0.175088 0.428020
Si Si7 0.757640 0.239805 0.972875
Si Si8 0.000000 0.000000 0.000000
O O1 0.102897 0.300127 0.772247
O O2 0.025787 0.235283 0.444718
O O3 0.500000 0.000000 0.500000
O O4 0.462425 0.123197 0.449421
O O5 0.424716 0.398356 0.993268
O O6 0.022773 0.577036 0.851681
O O7 0.000000 0.500000 0.000000
O O8 0.072201 0.063836 0.453094
O O9 0.268589 0.880787 0.528857
O O10 0.985659 0.137987 0.789820
O O11 0.066565 0.624621 0.642447
O O12 0.474651 0.358357 0.572045
O O13 0.000000 0.500000 0.500000
O O14 0.500000 0.500000 0.500000
O O15 0.169584 0.724065 0.844613
O O16 0.774160 0.140866 0.217789
O O17 0.833416 0.125798 0.953080
#
# Coordination Sequence:
#
# PCOD9012419 Si02
#       8
#     2   2   2   2   2   2   2   1
#     4  12  30  48  73 106 156 197 247 317 387 448
#     4  12  27  48  77 112 151 203 260 315 382 464
#     4  10  23  44  68 101 142 191 243 304 372 449
#     4  12  27  46  77 106 150 199 257 318 378 454
#     4  12  27  49  75 110 151 195 256 313 380 455
#     4  10  21  40  70 100 139 185 245 299 368 441
#     4  11  25  46  75 105 150 197 256 305 381 459
#     4  10  24  38  70 108 136 190 242 308 368 438
#
# _framework density 21.70796
#
# number of rings (size 3 to 8) (size 9 to 14) (size 15 to 20)
#    0.000    0.800    2.667    3.200   11.200    1.067 
#    2.400    0.000    0.000    0.000    0.000    0.000 
#    0.000    0.000    0.000    0.000    0.000    0.000 
#
# Total GULP energy -83585.693180 kJ/mol
# GULP energy per Si atom -5572.379545 kJ/mol
# Density = 2.165855 g / cm^3
# Si number density = 21.707960 Si / 1000 Ang^3
#
#
#
# Elastic Constant Matrix: (Units=GPa)
#
#
# Indices 1 2 3 4 5 6 
#
# 1 80.7290 39.6369 41.8150 -14.4643 -8.1928 8.1449
# 2 39.6369 127.3130 57.2559 -2.6698 0.2493 -5.0670
# 3 41.8150 57.2559 136.1997 4.9625 0.5447 6.4759
# 4 -14.4643 -2.6698 4.9625 39.1377 -3.5067 -1.3809
# 5 -8.1928 0.2493 0.5447 -3.5067 34.5637 -3.0535
# 6 8.1449 -5.0670 6.4759 -1.3809 -3.0535 37.7284
#
#
#
# Elastic Compliance Matrix: (Units=1/GPa)
#
#
# Indices 1 2 3 4 5 6 
#
# 1 0.018658 -0.003879 -0.004242 0.007506 0.005001 -0.003141
# 2 -0.003879 0.010715 -0.003435 -0.000233 -0.000719 0.002799
# 3 -0.004242 -0.003435 0.010290 -0.003307 -0.001617 -0.001564
# 4 0.007506 -0.000233 -0.003307 0.029174 0.004826 0.000374
# 5 0.005001 -0.000719 -0.001617 0.004826 0.030794 0.001770
# 6 -0.003141 0.002799 -0.001564 0.000374 0.001770 0.027985
#
#
# Mechanical properties :
#
#
# Convention : Reuss Voigt Hill
#
# Bulk Modulus (GPa) = 60.41827 69.07302 64.74564
# Shear Modulus (GPa) = 32.00107 35.98824 33.99465
#
# Velocity S-wave (km/s) = 3.84365 4.07607 3.96156
# Velocity P-wave (km/s) = 6.89862 7.35124 7.12852
#
# Compressibility (1/GPa) = 0.01655129
#
# Stress axis : x y z
#
# Youngs Moduli (GPa) = 53.59635 93.32580 97.18213
#
# Poissons Ratio (x) = 0.36197 0.41223
# Poissons Ratio (y) = 0.20788 0.33386
# Poissons Ratio (z) = 0.22735 0.32061
#
# Static dielectric constant tensor:
#      x y z
#    x 1.828250 -0.009050 -0.006030 
#    y -0.009050 1.781320 -0.024410 
#    z -0.006030 -0.024410 1.797760 
# 
# From -- ./inp_files/224111.got.cif
#   From: 2010.05.17/outbox.cif.g08.bks.cpg/sg2_113_cif.got.tgz:224111.got - 2010.06.03 11:33:40.
