data_PCOD9012048
_publ_section_title
;
Structure prediction by ZEFSAII (Michael W. Deem and Ramdas Pophale) SiO2 
 PCOD9012048
Probable space group: P -1
;
_chemical_formula_sum "Si O2"
_cell_formula_units_Z 12
_cell_length_a 13.922021
_cell_length_b 23.724585
_cell_length_c 8.228312
_cell_angle_alpha 145.854905
_cell_angle_beta 41.803327
_cell_angle_gamma 160.683615
_cell_volume 495.238222
_symmetry_space_group_name_H-M "P -1"
_symmetry_group_IT_number 2
_symmetry_cell_setting 'triclinic'
loop_
_space_group_symop_operation_xyz
x,y,z
-x,-y,-z
loop_
_atom_site_type_symbol
_atom_site_label
_atom_site_fract_x
_atom_site_fract_y
_atom_site_fract_z
Si Si1 0.586926 0.620712 0.927784
Si Si2 0.176029 0.923975 0.334056
Si Si3 0.414920 0.319324 0.587347
Si Si4 0.043531 0.233458 0.446124
Si Si5 0.186627 0.706048 0.692110
Si Si6 0.911531 0.547227 0.312673
O O1 0.619861 0.539653 0.800874
O O2 0.313623 0.427386 0.692474
O O3 0.854573 0.789378 0.865697
O O4 0.555500 0.680568 0.256167
O O5 0.916683 0.842592 0.413438
O O6 0.207072 0.955008 0.563814
O O7 0.469079 0.112400 0.308203
O O8 0.115966 0.767671 0.016500
O O9 0.570703 0.336277 0.308896
O O10 0.011685 0.314595 0.575398
O O11 0.000000 0.500000 0.500000
O O12 0.103873 0.674356 0.534855
O O13 0.000000 0.500000 0.000000
#
# Coordination Sequence:
#
# PCOD9012048 Si02
#       6
#     2   2   2   2   2   2
#     4   8  14  27  55  89 116 148 203 261 298 360
#     4  10  21  40  68  93 120 167 212 253 311 374
#     4   9  17  34  59  89 118 162 216 247 299 377
#     4   9  16  30  55  90 119 152 205 251 307 371
#     4  11  24  42  63  92 130 164 205 260 315 372
#     4  11  22  36  59  91 130 167 203 259 317 364
#
# _framework density 24.230764000000001
#
# number of rings (size 3 to 8) (size 9 to 14) (size 15 to 20)
#    0.000    2.333    0.000    6.000    0.000    0.667 
#    0.000    3.333    0.000    2.000    0.000    0.000 
#    0.000    0.000    0.000    0.000    0.000    0.000 
#
# Total GULP energy -66917.978252 kJ/mol
# GULP energy per Si atom -5576.498188 kJ/mol
# Density = 2.417561 g / cm^3
# Si number density = 24.230764 Si / 1000 Ang^3
#
#
#
# Elastic Constant Matrix: (Units=GPa)
#
#
# Indices 1 2 3 4 5 6 
#
# 1 69.8362 1.6808 37.7358 -13.5513 12.8849 1.1800
# 2 1.6808 158.1082 55.5682 -43.2863 -6.3634 10.3531
# 3 37.7358 55.5682 84.1012 -39.9761 -0.4570 -10.3874
# 4 -13.5513 -43.2863 -39.9761 48.1963 -12.0422 0.8261
# 5 12.8849 -6.3634 -0.4570 -12.0422 30.1352 -11.4540
# 6 1.1800 10.3531 -10.3874 0.8261 -11.4540 35.7787
#
#
#
# Elastic Compliance Matrix: (Units=1/GPa)
#
#
# Indices 1 2 3 4 5 6 
#
# 1 0.030485 0.005080 -0.026318 -0.014627 -0.024959 -0.017769
# 2 0.005080 0.010610 -0.007956 0.004325 -0.000536 -0.005819
# 3 -0.026318 -0.007956 0.048663 0.033921 0.034319 0.027501
# 4 -0.014627 0.004325 0.033921 0.057918 0.038447 0.020050
# 5 -0.024959 -0.000536 0.034319 0.038447 0.072238 0.033180
# 6 -0.017769 -0.005819 0.027501 0.020050 0.033180 0.048363
#
#
# Mechanical properties :
#
#
# Convention : Reuss Voigt Hill
#
# Bulk Modulus (GPa) = 31.87688 55.77945 43.82817
# Shear Modulus (GPa) = 14.83149 37.29276 26.06213
#
# Velocity S-wave (km/s) = 2.47674 3.92735 3.28316
# Velocity P-wave (km/s) = 4.62202 6.60572 5.70081
#
# Compressibility (1/GPa) = 0.03137070
#
# Stress axis : x y z
#
# Youngs Moduli (GPa) = 32.80351 94.24716 20.54958
#
# Poissons Ratio (x) = -0.47876 0.54082
# Poissons Ratio (y) = -0.16664 0.16349
# Poissons Ratio (z) = 0.86331 0.74981
#
# Static dielectric constant tensor:
#      x y z
#    x 2.025650 -0.052850 -0.192310 
#    y -0.052850 2.159890 0.102310 
#    z -0.192310 0.102310 2.378440 
# 
# From -- ./inp_files/289857.got.cif
#   From: 2010.05.17/outbox.cif.g08.bks.cpg/sg2_145_cif.got.tgz:289857.got - 2010.06.03 11:33:40.
