data_PCOD9012717
_publ_section_title
;
Structure prediction by ZEFSAII (Michael W. Deem and Ramdas Pophale) SiO2 
 PCOD9012717
Probable space group: P -1
;
_chemical_formula_sum "Si O2"
_cell_formula_units_Z 14
_cell_length_a 7.028791
_cell_length_b 9.660479
_cell_length_c 11.752979
_cell_angle_alpha 128.772928
_cell_angle_beta 116.420885
_cell_angle_gamma 54.026980
_cell_volume 499.754331
_symmetry_space_group_name_H-M "P -1"
_symmetry_group_IT_number 2
_symmetry_cell_setting 'triclinic'
loop_
_space_group_symop_operation_xyz
x,y,z
-x,-y,-z
loop_
_atom_site_type_symbol
_atom_site_label
_atom_site_fract_x
_atom_site_fract_y
_atom_site_fract_z
Si Si1 0.636115 0.540858 0.910321
Si Si2 0.755624 0.015023 0.995475
Si Si3 0.871970 0.679981 0.690063
Si Si4 0.729343 0.988959 0.484080
Si Si5 0.166857 0.836442 0.695394
Si Si6 0.536508 0.583100 0.398780
Si Si7 0.898964 0.606603 0.201093
O O1 0.463344 0.773465 0.974885
O O2 0.492826 0.438611 0.756014
O O3 0.870119 0.462352 0.852688
O O4 0.737821 0.514863 0.051209
O O5 0.791410 0.000904 0.134845
O O6 0.724273 0.846769 0.829648
O O7 0.000000 0.000000 0.000000
O O8 0.735136 0.635903 0.530368
O O9 0.051166 0.747110 0.712575
O O10 0.005035 0.486190 0.699539
O O11 0.767999 0.838810 0.312831
O O12 0.954459 0.924605 0.594308
O O13 0.500000 0.000000 0.500000
O O14 0.683389 0.202366 0.531030
O O15 0.410617 0.629661 0.638886
#
# Coordination Sequence:
#
# PCOD9012717 Si02
#       7
#     2   2   2   2   2   2   2
#     4  10  25  46  61  93 136 171 220 267 320 393
#     4   9  21  40  65  92 128 168 213 267 319 386
#     4  11  20  39  66  94 130 169 215 267 324 381
#     4  12  23  39  70  96 131 171 215 270 330 380
#     4  10  21  41  59 103 132 157 221 271 321 392
#     4  11  22  40  66  93 130 172 213 269 324 382
#     4  11  25  43  65  93 132 177 216 269 325 385
#
# _framework density 28.013762
#
# number of rings (size 3 to 8) (size 9 to 14) (size 15 to 20)
#    0.000    1.429    2.857    2.143    4.000    1.714 
#    0.000    2.857    0.000    0.000    0.000    0.000 
#    0.000    0.000    0.000    0.000    0.000    0.000 
#
# Total GULP energy -78348.655284 kJ/mol
# GULP energy per Si atom -5596.332520 kJ/mol
# Density = 2.795000 g / cm^3
# Si number density = 28.013762 Si / 1000 Ang^3
#
#
#
# Elastic Constant Matrix: (Units=GPa)
#
#
# Indices 1 2 3 4 5 6 
#
# 1 108.0391 15.4867 47.6559 3.4073 -16.2762 -21.4966
# 2 15.4867 151.7543 69.3659 2.0046 -10.7548 -13.1595
# 3 47.6559 69.3659 227.5756 7.6334 18.1940 -26.6139
# 4 3.4073 2.0046 7.6334 73.7416 -1.3752 -2.5920
# 5 -16.2762 -10.7548 18.1940 -1.3752 39.0332 5.9883
# 6 -21.4966 -13.1595 -26.6139 -2.5920 5.9883 35.7841
#
#
#
# Elastic Compliance Matrix: (Units=1/GPa)
#
#
# Indices 1 2 3 4 5 6 
#
# 1 0.012133 0.000818 -0.002720 -0.000031 0.005848 0.004585
# 2 0.000818 0.008156 -0.002884 0.000136 0.003828 0.000715
# 3 -0.002720 -0.002884 0.006671 -0.000479 -0.005540 0.003159
# 4 -0.000031 0.000136 -0.000479 0.013640 0.000643 0.000556
# 5 0.005848 0.003828 -0.005540 0.000643 0.032420 -0.004579
# 6 0.004585 0.000715 0.003159 0.000556 -0.004579 0.034119
#
#
# Mechanical properties :
#
#
# Convention : Reuss Voigt Hill
#
# Bulk Modulus (GPa) = 57.51487 83.59844 70.55665
# Shear Modulus (GPa) = 40.81387 53.36916 47.09152
#
# Velocity S-wave (km/s) = 3.82111 4.36949 4.10446
# Velocity P-wave (km/s) = 6.32798 7.44065 6.90676
#
# Compressibility (1/GPa) = 0.01738681
#
# Stress axis : x y z
#
# Youngs Moduli (GPa) = 82.42068 122.61008 149.89544
#
# Poissons Ratio (x) = -0.10025 0.40774
# Poissons Ratio (y) = -0.06739 0.43232
# Poissons Ratio (z) = 0.22420 0.35363
#
# Static dielectric constant tensor:
#      x y z
#    x 2.294250 -0.087940 -0.064710 
#    y -0.087940 2.247960 0.078890 
#    z -0.064710 0.078890 2.200210 
# 
# From -- ./inp_files/209048.got.cif
#   From: 2010.05.17/outbox.cif.g08.bks.cpg/sg2_105_cif.got.tgz:209048.got - 2010.06.03 11:33:40.
