data_PCOD9012463
_publ_section_title
;
Structure prediction by ZEFSAII (Michael W. Deem and Ramdas Pophale) SiO2 
 PCOD9012463
Probable space group: P -1
;
_chemical_formula_sum "Si O2"
_cell_formula_units_Z 16
_cell_length_a 10.874786
_cell_length_b 16.428938
_cell_length_c 8.176919
_cell_angle_alpha 118.939096
_cell_angle_beta 65.754138
_cell_angle_gamma 63.626086
_cell_volume 690.411277
_symmetry_space_group_name_H-M "P -1"
_symmetry_group_IT_number 2
_symmetry_cell_setting 'triclinic'
loop_
_space_group_symop_operation_xyz
x,y,z
-x,-y,-z
loop_
_atom_site_type_symbol
_atom_site_label
_atom_site_fract_x
_atom_site_fract_y
_atom_site_fract_z
Si Si1 0.462702 0.969968 0.162510
Si Si2 0.705495 0.103330 0.639020
Si Si3 0.073554 0.356485 0.279413
Si Si4 0.038136 0.033125 0.179748
Si Si5 0.539603 0.703716 0.528597
Si Si6 0.640761 0.796652 0.335622
Si Si7 0.400082 0.430005 0.297527
Si Si8 0.617332 0.383457 0.670993
O O1 0.280902 0.989105 0.326784
O O2 0.431362 0.067530 0.409831
O O3 0.704665 0.787566 0.879803
O O4 0.500000 0.000000 0.000000
O O5 0.562768 0.135624 0.597969
O O6 0.559150 0.270683 0.954591
O O7 0.935727 0.022004 0.365213
O O8 0.000000 0.500000 0.500000
O O9 0.849663 0.423869 0.504969
O O10 0.153211 0.302031 0.996468
O O11 0.311213 0.886515 0.888725
O O12 0.876663 0.212891 0.420106
O O13 0.000000 0.000000 0.000000
O O14 0.696454 0.693028 0.347934
O O15 0.621143 0.603750 0.546117
O O16 0.479118 0.662171 0.380846
O O17 0.456756 0.506715 0.330449
O O18 0.500000 0.500000 0.000000
#
# Coordination Sequence:
#
# PCOD9012463 Si02
#       8
#     2   2   2   2   2   2   2   2
#     4  11  25  44  67 100 131 168 225 276 325 396
#     4  11  20  43  67  95 131 171 215 270 329 384
#     4  11  24  43  70  94 129 180 218 265 343 388
#     4  10  21  40  70  90 126 171 222 258 329 382
#     4  11  25  42  65  99 134 171 221 271 323 390
#     4  11  22  42  69  93 131 173 218 270 325 396
#     4  12  24  42  66  96 139 168 217 277 323 390
#     4  11  22  43  66  94 129 174 219 267 326 385
#
# _framework density 23.174590999999999
#
# number of rings (size 3 to 8) (size 9 to 14) (size 15 to 20)
#    0.000    1.000    6.250    2.625    1.750    3.000 
#    0.000    0.000    0.000    0.000    0.000    0.000 
#    0.000    0.000    0.000    0.000    0.000    0.000 
#
# Total GULP energy -89316.162934 kJ/mol
# GULP energy per Si atom -5582.260183 kJ/mol
# Density = 2.312184 g / cm^3
# Si number density = 23.174591 Si / 1000 Ang^3
#
#
#
# Elastic Constant Matrix: (Units=GPa)
#
#
# Indices 1 2 3 4 5 6 
#
# 1 27.0399 1.7523 14.5288 4.1510 19.4720 13.1429
# 2 1.7523 166.5685 37.4353 3.0242 8.8028 19.1947
# 3 14.5288 37.4353 121.0797 10.2831 15.2980 3.8804
# 4 4.1510 3.0242 10.2831 43.0623 6.5845 7.4556
# 5 19.4720 8.8028 15.2980 6.5845 38.5136 2.0126
# 6 13.1429 19.1947 3.8804 7.4556 2.0126 32.5680
#
#
#
# Elastic Compliance Matrix: (Units=1/GPa)
#
#
# Indices 1 2 3 4 5 6 
#
# 1 0.088118 0.007043 -0.006651 0.005606 -0.042514 -0.037575
# 2 0.007043 0.007497 -0.002524 0.001237 -0.004118 -0.006989
# 3 -0.006651 -0.002524 0.009885 -0.002176 0.000203 0.003479
# 4 0.005606 0.001237 -0.002176 0.025476 -0.006181 -0.008182
# 5 -0.042514 -0.004118 0.000203 -0.006181 0.048437 0.017981
# 6 -0.037575 -0.006989 0.003479 -0.008182 0.017981 0.050335
#
#
# Mechanical properties :
#
#
# Convention : Reuss Voigt Hill
#
# Bulk Modulus (GPa) = 9.87800 46.90233 28.39017
# Shear Modulus (GPa) = 18.67360 40.22689 29.45025
#
# Velocity S-wave (km/s) = 2.84170 4.17084 3.56869
# Velocity P-wave (km/s) = 3.87798 6.59372 5.40906
#
# Compressibility (1/GPa) = 0.10123505
#
# Stress axis : x y z
#
# Youngs Moduli (GPa) = 11.34845 133.38327 101.16310
#
# Poissons Ratio (x) = -0.93939 0.67288
# Poissons Ratio (y) = -0.07992 0.25532
# Poissons Ratio (z) = 0.07548 0.33664
#
# Static dielectric constant tensor:
#      x y z
#    x 1.892650 0.013200 -0.003860 
#    y 0.013200 2.024010 -0.026240 
#    z -0.003860 -0.026240 1.817000 
# 
# From -- ./inp_files/274029.got.cif
#   From: 2010.05.17/outbox.cif.g08.bks.cpg/sg2_138_cif.got.tgz:274029.got - 2010.06.03 11:33:40.
