data_PCOD9012116
_publ_section_title
;
Structure prediction by ZEFSAII (Michael W. Deem and Ramdas Pophale) SiO2 
 PCOD9012116
Probable space group: P -1
;
_chemical_formula_sum "Si O2"
_cell_formula_units_Z 15
_cell_length_a 12.431687
_cell_length_b 8.495552
_cell_length_c 8.612753
_cell_angle_alpha 58.893881
_cell_angle_beta 87.516084
_cell_angle_gamma 105.836256
_cell_volume 730.274213
_symmetry_space_group_name_H-M "P -1"
_symmetry_group_IT_number 2
_symmetry_cell_setting 'triclinic'
loop_
_space_group_symop_operation_xyz
x,y,z
-x,-y,-z
loop_
_atom_site_type_symbol
_atom_site_label
_atom_site_fract_x
_atom_site_fract_y
_atom_site_fract_z
Si Si1 0.809182 0.428710 0.280291
Si Si2 0.150418 0.835880 0.043872
Si Si3 0.597332 0.186954 0.969801
Si Si4 0.547889 0.217148 0.316364
Si Si5 0.050122 0.726467 0.434488
Si Si6 0.165419 0.218766 0.661097
Si Si7 0.589520 0.566259 0.603252
Si Si8 0.000000 0.500000 0.000000
O O1 0.674680 0.324526 0.320927
O O2 0.866121 0.277781 0.428597
O O3 0.827990 0.613431 0.297839
O O4 0.874292 0.488668 0.083768
O O5 0.280396 0.842197 0.022995
O O6 0.116522 0.844538 0.221213
O O7 0.063766 0.638407 0.074382
O O8 0.139617 0.014989 0.854138
O O9 0.607521 0.375939 0.770346
O O10 0.560140 0.212546 0.133546
O O11 0.500000 0.000000 0.000000
O O12 0.466079 0.332366 0.318628
O O13 0.500000 0.000000 0.500000
O O14 0.000000 0.500000 0.500000
O O15 0.940216 0.789340 0.441092
O O16 0.288108 0.285465 0.536831
O O17 0.500000 0.500000 0.500000
#
# Coordination Sequence:
#
# PCOD9012116 Si02
#       8
#     2   2   2   2   2   2   2   1
#     4  11  24  44  71  98 142 182 228 294 352 421
#     4  12  24  43  71 100 137 183 236 289 356 427
#     4  12  27  46  72 102 140 191 240 290 365 423
#     4  12  26  46  70 107 145 184 240 295 355 428
#     4  10  21  40  68  96 129 180 226 274 349 417
#     4  11  23  43  71 100 137 183 235 283 353 428
#     4  12  25  45  71 100 143 185 235 298 354 422
#     4  12  24  42  70 100 142 176 230 292 352 402
#
# _framework density 20.540229
#
# number of rings (size 3 to 8) (size 9 to 14) (size 15 to 20)
#    0.000    0.533    5.333    4.800    1.867    0.000 
#    0.000    2.000    0.000    0.000    0.000    0.000 
#    0.000    0.000    0.000    0.000    0.000    0.000 
#
# Total GULP energy -83659.528893 kJ/mol
# GULP energy per Si atom -5577.301926 kJ/mol
# Density = 2.049348 g / cm^3
# Si number density = 20.540229 Si / 1000 Ang^3
#
#
#
# Elastic Constant Matrix: (Units=GPa)
#
#
# Indices 1 2 3 4 5 6 
#
# 1 132.1981 26.4149 17.1672 3.8317 -5.7628 -24.1988
# 2 26.4149 38.4074 -0.6219 9.6828 6.2710 7.0280
# 3 17.1672 -0.6219 67.6451 -7.5998 7.4920 -2.9392
# 4 3.8317 9.6828 -7.5998 28.1573 -6.9817 2.1682
# 5 -5.7628 6.2710 7.4920 -6.9817 45.4681 1.2182
# 6 -24.1988 7.0280 -2.9392 2.1682 1.2182 16.4262
#
#
#
# Elastic Compliance Matrix: (Units=1/GPa)
#
#
# Indices 1 2 3 4 5 6 
#
# 1 0.018907 -0.020975 -0.003790 0.002201 0.005301 0.035466
# 2 -0.020975 0.055391 0.003295 -0.014247 -0.011655 -0.051264
# 3 -0.003790 0.003295 0.016298 0.003372 -0.002987 -0.004301
# 4 0.002201 -0.014247 0.003372 0.042763 0.008156 0.003691
# 5 0.005301 -0.011655 -0.002987 0.008156 0.025769 0.009275
# 6 0.035466 -0.051264 -0.004301 0.003691 0.009275 0.133115
#
#
# Mechanical properties :
#
#
# Convention : Reuss Voigt Hill
#
# Bulk Modulus (GPa) = 20.98351 36.01899 28.50125
# Shear Modulus (GPa) = 14.24230 31.02967 22.63599
#
# Velocity S-wave (km/s) = 2.63608 3.89096 3.32329
# Velocity P-wave (km/s) = 4.41624 6.14492 5.35085
#
# Compressibility (1/GPa) = 0.04765646
#
# Stress axis : x y z
#
# Youngs Moduli (GPa) = 52.89084 18.05353 61.35717
#
# Poissons Ratio (x) = 0.37867 0.23255
# Poissons Ratio (y) = 1.10937 -0.20218
# Poissons Ratio (z) = 0.20046 -0.05949
#
# Static dielectric constant tensor:
#      x y z
#    x 1.804020 -0.052470 -0.035680 
#    y -0.052470 1.730780 0.020000 
#    z -0.035680 0.020000 1.754980 
# 
# From -- ./inp_files/242123.got.cif
#   From: 2010.05.17/outbox.cif.g08.bks.cpg/sg2_122_cif.got.tgz:242123.got - 2010.06.03 11:33:40.
