data_PCOD9012320
_publ_section_title
;
Structure prediction by ZEFSAII (Michael W. Deem and Ramdas Pophale) SiO2 
 PCOD9012320
Probable space group: P -1
;
_chemical_formula_sum "Si O2"
_cell_formula_units_Z 14
_cell_length_a 18.780072
_cell_length_b 22.979432
_cell_length_c 9.750172
_cell_angle_alpha 32.540788
_cell_angle_beta 140.157460
_cell_angle_gamma 162.857855
_cell_volume 647.917101
_symmetry_space_group_name_H-M "P -1"
_symmetry_group_IT_number 2
_symmetry_cell_setting 'triclinic'
loop_
_space_group_symop_operation_xyz
x,y,z
-x,-y,-z
loop_
_atom_site_type_symbol
_atom_site_label
_atom_site_fract_x
_atom_site_fract_y
_atom_site_fract_z
Si Si1 0.732891 0.613804 0.061502
Si Si2 0.660278 0.226010 0.428435
Si Si3 0.212823 0.156436 0.112659
Si Si4 0.053478 0.735966 0.117821
Si Si5 0.500696 0.229612 0.660381
Si Si6 0.701630 0.023665 0.384991
Si Si7 0.841039 0.437988 0.986323
O O1 0.510134 0.440195 0.967106
O O2 0.592248 0.423188 0.352087
O O3 0.936531 0.710173 0.112490
O O4 0.838678 0.814666 0.886284
O O5 0.772381 0.210164 0.678151
O O6 0.830308 0.475257 0.235565
O O7 0.405031 0.026868 0.527872
O O8 0.684394 0.250916 0.250464
O O9 0.218477 0.031842 0.379802
O O10 0.000000 0.000000 0.000000
O O11 0.218814 0.961186 0.823383
O O12 0.663922 0.345719 0.802617
O O13 0.514850 0.161257 0.684321
O O14 0.942366 0.299740 0.151485
O O15 0.000000 0.500000 0.000000
#
# Coordination Sequence:
#
# PCOD9012320 Si02
#       7
#     2   2   2   2   2   2   2
#     4  10  22  44  65  95 128 168 220 264 323 382
#     4  11  24  41  66  96 133 175 213 261 325 388
#     4  10  21  40  69  93 124 171 216 269 321 377
#     4  11  22  41  68  93 132 174 212 262 325 384
#     4  11  23  41  66  94 128 172 214 266 321 383
#     4  11  24  46  66  93 135 172 213 268 327 381
#     4  12  26  39  63 100 133 172 220 260 317 391
#
# _framework density 21.607703000000001
#
# number of rings (size 3 to 8) (size 9 to 14) (size 15 to 20)
#    0.000    1.143    4.286    2.571    2.000    5.714 
#    0.000    7.857    0.000   10.286    0.000    0.000 
#    0.000    0.000    0.000    0.000    0.000    0.000 
#
# Total GULP energy -78079.333692 kJ/mol
# GULP energy per Si atom -5577.095264 kJ/mol
# Density = 2.155852 g / cm^3
# Si number density = 21.607703 Si / 1000 Ang^3
#
#
#
# Elastic Constant Matrix: (Units=GPa)
#
#
# Indices 1 2 3 4 5 6 
#
# 1 140.2963 7.2067 62.3319 -5.0015 11.9074 7.4997
# 2 7.2067 60.7891 16.4539 0.3430 -5.6489 -4.9598
# 3 62.3319 16.4539 81.7662 -6.5466 -26.2156 15.0605
# 4 -5.0015 0.3430 -6.5466 34.6025 -1.6215 -3.2640
# 5 11.9074 -5.6489 -26.2156 -1.6215 35.5348 1.6118
# 6 7.4997 -4.9598 15.0605 -3.2640 1.6118 27.9871
#
#
#
# Elastic Compliance Matrix: (Units=1/GPa)
#
#
# Indices 1 2 3 4 5 6 
#
# 1 0.020928 0.003395 -0.027738 -0.002490 -0.027559 0.011217
# 2 0.003395 0.018802 -0.009751 -0.001067 -0.005748 0.007876
# 3 -0.027738 -0.009751 0.057523 0.006807 0.051737 -0.027435
# 4 -0.002490 -0.001067 0.006807 0.030162 0.007066 -0.000074
# 5 -0.027559 -0.005748 0.051737 0.007066 0.076089 -0.025033
# 6 0.011217 0.007876 -0.027435 -0.000074 -0.025033 0.050317
#
#
# Mechanical properties :
#
#
# Convention : Reuss Voigt Hill
#
# Bulk Modulus (GPa) = 34.40495 50.53738 42.47117
# Shear Modulus (GPa) = 15.07404 32.74884 23.91144
#
# Velocity S-wave (km/s) = 2.64412 3.89731 3.33019
# Velocity P-wave (km/s) = 5.02782 6.60994 5.87241
#
# Compressibility (1/GPa) = 0.02906559
#
# Stress axis : x y z
#
# Youngs Moduli (GPa) = 47.78390 53.18719 17.38427
#
# Poissons Ratio (x) = -0.18058 0.48220
# Poissons Ratio (y) = -0.16223 0.16951
# Poissons Ratio (z) = 1.32542 0.51861
#
# Static dielectric constant tensor:
#      x y z
#    x 1.815710 -0.058090 -0.007610 
#    y -0.058090 1.782960 0.011530 
#    z -0.007610 0.011530 1.787680 
# 
# From -- ./inp_files/337495.got.cif
#   From: 2010.05.17/outbox.cif.g08.bks.cpg/sg2_169_cif.got.tgz:337495.got - 2010.06.03 11:33:40.
