data_PCOD9012856
_publ_section_title
;
Structure prediction by ZEFSAII (Michael W. Deem and Ramdas Pophale) SiO2 
 PCOD9012856
Probable space group: P -1
;
_chemical_formula_sum "Si O2"
_cell_formula_units_Z 15
_cell_length_a 15.943631
_cell_length_b 12.308393
_cell_length_c 7.336834
_cell_angle_alpha 101.228903
_cell_angle_beta 126.602180
_cell_angle_gamma 39.616238
_cell_volume 630.933916
_symmetry_space_group_name_H-M "P -1"
_symmetry_group_IT_number 2
_symmetry_cell_setting 'triclinic'
loop_
_space_group_symop_operation_xyz
x,y,z
-x,-y,-z
loop_
_atom_site_type_symbol
_atom_site_label
_atom_site_fract_x
_atom_site_fract_y
_atom_site_fract_z
Si Si1 0.266809 0.657294 0.333569
Si Si2 0.906502 0.644808 0.758456
Si Si3 0.626254 0.596396 0.944483
Si Si4 0.384088 0.023596 0.724535
Si Si5 0.003336 0.637951 0.455333
Si Si6 0.500000 0.500000 0.000000
Si Si7 0.919957 0.847211 0.054319
Si Si8 0.641045 0.264346 0.830498
O O1 0.418806 0.498945 0.641115
O O2 0.304896 0.735497 0.297052
O O3 0.058732 0.827159 0.190084
O O4 0.312680 0.525622 0.195980
O O5 0.682222 0.849274 0.498491
O O6 0.985873 0.496713 0.653887
O O7 0.948133 0.735402 0.891724
O O8 0.000000 0.500000 0.000000
O O9 0.523299 0.604190 0.953866
O O10 0.807341 0.491907 0.240642
O O11 0.494707 0.812754 0.777014
O O12 0.183429 0.177688 0.609543
O O13 0.500000 0.000000 0.000000
O O14 0.981161 0.734001 0.279780
O O15 0.297719 0.720482 0.910164
O O16 0.710072 0.079589 0.868927
#
# Coordination Sequence:
#
# PCOD9012856 Si02
#       8
#     2   2   2   2   2   1   2   2
#     4  10  22  38  65  91 128 172 212 280 329 393
#     4  10  23  43  63  96 134 172 219 280 334 390
#     4  11  23  42  68  99 136 178 225 275 341 396
#     4  12  24  41  71  96 133 181 231 272 333 409
#     4  11  24  42  63  96 136 176 221 283 333 393
#     4  10  22  42  68  98 136 172 218 282 334 404
#     4  11  22  40  64  90 131 172 219 269 337 400
#     4  10  21  41  61  94 127 164 224 268 333 398
#
# _framework density 23.774279
#
# number of rings (size 3 to 8) (size 9 to 14) (size 15 to 20)
#    0.000    1.333    1.333    4.000    1.867    0.000 
#    0.000   17.333    0.000    0.000    0.000    0.000 
#    0.000    0.000    0.000    0.000    0.000    0.000 
#
# Total GULP energy -83510.119721 kJ/mol
# GULP energy per Si atom -5567.341315 kJ/mol
# Density = 2.372017 g / cm^3
# Si number density = 23.774279 Si / 1000 Ang^3
#
#
#
# Elastic Constant Matrix: (Units=GPa)
#
#
# Indices 1 2 3 4 5 6 
#
# 1 51.7884 22.1699 26.5418 -7.1960 -9.3710 -2.9286
# 2 22.1699 113.2654 39.5768 -8.9747 -19.2801 15.2073
# 3 26.5418 39.5768 129.8907 -16.5615 -11.9454 10.4338
# 4 -7.1960 -8.9747 -16.5615 32.9161 6.3563 -5.6575
# 5 -9.3710 -19.2801 -11.9454 6.3563 37.5615 -3.4159
# 6 -2.9286 15.2073 10.4338 -5.6575 -3.4159 28.0889
#
#
#
# Elastic Compliance Matrix: (Units=1/GPa)
#
#
# Indices 1 2 3 4 5 6 
#
# 1 0.024106 -0.003566 -0.003718 0.002996 0.003113 0.006807
# 2 -0.003566 0.011633 -0.002053 -0.000355 0.003989 -0.005494
# 3 -0.003718 -0.002053 0.009685 0.003046 0.000382 -0.002214
# 4 0.002996 -0.000355 0.003046 0.034188 -0.003724 0.005806
# 5 0.003113 0.003989 0.000382 -0.003724 0.030286 0.000956
# 6 0.006807 -0.005494 -0.002214 0.005806 0.000956 0.041393
#
#
# Mechanical properties :
#
#
# Convention : Reuss Voigt Hill
#
# Bulk Modulus (GPa) = 37.38223 52.39126 44.88675
# Shear Modulus (GPa) = 27.95161 33.49037 30.72099
#
# Velocity S-wave (km/s) = 3.43258 3.75731 3.59861
# Velocity P-wave (km/s) = 5.60964 6.39593 6.01565
#
# Compressibility (1/GPa) = 0.02675068
#
# Stress axis : x y z
#
# Youngs Moduli (GPa) = 41.48388 85.96599 103.24873
#
# Poissons Ratio (x) = 0.30654 0.38385
# Poissons Ratio (y) = 0.14792 0.21196
# Poissons Ratio (z) = 0.15423 0.17648
#
# Static dielectric constant tensor:
#      x y z
#    x 1.920770 0.163160 0.207090 
#    y 0.163160 1.553570 -0.453740 
#    z 0.207090 -0.453740 1.229260 
# 
# From -- ./inp_files/47619.got.cif
#   From: 2010.05.17/outbox.cif.g08.bks.cpg/sg2_24_cif.got.tgz:47619.got - 2010.06.03 11:33:40.
