data_PCOD9012901
_publ_section_title
;
Structure prediction by ZEFSAII (Michael W. Deem and Ramdas Pophale) SiO2 
 PCOD9012901
Probable space group: P -1
;
_chemical_formula_sum "Si O2"
_cell_formula_units_Z 16
_cell_length_a 8.588582
_cell_length_b 7.691293
_cell_length_c 17.659366
_cell_angle_alpha 72.140522
_cell_angle_beta 107.047968
_cell_angle_gamma 54.919596
_cell_volume 725.069135
_symmetry_space_group_name_H-M "P -1"
_symmetry_group_IT_number 2
_symmetry_cell_setting 'triclinic'
loop_
_space_group_symop_operation_xyz
x,y,z
-x,-y,-z
loop_
_atom_site_type_symbol
_atom_site_label
_atom_site_fract_x
_atom_site_fract_y
_atom_site_fract_z
Si Si1 0.769236 0.701178 0.578011
Si Si2 0.626555 0.202771 0.081234
Si Si3 0.128859 0.737369 0.598471
Si Si4 0.743145 0.762782 0.895944
Si Si5 0.447458 0.366996 0.561362
Si Si6 0.254741 0.889091 0.052877
Si Si7 0.161794 0.259277 0.259357
Si Si8 0.238888 0.686648 0.790265
O O1 0.756755 0.566790 0.526417
O O2 0.825390 0.608890 0.686481
O O3 0.959639 0.700334 0.585949
O O4 0.500000 0.000000 0.500000
O O5 0.450306 0.209025 0.096691
O O6 0.818365 0.112980 0.182476
O O7 0.500000 0.500000 0.000000
O O8 0.717945 0.046925 0.035974
O O9 0.357004 0.495803 0.614109
O O10 0.170319 0.778448 0.682581
O O11 0.000000 0.000000 0.500000
O O12 0.747094 0.747623 0.807691
O O13 0.712454 0.992974 0.891426
O O14 0.000000 0.500000 0.000000
O O15 0.500000 0.500000 0.500000
O O16 0.670985 0.048084 0.648677
O O17 0.476512 0.571536 0.136159
O O18 0.000000 0.000000 0.000000
O O19 0.898021 0.387944 0.196271
#
# Coordination Sequence:
#
# PCOD9012901 Si02
#       8
#     2   2   2   2   2   2   2   2
#     4   9  20  39  61  87 124 160 203 255 304 363
#     4  10  22  39  60  87 121 158 202 253 305 363
#     4  11  22  38  63  93 126 165 205 253 309 368
#     4  12  23  39  63  90 122 162 202 253 310 368
#     4  11  22  40  64  92 126 166 207 256 311 366
#     4  11  22  41  65  90 122 163 207 259 313 367
#     4  10  22  41  63  91 123 163 210 257 308 370
#     4  10  21  41  62  88 125 161 204 260 309 369
#
# _framework density 22.066862
#
# number of rings (size 3 to 8) (size 9 to 14) (size 15 to 20)
#    0.000    1.500    0.000    7.500    0.000    3.000 
#    0.000   10.000    0.000    0.000    0.000    0.000 
#    0.000    0.000    0.000    0.000    0.000    0.000 
#
# Total GULP energy -89354.955167 kJ/mol
# GULP energy per Si atom -5584.684698 kJ/mol
# Density = 2.201664 g / cm^3
# Si number density = 22.066862 Si / 1000 Ang^3
#
#
#
# Elastic Constant Matrix: (Units=GPa)
#
#
# Indices 1 2 3 4 5 6 
#
# 1 94.4898 -7.6236 48.7835 13.9755 -6.0891 -19.0688
# 2 -7.6236 37.8320 11.1270 14.7082 -8.4049 -6.4427
# 3 48.7835 11.1270 112.7543 37.2414 -9.3904 -3.7128
# 4 13.9755 14.7082 37.2414 45.8285 -5.3956 0.4996
# 5 -6.0891 -8.4049 -9.3904 -5.3956 37.3900 9.5192
# 6 -19.0688 -6.4427 -3.7128 0.4996 9.5192 35.5324
#
#
#
# Elastic Compliance Matrix: (Units=1/GPa)
#
#
# Indices 1 2 3 4 5 6 
#
# 1 0.017343 0.008160 -0.007287 -0.002101 -0.000037 0.010065
# 2 0.008160 0.035966 -0.002582 -0.011486 0.004679 0.009539
# 3 -0.007287 -0.002582 0.015343 -0.009203 0.001537 -0.003058
# 4 -0.002101 -0.011486 -0.009203 0.033783 0.000883 -0.004883
# 5 -0.000037 0.004679 0.001537 0.000883 0.030109 -0.007090
# 6 0.010065 0.009539 -0.003058 -0.004883 -0.007090 0.036923
#
#
# Mechanical properties :
#
#
# Convention : Reuss Voigt Hill
#
# Bulk Modulus (GPa) = 15.32916 38.85001 27.08958
# Shear Modulus (GPa) = 25.68976 36.60281 31.14628
#
# Velocity S-wave (km/s) = 3.41571 4.07716 3.76100
# Velocity P-wave (km/s) = 4.74530 6.30937 5.58238
#
# Compressibility (1/GPa) = 0.06523516
#
# Stress axis : x y z
#
# Youngs Moduli (GPa) = 57.66009 27.80395 65.17511
#
# Poissons Ratio (x) = -0.22689 0.47491
# Poissons Ratio (y) = -0.47053 0.16831
# Poissons Ratio (z) = 0.42015 0.07180
#
# Static dielectric constant tensor:
#      x y z
#    x 1.634060 -0.288700 0.061300 
#    y -0.288700 1.311400 0.117610 
#    z 0.061300 0.117610 1.829590 
# 
# From -- ./inp_files/494674.got.cif
#   From: 2010.05.17/outbox.cif.g08.bks.cpg/sg2_248_cif.got.tgz:494674.got - 2010.06.03 11:33:40.
