data_PCOD9012645
_publ_section_title
;
Structure prediction by ZEFSAII (Michael W. Deem and Ramdas Pophale) SiO2 
 PCOD9012645
Probable space group: P -1
;
_chemical_formula_sum "Si O2"
_cell_formula_units_Z 14
_cell_length_a 20.769590
_cell_length_b 7.448070
_cell_length_c 16.228366
_cell_angle_alpha 40.808692
_cell_angle_beta 159.994228
_cell_angle_gamma 141.920126
_cell_volume 527.933527
_symmetry_space_group_name_H-M "P -1"
_symmetry_group_IT_number 2
_symmetry_cell_setting 'triclinic'
loop_
_space_group_symop_operation_xyz
x,y,z
-x,-y,-z
loop_
_atom_site_type_symbol
_atom_site_label
_atom_site_fract_x
_atom_site_fract_y
_atom_site_fract_z
Si Si1 0.004612 0.097517 0.094986
Si Si2 0.430821 0.342516 0.817837
Si Si3 0.820705 0.026140 0.220704
Si Si4 0.332561 0.900954 0.513669
Si Si5 0.503135 0.774071 0.231468
Si Si6 0.669583 0.310705 0.659614
Si Si7 0.891197 0.714916 0.255599
O O1 0.124233 0.951121 0.230720
O O2 0.163564 0.425741 0.183895
O O3 0.983922 0.907759 0.220595
O O4 0.791905 0.143005 0.814267
O O5 0.371792 0.197252 0.886116
O O6 0.392242 0.132340 0.764832
O O7 0.311119 0.567465 0.591276
O O8 0.664191 0.519088 0.031441
O O9 0.867394 0.937506 0.218668
O O10 0.000000 0.000000 0.500000
O O11 0.737412 0.293547 0.030179
O O12 0.402518 0.010749 0.653471
O O13 0.515733 0.098848 0.610735
O O14 0.550477 0.478157 0.406643
O O15 0.000000 0.500000 0.500000
#
# Coordination Sequence:
#
# PCOD9012645 Si02
#       7
#     2   2   2   2   2   2   2
#     4  10  21  40  73 101 138 189 235 281 358 422
#     4  12  26  46  70 105 140 185 237 295 355 418
#     4  12  27  45  69 106 142 185 240 290 358 427
#     4  11  23  46  72 104 141 188 232 289 358 416
#     4  11  24  43  72  96 144 181 232 288 355 409
#     4  10  22  43  70 105 140 187 236 287 353 421
#     4  12  25  43  73 103 144 185 240 293 355 424
#
# _framework density 26.518491999999998
#
# number of rings (size 3 to 8) (size 9 to 14) (size 15 to 20)
#    0.000    0.857    2.857    4.286    8.000    1.714 
#    0.000    0.714    0.000    0.000    0.000    0.000 
#    0.000    0.000    0.000    0.000    0.000    0.000 
#
# Total GULP energy -78432.907188 kJ/mol
# GULP energy per Si atom -5602.350513 kJ/mol
# Density = 2.645813 g / cm^3
# Si number density = 26.518492 Si / 1000 Ang^3
#
#
#
# Elastic Constant Matrix: (Units=GPa)
#
#
# Indices 1 2 3 4 5 6 
#
# 1 117.9031 28.5153 55.7822 1.6404 31.9096 -4.1718
# 2 28.5153 67.7197 22.3083 -1.1462 15.1539 9.2913
# 3 55.7822 22.3083 228.4738 -41.5535 43.4305 -13.9093
# 4 1.6404 -1.1462 -41.5535 48.3841 -6.9482 9.1213
# 5 31.9096 15.1539 43.4305 -6.9482 55.0528 -1.2433
# 6 -4.1718 9.2913 -13.9093 9.1213 -1.2433 44.8973
#
#
#
# Elastic Compliance Matrix: (Units=1/GPa)
#
#
# Indices 1 2 3 4 5 6 
#
# 1 0.011659 -0.003485 -0.002150 -0.003284 -0.004479 0.001682
# 2 -0.003485 0.017559 -0.000580 0.000505 -0.002390 -0.004306
# 3 -0.002150 -0.000580 0.006513 0.005055 -0.003075 0.000826
# 4 -0.003284 0.000505 0.005055 0.026047 0.000971 -0.004108
# 5 -0.004479 -0.002390 -0.003075 0.000971 0.023958 -0.000408
# 6 0.001682 -0.004306 0.000826 -0.004108 -0.000408 0.024400
#
#
# Mechanical properties :
#
#
# Convention : Reuss Voigt Hill
#
# Bulk Modulus (GPa) = 42.91571 69.70090 56.30830
# Shear Modulus (GPa) = 38.36372 50.16622 44.26497
#
# Velocity S-wave (km/s) = 3.80765 4.35414 4.09003
# Velocity P-wave (km/s) = 5.96233 7.18463 6.60183
#
# Compressibility (1/GPa) = 0.02330149
#
# Stress axis : x y z
#
# Youngs Moduli (GPa) = 85.77079 56.94989 153.54842
#
# Poissons Ratio (x) = 0.19848 0.33010
# Poissons Ratio (y) = 0.29893 0.08901
# Poissons Ratio (z) = 0.18439 0.03301
#
# Static dielectric constant tensor:
#      x y z
#    x 2.131230 0.006630 -0.122370 
#    y 0.006630 2.036820 -0.061830 
#    z -0.122370 -0.061830 2.236590 
# 
# From -- ./inp_files/577214.got.cif
#   From: 2010.05.17/outbox.cif.g08.bks.cpg/sg2_289_cif.got.tgz:577214.got - 2010.06.03 11:33:40.
