data_PCOD9012330
_publ_section_title
;
Structure prediction by ZEFSAII (Michael W. Deem and Ramdas Pophale) SiO2 
 PCOD9012330
Probable space group: P -1
;
_chemical_formula_sum "Si O2"
_cell_formula_units_Z 12
_cell_length_a 13.753392
_cell_length_b 9.356282
_cell_length_c 13.890913
_cell_angle_alpha 97.732877
_cell_angle_beta 158.622940
_cell_angle_gamma 76.856472
_cell_volume 619.294336
_symmetry_space_group_name_H-M "P -1"
_symmetry_group_IT_number 2
_symmetry_cell_setting 'triclinic'
loop_
_space_group_symop_operation_xyz
x,y,z
-x,-y,-z
loop_
_atom_site_type_symbol
_atom_site_label
_atom_site_fract_x
_atom_site_fract_y
_atom_site_fract_z
Si Si1 0.554019 0.140330 0.349449
Si Si2 0.068123 0.621286 0.900169
Si Si3 0.010097 0.850291 0.701613
Si Si4 0.211519 0.098056 0.198852
Si Si5 0.530224 0.965532 0.136669
Si Si6 0.617596 0.457172 0.496190
O O1 0.288579 0.133662 0.165645
O O2 0.496258 0.118094 0.181683
O O3 0.634294 0.286648 0.469937
O O4 0.807319 0.989366 0.587154
O O5 0.046998 0.701203 0.784435
O O6 0.910906 0.749633 0.841905
O O7 0.906505 0.495218 0.749111
O O8 0.384398 0.559451 0.220052
O O9 0.831036 0.860726 0.439445
O O10 0.296138 0.888815 0.948492
O O11 0.500000 0.000000 0.500000
O O12 0.000000 0.000000 0.000000
O O13 0.500000 0.000000 0.000000
O O14 0.500000 0.500000 0.500000
#
# Coordination Sequence:
#
# PCOD9012330 Si02
#       6
#     2   2   2   2   2   2
#     4  10  25  37  63  89 123 157 211 244 302 359
#     4  12  24  40  60  87 131 166 198 248 295 362
#     4  10  22  40  66  92 116 158 209 249 308 357
#     4  12  22  35  59  88 120 159 205 248 288 346
#     4  10  21  40  69  94 115 147 208 268 305 352
#     4  12  26  39  56  88 132 170 200 237 300 360
#
# _framework density 19.376892000000002
#
# number of rings (size 3 to 8) (size 9 to 14) (size 15 to 20)
#    1.000    0.000    3.333    4.000    2.333    0.000 
#    0.000    0.000    0.000    6.000    0.000    0.000 
#    0.000    0.000    0.000    0.000    0.000    0.000 
#
# Total GULP energy -67018.174559 kJ/mol
# GULP energy per Si atom -5584.847880 kJ/mol
# Density = 1.933279 g / cm^3
# Si number density = 19.376892 Si / 1000 Ang^3
#
#
#
# Elastic Constant Matrix: (Units=GPa)
#
#
# Indices 1 2 3 4 5 6 
#
# 1 74.6990 29.4543 7.3343 18.2325 -28.3858 11.2432
# 2 29.4543 77.2465 14.0669 21.1975 -11.7825 11.4117
# 3 7.3343 14.0669 90.0391 12.8914 -11.8274 2.4622
# 4 18.2325 21.1975 12.8914 46.3915 8.1781 1.6185
# 5 -28.3858 -11.7825 -11.8274 8.1781 35.1056 -3.1194
# 6 11.2432 11.4117 2.4622 1.6185 -3.1194 18.7522
#
#
#
# Elastic Compliance Matrix: (Units=1/GPa)
#
#
# Indices 1 2 3 4 5 6 
#
# 1 0.030166 -0.001659 0.004226 -0.016835 0.028159 -0.011495
# 2 -0.001659 0.017991 -0.000540 -0.008132 0.005677 -0.008236
# 3 0.004226 -0.000540 0.013015 -0.006549 0.008981 -0.001854
# 4 -0.016835 -0.008132 -0.006549 0.038130 -0.026705 0.008169
# 5 0.028159 0.005677 0.008981 -0.026705 0.061610 -0.008964
# 6 -0.011495 -0.008236 -0.001854 0.008169 -0.008964 0.063278
#
#
# Mechanical properties :
#
#
# Convention : Reuss Voigt Hill
#
# Bulk Modulus (GPa) = 15.33189 38.18839 26.76014
# Shear Modulus (GPa) = 20.67158 32.79181 26.73170
#
# Velocity S-wave (km/s) = 3.26976 4.11824 3.71828
# Velocity P-wave (km/s) = 4.71007 6.50878 5.68106
#
# Compressibility (1/GPa) = 0.06522351
#
# Stress axis : x y z
#
# Youngs Moduli (GPa) = 33.15011 55.58423 76.83712
#
# Poissons Ratio (x) = 0.09221 -0.32468
# Poissons Ratio (y) = 0.05499 0.04152
# Poissons Ratio (z) = -0.14008 0.03003
#
# Static dielectric constant tensor:
#      x y z
#    x 1.669090 0.007940 -0.023990 
#    y 0.007940 1.673290 -0.015680 
#    z -0.023990 -0.015680 1.696150 
# 
# From -- ./inp_files/31836.got.cif
#   From: 2010.05.17/outbox.cif.g08.bks.cpg/sg2_16_cif.got.tgz:31836.got - 2010.06.03 11:33:40.
