data_PCOD9012765
_publ_section_title
;
Structure prediction by ZEFSAII (Michael W. Deem and Ramdas Pophale) SiO2 
 PCOD9012765
Probable space group: P -1
;
_chemical_formula_sum "Si O2"
_cell_formula_units_Z 12
_cell_length_a 7.114031
_cell_length_b 7.829541
_cell_length_c 18.353690
_cell_angle_alpha 64.135255
_cell_angle_beta 48.104089
_cell_angle_gamma 56.437500
_cell_volume 630.371849
_symmetry_space_group_name_H-M "P -1"
_symmetry_group_IT_number 2
_symmetry_cell_setting 'triclinic'
loop_
_space_group_symop_operation_xyz
x,y,z
-x,-y,-z
loop_
_atom_site_type_symbol
_atom_site_label
_atom_site_fract_x
_atom_site_fract_y
_atom_site_fract_z
Si Si1 0.776706 0.942546 0.028837
Si Si2 0.671592 0.930132 0.645536
Si Si3 0.601536 0.340846 0.308179
Si Si4 0.166733 0.135008 0.139718
Si Si5 0.679159 0.270141 0.468943
Si Si6 0.433013 0.796020 0.234407
O O1 0.706877 0.771200 0.123075
O O2 0.473033 0.129394 0.072123
O O3 0.864324 0.879764 0.935334
O O4 0.000000 0.000000 0.000000
O O5 0.507042 0.789964 0.693160
O O6 0.995316 0.788311 0.594483
O O7 0.624804 0.099296 0.562782
O O8 0.587222 0.056343 0.719270
O O9 0.611182 0.264870 0.402436
O O10 0.424248 0.583908 0.301979
O O11 0.909473 0.307011 0.211179
O O12 0.197350 0.924680 0.213872
O O13 0.500000 0.500000 0.500000
#
# Coordination Sequence:
#
# PCOD9012765 Si02
#       6
#     2   2   2   2   2   2
#     4   9  18  40  63  85 125 161 192 250 303 346
#     4  11  24  41  63  88 126 160 198 254 302 351
#     4  12  23  40  64  90 121 163 201 247 308 351
#     4   9  21  38  60  88 125 153 199 254 290 356
#     4  11  23  43  62  90 123 158 207 249 296 369
#     4  10  21  41  60  92 123 154 208 246 290 372
#
# _framework density 19.036384000000002
#
# number of rings (size 3 to 8) (size 9 to 14) (size 15 to 20)
#    1.000    0.667    3.333    1.500    0.000    2.667 
#    3.000    0.833    0.000    0.000    0.000    0.000 
#    0.000    0.000    0.000    0.000    0.000    0.000 
#
# Total GULP energy -66852.828030 kJ/mol
# GULP energy per Si atom -5571.069003 kJ/mol
# Density = 1.899306 g / cm^3
# Si number density = 19.036384 Si / 1000 Ang^3
#
#
#
# Elastic Constant Matrix: (Units=GPa)
#
#
# Indices 1 2 3 4 5 6 
#
# 1 73.1465 34.3237 31.7370 -5.7211 17.7311 9.3509
# 2 34.3237 90.4564 29.2219 -1.6453 15.8013 -2.1509
# 3 31.7370 29.2219 83.7855 5.6777 41.1329 5.4889
# 4 -5.7211 -1.6453 5.6777 29.2499 0.6571 3.9003
# 5 17.7311 15.8013 41.1329 0.6571 28.9553 -0.1943
# 6 9.3509 -2.1509 5.4889 3.9003 -0.1943 26.6408
#
#
#
# Elastic Compliance Matrix: (Units=1/GPa)
#
#
# Indices 1 2 3 4 5 6 
#
# 1 0.020460 -0.005987 -0.002900 0.005400 -0.005318 -0.007897
# 2 -0.005987 0.014375 -0.003140 -0.000287 0.000315 0.003953
# 3 -0.002900 -0.003140 0.044088 -0.006944 -0.059035 -0.007733
# 4 0.005400 -0.000287 -0.006944 0.037231 0.005830 -0.005896
# 5 -0.005318 0.000315 -0.059035 0.005830 0.121446 0.014087
# 6 -0.007897 0.003953 -0.007733 -0.005896 0.014087 0.043187
#
#
# Mechanical properties :
#
#
# Convention : Reuss Voigt Hill
#
# Bulk Modulus (GPa) = 18.22530 48.66153 33.44341
# Shear Modulus (GPa) = 15.47360 27.10959 21.29160
#
# Velocity S-wave (km/s) = 2.85413 3.77781 3.34798
# Velocity P-wave (km/s) = 4.52285 6.68184 5.70540
#
# Compressibility (1/GPa) = 0.05486879
#
# Stress axis : x y z
#
# Youngs Moduli (GPa) = 48.87636 69.56513 22.68177
#
# Poissons Ratio (x) = 0.41651 0.06577
# Poissons Ratio (y) = 0.29264 0.07122
# Poissons Ratio (z) = 0.14173 0.21844
#
# Static dielectric constant tensor:
#      x y z
#    x 1.655090 -0.028300 -0.005070 
#    y -0.028300 1.648280 0.002510 
#    z -0.005070 0.002510 1.696290 
# 
# From -- ./inp_files/3907.got.cif
#   From: 2010.05.17/outbox.cif.g08.bks.cpg/sg2_2_cif.got.tgz:3907.got - 2010.06.03 11:33:40.
