data_PCOD9012078
_publ_section_title
;
Structure prediction by ZEFSAII (Michael W. Deem and Ramdas Pophale) SiO2 
 PCOD9012078
Probable space group: P -1
;
_chemical_formula_sum "Si O2"
_cell_formula_units_Z 14
_cell_length_a 10.156278
_cell_length_b 14.728021
_cell_length_c 13.010339
_cell_angle_alpha 27.757227
_cell_angle_beta 131.412579
_cell_angle_gamma 114.512949
_cell_volume 593.288527
_symmetry_space_group_name_H-M "P -1"
_symmetry_group_IT_number 2
_symmetry_cell_setting 'triclinic'
loop_
_space_group_symop_operation_xyz
x,y,z
-x,-y,-z
loop_
_atom_site_type_symbol
_atom_site_label
_atom_site_fract_x
_atom_site_fract_y
_atom_site_fract_z
Si Si1 0.485323 0.476167 0.138683
Si Si2 0.122170 0.690404 0.056299
Si Si3 0.758023 0.045485 0.009480
Si Si4 0.098799 0.579570 0.561561
Si Si5 0.703705 0.782258 0.785891
Si Si6 0.237258 0.879631 0.746571
Si Si7 0.674849 0.810591 0.396835
O O1 0.703263 0.394218 0.384570
O O2 0.369367 0.333757 0.221225
O O3 0.500000 0.500000 0.000000
O O4 0.347005 0.716453 0.874624
O O5 0.173351 0.440542 0.306555
O O6 0.265844 0.724291 0.015971
O O7 0.879533 0.829014 0.788935
O O8 0.174752 0.773753 0.105566
O O9 0.704173 0.948430 0.180789
O O10 0.928793 0.824794 0.264214
O O11 0.543416 0.164069 0.726173
O O12 0.000000 0.500000 0.500000
O O13 0.183967 0.392178 0.885471
O O14 0.500000 0.000000 0.500000
O O15 0.294128 0.067653 0.612580
O O16 0.000000 0.000000 0.500000
#
# Coordination Sequence:
#
# PCOD9012078 Si02
#       7
#     2   2   2   2   2   2   2
#     4  10  24  44  67  94 137 185 227 275 350 416
#     4  11  23  42  69  99 136 174 233 289 346 413
#     4  10  21  40  68  94 133 182 220 280 350 413
#     4  11  23  44  71  97 141 186 234 283 346 415
#     4  11  24  43  71 100 138 184 234 285 349 412
#     4  11  25  40  68 100 133 176 234 289 340 406
#     4  10  21  41  66  96 134 172 224 283 349 406
#
# _framework density 23.597289
#
# number of rings (size 3 to 8) (size 9 to 14) (size 15 to 20)
#    0.000    1.429    1.429    3.000   10.000    2.286 
#    5.143    1.429    0.000    0.000    0.000    0.000 
#    0.000    0.000    0.000    0.000    0.000    0.000 
#
# Total GULP energy -78125.448156 kJ/mol
# GULP energy per Si atom -5580.389154 kJ/mol
# Density = 2.354358 g / cm^3
# Si number density = 23.597289 Si / 1000 Ang^3
#
#
#
# Elastic Constant Matrix: (Units=GPa)
#
#
# Indices 1 2 3 4 5 6 
#
# 1 93.8931 61.0750 35.5330 -3.5960 30.5008 9.7191
# 2 61.0750 258.7607 79.3295 -12.9053 47.2546 11.1090
# 3 35.5330 79.3295 120.3070 -20.0133 55.4297 -9.6870
# 4 -3.5960 -12.9053 -20.0133 43.5887 -3.7238 11.1975
# 5 30.5008 47.2546 55.4297 -3.7238 55.9873 -1.4965
# 6 9.7191 11.1090 -9.6870 11.1975 -1.4965 39.0537
#
#
#
# Elastic Compliance Matrix: (Units=1/GPa)
#
#
# Indices 1 2 3 4 5 6 
#
# 1 0.014397 -0.002025 -0.000408 0.000824 -0.005770 -0.003566
# 2 -0.002025 0.005420 -0.002607 0.000654 -0.000898 -0.001906
# 3 -0.000408 -0.002607 0.018392 0.005496 -0.015333 0.003242
# 4 0.000824 0.000654 0.005496 0.027109 -0.004826 -0.006985
# 5 -0.005770 -0.000898 -0.015333 -0.004826 0.036641 0.000676
# 6 -0.003566 -0.001906 0.003242 -0.006985 0.000676 0.029868
#
#
# Mechanical properties :
#
#
# Convention : Reuss Voigt Hill
#
# Bulk Modulus (GPa) = 35.55129 91.64842 63.59986
# Shear Modulus (GPa) = 33.05048 47.52750 40.28899
#
# Velocity S-wave (km/s) = 3.74653 4.49275 4.13650
# Velocity P-wave (km/s) = 5.81496 8.11393 7.05867
#
# Compressibility (1/GPa) = 0.02812837
#
# Stress axis : x y z
#
# Youngs Moduli (GPa) = 69.45737 184.49471 54.37252
#
# Poissons Ratio (x) = 0.37361 0.02221
# Poissons Ratio (y) = 0.14065 0.14174
# Poissons Ratio (z) = 0.02837 0.48096
#
# Static dielectric constant tensor:
#      x y z
#    x 2.244730 -0.020040 -0.245540 
#    y -0.020040 1.887550 0.077840 
#    z -0.245540 0.077840 1.988580 
# 
# From -- ./inp_files/522195.got.cif
#   From: 2010.05.17/outbox.cif.g08.bks.cpg/sg2_262_cif.got.tgz:522195.got - 2010.06.03 11:33:40.
