data_PCOD9012323
_publ_section_title
;
Structure prediction by ZEFSAII (Michael W. Deem and Ramdas Pophale) SiO2 
 PCOD9012323
Probable space group: P -1
;
_chemical_formula_sum "Si O2"
_cell_formula_units_Z 16
_cell_length_a 20.810698
_cell_length_b 8.893257
_cell_length_c 11.635401
_cell_angle_alpha 41.593587
_cell_angle_beta 29.159880
_cell_angle_gamma 51.807266
_cell_volume 692.498510
_symmetry_space_group_name_H-M "P -1"
_symmetry_group_IT_number 2
_symmetry_cell_setting 'triclinic'
loop_
_space_group_symop_operation_xyz
x,y,z
-x,-y,-z
loop_
_atom_site_type_symbol
_atom_site_label
_atom_site_fract_x
_atom_site_fract_y
_atom_site_fract_z
Si Si1 0.991521 0.986005 0.765228
Si Si2 0.264640 0.825508 0.011207
Si Si3 0.177112 0.915420 0.339406
Si Si4 0.980267 0.465566 0.893486
Si Si5 0.307822 0.574713 0.679332
Si Si6 0.073679 0.380986 0.555392
Si Si7 0.584792 0.456846 0.214133
Si Si8 0.347174 0.033054 0.233003
O O1 0.055000 0.049376 0.503642
O O2 0.841957 0.048602 0.967203
O O3 0.084437 0.135295 0.625095
O O4 0.998795 0.726526 0.936244
O O5 0.260291 0.946500 0.073609
O O6 0.193771 0.569237 0.287742
O O7 0.390226 0.763395 0.776144
O O8 0.276380 0.955168 0.268314
O O9 0.099679 0.664104 0.599716
O O10 0.989456 0.351996 0.818690
O O11 0.832945 0.544476 0.078209
O O12 0.432212 0.481805 0.472276
O O13 0.335244 0.547667 0.787320
O O14 0.301595 0.842280 0.508145
O O15 0.000000 0.500000 0.500000
O O16 0.642923 0.693993 0.927582
O O17 0.500000 0.000000 0.000000
#
# Coordination Sequence:
#
# PCOD9012323 Si02
#       8
#     2   2   2   2   2   2   2   2
#     4  11  20  35  59  91 132 167 210 259 324 390
#     4  10  22  38  59  95 133 165 214 266 330 384
#     4  11  23  40  61  96 131 170 209 269 336 390
#     4  11  22  37  62  95 134 165 214 273 333 380
#     4  10  21  40  69  93 129 169 225 267 313 383
#     4   9  19  34  55  88 124 165 206 262 314 379
#     4  10  22  43  68  95 127 175 224 269 313 384
#     4  10  22  43  70  95 123 171 222 263 322 393
#
# _framework density 23.104742999999999
#
# number of rings (size 3 to 8) (size 9 to 14) (size 15 to 20)
#    0.000    1.750    1.250    3.375    0.000    3.000 
#    2.250    2.500    0.000   12.000    0.000    0.000 
#    0.000    0.000    0.000    0.000    0.000    0.000 
#
# Total GULP energy -89223.393522 kJ/mol
# GULP energy per Si atom -5576.462095 kJ/mol
# Density = 2.305216 g / cm^3
# Si number density = 23.104743 Si / 1000 Ang^3
#
#
#
# Elastic Constant Matrix: (Units=GPa)
#
#
# Indices 1 2 3 4 5 6 
#
# 1 70.5861 40.4466 13.0851 13.1385 5.1447 -1.4138
# 2 40.4466 141.4046 27.0788 17.1411 10.4790 0.0262
# 3 13.0851 27.0788 54.3367 0.3602 -0.2550 -5.4537
# 4 13.1385 17.1411 0.3602 37.4076 4.4098 5.6348
# 5 5.1447 10.4790 -0.2550 4.4098 39.6684 2.2497
# 6 -1.4138 0.0262 -5.4537 5.6348 2.2497 37.8810
#
#
#
# Elastic Compliance Matrix: (Units=1/GPa)
#
#
# Indices 1 2 3 4 5 6 
#
# 1 0.017808 -0.004092 -0.002116 -0.004425 -0.000811 0.001069
# 2 -0.004092 0.009392 -0.003706 -0.002602 -0.001673 -0.000206
# 3 -0.002116 -0.003706 0.021018 0.001719 0.001048 0.002632
# 4 -0.004425 -0.002602 0.001719 0.030331 -0.001855 -0.004317
# 5 -0.000811 -0.001673 0.001048 -0.001855 0.026034 -0.001148
# 6 0.001069 -0.000206 0.002632 -0.004317 -0.001148 0.027528
#
#
# Mechanical properties :
#
#
# Convention : Reuss Voigt Hill
#
# Bulk Modulus (GPa) = 35.22548 47.50539 41.36544
# Shear Modulus (GPa) = 30.97818 35.37251 33.17534
#
# Velocity S-wave (km/s) = 3.66563 3.91700 3.79339
# Velocity P-wave (km/s) = 5.76150 6.40802 6.09334
#
# Compressibility (1/GPa) = 0.02838854
#
# Stress axis : x y z
#
# Youngs Moduli (GPa) = 56.15308 106.47780 47.57820
#
# Poissons Ratio (x) = 0.43574 0.10069
# Poissons Ratio (y) = 0.22980 0.17633
# Poissons Ratio (z) = 0.11884 0.39462
#
# Static dielectric constant tensor:
#      x y z
#    x 1.870790 0.025090 -0.003340 
#    y 0.025090 1.993650 0.027320 
#    z -0.003340 0.027320 1.936570 
# 
# From -- ./inp_files/469747.got.cif
#   From: 2010.05.17/outbox.cif.g08.bks.cpg/sg2_235_cif.got.tgz:469747.got - 2010.06.03 11:33:40.
