data_PCOD9012963
_publ_section_title
;
Structure prediction by ZEFSAII (Michael W. Deem and Ramdas Pophale) SiO2 
 PCOD9012963
Probable space group: P -1
;
_chemical_formula_sum "Si O2"
_cell_formula_units_Z 14
_cell_length_a 18.158156
_cell_length_b 6.989656
_cell_length_c 6.831189
_cell_angle_alpha 119.021337
_cell_angle_beta 73.743061
_cell_angle_gamma 124.771253
_cell_volume 622.762355
_symmetry_space_group_name_H-M "P -1"
_symmetry_group_IT_number 2
_symmetry_cell_setting 'triclinic'
loop_
_space_group_symop_operation_xyz
x,y,z
-x,-y,-z
loop_
_atom_site_type_symbol
_atom_site_label
_atom_site_fract_x
_atom_site_fract_y
_atom_site_fract_z
Si Si1 0.277371 0.950337 0.762592
Si Si2 0.004860 0.527108 0.277964
Si Si3 0.603039 0.631630 0.832407
Si Si4 0.553877 0.299941 0.068455
Si Si5 0.847662 0.634189 0.439903
Si Si6 0.289289 0.300010 0.598486
Si Si7 0.886199 0.074605 0.899972
O O1 0.237280 0.651920 0.616735
O O2 0.291918 0.079361 0.605948
O O3 0.199932 0.974944 0.941722
O O4 0.361325 0.123995 0.926499
O O5 0.932243 0.608612 0.316800
O O6 0.000000 0.500000 0.500000
O O7 0.095223 0.743264 0.214393
O O8 0.969142 0.253385 0.068703
O O9 0.513102 0.595585 0.786084
O O10 0.674285 0.683040 0.638302
O O11 0.583490 0.396001 0.870450
O O12 0.641896 0.444480 0.208318
O O13 0.500000 0.000000 0.000000
O O14 0.810433 0.747414 0.362048
O O15 0.873747 0.813899 0.699052
#
# Coordination Sequence:
#
# PCOD9012963 Si02
#       7
#     2   2   2   2   2   2   2
#     4  10  23  42  61  94 133 165 213 264 309 371
#     4  10  24  44  66  93 127 165 212 267 317 374
#     4  10  21  41  62  91 135 161 212 270 296 375
#     4  10  22  39  64  94 125 171 212 253 319 371
#     4  11  23  41  66  93 127 168 213 259 316 383
#     4  11  23  41  63  94 130 169 211 258 320 372
#     4  10  22  44  62  95 127 161 214 262 307 383
#
# _framework density 22.480485999999999
#
# number of rings (size 3 to 8) (size 9 to 14) (size 15 to 20)
#    0.000    1.714    1.429    1.714    4.000    2.286 
#   10.286    0.000    0.000    0.000    0.000    0.000 
#    0.000    0.000    0.000    0.000    0.000    0.000 
#
# Total GULP energy -78190.231795 kJ/mol
# GULP energy per Si atom -5585.016557 kJ/mol
# Density = 2.242932 g / cm^3
# Si number density = 22.480486 Si / 1000 Ang^3
#
#
#
# Elastic Constant Matrix: (Units=GPa)
#
#
# Indices 1 2 3 4 5 6 
#
# 1 72.5191 -10.8092 18.2751 -3.5529 6.4661 -5.4141
# 2 -10.8092 91.7345 53.5927 1.9798 8.9208 8.2392
# 3 18.2751 53.5927 116.2432 -3.3110 12.6120 -4.3972
# 4 -3.5529 1.9798 -3.3110 49.7186 5.8132 1.4573
# 5 6.4661 8.9208 12.6120 5.8132 27.8319 -2.8264
# 6 -5.4141 8.2392 -4.3972 1.4573 -2.8264 23.8266
#
#
#
# Elastic Compliance Matrix: (Units=1/GPa)
#
#
# Indices 1 2 3 4 5 6 
#
# 1 0.015936 0.004552 -0.004174 0.001054 -0.003408 0.000808
# 2 0.004552 0.017470 -0.008680 -0.000351 -0.003360 -0.006986
# 3 -0.004174 -0.008680 0.013697 0.001099 -0.002253 0.004246
# 4 0.001054 -0.000351 0.001099 0.020915 -0.005133 -0.001325
# 5 -0.003408 -0.003360 -0.002253 -0.005133 0.040408 0.005079
# 6 0.000808 -0.006986 0.004246 -0.001325 0.005079 0.046036
#
#
# Mechanical properties :
#
#
# Convention : Reuss Voigt Hill
#
# Bulk Modulus (GPa) = 32.78681 44.73489 38.76085
# Shear Modulus (GPa) = 27.58918 34.90463 31.24690
#
# Velocity S-wave (km/s) = 3.50701 3.94466 3.73226
# Velocity P-wave (km/s) = 5.56912 6.37885 5.98769
#
# Compressibility (1/GPa) = 0.03050007
#
# Stress axis : x y z
#
# Youngs Moduli (GPa) = 62.75247 57.24102 73.00921
#
# Poissons Ratio (x) = -0.26057 0.30472
# Poissons Ratio (y) = -0.28566 0.63370
# Poissons Ratio (z) = 0.26191 0.49684
#
# Static dielectric constant tensor:
#      x y z
#    x 1.865220 0.022270 0.018950 
#    y 0.022270 1.857460 0.015480 
#    z 0.018950 0.015480 1.815380 
# 
# From -- ./inp_files/114440.got.cif
#   From: 2010.05.17/outbox.cif.g08.bks.cpg/sg2_58_cif.got.tgz:114440.got - 2010.06.03 11:33:40.
