data_PCOD9012224
_publ_section_title
;
Structure prediction by ZEFSAII (Michael W. Deem and Ramdas Pophale) SiO2 
 PCOD9012224
Probable space group: P -1
;
_chemical_formula_sum "Si O2"
_cell_formula_units_Z 14
_cell_length_a 11.701707
_cell_length_b 7.183287
_cell_length_c 9.642774
_cell_angle_alpha 119.114641
_cell_angle_beta 50.384463
_cell_angle_gamma 90.702211
_cell_volume 489.111838
_symmetry_space_group_name_H-M "P -1"
_symmetry_group_IT_number 2
_symmetry_cell_setting 'triclinic'
loop_
_space_group_symop_operation_xyz
x,y,z
-x,-y,-z
loop_
_atom_site_type_symbol
_atom_site_label
_atom_site_fract_x
_atom_site_fract_y
_atom_site_fract_z
Si Si1 0.000000 0.000000 0.500000
Si Si2 0.997506 0.943046 0.211808
Si Si3 0.318100 0.978830 0.054037
Si Si4 0.520514 0.328466 0.715833
Si Si5 0.862477 0.353251 0.245250
Si Si6 0.362814 0.111480 0.363911
Si Si7 0.500000 0.500000 0.500000
Si Si8 0.747470 0.495810 0.773886
O O1 0.919328 0.282775 0.609976
O O2 0.897006 0.954902 0.431627
O O3 0.164671 0.912193 0.154645
O O4 0.952236 0.172763 0.234687
O O5 0.021257 0.739329 0.012582
O O6 0.380243 0.955142 0.155531
O O7 0.247642 0.256994 0.174437
O O8 0.471413 0.835531 0.777160
O O9 0.447918 0.405637 0.648876
O O10 0.652924 0.424842 0.698791
O O11 0.596546 0.049158 0.589921
O O12 0.371313 0.446732 0.981555
O O13 0.785209 0.629373 0.433120
O O14 0.698794 0.324684 0.323223
#
# Coordination Sequence:
#
# PCOD9012224 Si02
#       8
#     1   2   2   2   2   2   1   2
#     4  12  22  38  66  92 126 174 220 262 322 394
#     4  11  25  43  65  96 135 176 219 271 333 395
#     4  10  21  40  69 101 132 171 223 276 326 392
#     4  10  22  40  66  98 129 166 218 273 324 387
#     4  11  25  43  64  95 134 173 216 272 338 393
#     4  10  21  40  69 101 131 171 223 274 329 392
#     4  12  22  40  66  88 128 174 210 262 330 392
#     4  10  22  40  65  98 128 164 220 276 322 381
#
# _framework density 28.623314000000001
#
# number of rings (size 3 to 8) (size 9 to 14) (size 15 to 20)
#    0.000    1.429    0.000    5.143    0.000    8.571 
#    0.000    1.429    0.000   25.714    0.000    0.000 
#    0.000    0.000    0.000    0.000    0.000    0.000 
#
# Total GULP energy -78116.848275 kJ/mol
# GULP energy per Si atom -5579.774877 kJ/mol
# Density = 2.855817 g / cm^3
# Si number density = 28.623314 Si / 1000 Ang^3
#
#
#
# Elastic Constant Matrix: (Units=GPa)
#
#
# Indices 1 2 3 4 5 6 
#
# 1 95.5107 40.7197 -13.7504 -1.2799 13.1006 -28.3972
# 2 40.7197 214.6227 43.0058 32.6466 17.8308 -36.4112
# 3 -13.7504 43.0058 116.3679 6.3626 14.9409 -23.5780
# 4 -1.2799 32.6466 6.3626 63.6295 -19.5478 8.2889
# 5 13.1006 17.8308 14.9409 -19.5478 29.8269 -5.5154
# 6 -28.3972 -36.4112 -23.5780 8.2889 -5.5154 64.8603
#
#
#
# Elastic Compliance Matrix: (Units=1/GPa)
#
#
# Indices 1 2 3 4 5 6 
#
# 1 0.015241 -0.001406 0.005188 -0.003295 -0.009243 0.007405
# 2 -0.001406 0.007124 -0.000982 -0.005998 -0.006481 0.003242
# 3 0.005188 -0.000982 0.012229 -0.004320 -0.009556 0.005905
# 4 -0.003295 -0.005998 -0.004320 0.027482 0.023752 -0.007873
# 5 -0.009243 -0.006481 -0.009556 0.023752 0.060135 -0.009081
# 6 0.007405 0.003242 0.005905 -0.007873 -0.009081 0.022860
#
#
# Mechanical properties :
#
#
# Convention : Reuss Voigt Hill
#
# Bulk Modulus (GPa) = 24.87927 62.93902 43.90915
# Shear Modulus (GPa) = 32.70768 55.43177 44.06972
#
# Velocity S-wave (km/s) = 3.38404 4.40545 3.92809
# Velocity P-wave (km/s) = 4.89692 6.92198 5.99557
#
# Compressibility (1/GPa) = 0.04019411
#
# Stress axis : x y z
#
# Youngs Moduli (GPa) = 65.61037 140.37580 81.77345
#
# Poissons Ratio (x) = 0.19736 -0.42422
# Poissons Ratio (y) = 0.09224 0.08029
# Poissons Ratio (z) = -0.34037 0.13783
#
# Static dielectric constant tensor:
#      x y z
#    x 2.124510 -0.002820 0.006630 
#    y -0.002820 1.909500 0.315870 
#    z 0.006630 0.315870 1.672430 
# 
# From -- ./inp_files/158667.got.cif
#   From: 2010.05.17/outbox.cif.g08.bks.cpg/sg2_80_cif.got.tgz:158667.got - 2010.06.03 11:33:40.
