data_PCOD9012162
_publ_section_title
;
Structure prediction by ZEFSAII (Michael W. Deem and Ramdas Pophale) SiO2 
 PCOD9012162
Probable space group: P -1
;
_chemical_formula_sum "Si O2"
_cell_formula_units_Z 16
_cell_length_a 15.099877
_cell_length_b 9.527687
_cell_length_c 7.979569
_cell_angle_alpha 105.745496
_cell_angle_beta 111.730051
_cell_angle_gamma 39.821968
_cell_volume 682.775514
_symmetry_space_group_name_H-M "P -1"
_symmetry_group_IT_number 2
_symmetry_cell_setting 'triclinic'
loop_
_space_group_symop_operation_xyz
x,y,z
-x,-y,-z
loop_
_atom_site_type_symbol
_atom_site_label
_atom_site_fract_x
_atom_site_fract_y
_atom_site_fract_z
Si Si1 0.356187 0.014971 0.935546
Si Si2 0.694603 0.147367 0.893615
Si Si3 0.844001 0.235789 0.909982
Si Si4 0.203261 0.381594 0.667329
Si Si5 0.388549 0.407067 0.616832
Si Si6 0.886573 0.799972 0.622937
Si Si7 0.369273 0.294686 0.193472
Si Si8 0.849336 0.110219 0.497051
O O1 0.269048 0.207393 0.801654
O O2 0.504297 0.807144 0.879822
O O3 0.372985 0.114659 0.130397
O O4 0.289035 0.949482 0.949077
O O5 0.731669 0.275334 0.958630
O O6 0.538900 0.289195 0.756128
O O7 0.806588 0.947902 0.777904
O O8 0.779363 0.470753 0.909668
O O9 0.833901 0.187254 0.699204
O O10 0.000000 0.000000 0.000000
O O11 0.314772 0.368267 0.666849
O O12 0.153319 0.322596 0.472113
O O13 0.056783 0.625594 0.700407
O O14 0.400111 0.325003 0.409505
O O15 0.281045 0.666774 0.617617
O O16 0.845215 0.942461 0.475615
O O17 0.000000 0.000000 0.500000
#
# Coordination Sequence:
#
# PCOD9012162 Si02
#       8
#     2   2   2   2   2   2   2   2
#     4  11  24  40  63  98 130 174 216 263 321 385
#     4  11  25  43  64  97 128 174 215 269 327 379
#     4  10  25  44  65  93 134 171 211 271 331 387
#     4  11  23  40  66  94 132 172 213 270 317 389
#     4  11  22  42  70  94 130 168 218 273 318 386
#     4  10  23  41  62  97 131 168 217 263 328 382
#     4  10  23  41  66  98 130 171 215 264 329 380
#     4  10  21  40  68  98 123 170 217 266 324 384
#
# _framework density 23.433762999999999
#
# number of rings (size 3 to 8) (size 9 to 14) (size 15 to 20)
#    0.000    1.500    1.250    3.000    3.500   10.000 
#    2.250    0.000    0.000    0.000    0.000    0.000 
#    0.000    0.000    0.000    0.000    0.000    0.000 
#
# Total GULP energy -89475.464727 kJ/mol
# GULP energy per Si atom -5592.216545 kJ/mol
# Density = 2.338043 g / cm^3
# Si number density = 23.433763 Si / 1000 Ang^3
#
#
#
# Elastic Constant Matrix: (Units=GPa)
#
#
# Indices 1 2 3 4 5 6 
#
# 1 114.5796 34.8152 25.1254 -2.0283 -14.1971 4.1445
# 2 34.8152 133.1377 37.7839 -22.5752 -5.3235 -11.5855
# 3 25.1254 37.7839 85.6540 -23.1650 -8.4548 -4.0079
# 4 -2.0283 -22.5752 -23.1650 27.9636 2.5793 -6.4547
# 5 -14.1971 -5.3235 -8.4548 2.5793 32.6578 -6.1226
# 6 4.1445 -11.5855 -4.0079 -6.4547 -6.1226 28.8145
#
#
#
# Elastic Compliance Matrix: (Units=1/GPa)
#
#
# Indices 1 2 3 4 5 6 
#
# 1 0.010771 -0.003050 -0.003162 -0.005459 0.003088 -0.003782
# 2 -0.003050 0.010767 -0.000983 0.009168 0.000733 0.006840
# 3 -0.003162 -0.000983 0.017649 0.014811 0.003081 0.006487
# 4 -0.005459 0.009168 0.014811 0.059532 0.002061 0.020305
# 5 0.003088 0.000733 0.003081 0.002061 0.034219 0.008012
# 6 -0.003782 0.006840 0.006487 0.020305 0.008012 0.045152
#
#
# Mechanical properties :
#
#
# Convention : Reuss Voigt Hill
#
# Bulk Modulus (GPa) = 40.32926 58.75781 49.54353
# Shear Modulus (GPa) = 24.90698 33.59698 29.25198
#
# Velocity S-wave (km/s) = 3.26370 3.79053 3.53694
# Velocity P-wave (km/s) = 5.60799 6.65477 6.15368
#
# Compressibility (1/GPa) = 0.02479589
#
# Stress axis : x y z
#
# Youngs Moduli (GPa) = 92.84457 92.87921 56.65952
#
# Poissons Ratio (x) = 0.28331 0.17918
# Poissons Ratio (y) = 0.28320 0.05568
# Poissons Ratio (z) = 0.29360 0.09128
#
# Static dielectric constant tensor:
#      x y z
#    x 1.896230 0.014250 0.039130 
#    y 0.014250 1.929890 0.041020 
#    z 0.039130 0.041020 1.938710 
# 
# From -- ./inp_files/298884.got.cif
#   From: 2010.05.17/outbox.cif.g08.bks.cpg/sg2_150_cif.got.tgz:298884.got - 2010.06.03 11:33:40.
