data_PCOD9012321
_publ_section_title
;
Structure prediction by ZEFSAII (Michael W. Deem and Ramdas Pophale) SiO2 
 PCOD9012321
Probable space group: P -1
;
_chemical_formula_sum "Si O2"
_cell_formula_units_Z 16
_cell_length_a 20.351976
_cell_length_b 8.818993
_cell_length_c 9.008337
_cell_angle_alpha 99.272535
_cell_angle_beta 58.914607
_cell_angle_gamma 51.690020
_cell_volume 758.393750
_symmetry_space_group_name_H-M "P -1"
_symmetry_group_IT_number 2
_symmetry_cell_setting 'triclinic'
loop_
_space_group_symop_operation_xyz
x,y,z
-x,-y,-z
loop_
_atom_site_type_symbol
_atom_site_label
_atom_site_fract_x
_atom_site_fract_y
_atom_site_fract_z
Si Si1 0.908190 0.297905 0.215412
Si Si2 0.725151 0.586057 0.763435
Si Si3 0.279074 0.419805 0.778831
Si Si4 0.042955 0.588390 0.386285
Si Si5 0.076759 0.322255 0.032842
Si Si6 0.209192 0.778882 0.145247
Si Si7 0.447784 0.957351 0.762345
Si Si8 0.646122 0.211177 0.219232
O O1 0.796197 0.445638 0.498229
O O2 0.818071 0.502627 0.211744
O O3 0.000216 0.288809 0.161124
O O4 0.000000 0.000000 0.000000
O O5 0.730496 0.416842 0.819002
O O6 0.826795 0.542047 0.716360
O O7 0.577459 0.903842 0.036325
O O8 0.362727 0.179767 0.761999
O O9 0.396098 0.308319 0.523934
O O10 0.188282 0.688500 0.024920
O O11 0.000000 0.500000 0.500000
O O12 0.924083 0.911321 0.594128
O O13 0.060488 0.496494 0.186169
O O14 0.238178 0.008712 0.822219
O O15 0.000000 0.500000 0.000000
O O16 0.303874 0.747057 0.950507
O O17 0.383619 0.897612 0.846477
O O18 0.500000 0.500000 0.500000
#
# Coordination Sequence:
#
# PCOD9012321 Si02
#       8
#     2   2   2   2   2   2   2   2
#     4  12  26  42  63  96 140 169 214 280 343 393
#     4  11  23  40  66  95 133 177 223 277 329 402
#     4  10  22  42  65  96 129 174 222 272 336 402
#     4  12  21  41  65  94 132 173 225 269 335 403
#     4  12  27  43  67 103 134 173 219 283 344 389
#     4  11  23  39  66  99 126 177 230 273 326 400
#     4  10  21  40  69  93 125 175 229 267 325 410
#     4  12  22  42  72  98 131 176 228 275 329 405
#
# _framework density 21.09722
#
# number of rings (size 3 to 8) (size 9 to 14) (size 15 to 20)
#    0.000    0.750    5.000    2.625    3.500    0.500 
#    0.000    0.000    0.000    1.500    0.000    0.000 
#    0.000    0.000    0.000    0.000    0.000    0.000 
#
# Total GULP energy -89256.184532 kJ/mol
# GULP energy per Si atom -5578.511533 kJ/mol
# Density = 2.104920 g / cm^3
# Si number density = 21.097220 Si / 1000 Ang^3
#
#
#
# Elastic Constant Matrix: (Units=GPa)
#
#
# Indices 1 2 3 4 5 6 
#
# 1 81.7985 29.1726 22.1424 1.2860 12.7521 -7.2492
# 2 29.1726 85.5287 39.3491 -9.6576 10.5219 -0.9628
# 3 22.1424 39.3491 129.2024 3.5886 27.3600 -10.1099
# 4 1.2860 -9.6576 3.5886 40.8104 6.2671 2.5090
# 5 12.7521 10.5219 27.3600 6.2671 37.7624 -1.4030
# 6 -7.2492 -0.9628 -10.1099 2.5090 -1.4030 36.8522
#
#
#
# Elastic Compliance Matrix: (Units=1/GPa)
#
#
# Indices 1 2 3 4 5 6 
#
# 1 0.014688 -0.004637 -0.000175 -0.001212 -0.003240 0.002679
# 2 -0.004637 0.015737 -0.004142 0.004452 -0.000630 -0.001965
# 3 -0.000175 -0.004142 0.010571 -0.001118 -0.006164 0.002599
# 4 -0.001212 0.004452 -0.001118 0.026535 -0.004515 -0.002407
# 5 -0.003240 -0.000630 -0.006164 -0.004515 0.032937 -0.000783
# 6 0.002679 -0.001965 0.002599 -0.002407 -0.000783 0.028458
#
#
# Mechanical properties :
#
#
# Convention : Reuss Voigt Hill
#
# Bulk Modulus (GPa) = 43.31505 53.09532 48.20519
# Shear Modulus (GPa) = 32.35578 36.80935 34.58257
#
# Velocity S-wave (km/s) = 3.92043 4.18155 4.05310
# Velocity P-wave (km/s) = 6.40850 6.96674 6.69344
#
# Compressibility (1/GPa) = 0.02308666
#
# Stress axis : x y z
#
# Youngs Moduli (GPa) = 68.08225 63.54265 94.59856
#
# Poissons Ratio (x) = 0.29466 0.01660
# Poissons Ratio (y) = 0.31572 0.39185
# Poissons Ratio (z) = 0.01195 0.26321
#
# Static dielectric constant tensor:
#      x y z
#    x 1.738980 -0.004220 -0.003210 
#    y -0.004220 1.789230 -0.006720 
#    z -0.003210 -0.006720 1.861500 
# 
# From -- ./inp_files/343642.got.cif
#   From: 2010.05.17/outbox.cif.g08.bks.cpg/sg2_172_cif.got.tgz:343642.got - 2010.06.03 11:33:40.
