data_PCOD9012966
_publ_section_title
;
Structure prediction by ZEFSAII (Michael W. Deem and Ramdas Pophale) SiO2 
 PCOD9012966
Probable space group: P -1
;
_chemical_formula_sum "Si O2"
_cell_formula_units_Z 14
_cell_length_a 20.852090
_cell_length_b 6.589700
_cell_length_c 5.294804
_cell_angle_alpha 77.988800
_cell_angle_beta 98.409859
_cell_angle_gamma 123.407671
_cell_volume 593.599395
_symmetry_space_group_name_H-M "P -1"
_symmetry_group_IT_number 2
_symmetry_cell_setting 'triclinic'
loop_
_space_group_symop_operation_xyz
x,y,z
-x,-y,-z
loop_
_atom_site_type_symbol
_atom_site_label
_atom_site_fract_x
_atom_site_fract_y
_atom_site_fract_z
Si Si1 0.912625 0.409190 0.422171
Si Si2 0.821818 0.635402 0.246713
Si Si3 0.292821 0.939730 0.788679
Si Si4 0.466802 0.660029 0.855259
Si Si5 0.833890 0.089350 0.954497
Si Si6 0.308865 0.390400 0.512978
Si Si7 0.405105 0.865302 0.152751
O O1 0.897398 0.631402 0.348219
O O2 0.863168 0.240304 0.674679
O O3 0.000000 0.500000 0.500000
O O4 0.885127 0.259418 0.179153
O O5 0.762293 0.347814 0.226896
O O6 0.774176 0.682256 0.414740
O O7 0.837205 0.845124 0.002318
O O8 0.301335 0.130512 0.529749
O O9 0.251429 0.987014 0.986135
O O10 0.372054 0.974111 0.907341
O O11 0.384956 0.519395 0.704740
O O12 0.537122 0.904182 0.698950
O O13 0.500000 0.500000 0.000000
O O14 0.450746 0.759985 0.073749
O O15 0.332722 0.617647 0.285238
#
# Coordination Sequence:
#
# PCOD9012966 Si02
#       7
#     2   2   2   2   2   2   2
#     4  11  24  44  70 103 137 173 217 266 322 390
#     4  10  23  42  66  94 130 169 216 267 325 386
#     4  10  21  41  62  92 122 164 219 265 314 390
#     4  11  23  40  56  88 121 157 212 268 323 391
#     4  10  24  42  68 101 135 174 220 265 324 388
#     4  11  22  40  62  88 117 166 214 262 328 381
#     4  11  23  38  61  82 122 163 207 271 325 381
#
# _framework density 23.58493
#
# number of rings (size 3 to 8) (size 9 to 14) (size 15 to 20)
#    0.000    1.429    2.857    1.714    0.000    8.571 
#    0.000    0.000    0.000    0.000    0.000    0.000 
#    0.000    0.000    0.000    0.000    0.000    0.000 
#
# Total GULP energy -78107.100384 kJ/mol
# GULP energy per Si atom -5579.078599 kJ/mol
# Density = 2.353125 g / cm^3
# Si number density = 23.584930 Si / 1000 Ang^3
#
#
#
# Elastic Constant Matrix: (Units=GPa)
#
#
# Indices 1 2 3 4 5 6 
#
# 1 139.6794 25.1056 6.8515 0.4727 34.1725 -18.5844
# 2 25.1056 92.3738 32.6828 -10.4555 19.7090 -24.7818
# 3 6.8515 32.6828 73.1260 -3.5065 5.5844 -16.4340
# 4 0.4727 -10.4555 -3.5065 39.7027 3.0413 21.1701
# 5 34.1725 19.7090 5.5844 3.0413 31.2177 -14.2656
# 6 -18.5844 -24.7818 -16.4340 21.1701 -14.2656 38.4726
#
#
#
# Elastic Compliance Matrix: (Units=1/GPa)
#
#
# Indices 1 2 3 4 5 6 
#
# 1 0.009814 -0.000329 0.000170 0.000259 -0.010298 0.000640
# 2 -0.000329 0.015593 -0.005451 0.002147 -0.006989 0.003784
# 3 0.000170 -0.005451 0.017365 -0.004535 0.004279 0.008070
# 4 0.000259 0.002147 -0.004535 0.043824 -0.019641 -0.031827
# 5 -0.010298 -0.006989 0.004279 -0.019641 0.060574 0.025620
# 6 0.000640 0.003784 0.008070 -0.031827 0.025620 0.059200
#
#
# Mechanical properties :
#
#
# Convention : Reuss Voigt Hill
#
# Bulk Modulus (GPa) = 31.69415 48.27323 39.98369
# Shear Modulus (GPa) = 21.91961 37.91455 29.91708
#
# Velocity S-wave (km/s) = 3.05190 4.01381 3.56544
# Velocity P-wave (km/s) = 5.08785 6.48021 5.82578
#
# Compressibility (1/GPa) = 0.03155156
#
# Stress axis : x y z
#
# Youngs Moduli (GPa) = 101.89771 64.13115 57.58722
#
# Poissons Ratio (x) = 0.02111 -0.00981
# Poissons Ratio (y) = 0.03355 0.31392
# Poissons Ratio (z) = -0.01736 0.34960
#
# Static dielectric constant tensor:
#      x y z
#    x 1.935220 0.065630 -0.013870 
#    y 0.065630 1.995670 -0.032540 
#    z -0.013870 -0.032540 1.982820 
# 
# From -- ./inp_files/7665.got.cif
#   From: 2010.05.17/outbox.cif.g08.bks.cpg/sg2_4_cif.got.tgz:7665.got - 2010.06.03 11:33:40.
