data_PCOD9012161
_publ_section_title
;
Structure prediction by ZEFSAII (Michael W. Deem and Ramdas Pophale) SiO2 
 PCOD9012161
Probable space group: P -1
;
_chemical_formula_sum "Si O2"
_cell_formula_units_Z 16
_cell_length_a 14.239581
_cell_length_b 12.807934
_cell_length_c 12.627518
_cell_angle_alpha 33.611851
_cell_angle_beta 145.893657
_cell_angle_gamma 131.837753
_cell_volume 712.965190
_symmetry_space_group_name_H-M "P -1"
_symmetry_group_IT_number 2
_symmetry_cell_setting 'triclinic'
loop_
_space_group_symop_operation_xyz
x,y,z
-x,-y,-z
loop_
_atom_site_type_symbol
_atom_site_label
_atom_site_fract_x
_atom_site_fract_y
_atom_site_fract_z
Si Si1 0.064667 0.367508 0.982569
Si Si2 0.562038 0.589189 0.152435
Si Si3 0.566621 0.096849 0.376056
Si Si4 0.717128 0.429565 0.718036
Si Si5 0.492485 0.779912 0.150445
Si Si6 0.558977 0.718273 0.575071
Si Si7 0.056370 0.412564 0.513345
Si Si8 0.045156 0.966138 0.192570
O O1 0.909698 0.415922 0.875298
O O2 0.057322 0.514257 0.753351
O O3 0.249377 0.343015 0.226121
O O4 0.033714 0.165019 0.072929
O O5 0.523039 0.707527 0.910836
O O6 0.511317 0.725133 0.090899
O O7 0.466425 0.401890 0.240077
O O8 0.758727 0.530521 0.389267
O O9 0.545436 0.938564 0.400243
O O10 0.763394 0.119706 0.551887
O O11 0.500000 0.000000 0.500000
O O12 0.641843 0.647606 0.458142
O O13 0.673846 0.308477 0.883143
O O14 0.593509 0.336635 0.594870
O O15 0.500000 0.000000 0.000000
O O16 0.000000 0.500000 0.500000
O O17 0.063771 0.187112 0.725308
O O18 0.000000 0.000000 0.000000
#
# Coordination Sequence:
#
# PCOD9012161 Si02
#       8
#     2   2   2   2   2   2   2   2
#     4  11  23  42  64  94 126 173 213 264 321 378
#     4  11  24  43  65  92 131 172 208 272 322 378
#     4  11  25  38  61  93 125 171 217 264 318 378
#     4  10  22  42  68  93 127 167 214 267 324 382
#     4  10  21  40  68  98 123 167 216 262 328 387
#     4  10  23  42  64  93 132 166 216 267 316 386
#     4  12  24  38  63  91 128 173 214 258 320 382
#     4  11  24  39  59  90 127 169 218 262 312 382
#
# _framework density 22.441489000000001
#
# number of rings (size 3 to 8) (size 9 to 14) (size 15 to 20)
#    0.000    1.250    3.750    2.250    8.750    0.500 
#    0.000    5.625    0.000    5.250    0.000    0.000 
#    0.000    0.000    0.000    0.000    0.000    0.000 
#
# Total GULP energy -89475.417122 kJ/mol
# GULP energy per Si atom -5592.213570 kJ/mol
# Density = 2.239041 g / cm^3
# Si number density = 22.441489 Si / 1000 Ang^3
#
#
#
# Elastic Constant Matrix: (Units=GPa)
#
#
# Indices 1 2 3 4 5 6 
#
# 1 108.2162 15.0255 9.4579 5.6037 -7.2225 17.3182
# 2 15.0255 92.2920 20.6257 -15.1222 0.2355 0.9834
# 3 9.4579 20.6257 59.2521 -2.1499 -13.0765 1.5046
# 4 5.6037 -15.1222 -2.1499 39.3974 10.9423 1.8942
# 5 -7.2225 0.2355 -13.0765 10.9423 32.7081 6.5269
# 6 17.3182 0.9834 1.5046 1.8942 6.5269 37.5183
#
#
#
# Elastic Compliance Matrix: (Units=1/GPa)
#
#
# Indices 1 2 3 4 5 6 
#
# 1 0.010962 -0.002344 0.000141 -0.003512 0.004799 -0.005662
# 2 -0.002344 0.013472 -0.005269 0.006597 -0.005231 0.001517
# 3 0.000141 -0.005269 0.020839 -0.003589 0.010067 -0.002333
# 4 -0.003512 0.006597 -0.003589 0.031819 -0.013364 0.002310
# 5 0.004799 -0.005231 0.010067 -0.013364 0.041984 -0.009111
# 6 -0.005662 0.001517 -0.002333 0.002310 -0.009111 0.030789
#
#
# Mechanical properties :
#
#
# Convention : Reuss Voigt Hill
#
# Bulk Modulus (GPa) = 32.96950 38.88648 35.92799
# Shear Modulus (GPa) = 28.58470 36.23484 32.40977
#
# Velocity S-wave (km/s) = 3.57283 4.02261 3.80437
# Velocity P-wave (km/s) = 5.63412 6.24025 5.94492
#
# Compressibility (1/GPa) = 0.03033106
#
# Stress axis : x y z
#
# Youngs Moduli (GPa) = 91.22455 74.22592 47.98599
#
# Poissons Ratio (x) = 0.17395 -0.00678
# Poissons Ratio (y) = 0.21379 0.25285
# Poissons Ratio (z) = -0.01290 0.39111
#
# Static dielectric constant tensor:
#      x y z
#    x 1.828350 -0.617310 -0.007440 
#    y -0.617310 -1.043120 0.172190 
#    z -0.007440 0.172190 1.813030 
# 
# From -- ./inp_files/308844.got.cif
#   From: 2010.05.17/outbox.cif.g08.bks.cpg/sg2_155_cif.got.tgz:308844.got - 2010.06.03 11:33:40.
