data_PCOD9012479
_publ_section_title
;
Structure prediction by ZEFSAII (Michael W. Deem and Ramdas Pophale) SiO2 
 PCOD9012479
Probable space group: P -1
;
_chemical_formula_sum "Si O2"
_cell_formula_units_Z 16
_cell_length_a 9.660619
_cell_length_b 11.593358
_cell_length_c 9.353745
_cell_angle_alpha 90.737519
_cell_angle_beta 51.478893
_cell_angle_gamma 83.410559
_cell_volume 809.405176
_symmetry_space_group_name_H-M "P -1"
_symmetry_group_IT_number 2
_symmetry_cell_setting 'triclinic'
loop_
_space_group_symop_operation_xyz
x,y,z
-x,-y,-z
loop_
_atom_site_type_symbol
_atom_site_label
_atom_site_fract_x
_atom_site_fract_y
_atom_site_fract_z
Si Si1 0.851849 0.495591 0.715631
Si Si2 0.475737 0.879479 0.091306
Si Si3 0.042574 0.128879 0.961237
Si Si4 0.764227 0.273311 0.935685
Si Si5 0.166834 0.297302 0.052902
Si Si6 0.625826 0.640779 0.346127
Si Si7 0.467146 0.102938 0.633998
Si Si8 0.455982 0.434249 0.305369
O O1 0.838935 0.372290 0.796130
O O2 0.881830 0.591644 0.814911
O O3 0.663462 0.533276 0.756295
O O4 0.000000 0.500000 0.500000
O O5 0.338284 0.810592 0.096838
O O6 0.426459 0.917129 0.286612
O O7 0.658061 0.784422 0.993156
O O8 0.500000 0.000000 0.000000
O O9 0.255235 0.112593 0.800271
O O10 0.925091 0.194891 0.912960
O O11 0.020363 0.213296 0.116191
O O12 0.000000 0.000000 0.000000
O O13 0.622416 0.339519 0.143624
O O14 0.214108 0.345558 0.866225
O O15 0.507392 0.768974 0.432135
O O16 0.527161 0.546597 0.327572
O O17 0.658631 0.606483 0.489520
O O18 0.500000 0.000000 0.500000
#
# Coordination Sequence:
#
# PCOD9012479 Si02
#       8
#     2   2   2   2   2   2   2   2
#     4  12  26  40  64  99 135 171 215 268 331 391
#     4  10  21  40  70  94 119 176 223 260 330 386
#     4  10  24  43  65  95 127 169 220 266 325 382
#     4  12  23  42  71  94 133 173 214 277 329 386
#     4  10  21  44  63  89 139 163 215 268 325 388
#     4   9  21  38  66  95 119 169 218 258 321 392
#     4  10  23  42  65  89 132 166 214 269 318 379
#     4  11  22  40  69  94 127 165 222 264 325 391
#
# _framework density 19.767603999999999
#
# number of rings (size 3 to 8) (size 9 to 14) (size 15 to 20)
#    0.000    1.750    2.500    3.375    7.000    2.500 
#    2.250    0.625    0.000    0.000    0.000    0.000 
#    0.000    0.000    0.000    0.000    0.000    0.000 
#
# Total GULP energy -89221.922538 kJ/mol
# GULP energy per Si atom -5576.370159 kJ/mol
# Density = 1.972261 g / cm^3
# Si number density = 19.767604 Si / 1000 Ang^3
#
#
#
# Elastic Constant Matrix: (Units=GPa)
#
#
# Indices 1 2 3 4 5 6 
#
# 1 124.2400 63.9604 21.6172 -0.3843 21.8522 23.1380
# 2 63.9604 151.5960 51.2277 -7.3670 29.2166 30.0133
# 3 21.6172 51.2277 80.8819 3.6877 19.8665 15.0472
# 4 -0.3843 -7.3670 3.6877 30.3510 5.6517 12.9390
# 5 21.8522 29.2166 19.8665 5.6517 32.2637 8.8783
# 6 23.1380 30.0133 15.0472 12.9390 8.8783 41.7257
#
#
#
# Elastic Compliance Matrix: (Units=1/GPa)
#
#
# Indices 1 2 3 4 5 6 
#
# 1 0.011042 -0.003319 0.000792 0.001564 -0.004243 -0.003603
# 2 -0.003319 0.012239 -0.004666 0.007225 -0.005479 -0.006355
# 3 0.000792 -0.004666 0.016939 -0.001427 -0.006092 -0.001453
# 4 0.001564 0.007225 -0.001427 0.044006 -0.009719 -0.017128
# 5 -0.004243 -0.005479 -0.006092 -0.009719 0.043675 0.002211
# 6 -0.003603 -0.006355 -0.001453 -0.017128 0.002211 0.035900
#
#
# Mechanical properties :
#
#
# Convention : Reuss Voigt Hill
#
# Bulk Modulus (GPa) = 38.70860 70.03651 54.37255
# Shear Modulus (GPa) = 26.76689 35.52892 31.14790
#
# Velocity S-wave (km/s) = 3.68377 4.24409 3.97382
# Velocity P-wave (km/s) = 6.14149 7.71513 6.97285
#
# Compressibility (1/GPa) = 0.02583405
#
# Stress axis : x y z
#
# Youngs Moduli (GPa) = 90.56160 81.70732 59.03600
#
# Poissons Ratio (x) = 0.27122 -0.04679
# Poissons Ratio (y) = 0.30061 0.27546
# Poissons Ratio (z) = -0.07177 0.38124
#
# Static dielectric constant tensor:
#      x y z
#    x 1.702980 0.017840 0.003760 
#    y 0.017840 1.750690 0.002940 
#    z 0.003760 0.002940 1.755510 
# 
# From -- ./inp_files/187247.got.cif
#   From: 2010.05.17/outbox.cif.g08.bks.cpg/sg2_94_cif.got.tgz:187247.got - 2010.06.03 11:33:40.
