data_PCOD9012118
_publ_section_title
;
Structure prediction by ZEFSAII (Michael W. Deem and Ramdas Pophale) SiO2 
 PCOD9012118
Probable space group: P -1
;
_chemical_formula_sum "Si O2"
_cell_formula_units_Z 14
_cell_length_a 11.656014
_cell_length_b 11.538346
_cell_length_c 10.203023
_cell_angle_alpha 49.864717
_cell_angle_beta 149.346055
_cell_angle_gamma 116.417966
_cell_volume 513.301062
_symmetry_space_group_name_H-M "P -1"
_symmetry_group_IT_number 2
_symmetry_cell_setting 'triclinic'
loop_
_space_group_symop_operation_xyz
x,y,z
-x,-y,-z
loop_
_atom_site_type_symbol
_atom_site_label
_atom_site_fract_x
_atom_site_fract_y
_atom_site_fract_z
Si Si1 0.277784 0.739911 0.123991
Si Si2 0.153547 0.005614 0.020805
Si Si3 0.695377 0.710377 0.978833
Si Si4 0.825805 0.681398 0.664939
Si Si5 0.016364 0.450829 0.366800
Si Si6 0.283604 0.740613 0.689466
Si Si7 0.694823 0.041518 0.244895
O O1 0.206338 0.856800 0.839401
O O2 0.101949 0.625481 0.031390
O O3 0.246009 0.848174 0.143795
O O4 0.563343 0.666496 0.451601
O O5 0.327315 0.105453 0.161973
O O6 0.968418 0.131103 0.656427
O O7 0.000000 0.000000 0.000000
O O8 0.893308 0.639501 0.114546
O O9 0.814162 0.609279 0.298695
O O10 0.428665 0.700542 0.728018
O O11 0.868339 0.634555 0.587776
O O12 0.799179 0.868327 0.535791
O O13 0.776153 0.403082 0.194743
O O14 0.414481 0.831243 0.845866
O O15 0.500000 0.000000 0.000000
#
# Coordination Sequence:
#
# PCOD9012118 Si02
#       7
#     2   2   2   2   2   2   2
#     4  11  21  36  58  89 120 153 201 259 315 360
#     4  11  25  41  59  84 118 164 214 257 297 356
#     4  10  21  38  56  87 123 163 200 244 306 375
#     4  11  20  34  56  91 120 156 192 251 313 370
#     4  10  21  34  58  90 128 156 192 244 314 384
#     4  11  19  37  59  91 120 157 199 246 314 367
#     4  10  17  29  54  87 121 145 189 249 317 363
#
# _framework density 27.274443000000002
#
# number of rings (size 3 to 8) (size 9 to 14) (size 15 to 20)
#    0.000    1.429    2.857    6.000    0.000    0.571 
#    0.000    0.000    0.000    1.714    0.000    0.000 
#    0.000    0.000    0.000    0.000    0.000    0.000 
#
# Total GULP energy -78016.033439 kJ/mol
# GULP energy per Si atom -5572.573817 kJ/mol
# Density = 2.721236 g / cm^3
# Si number density = 27.274443 Si / 1000 Ang^3
#
#
#
# Elastic Constant Matrix: (Units=GPa)
#
#
# Indices 1 2 3 4 5 6 
#
# 1 126.4548 46.1758 22.1301 -12.9005 39.8449 -8.8565
# 2 46.1758 36.7914 33.0747 47.9465 12.8767 -38.7704
# 3 22.1301 33.0747 129.1654 -4.2913 32.6706 -7.2943
# 4 -12.9005 47.9465 -4.2913 0.9518 15.9578 39.7204
# 5 39.8449 12.8767 32.6706 15.9578 49.6111 -8.0061
# 6 -8.8565 -38.7704 -7.2943 39.7204 -8.0061 45.5634
#
#
#
# Elastic Compliance Matrix: (Units=1/GPa)
#
#
# Indices 1 2 3 4 5 6 
#
# 1 0.009421 0.000500 -0.000215 -0.003998 -0.005504 0.004740
# 2 0.000500 0.007044 -0.000022 0.012201 -0.007075 -0.005792
# 3 -0.000215 -0.000022 0.008992 -0.002520 -0.004482 0.002789
# 4 -0.003998 0.012201 -0.002520 0.001977 0.002341 0.007890
# 5 -0.005504 -0.007075 -0.004482 0.002341 0.027812 -0.004961
# 6 0.004740 -0.005792 0.002789 0.007890 -0.004961 0.010637
#
#
# Mechanical properties :
#
#
# Convention : Reuss Voigt Hill
#
# Bulk Modulus (GPa) = 38.48563 55.01922 46.75242
# Shear Modulus (GPa) = 67.55152 31.96067 49.75610
#
# Velocity S-wave (km/s) = 4.98208 3.42690 4.27579
# Velocity P-wave (km/s) = 6.87284 5.98952 6.44633
#
# Compressibility (1/GPa) = 0.02598373
#
# Stress axis : x y z
#
# Youngs Moduli (GPa) = 106.14034 141.97055 111.21106
#
# Poissons Ratio (x) = -0.07099 0.02393
# Poissons Ratio (y) = -0.05307 0.00240
# Poissons Ratio (z) = 0.02284 0.00306
#
# Static dielectric constant tensor:
#      x y z
#    x 2.113860 0.109260 -0.058130 
#    y 0.109260 2.264350 0.041250 
#    z -0.058130 0.041250 2.396510 
# 
# From -- ./inp_files/421839.got.cif
#   From: 2010.05.17/outbox.cif.g08.bks.cpg/sg2_211_cif.got.tgz:421839.got - 2010.06.03 11:33:40.
