data_PCOD9012631
_publ_section_title
;
Structure prediction by ZEFSAII (Michael W. Deem and Ramdas Pophale) SiO2 
 PCOD9012631
Probable space group: P -1
;
_chemical_formula_sum "Si O2"
_cell_formula_units_Z 14
_cell_length_a 5.113909
_cell_length_b 14.676183
_cell_length_c 12.897845
_cell_angle_alpha 44.278816
_cell_angle_beta 119.034874
_cell_angle_gamma 128.942597
_cell_volume 524.524048
_symmetry_space_group_name_H-M "P -1"
_symmetry_group_IT_number 2
_symmetry_cell_setting 'triclinic'
loop_
_space_group_symop_operation_xyz
x,y,z
-x,-y,-z
loop_
_atom_site_type_symbol
_atom_site_label
_atom_site_fract_x
_atom_site_fract_y
_atom_site_fract_z
Si Si1 0.464481 0.542487 0.841862
Si Si2 0.955665 0.696936 0.353285
Si Si3 0.068249 0.910476 0.378700
Si Si4 0.441495 0.714263 0.990334
Si Si5 0.675432 0.216271 0.307878
Si Si6 0.194996 0.586343 0.304752
Si Si7 0.235855 0.917666 0.923379
O O1 0.518062 0.709637 0.723858
O O2 0.077789 0.462020 0.796785
O O3 0.500000 0.500000 0.000000
O O4 0.609776 0.453112 0.872962
O O5 0.575702 0.658261 0.282469
O O6 0.903374 0.561981 0.527789
O O7 0.100682 0.839825 0.335017
O O8 0.152440 0.692682 0.293580
O O9 0.036747 0.795116 0.557666
O O10 0.404565 0.053913 0.355677
O O11 0.794372 0.966798 0.257084
O O12 0.235475 0.707044 0.849821
O O13 0.342504 0.808535 0.973193
O O14 0.845825 0.818040 0.965579
O O15 0.500000 0.000000 0.000000
#
# Coordination Sequence:
#
# PCOD9012631 Si02
#       7
#     2   2   2   2   2   2   2
#     4  10  21  42  72  95 139 172 227 270 329 392
#     4  10  22  40  65  96 130 170 213 280 322 392
#     4  10  21  40  72  93 139 169 224 273 333 388
#     4  10  24  43  66  94 130 174 219 270 322 385
#     4   9  20  44  67 102 128 178 225 273 329 392
#     4  10  22  40  64  97 130 167 223 262 336 381
#     4  11  25  43  65  97 132 174 216 264 334 395
#
# _framework density 26.690863
#
# number of rings (size 3 to 8) (size 9 to 14) (size 15 to 20)
#    0.000    2.000    1.429    0.429    4.000    2.857 
#    0.000   23.571    0.000    0.000    0.000    0.000 
#    0.000    0.000    0.000    0.000    0.000    0.000 
#
# Total GULP energy -78357.851307 kJ/mol
# GULP energy per Si atom -5596.989379 kJ/mol
# Density = 2.663011 g / cm^3
# Si number density = 26.690863 Si / 1000 Ang^3
#
#
#
# Elastic Constant Matrix: (Units=GPa)
#
#
# Indices 1 2 3 4 5 6 
#
# 1 102.1358 50.3114 8.6275 -6.4656 17.7621 -23.4157
# 2 50.3114 222.6411 48.9419 2.0732 17.5392 -27.6510
# 3 8.6275 48.9419 173.0903 13.9334 27.7813 -8.6495
# 4 -6.4656 2.0732 13.9334 57.4001 4.3726 12.4040
# 5 17.7621 17.5392 27.7813 4.3726 22.8232 -7.5869
# 6 -23.4157 -27.6510 -8.6495 12.4040 -7.5869 51.1977
#
#
#
# Elastic Compliance Matrix: (Units=1/GPa)
#
#
# Indices 1 2 3 4 5 6 
#
# 1 0.013271 -0.002168 0.001580 0.001181 -0.009666 0.003447
# 2 -0.002168 0.005519 -0.001272 -0.000514 -0.000291 0.001856
# 3 0.001580 -0.001272 0.007638 -0.000960 -0.009306 0.000180
# 4 0.001181 -0.000514 -0.000960 0.019317 -0.004816 -0.005293
# 5 -0.009666 -0.000291 -0.009306 -0.004816 0.065376 0.004704
# 6 0.003447 0.001856 0.000180 -0.005293 0.004704 0.024121
#
#
# Mechanical properties :
#
#
# Convention : Reuss Voigt Hill
#
# Bulk Modulus (GPa) = 44.03379 79.29209 61.66294
# Shear Modulus (GPa) = 34.12251 52.28328 43.20290
#
# Velocity S-wave (km/s) = 3.57940 4.43069 4.02760
# Velocity P-wave (km/s) = 5.79796 7.47975 6.69190
#
# Compressibility (1/GPa) = 0.02270983
#
# Stress axis : x y z
#
# Youngs Moduli (GPa) = 75.35038 181.18791 130.92340
#
# Poissons Ratio (x) = 0.39276 -0.20687
# Poissons Ratio (y) = 0.16334 0.16650
# Poissons Ratio (z) = -0.11906 0.23042
#
# Static dielectric constant tensor:
#      x y z
#    x 2.228380 0.013650 -0.120420 
#    y 0.013650 2.008140 -0.023220 
#    z -0.120420 -0.023220 2.226340 
# 
# From -- ./inp_files/482698.got.cif
#   From: 2010.05.17/outbox.cif.g08.bks.cpg/sg2_242_cif.got.tgz:482698.got - 2010.06.03 11:33:40.
