data_PCOD9012725
_publ_section_title
;
Structure prediction by ZEFSAII (Michael W. Deem and Ramdas Pophale) SiO2 
 PCOD9012725
Probable space group: P -1
;
_chemical_formula_sum "Si O2"
_cell_formula_units_Z 14
_cell_length_a 25.557106
_cell_length_b 13.662877
_cell_length_c 13.793160
_cell_angle_alpha 21.530143
_cell_angle_beta 25.239896
_cell_angle_gamma 24.626109
_cell_volume 679.680932
_symmetry_space_group_name_H-M "P -1"
_symmetry_group_IT_number 2
_symmetry_cell_setting 'triclinic'
loop_
_space_group_symop_operation_xyz
x,y,z
-x,-y,-z
loop_
_atom_site_type_symbol
_atom_site_label
_atom_site_fract_x
_atom_site_fract_y
_atom_site_fract_z
Si Si1 0.646031 0.233682 0.788829
Si Si2 0.085671 0.288037 0.964880
Si Si3 0.509964 0.700431 0.209568
Si Si4 0.051430 0.131908 0.440321
Si Si5 0.392944 0.139337 0.637999
Si Si6 0.817482 0.409608 0.915162
Si Si7 0.067369 0.135172 0.630128
O O1 0.595071 0.248076 0.750032
O O2 0.614368 0.555298 0.588012
O O3 0.808866 0.027848 0.706267
O O4 0.580050 0.081073 0.112924
O O5 0.243622 0.203982 0.787909
O O6 0.019100 0.513504 0.779032
O O7 0.000000 0.500000 0.000000
O O8 0.052959 0.006387 0.281767
O O9 0.500000 0.500000 0.500000
O O10 0.656800 0.543837 0.056247
O O11 0.500000 0.000000 0.000000
O O12 0.092794 0.042630 0.563202
O O13 0.500000 0.000000 0.500000
O O14 0.905771 0.294397 0.776078
O O15 0.865563 0.645443 0.660485
O O16 0.867265 0.137188 0.156332
#
# Coordination Sequence:
#
# PCOD9012725 Si02
#       7
#     2   2   2   2   2   2   2
#     4  12  24  43  68  93 130 170 213 267 315 388
#     4  12  23  42  65  90 125 159 205 266 306 369
#     4  12  25  41  66  96 131 169 210 259 318 387
#     4  12  22  39  69  94 119 161 218 253 316 366
#     4  12  27  45  65  95 132 172 212 267 327 377
#     4  10  21  41  59  88 132 159 205 255 311 360
#     4  10  22  38  64  91 121 165 204 261 305 372
#
# _framework density 20.597901
#
# number of rings (size 3 to 8) (size 9 to 14) (size 15 to 20)
#    0.000    0.571    2.857    6.000    0.000    2.286 
#    0.000    0.000    0.000    0.000    0.000    0.000 
#    0.000    0.000    0.000    0.000    0.000    0.000 
#
# Total GULP energy -78277.038935 kJ/mol
# GULP energy per Si atom -5591.217067 kJ/mol
# Density = 2.055102 g / cm^3
# Si number density = 20.597901 Si / 1000 Ang^3
#
#
#
# Elastic Constant Matrix: (Units=GPa)
#
#
# Indices 1 2 3 4 5 6 
#
# 1 89.2758 35.5677 37.6010 6.5055 12.1369 0.2913
# 2 35.5677 102.6302 49.0330 24.8165 -9.1383 -4.6182
# 3 37.6010 49.0330 125.9014 -7.4664 13.5121 -4.2128
# 4 6.5055 24.8165 -7.4664 48.6324 -2.3627 0.6836
# 5 12.1369 -9.1383 13.5121 -2.3627 29.2897 0.5009
# 6 0.2913 -4.6182 -4.2128 0.6836 0.5009 33.0445
#
#
#
# Elastic Compliance Matrix: (Units=1/GPa)
#
#
# Indices 1 2 3 4 5 6 
#
# 1 0.014867 -0.004908 -0.001831 -0.000084 -0.006838 -0.000945
# 2 -0.004908 0.018070 -0.007155 -0.009191 0.010202 0.001692
# 3 -0.001831 -0.007155 0.012342 0.005455 -0.006737 0.000579
# 4 -0.000084 -0.009191 0.005455 0.025959 -0.003237 -0.001076
# 5 -0.006838 0.010202 -0.006737 -0.003237 0.043004 0.000042
# 6 -0.000945 0.001692 0.000579 -0.001076 0.000042 0.030602
#
#
# Mechanical properties :
#
#
# Convention : Reuss Voigt Hill
#
# Bulk Modulus (GPa) = 57.17589 62.46787 59.82188
# Shear Modulus (GPa) = 28.01683 35.23370 31.62526
#
# Velocity S-wave (km/s) = 3.69206 4.14036 3.92262
# Velocity P-wave (km/s) = 6.78185 7.29726 7.04427
#
# Compressibility (1/GPa) = 0.01748989
#
# Stress axis : x y z
#
# Youngs Moduli (GPa) = 67.26390 55.33977 81.02339
#
# Poissons Ratio (x) = 0.27163 0.14837
# Poissons Ratio (y) = 0.33016 0.57972
# Poissons Ratio (z) = 0.12317 0.39596
#
# Static dielectric constant tensor:
#      x y z
#    x 1.739640 -0.007940 0.009040 
#    y -0.007940 1.749680 -0.010860 
#    z 0.009040 -0.010860 1.751830 
# 
# From -- ./inp_files/410085.got.cif
#   From: 2010.05.17/outbox.cif.g08.bks.cpg/sg2_206_cif.got.tgz:410085.got - 2010.06.03 11:33:40.
