data_PCOD9012110
_publ_section_title
;
Structure prediction by ZEFSAII (Michael W. Deem and Ramdas Pophale) SiO2 
 PCOD9012110
Probable space group: P -1
;
_chemical_formula_sum "Si O2"
_cell_formula_units_Z 16
_cell_length_a 8.845274
_cell_length_b 8.823882
_cell_length_c 18.778817
_cell_angle_alpha 45.368166
_cell_angle_beta 46.187321
_cell_angle_gamma 53.296155
_cell_volume 734.766366
_symmetry_space_group_name_H-M "P -1"
_symmetry_group_IT_number 2
_symmetry_cell_setting 'triclinic'
loop_
_space_group_symop_operation_xyz
x,y,z
-x,-y,-z
loop_
_atom_site_type_symbol
_atom_site_label
_atom_site_fract_x
_atom_site_fract_y
_atom_site_fract_z
Si Si1 0.085256 0.868505 0.612832
Si Si2 0.661020 0.719763 0.122427
Si Si3 0.559562 0.726707 0.002148
Si Si4 0.360063 0.946269 0.379907
Si Si5 0.738628 0.640240 0.285481
Si Si6 0.545524 0.258265 0.121658
Si Si7 0.022096 0.981583 0.899311
Si Si8 0.047322 0.756135 0.823672
O O1 0.279131 0.954647 0.484440
O O2 0.141214 0.609636 0.659290
O O3 0.071438 0.855974 0.706016
O O4 0.862769 0.010044 0.607165
O O5 0.626206 0.684293 0.229405
O O6 0.788871 0.474182 0.143536
O O7 0.495738 0.777059 0.090244
O O8 0.800320 0.908281 0.010110
O O9 0.529311 0.833308 0.897149
O O10 0.815753 0.700303 0.929848
O O11 0.474851 0.511905 0.078855
O O12 0.543985 0.733130 0.372300
O O13 0.468358 0.136259 0.253249
O O14 0.918833 0.788025 0.180218
O O15 0.802377 0.194161 0.056990
O O16 0.070217 0.928720 0.818807
#
# Coordination Sequence:
#
# PCOD9012110 Si02
#       8
#     2   2   2   2   2   2   2   2
#     4  10  21  39  65  79 112 159 195 238 297 338
#     4  10  18  33  54  86 120 157 188 227 293 358
#     4  10  17  29  54  86 119 146 188 235 287 345
#     4  10  21  39  60  85 114 150 202 241 282 345
#     4  10  22  35  61  87 117 147 201 239 285 343
#     4  10  18  30  54  88 117 146 191 244 280 335
#     4  10  18  33  54  84 125 149 189 239 287 349
#     4  10  17  33  58  85 113 157 195 227 292 350
#
# _framework density 21.775628000000001
#
# number of rings (size 3 to 8) (size 9 to 14) (size 15 to 20)
#    0.000    2.000    3.750    1.500    0.000    0.000 
#    0.000    5.000    8.250    1.500    0.000    0.000 
#    0.000    0.000    0.000    0.000    0.000    0.000 
#
# Total GULP energy -89075.306492 kJ/mol
# GULP energy per Si atom -5567.206656 kJ/mol
# Density = 2.172607 g / cm^3
# Si number density = 21.775628 Si / 1000 Ang^3
#
#
#
# Elastic Constant Matrix: (Units=GPa)
#
#
# Indices 1 2 3 4 5 6 
#
# 1 64.2858 -3.7275 6.5729 9.5136 9.3042 10.3660
# 2 -3.7275 31.3443 -2.8697 -4.8468 -9.6812 1.6245
# 3 6.5729 -2.8697 91.5730 11.2168 4.9181 8.4580
# 4 9.5136 -4.8468 11.2168 31.1411 -3.4649 4.3784
# 5 9.3042 -9.6812 4.9181 -3.4649 24.0784 -0.6751
# 6 10.3660 1.6245 8.4580 4.3784 -0.6751 21.0424
#
#
#
# Elastic Compliance Matrix: (Units=1/GPa)
#
#
# Indices 1 2 3 4 5 6 
#
# 1 0.018997 -0.000920 0.000609 -0.005954 -0.008932 -0.008580
# 2 -0.000920 0.038608 -0.000390 0.008851 0.017129 -0.003663
# 3 0.000609 -0.000390 0.011988 -0.004360 -0.003589 -0.004296
# 4 -0.005954 0.008851 -0.004360 0.038755 0.012224 -0.003670
# 5 -0.008932 0.017129 -0.003589 0.012224 0.054466 0.003724
# 6 -0.008580 -0.003663 -0.004296 -0.003670 0.003724 0.054643
#
#
# Mechanical properties :
#
#
# Convention : Reuss Voigt Hill
#
# Bulk Modulus (GPa) = 14.66456 20.79493 17.72974
# Shear Modulus (GPa) = 20.69631 27.73420 24.21525
#
# Velocity S-wave (km/s) = 3.08626 3.57267 3.33834
# Velocity P-wave (km/s) = 4.41010 5.15645 4.79781
#
# Compressibility (1/GPa) = 0.06819160
#
# Stress axis : x y z
#
# Youngs Moduli (GPa) = 52.63882 25.90153 83.41722
#
# Poissons Ratio (x) = 0.02383 -0.05081
# Poissons Ratio (y) = 0.04842 0.03252
# Poissons Ratio (z) = -0.03206 0.01010
#
# Static dielectric constant tensor:
#      x y z
#    x 1.864790 -0.074400 0.043490 
#    y -0.074400 1.945680 0.007160 
#    z 0.043490 0.007160 1.806060 
# 
# From -- ./inp_files/177360.got.cif
#   From: 2010.05.17/outbox.cif.g08.bks.cpg/sg2_89_cif.got.tgz:177360.got - 2010.06.03 11:33:40.
