data_PCOD9012014
_publ_section_title
;
Structure prediction by ZEFSAII (Michael W. Deem and Ramdas Pophale) SiO2 
 PCOD9012014
Probable space group: P -1
;
_chemical_formula_sum "Si O2"
_cell_formula_units_Z 12
_cell_length_a 24.260523
_cell_length_b 7.166455
_cell_length_c 10.473142
_cell_angle_alpha 134.385186
_cell_angle_beta 31.223895
_cell_angle_gamma 139.134166
_cell_volume 610.071077
_symmetry_space_group_name_H-M "P -1"
_symmetry_group_IT_number 2
_symmetry_cell_setting 'triclinic'
loop_
_space_group_symop_operation_xyz
x,y,z
-x,-y,-z
loop_
_atom_site_type_symbol
_atom_site_label
_atom_site_fract_x
_atom_site_fract_y
_atom_site_fract_z
Si Si1 0.313323 0.870650 0.555447
Si Si2 0.387890 0.376555 0.816887
Si Si3 0.698557 0.174582 0.740686
Si Si4 0.958955 0.605077 0.506351
Si Si5 0.425775 0.487520 0.267203
Si Si6 0.866467 0.077294 0.901841
O O1 0.323105 0.813268 0.361414
O O2 0.357903 0.683041 0.465815
O O3 0.387646 0.208233 0.606971
O O4 0.180371 0.804889 0.829529
O O5 0.488288 0.404509 0.729831
O O6 0.376016 0.675359 0.970434
O O7 0.258535 0.151651 0.020187
O O8 0.834618 0.361153 0.590804
O O9 0.658684 0.846137 0.701494
O O10 0.000000 0.500000 0.500000
O O11 0.055600 0.692115 0.244901
O O12 0.935846 0.888986 0.713822
O O13 0.500000 0.500000 0.000000
#
# Coordination Sequence:
#
# PCOD9012014 Si02
#       6
#     2   2   2   2   2   2
#     4  10  23  43  63  95 127 163 207 256 307 375
#     4   9  21  44  62  88 130 165 200 256 309 363
#     4  11  24  41  63  96 122 165 211 257 312 361
#     4  10  21  40  68  89 122 164 207 258 309 372
#     4  12  24  39  66  95 128 167 207 253 309 373
#     4   8  21  41  63  91 122 164 203 251 319 353
#
# _framework density 19.669837999999999
#
# number of rings (size 3 to 8) (size 9 to 14) (size 15 to 20)
#    1.000    1.000    1.667    1.000    2.333    4.000 
#    3.000    1.667    0.000    0.000    0.000    0.000 
#    0.000    0.000    0.000    0.000    0.000    0.000 
#
# Total GULP energy -66954.904514 kJ/mol
# GULP energy per Si atom -5579.575376 kJ/mol
# Density = 1.962507 g / cm^3
# Si number density = 19.669838 Si / 1000 Ang^3
#
#
#
# Elastic Constant Matrix: (Units=GPa)
#
#
# Indices 1 2 3 4 5 6 
#
# 1 84.7927 39.9635 -0.4336 7.2916 5.9156 5.2404
# 2 39.9635 88.4563 19.4794 4.1798 -1.7907 -11.7590
# 3 -0.4336 19.4794 59.4202 9.9084 -5.1682 2.5479
# 4 7.2916 4.1798 9.9084 32.4215 3.0838 -1.9169
# 5 5.9156 -1.7907 -5.1682 3.0838 19.1933 1.3494
# 6 5.2404 -11.7590 2.5479 -1.9169 1.3494 21.7195
#
#
#
# Elastic Compliance Matrix: (Units=1/GPa)
#
#
# Indices 1 2 3 4 5 6 
#
# 1 0.018009 -0.010386 0.004369 -0.004303 -0.003905 -0.010618
# 2 -0.010386 0.019380 -0.007350 0.002759 0.001602 0.014004
# 3 0.004369 -0.007350 0.021389 -0.007606 0.005551 -0.008559
# 4 -0.004303 0.002759 -0.007606 0.034811 -0.006543 0.006903
# 5 -0.003905 0.001602 0.005551 -0.006543 0.056205 -0.002911
# 6 -0.010618 0.014004 -0.008559 0.006903 -0.002911 0.057980
#
#
# Mechanical properties :
#
#
# Convention : Reuss Voigt Hill
#
# Bulk Modulus (GPa) = 31.20673 38.96532 35.08603
# Shear Modulus (GPa) = 20.39252 26.24417 23.31834
#
# Velocity S-wave (km/s) = 3.22334 3.65668 3.44683
# Velocity P-wave (km/s) = 5.45462 6.13849 5.80663
#
# Compressibility (1/GPa) = 0.03204437
#
# Stress axis : x y z
#
# Youngs Moduli (GPa) = 55.52642 51.60076 46.75347
#
# Poissons Ratio (x) = 0.53592 -0.20428
# Poissons Ratio (y) = 0.57669 0.34365
# Poissons Ratio (z) = -0.24261 0.37927
#
# Static dielectric constant tensor:
#      x y z
#    x 1.648940 0.028920 -0.014530 
#    y 0.028920 1.705250 0.003850 
#    z -0.014530 0.003850 1.745080 
# 
# From -- ./inp_files/91241.got.cif
#   From: 2010.05.17/outbox.cif.g08.bks.cpg/sg2_46_cif.got.tgz:91241.got - 2010.06.03 11:33:40.
