data_PCOD9012766
_publ_section_title
;
Structure prediction by ZEFSAII (Michael W. Deem and Ramdas Pophale) SiO2 
 PCOD9012766
Probable space group: P -1
;
_chemical_formula_sum "Si O2"
_cell_formula_units_Z 16
_cell_length_a 5.321591
_cell_length_b 21.260376
_cell_length_c 9.510769
_cell_angle_alpha 130.716566
_cell_angle_beta 54.669654
_cell_angle_gamma 124.271390
_cell_volume 634.599422
_symmetry_space_group_name_H-M "P -1"
_symmetry_group_IT_number 2
_symmetry_cell_setting 'triclinic'
loop_
_space_group_symop_operation_xyz
x,y,z
-x,-y,-z
loop_
_atom_site_type_symbol
_atom_site_label
_atom_site_fract_x
_atom_site_fract_y
_atom_site_fract_z
Si Si1 0.640130 0.028849 0.841266
Si Si2 0.492078 0.743445 0.091453
Si Si3 0.613243 0.929074 0.441630
Si Si4 0.311451 0.685031 0.354076
Si Si5 0.041920 0.497804 0.315769
Si Si6 0.325875 0.504678 0.819690
Si Si7 0.295430 0.301500 0.514835
Si Si8 0.757912 0.227857 0.076852
O O1 0.584859 0.122995 0.970524
O O2 0.015948 0.051706 0.703256
O O3 0.515334 0.946552 0.657324
O O4 0.500000 0.000000 0.000000
O O5 0.460732 0.831790 0.299625
O O6 0.360327 0.674845 0.157664
O O7 0.290541 0.732506 0.999600
O O8 0.872488 0.754768 0.969275
O O9 0.500000 0.000000 0.500000
O O10 0.167191 0.594721 0.351592
O O11 0.653417 0.726357 0.381912
O O12 0.039250 0.734544 0.514085
O O13 0.337056 0.456644 0.149556
O O14 0.000000 0.500000 0.500000
O O15 0.724200 0.457868 0.263916
O O16 0.331552 0.404409 0.652277
O O17 0.000000 0.500000 0.000000
O O18 0.573704 0.273540 0.307755
#
# Coordination Sequence:
#
# PCOD9012766 Si02
#       8
#     2   2   2   2   2   2   2   2
#     4  10  23  39  62  95 126 175 220 270 325 384
#     4  11  23  41  65  89 129 172 210 269 318 380
#     4  10  21  41  60  92 131 166 225 269 322 381
#     4  10  22  41  63  92 123 169 209 251 327 373
#     4  10  21  41  64  94 126 158 207 259 313 379
#     4  10  21  41  64  93 123 161 208 252 317 383
#     4  10  22  41  62  92 127 161 210 261 309 387
#     4  11  23  42  62  93 128 167 218 261 324 377
#
# _framework density 25.212751999999998
#
# number of rings (size 3 to 8) (size 9 to 14) (size 15 to 20)
#    0.000    1.750    1.250    2.250    1.750    1.500 
#    0.000   30.000    0.000    0.000    0.000    0.000 
#    0.000    0.000    0.000    0.000    0.000    0.000 
#
# Total GULP energy -89271.299650 kJ/mol
# GULP energy per Si atom -5579.456228 kJ/mol
# Density = 2.515537 g / cm^3
# Si number density = 25.212752 Si / 1000 Ang^3
#
#
#
# Elastic Constant Matrix: (Units=GPa)
#
#
# Indices 1 2 3 4 5 6 
#
# 1 159.8662 17.5772 28.0818 -2.6747 -7.4319 -45.1464
# 2 17.5772 96.3554 39.7841 0.2433 -8.0142 -15.8919
# 3 28.0818 39.7841 147.5821 -2.3502 -14.7688 -25.7910
# 4 -2.6747 0.2433 -2.3502 52.8185 -19.8540 8.2649
# 5 -7.4319 -8.0142 -14.7688 -19.8540 41.0262 -1.9552
# 6 -45.1464 -15.8919 -25.7910 8.2649 -1.9552 37.9461
#
#
#
# Elastic Compliance Matrix: (Units=1/GPa)
#
#
# Indices 1 2 3 4 5 6 
#
# 1 0.009680 0.000250 0.000433 -0.000537 0.002278 0.012150
# 2 0.000250 0.012123 -0.002491 -0.000134 0.001633 0.003795
# 3 0.000433 -0.002491 0.008649 0.000850 0.003371 0.005339
# 4 -0.000537 -0.000134 0.000850 0.024046 0.011592 -0.004757
# 5 0.002278 0.001633 0.003371 0.011592 0.032159 0.004817
# 6 0.012150 0.003795 0.005339 -0.004757 0.004817 0.047311
#
#
# Mechanical properties :
#
#
# Convention : Reuss Voigt Hill
#
# Bulk Modulus (GPa) = 37.26318 63.85443 50.55880
# Shear Modulus (GPa) = 34.12285 47.58220 40.85252
#
# Velocity S-wave (km/s) = 3.68284 4.34894 4.02968
# Velocity P-wave (km/s) = 5.73551 7.11329 6.46123
#
# Compressibility (1/GPa) = 0.02683614
#
# Stress axis : x y z
#
# Youngs Moduli (GPa) = 103.30927 82.48611 115.62050
#
# Poissons Ratio (x) = -0.02062 -0.05012
# Poissons Ratio (y) = -0.02582 0.28804
# Poissons Ratio (z) = -0.04478 0.20549
#
# Static dielectric constant tensor:
#      x y z
#    x 2.224320 0.122680 0.097620 
#    y 0.122680 2.076340 -0.013360 
#    z 0.097620 -0.013360 2.123800 
# 
# From -- ./inp_files/120089.got.cif
#   From: 2010.05.17/outbox.cif.g08.bks.cpg/sg2_61_cif.got.tgz:120089.got - 2010.06.03 11:33:40.
