data_PCOD9012790
_publ_section_title
;
Structure prediction by ZEFSAII (Michael W. Deem and Ramdas Pophale) SiO2 
 PCOD9012790
Probable space group: P -1
;
_chemical_formula_sum "Si O2"
_cell_formula_units_Z 16
_cell_length_a 13.416351
_cell_length_b 10.344964
_cell_length_c 15.797162
_cell_angle_alpha 54.002549
_cell_angle_beta 137.802488
_cell_angle_gamma 149.317515
_cell_volume 743.644625
_symmetry_space_group_name_H-M "P -1"
_symmetry_group_IT_number 2
_symmetry_cell_setting 'triclinic'
loop_
_space_group_symop_operation_xyz
x,y,z
-x,-y,-z
loop_
_atom_site_type_symbol
_atom_site_label
_atom_site_fract_x
_atom_site_fract_y
_atom_site_fract_z
Si Si1 0.211321 0.138974 0.645435
Si Si2 0.851775 0.679320 0.715803
Si Si3 0.078645 0.440579 0.841868
Si Si4 0.092960 0.782963 0.995347
Si Si5 0.422879 0.992292 0.771807
Si Si6 0.401421 0.802691 0.371349
Si Si7 0.409824 0.287999 0.357287
Si Si8 0.942190 0.906989 0.095504
O O1 0.366384 0.426813 0.648741
O O2 0.374196 0.133647 0.713085
O O3 0.000000 0.000000 0.500000
O O4 0.082433 0.958591 0.715012
O O5 0.739321 0.461608 0.662565
O O6 0.673471 0.670621 0.632478
O O7 0.935227 0.657945 0.860584
O O8 0.802852 0.241195 0.721359
O O9 0.230698 0.720327 0.802142
O O10 0.171663 0.363200 0.880263
O O11 0.060680 0.394577 0.949682
O O12 0.183834 0.042157 0.966669
O O13 0.319670 0.860941 0.099334
O O14 0.419430 0.983239 0.670432
O O15 0.520827 0.825040 0.519064
O O16 0.187667 0.099414 0.227611
O O17 0.000000 0.000000 0.000000
#
# Coordination Sequence:
#
# PCOD9012790 Si02
#       8
#     2   2   2   2   2   2   2   2
#     4  12  22  37  61  93 124 156 196 241 300 370
#     4  11  21  37  57  90 125 155 193 246 294 366
#     4  10  21  41  61  85 121 157 204 250 288 351
#     4   9  23  39  59  88 118 161 200 242 304 349
#     4  11  22  37  59  91 122 160 193 248 301 351
#     4  11  21  38  58  91 121 156 195 244 304 358
#     4  11  22  40  64  86 123 164 193 246 304 346
#     4   9  21  44  64  83 116 161 207 247 289 352
#
# _framework density 21.515653
#
# number of rings (size 3 to 8) (size 9 to 14) (size 15 to 20)
#    0.000    1.500    3.750    1.125    0.000    6.500 
#    2.250    6.875    0.000    0.000    0.000    0.000 
#    0.000    0.000    0.000    0.000    0.000    0.000 
#
# Total GULP energy -89406.949421 kJ/mol
# GULP energy per Si atom -5587.934339 kJ/mol
# Density = 2.146668 g / cm^3
# Si number density = 21.515653 Si / 1000 Ang^3
#
#
#
# Elastic Constant Matrix: (Units=GPa)
#
#
# Indices 1 2 3 4 5 6 
#
# 1 62.3457 17.0046 23.7059 -5.8574 13.3007 1.0399
# 2 17.0046 65.5544 24.5772 -24.0485 -9.8775 22.0031
# 3 23.7059 24.5772 136.1135 -15.3049 8.3127 3.1650
# 4 -5.8574 -24.0485 -15.3049 26.8619 -1.3140 -3.6772
# 5 13.3007 -9.8775 8.3127 -1.3140 24.1108 -4.6663
# 6 1.0399 22.0031 3.1650 -3.6772 -4.6663 31.2285
#
#
#
# Elastic Compliance Matrix: (Units=1/GPa)
#
#
# Indices 1 2 3 4 5 6 
#
# 1 0.022569 -0.011493 -0.001709 -0.006533 -0.016084 0.004347
# 2 -0.011493 0.040973 -0.002765 0.030735 0.021620 -0.021356
# 3 -0.001709 -0.002765 0.008519 0.001998 -0.002834 0.000953
# 4 -0.006533 0.030735 0.001998 0.063681 0.016724 -0.011643
# 5 -0.016084 0.021620 -0.002834 0.016724 0.060433 -0.003411
# 6 0.004347 -0.021356 0.000953 -0.011643 -0.003411 0.044947
#
#
# Mechanical properties :
#
#
# Convention : Reuss Voigt Hill
#
# Bulk Modulus (GPa) = 24.91985 43.84321 34.38153
# Shear Modulus (GPa) = 17.45614 29.68862 23.57238
#
# Velocity S-wave (km/s) = 2.85146 3.71868 3.31356
# Velocity P-wave (km/s) = 4.73798 6.23375 5.53661
#
# Compressibility (1/GPa) = 0.04012865
#
# Stress axis : x y z
#
# Youngs Moduli (GPa) = 44.30843 24.40631 117.38216
#
# Poissons Ratio (x) = 0.28050 0.20060
# Poissons Ratio (y) = 0.50923 0.32451
# Poissons Ratio (z) = 0.07572 0.06747
#
# Static dielectric constant tensor:
#      x y z
#    x 1.811530 -0.023340 0.017920 
#    y -0.023340 1.803780 -0.024630 
#    z 0.017920 -0.024630 1.781090 
# 
# From -- ./inp_files/454921.got.cif
#   From: 2010.05.17/outbox.cif.g08.bks.cpg/sg2_228_cif.got.tgz:454921.got - 2010.06.03 11:33:40.
