data_PCOD9012274
_publ_section_title
;
Structure prediction by ZEFSAII (Michael W. Deem and Ramdas Pophale) SiO2 
 PCOD9012274
Probable space group: P -1
;
_chemical_formula_sum "Si O2"
_cell_formula_units_Z 13
_cell_length_a 5.361889
_cell_length_b 19.923036
_cell_length_c 5.387952
_cell_angle_alpha 119.397718
_cell_angle_beta 85.222441
_cell_angle_gamma 96.716701
_cell_volume 497.790103
_symmetry_space_group_name_H-M "P -1"
_symmetry_group_IT_number 2
_symmetry_cell_setting 'triclinic'
loop_
_space_group_symop_operation_xyz
x,y,z
-x,-y,-z
loop_
_atom_site_type_symbol
_atom_site_label
_atom_site_fract_x
_atom_site_fract_y
_atom_site_fract_z
Si Si1 0.475293 0.947966 0.160916
Si Si2 0.018243 0.089800 0.082786
Si Si3 0.582847 0.717519 0.000625
Si Si4 0.785977 0.364326 0.791020
Si Si5 0.521344 0.566942 0.417973
Si Si6 0.087675 0.783001 0.293921
Si Si7 0.000000 0.500000 0.000000
O O1 0.500000 0.000000 0.500000
O O2 0.702586 0.894219 0.016564
O O3 0.198487 0.905178 0.092084
O O4 0.500000 0.000000 0.000000
O O5 0.955418 0.140181 0.414628
O O6 0.000000 0.000000 0.000000
O O7 0.492014 0.664940 0.150768
O O8 0.855754 0.758728 0.091678
O O9 0.357346 0.774371 0.129279
O O10 0.556787 0.654772 0.673860
O O11 0.747714 0.430839 0.708883
O O12 0.913834 0.285578 0.619386
O O13 0.925478 0.424120 0.075580
O O14 0.500000 0.500000 0.500000
O O15 0.762227 0.548934 0.209677
#
# Coordination Sequence:
#
# PCOD9012274 Si02
#       7
#     2   2   2   2   2   2   1
#     4  10  21  40  69 106 143 181 237 302 364 433
#     4  10  21  41  74 102 142 184 238 301 360 437
#     4  10  24  44  69  95 142 183 233 290 361 427
#     4  10  25  41  65  98 136 177 231 291 351 427
#     4  12  25  42  68 104 132 188 237 300 358 431
#     4  10  22  46  68  97 146 181 232 295 354 434
#     4  12  24  42  72  92 144 170 248 288 360 422
#
# _framework density 26.115424000000001
#
# number of rings (size 3 to 8) (size 9 to 14) (size 15 to 20)
#    0.923    0.615    1.538    2.769    4.308    0.615 
#    0.000    9.231    0.000    0.000    0.000    0.000 
#    0.000    0.000    0.000    0.000    0.000    0.000 
#
# Total GULP energy -72439.505560 kJ/mol
# GULP energy per Si atom -5572.269658 kJ/mol
# Density = 2.605598 g / cm^3
# Si number density = 26.115424 Si / 1000 Ang^3
#
#
#
# Elastic Constant Matrix: (Units=GPa)
#
#
# Indices 1 2 3 4 5 6 
#
# 1 241.7378 36.5648 75.1556 6.4500 -17.3255 5.3403
# 2 36.5648 98.6243 25.7063 4.7748 -13.1595 -20.0291
# 3 75.1556 25.7063 204.0019 28.9000 -20.6025 -13.0867
# 4 6.4500 4.7748 28.9000 46.4477 -8.6299 -3.4665
# 5 -17.3255 -13.1595 -20.6025 -8.6299 45.7155 10.6612
# 6 5.3403 -20.0291 -13.0867 -3.4665 10.6612 43.4065
#
#
#
# Elastic Compliance Matrix: (Units=1/GPa)
#
#
# Indices 1 2 3 4 5 6 
#
# 1 0.005066 -0.001732 -0.001752 0.000635 0.001267 -0.002211
# 2 -0.001732 0.012164 -0.000395 -0.000105 0.001398 0.005355
# 3 -0.001752 -0.000395 0.006266 -0.003307 0.001098 0.001389
# 4 0.000635 -0.000105 -0.003307 0.024118 0.003273 -0.000001
# 5 0.001267 0.001398 0.001098 0.003273 0.025053 -0.005072
# 6 -0.002211 0.005355 0.001389 -0.000001 -0.005072 0.027445
#
#
# Mechanical properties :
#
#
# Convention : Reuss Voigt Hill
#
# Bulk Modulus (GPa) = 63.54455 91.02416 77.28435
# Shear Modulus (GPa) = 44.20256 54.24310 49.22283
#
# Velocity S-wave (km/s) = 4.11857 4.56241 4.34616
# Velocity P-wave (km/s) = 6.85579 7.91735 7.40561
#
# Compressibility (1/GPa) = 0.01573699
#
# Stress axis : x y z
#
# Youngs Moduli (GPa) = 197.38783 82.21053 159.60285
#
# Poissons Ratio (x) = 0.14242 0.27962
# Poissons Ratio (y) = 0.34195 0.06304
# Poissons Ratio (z) = 0.34581 0.03247
#
# Static dielectric constant tensor:
#      x y z
#    x 2.360170 0.017370 0.350180 
#    y 0.017370 2.053470 0.036150 
#    z 0.350180 0.036150 2.308270 
# 
# From -- ./inp_files/13791.got.cif
#   From: 2010.05.17/outbox.cif.g08.bks.cpg/sg2_7_cif.got.tgz:13791.got - 2010.06.03 11:33:40.
