data_PCOD9012911
_publ_section_title
;
Structure prediction by ZEFSAII (Michael W. Deem and Ramdas Pophale) SiO2 
 PCOD9012911
Probable space group: P -1
;
_chemical_formula_sum "Si O2"
_cell_formula_units_Z 16
_cell_length_a 6.969859
_cell_length_b 8.295487
_cell_length_c 12.021017
_cell_angle_alpha 103.178409
_cell_angle_beta 73.273416
_cell_angle_gamma 120.402747
_cell_volume 571.238040
_symmetry_space_group_name_H-M "P -1"
_symmetry_group_IT_number 2
_symmetry_cell_setting 'triclinic'
loop_
_space_group_symop_operation_xyz
x,y,z
-x,-y,-z
loop_
_atom_site_type_symbol
_atom_site_label
_atom_site_fract_x
_atom_site_fract_y
_atom_site_fract_z
Si Si1 0.903409 0.634289 0.586606
Si Si2 0.238023 0.194382 0.906158
Si Si3 0.824703 0.509114 0.153240
Si Si4 0.738025 0.694382 0.406157
Si Si5 0.403411 0.134290 0.086606
Si Si6 0.251527 0.557423 0.187722
Si Si7 0.751525 0.057422 0.687722
Si Si8 0.324700 0.009113 0.653241
O O1 0.000000 0.500000 0.500000
O O2 0.723339 0.633563 0.526697
O O3 0.794561 0.564525 0.713945
O O4 0.120983 0.834835 0.601090
O O5 0.100881 0.292522 0.890825
O O6 0.497157 0.368490 0.886521
O O7 0.244092 0.044938 0.794037
O O8 0.223340 0.133564 0.026698
O O9 0.744095 0.544939 0.294036
O O10 0.620986 0.334835 0.101089
O O11 0.035409 0.467251 0.128981
O O12 0.600884 0.792523 0.390824
O O13 0.997160 0.868489 0.386521
O O14 0.294563 0.064527 0.213946
O O15 0.500000 0.000000 0.000000
O O16 0.250002 0.750001 0.249999
O O17 0.535406 0.967251 0.628981
#
# Coordination Sequence:
#
# PCOD9012911 Si02
#       8
#     2   2   2   2   2   2   2   2
#     4  12  22  39  65  91 122 160 202 246 300 361
#     4  10  23  44  61  89 126 153 204 253 292 359
#     4  10  22  41  65  88 122 162 196 251 303 348
#     4  10  23  44  61  89 126 153 204 253 292 359
#     4  12  22  39  65  91 122 160 202 246 300 361
#     4  10  21  41  62  89 122 158 202 246 300 356
#     4  10  21  41  62  89 122 158 202 246 300 356
#     4  10  22  41  65  88 122 162 196 251 303 348
#
# _framework density 28.009339000000001
#
# number of rings (size 3 to 8) (size 9 to 14) (size 15 to 20)
#    0.000    1.500    5.000    1.500    0.000    2.000 
#    0.000   13.750    0.000    0.000    0.000    0.000 
#    0.000    0.000    0.000    0.000    0.000    0.000 
#
# Total GULP energy -89841.962231 kJ/mol
# GULP energy per Si atom -5615.122639 kJ/mol
# Density = 2.794559 g / cm^3
# Si number density = 28.009339 Si / 1000 Ang^3
#
#
#
# Elastic Constant Matrix: (Units=GPa)
#
#
# Indices 1 2 3 4 5 6 
#
# 1 111.2234 13.4542 32.9689 5.4540 37.8906 -5.5978
# 2 13.4542 95.3041 21.8618 24.8181 14.8062 -5.2651
# 3 32.9689 21.8618 124.0979 5.1922 28.7908 -15.9478
# 4 5.4540 24.8181 5.1922 66.6637 -6.1170 21.1201
# 5 37.8906 14.8062 28.7908 -6.1170 61.1832 0.7330
# 6 -5.5978 -5.2651 -15.9478 21.1201 0.7330 35.1277
#
#
#
# Elastic Compliance Matrix: (Units=1/GPa)
#
#
# Indices 1 2 3 4 5 6 
#
# 1 0.012089 0.000653 -0.001013 -0.002949 -0.007505 0.003494
# 2 0.000653 0.013479 -0.000391 -0.007513 -0.004312 0.006554
# 3 -0.001013 -0.000391 0.010405 -0.003035 -0.004555 0.006424
# 4 -0.002949 -0.007513 -0.003035 0.024682 0.007755 -0.017975
# 5 -0.007505 -0.004312 -0.004555 0.007755 0.025063 -0.009096
# 6 0.003494 0.006554 0.006424 -0.017975 -0.009096 0.043920
#
#
# Mechanical properties :
#
#
# Convention : Reuss Voigt Hill
#
# Bulk Modulus (GPa) = 29.01088 51.91058 40.46073
# Shear Modulus (GPa) = 35.05531 50.08428 42.56980
#
# Velocity S-wave (km/s) = 3.54157 4.23321 3.90275
# Velocity P-wave (km/s) = 5.20612 6.51667 5.89791
#
# Compressibility (1/GPa) = 0.03446983
#
# Stress axis : x y z
#
# Youngs Moduli (GPa) = 82.71709 74.19172 96.10371
#
# Poissons Ratio (x) = -0.04841 0.09738
# Poissons Ratio (y) = -0.05397 0.03758
# Poissons Ratio (z) = 0.08382 0.02901
#
# Static dielectric constant tensor:
#      x y z
#    x 2.222710 0.008060 0.050990 
#    y 0.008060 2.142900 -0.032140 
#    z 0.050990 -0.032140 2.207120 
# 
# From -- ./inp_files/382326.got.cif
#   From: 2010.05.17/outbox.cif.g08.bks.cpg/sg2_192_cif.got.tgz:382326.got - 2010.06.03 11:33:40.
