data_PCOD9012918
_publ_section_title
;
Structure prediction by ZEFSAII (Michael W. Deem and Ramdas Pophale) SiO2 
 PCOD9012918
Probable space group: P -1
;
_chemical_formula_sum "Si O2"
_cell_formula_units_Z 12
_cell_length_a 6.746117
_cell_length_b 12.180144
_cell_length_c 11.144014
_cell_angle_alpha 40.956646
_cell_angle_beta 106.554290
_cell_angle_gamma 127.417653
_cell_volume 449.313821
_symmetry_space_group_name_H-M "P -1"
_symmetry_group_IT_number 2
_symmetry_cell_setting 'triclinic'
loop_
_space_group_symop_operation_xyz
x,y,z
-x,-y,-z
loop_
_atom_site_type_symbol
_atom_site_label
_atom_site_fract_x
_atom_site_fract_y
_atom_site_fract_z
Si Si1 0.384808 0.499483 0.745084
Si Si2 0.820948 0.090798 0.757803
Si Si3 0.384819 0.013991 0.594175
Si Si4 0.686366 0.821660 0.192412
Si Si5 0.102915 0.540894 0.321805
Si Si6 0.865299 0.584089 0.836737
O O1 0.369334 0.383747 0.715914
O O2 0.082067 0.397638 0.798605
O O3 0.529726 0.752391 0.559481
O O4 0.557668 0.478123 0.886268
O O5 0.057778 0.085197 0.758250
O O6 0.952182 0.337998 0.552229
O O7 0.766119 0.989675 0.962777
O O8 0.071026 0.836303 0.689898
O O9 0.500000 0.000000 0.500000
O O10 0.535607 0.966713 0.751244
O O11 0.398147 0.728565 0.264274
O O12 0.120659 0.450742 0.273341
O O13 0.000000 0.500000 0.000000
#
# Coordination Sequence:
#
# PCOD9012918 Si02
#       6
#     2   2   2   2   2   2
#     4  10  22  39  65  90 123 166 209 256 311 370
#     4  10  21  41  66  88 128 166 204 265 307 368
#     4  11  20  39  62  88 127 165 205 248 312 371
#     4  10  22  42  65  93 122 163 216 259 308 363
#     4  10  21  41  62  89 126 163 205 261 312 367
#     4  11  22  40  62  91 128 163 209 258 308 375
#
# _framework density 26.707391000000001
#
# number of rings (size 3 to 8) (size 9 to 14) (size 15 to 20)
#    0.000    1.667    3.333    3.000    0.000    3.333 
#    3.000   10.000    0.000    0.000    0.000    0.000 
#    0.000    0.000    0.000    0.000    0.000    0.000 
#
# Total GULP energy -67094.409326 kJ/mol
# GULP energy per Si atom -5591.200777 kJ/mol
# Density = 2.664660 g / cm^3
# Si number density = 26.707391 Si / 1000 Ang^3
#
#
#
# Elastic Constant Matrix: (Units=GPa)
#
#
# Indices 1 2 3 4 5 6 
#
# 1 134.6637 42.6292 33.8784 7.8054 5.4112 47.9784
# 2 42.6292 107.2876 32.8818 5.6152 16.5279 33.0744
# 3 33.8784 32.8818 116.7798 8.4629 20.8016 1.1496
# 4 7.8054 5.6152 8.4629 45.2681 5.7224 15.4764
# 5 5.4112 16.5279 20.8016 5.7224 42.0652 5.6853
# 6 47.9784 33.0744 1.1496 15.4764 5.6853 74.1386
#
#
#
# Elastic Compliance Matrix: (Units=1/GPa)
#
#
# Indices 1 2 3 4 5 6 
#
# 1 0.010940 -0.001683 -0.002968 0.000944 0.001484 -0.006594
# 2 -0.001683 0.012554 -0.002549 0.001119 -0.003003 -0.004476
# 3 -0.002968 -0.002549 0.011010 -0.001925 -0.004288 0.003618
# 4 0.000944 0.001119 -0.001925 0.024478 -0.002124 -0.006027
# 5 0.001484 -0.003003 -0.004288 -0.002124 0.027334 -0.001207
# 6 -0.006594 -0.004476 0.003618 -0.006027 -0.001207 0.021047
#
#
# Mechanical properties :
#
#
# Convention : Reuss Voigt Hill
#
# Bulk Modulus (GPa) = 49.73815 64.16775 56.95295
# Shear Modulus (GPa) = 38.92147 48.91719 43.91933
#
# Velocity S-wave (km/s) = 3.82164 4.28436 4.05960
# Velocity P-wave (km/s) = 6.17552 6.96798 6.58368
#
# Compressibility (1/GPa) = 0.02010529
#
# Stress axis : x y z
#
# Youngs Moduli (GPa) = 91.40582 79.65412 90.83021
#
# Poissons Ratio (x) = 0.13402 0.26958
# Poissons Ratio (y) = 0.15379 0.23152
# Poissons Ratio (z) = 0.27129 0.20303
#
# Static dielectric constant tensor:
#      x y z
#    x 2.173160 -0.017720 0.012630 
#    y -0.017720 2.112710 -0.012880 
#    z 0.012630 -0.012880 2.081070 
# 
# From -- ./inp_files/561884.got.cif
#   From: 2010.05.17/outbox.cif.g08.bks.cpg/sg2_281_cif.got.tgz:561884.got - 2010.06.03 11:33:40.
