data_PCOD9012156
_publ_section_title
;
Structure prediction by ZEFSAII (Michael W. Deem and Ramdas Pophale) SiO2 
 PCOD9012156
Probable space group: P -1
;
_chemical_formula_sum "Si O2"
_cell_formula_units_Z 14
_cell_length_a 13.804424
_cell_length_b 11.763213
_cell_length_c 9.196291
_cell_angle_alpha 107.758416
_cell_angle_beta 89.368189
_cell_angle_gamma 29.544454
_cell_volume 566.966168
_symmetry_space_group_name_H-M "P -1"
_symmetry_group_IT_number 2
_symmetry_cell_setting 'triclinic'
loop_
_space_group_symop_operation_xyz
x,y,z
-x,-y,-z
loop_
_atom_site_type_symbol
_atom_site_label
_atom_site_fract_x
_atom_site_fract_y
_atom_site_fract_z
Si Si1 0.069767 0.461687 0.644341
Si Si2 0.830326 0.799590 0.190992
Si Si3 0.674959 0.201755 0.450558
Si Si4 0.742136 0.507039 0.332440
Si Si5 0.315903 0.520572 0.993240
Si Si6 0.439696 0.929646 0.967540
Si Si7 0.179785 0.917883 0.280980
O O1 0.146600 0.265210 0.667454
O O2 0.273421 0.332874 0.598521
O O3 0.000000 0.500000 0.500000
O O4 0.824760 0.792325 0.848515
O O5 0.856381 0.915266 0.237455
O O6 0.588792 0.063165 0.199443
O O7 0.000000 0.500000 0.000000
O O8 0.500000 0.500000 0.500000
O O9 0.483827 0.317785 0.551875
O O10 0.808768 0.098134 0.551291
O O11 0.789140 0.416421 0.128733
O O12 0.954652 0.238543 0.337986
O O13 0.575155 0.290584 0.855443
O O14 0.378987 0.353054 0.050815
O O15 0.168818 0.797348 0.168713
O O16 0.500000 0.000000 0.000000
#
# Coordination Sequence:
#
# PCOD9012156 Si02
#       7
#     2   2   2   2   2   2   2
#     4  11  24  43  70  97 139 187 240 293 345 427
#     4  10  24  45  67 100 142 187 230 290 359 419
#     4  11  25  45  70 102 142 185 235 294 358 421
#     4  11  23  41  70 101 134 186 238 293 352 421
#     4  10  21  40  68  97 138 180 233 285 356 420
#     4  11  23  42  64  99 138 179 233 295 349 412
#     4  10  21  42  66 100 135 181 235 292 340 427
#
# _framework density 24.692831999999999
#
# number of rings (size 3 to 8) (size 9 to 14) (size 15 to 20)
#    0.000    1.429    1.429    3.000    4.000    1.143 
#   10.286    0.000    0.000    0.000    0.000    0.000 
#    0.000    0.000    0.000    0.000    0.000    0.000 
#
# Total GULP energy -78265.315821 kJ/mol
# GULP energy per Si atom -5590.379701 kJ/mol
# Density = 2.463663 g / cm^3
# Si number density = 24.692832 Si / 1000 Ang^3
#
#
#
# Elastic Constant Matrix: (Units=GPa)
#
#
# Indices 1 2 3 4 5 6 
#
# 1 107.0891 26.7975 38.3015 -7.1464 21.9363 14.5366
# 2 26.7975 183.3005 60.9225 -22.1799 20.5974 25.7326
# 3 38.3015 60.9225 118.5084 -30.7816 28.8653 5.8029
# 4 -7.1464 -22.1799 -30.7816 56.9527 -11.1204 9.9493
# 5 21.9363 20.5974 28.8653 -11.1204 51.5140 2.8839
# 6 14.5366 25.7326 5.8029 9.9493 2.8839 50.5221
#
#
#
# Elastic Compliance Matrix: (Units=1/GPa)
#
#
# Indices 1 2 3 4 5 6 
#
# 1 0.011347 -0.000018 -0.002826 -0.000252 -0.003145 -0.002702
# 2 -0.000018 0.007224 -0.002914 0.001742 -0.000668 -0.003645
# 3 -0.002826 -0.002914 0.013040 0.004780 -0.003911 0.000082
# 4 -0.000252 0.001742 0.004780 0.022168 0.001844 -0.005835
# 5 -0.003145 -0.000668 -0.003911 0.001844 0.023609 -0.000017
# 6 -0.002702 -0.003645 0.000082 -0.005835 -0.000017 0.023568
#
#
# Mechanical properties :
#
#
# Convention : Reuss Voigt Hill
#
# Bulk Modulus (GPa) = 49.76035 73.43788 61.59912
# Shear Modulus (GPa) = 41.95671 50.65619 46.30645
#
# Velocity S-wave (km/s) = 4.12654 4.53421 4.33517
# Velocity P-wave (km/s) = 6.54980 7.56421 7.07521
#
# Compressibility (1/GPa) = 0.02009632
#
# Stress axis : x y z
#
# Youngs Moduli (GPa) = 88.12765 138.42161 76.68754
#
# Poissons Ratio (x) = 0.00243 0.21668
# Poissons Ratio (y) = 0.00155 0.22350
# Poissons Ratio (z) = 0.24901 0.40343
#
# Static dielectric constant tensor:
#      x y z
#    x 1.940190 -0.027870 -0.145080 
#    y -0.027870 2.169380 0.203680 
#    z -0.145080 0.203680 2.100290 
# 
# From -- ./inp_files/308048.got.cif
#   From: 2010.05.17/outbox.cif.g08.bks.cpg/sg2_155_cif.got.tgz:308048.got - 2010.06.03 11:33:40.
