data_PCOD9012693
_publ_section_title
;
Structure prediction by ZEFSAII (Michael W. Deem and Ramdas Pophale) SiO2 
 PCOD9012693
Probable space group: P -1
;
_chemical_formula_sum "Si O2"
_cell_formula_units_Z 14
_cell_length_a 7.285761
_cell_length_b 7.290631
_cell_length_c 20.994773
_cell_angle_alpha 124.610465
_cell_angle_beta 131.116337
_cell_angle_gamma 40.622623
_cell_volume 541.588194
_symmetry_space_group_name_H-M "P -1"
_symmetry_group_IT_number 2
_symmetry_cell_setting 'triclinic'
loop_
_space_group_symop_operation_xyz
x,y,z
-x,-y,-z
loop_
_atom_site_type_symbol
_atom_site_label
_atom_site_fract_x
_atom_site_fract_y
_atom_site_fract_z
Si Si1 0.447211 0.051443 0.119472
Si Si2 0.145565 0.714771 0.438479
Si Si3 0.719347 0.072407 0.311276
Si Si4 0.971333 0.389349 0.404424
Si Si5 0.269994 0.070600 0.292737
Si Si6 0.439354 0.517177 0.824624
Si Si7 0.188366 0.519875 0.990465
O O1 0.609222 0.978592 0.210381
O O2 0.506562 0.265311 0.147144
O O3 0.075749 0.231122 0.066804
O O4 0.610410 0.777335 0.058628
O O5 0.500000 0.500000 0.500000
O O6 0.482206 0.144990 0.327522
O O7 0.000000 0.000000 0.500000
O O8 0.058234 0.817077 0.366011
O O9 0.728482 0.326998 0.345350
O O10 0.953547 0.607325 0.395520
O O11 0.000000 0.500000 0.500000
O O12 0.244160 0.103882 0.370389
O O13 0.386222 0.766277 0.233839
O O14 0.928763 0.300988 0.229649
O O15 0.588428 0.434731 0.912943
O O16 0.000000 0.500000 0.000000
#
# Coordination Sequence:
#
# PCOD9012693 Si02
#       7
#     2   2   2   2   2   2   2
#     4  11  23  44  75 120 154 218 263 324 405 472
#     4  12  28  56  79 116 153 197 266 335 393 477
#     4  12  29  53  82 120 167 207 273 334 402 486
#     4  12  28  56  84 117 156 217 263 332 417 476
#     4  12  27  50  77 120 163 205 271 332 395 475
#     4  11  22  48  77 116 163 213 263 333 394 473
#     4  10  21  40  76 116 161 206 273 321 392 478
#
# _framework density 25.849898
#
# number of rings (size 3 to 8) (size 9 to 14) (size 15 to 20)
#    0.000    0.571    2.857    6.000    0.000    4.000 
#    5.143    4.286    0.000    0.000    0.000    0.000 
#    0.000    0.000    0.000    0.000    0.000    0.000 
#
# Total GULP energy -78390.032133 kJ/mol
# GULP energy per Si atom -5599.288009 kJ/mol
# Density = 2.579106 g / cm^3
# Si number density = 25.849898 Si / 1000 Ang^3
#
#
#
# Elastic Constant Matrix: (Units=GPa)
#
#
# Indices 1 2 3 4 5 6 
#
# 1 138.1736 32.6417 40.9360 12.7673 11.2086 2.0265
# 2 32.6417 200.8825 106.2664 9.8038 11.5493 -11.3878
# 3 40.9360 106.2664 246.9387 10.0726 8.1845 -5.0714
# 4 12.7673 9.8038 10.0726 69.8947 2.4211 1.1501
# 5 11.2086 11.5493 8.1845 2.4211 37.4301 0.2285
# 6 2.0265 -11.3878 -5.0714 1.1501 0.2285 39.0081
#
#
#
# Elastic Compliance Matrix: (Units=1/GPa)
#
#
# Indices 1 2 3 4 5 6 
#
# 1 0.007941 -0.000672 -0.000932 -0.001145 -0.001889 -0.000685
# 2 -0.000672 0.006689 -0.002674 -0.000414 -0.001261 0.001659
# 3 -0.000932 -0.002674 0.005365 -0.000225 -0.000054 -0.000028
# 4 -0.001145 -0.000414 -0.000225 0.014630 -0.000423 -0.000519
# 5 -0.001889 -0.001261 -0.000054 -0.000423 0.027713 -0.000427
# 6 -0.000685 0.001659 -0.000028 -0.000519 -0.000427 0.026170
#
#
# Mechanical properties :
#
#
# Convention : Reuss Voigt Hill
#
# Bulk Modulus (GPa) = 87.41940 105.07588 96.24764
# Shear Modulus (GPa) = 49.56510 56.34330 52.95420
#
# Velocity S-wave (km/s) = 4.38359 4.67372 4.53098
# Velocity P-wave (km/s) = 7.71444 8.35832 8.04283
#
# Compressibility (1/GPa) = 0.01143911
#
# Stress axis : x y z
#
# Youngs Moduli (GPa) = 125.92570 149.50767 186.38056
#
# Poissons Ratio (x) = 0.10041 0.17374
# Poissons Ratio (y) = 0.08457 0.49843
# Poissons Ratio (z) = 0.11739 0.39982
#
# Static dielectric constant tensor:
#      x y z
#    x 2.038230 -0.004500 -0.041910 
#    y -0.004500 2.106190 -0.055360 
#    z -0.041910 -0.055360 2.104370 
# 
# From -- ./inp_files/434149.got.cif
#   From: 2010.05.17/outbox.cif.g08.bks.cpg/sg2_218_cif.got.tgz:434149.got - 2010.06.03 11:33:40.
