data_PCOD9012494
_publ_section_title
;
Structure prediction by ZEFSAII (Michael W. Deem and Ramdas Pophale) SiO2 
 PCOD9012494
Probable space group: P -1
;
_chemical_formula_sum "Si O2"
_cell_formula_units_Z 16
_cell_length_a 6.751157
_cell_length_b 21.618396
_cell_length_c 7.449826
_cell_angle_alpha 117.940926
_cell_angle_beta 95.737209
_cell_angle_gamma 51.800813
_cell_volume 726.110186
_symmetry_space_group_name_H-M "P -1"
_symmetry_group_IT_number 2
_symmetry_cell_setting 'triclinic'
loop_
_space_group_symop_operation_xyz
x,y,z
-x,-y,-z
loop_
_atom_site_type_symbol
_atom_site_label
_atom_site_fract_x
_atom_site_fract_y
_atom_site_fract_z
Si Si1 0.642346 0.208315 0.691282
Si Si2 0.123366 0.734740 0.463569
Si Si3 0.930572 0.294186 0.187884
Si Si4 0.399351 0.458110 0.313122
Si Si5 0.444211 0.101835 0.444900
Si Si6 0.808141 0.429996 0.895178
Si Si7 0.203189 0.360103 0.140922
Si Si8 0.805456 0.897382 0.221030
O O1 0.675217 0.260540 0.612669
O O2 0.552521 0.155657 0.526014
O O3 0.441339 0.277307 0.924220
O O4 0.932679 0.133973 0.700565
O O5 0.086073 0.672724 0.260955
O O6 0.189084 0.692811 0.609922
O O7 0.839469 0.836013 0.587865
O O8 0.678123 0.365649 0.136395
O O9 0.109755 0.321323 0.215663
O O10 0.091785 0.189129 0.007939
O O11 0.500000 0.500000 0.500000
O O12 0.195721 0.530884 0.244262
O O13 0.275184 0.415596 0.321185
O O14 0.381100 0.095925 0.637965
O O15 0.648019 0.997056 0.253964
O O16 0.971228 0.426325 0.065437
O O17 0.500000 0.500000 0.000000
#
# Coordination Sequence:
#
# PCOD9012494 Si02
#       8
#     2   2   2   2   2   2   2   2
#     4  11  20  41  69  97 126 172 227 271 331 400
#     4  11  25  41  64  96 138 172 217 287 337 392
#     4  12  24  45  64  98 139 175 218 282 345 395
#     4  12  26  45  64 100 140 173 223 286 344 395
#     4  10  21  41  66 100 127 175 225 271 334 402
#     4  12  23  45  69  95 133 181 231 278 330 403
#     4  12  24  44  75  97 129 185 232 272 336 407
#     4  10  21  40  70  95 133 170 221 282 330 396
#
# _framework density 22.035222999999998
#
# number of rings (size 3 to 8) (size 9 to 14) (size 15 to 20)
#    0.000    0.750    6.250    2.250    0.000    2.000 
#    0.000    0.625    0.000    0.000    0.000    0.000 
#    0.000    0.000    0.000    0.000    0.000    0.000 
#
# Total GULP energy -89364.796322 kJ/mol
# GULP energy per Si atom -5585.299770 kJ/mol
# Density = 2.198507 g / cm^3
# Si number density = 22.035223 Si / 1000 Ang^3
#
#
#
# Elastic Constant Matrix: (Units=GPa)
#
#
# Indices 1 2 3 4 5 6 
#
# 1 120.2553 37.4638 27.6735 10.2104 10.3058 19.0857
# 2 37.4638 97.1103 28.8682 12.0899 -2.2614 7.2311
# 3 27.6735 28.8682 68.9035 13.7311 6.2870 3.8059
# 4 10.2104 12.0899 13.7311 37.1614 -0.6307 -3.7879
# 5 10.3058 -2.2614 6.2870 -0.6307 37.4761 4.8337
# 6 19.0857 7.2311 3.8059 -3.7879 4.8337 37.1255
#
#
#
# Elastic Compliance Matrix: (Units=1/GPa)
#
#
# Indices 1 2 3 4 5 6 
#
# 1 0.010848 -0.002996 -0.002313 -0.001661 -0.002206 -0.004638
# 2 -0.002996 0.013035 -0.004015 -0.002005 0.002393 -0.001103
# 3 -0.002313 -0.004015 0.018354 -0.004892 -0.002761 -0.000050
# 4 -0.001661 -0.002005 -0.004892 0.030323 0.001060 0.004702
# 5 -0.002206 0.002393 -0.002761 0.001060 0.028254 -0.002619
# 6 -0.004638 -0.001103 -0.000050 0.004702 -0.002619 0.030361
#
#
# Mechanical properties :
#
#
# Convention : Reuss Voigt Hill
#
# Bulk Modulus (GPa) = 42.39654 52.69778 47.54716
# Shear Modulus (GPa) = 31.70871 35.17017 33.43944
#
# Velocity S-wave (km/s) = 3.79753 3.99944 3.89979
# Velocity P-wave (km/s) = 6.20568 6.73012 6.47321
#
# Compressibility (1/GPa) = 0.02358683
#
# Stress axis : x y z
#
# Youngs Moduli (GPa) = 92.18662 76.71799 54.48459
#
# Poissons Ratio (x) = 0.22988 0.12601
# Poissons Ratio (y) = 0.27624 0.21878
# Poissons Ratio (z) = 0.21321 0.30805
#
# Static dielectric constant tensor:
#      x y z
#    x 1.821800 0.022710 -0.025440 
#    y 0.022710 1.861310 -0.010400 
#    z -0.025440 -0.010400 1.843540 
# 
# From -- ./inp_files/90331.got.cif
#   From: 2010.05.17/outbox.cif.g08.bks.cpg/sg2_46_cif.got.tgz:90331.got - 2010.06.03 11:33:40.
