data_PCOD9012848
_publ_section_title
;
Structure prediction by ZEFSAII (Michael W. Deem and Ramdas Pophale) SiO2 
 PCOD9012848
Probable space group: P -1
;
_chemical_formula_sum "Si O2"
_cell_formula_units_Z 16
_cell_length_a 10.479236
_cell_length_b 19.146659
_cell_length_c 5.660933
_cell_angle_alpha 59.875609
_cell_angle_beta 64.342458
_cell_angle_gamma 46.825517
_cell_volume 709.186090
_symmetry_space_group_name_H-M "P -1"
_symmetry_group_IT_number 2
_symmetry_cell_setting 'triclinic'
loop_
_space_group_symop_operation_xyz
x,y,z
-x,-y,-z
loop_
_atom_site_type_symbol
_atom_site_label
_atom_site_fract_x
_atom_site_fract_y
_atom_site_fract_z
Si Si1 0.349324 0.984788 0.081373
Si Si2 0.837031 0.477752 0.408576
Si Si3 0.519821 0.178631 0.366703
Si Si4 0.095189 0.721232 0.200125
Si Si5 0.766896 0.584839 0.785653
Si Si6 0.998806 0.159640 0.320909
Si Si7 0.250367 0.137797 0.549208
Si Si8 0.849409 0.119399 0.893468
O O1 0.422836 0.879825 0.327413
O O2 0.151494 0.062041 0.215561
O O3 0.500000 0.000000 0.000000
O O4 0.312556 0.028353 0.770588
O O5 0.817031 0.387599 0.583818
O O6 0.768880 0.534892 0.620273
O O7 0.045232 0.431730 0.321252
O O8 0.758906 0.539195 0.120459
O O9 0.395326 0.298058 0.295307
O O10 0.402415 0.149937 0.382110
O O11 0.679633 0.145351 0.120642
O O12 0.124681 0.798981 0.159832
O O13 0.882849 0.781188 0.285042
O O14 0.124986 0.731792 0.887108
O O15 0.126434 0.166838 0.377814
O O16 0.870646 0.136758 0.573659
O O17 0.000000 0.000000 0.000000
#
# Coordination Sequence:
#
# PCOD9012848 Si02
#       8
#     2   2   2   2   2   2   2   2
#     4   9  19  36  56  93 129 167 218 276 333 408
#     4  10  22  44  72 101 139 171 237 300 366 405
#     4  11  21  43  62 100 136 175 231 282 351 404
#     4  10  22  42  70  94 131 182 224 279 347 416
#     4  10  23  42  69 108 133 176 232 308 354 409
#     4  10  21  41  61  93 128 181 221 268 342 420
#     4   9  20  38  64  95 126 169 229 275 342 409
#     4  11  24  44  63  96 139 186 221 271 340 429
#
# _framework density 22.561076
#
# number of rings (size 3 to 8) (size 9 to 14) (size 15 to 20)
#    0.000    2.000    2.500    0.000    3.500    3.500 
#    9.000    1.250    0.000    0.000    0.000    0.000 
#    0.000    0.000    0.000    0.000    0.000    0.000 
#
# Total GULP energy -89114.156592 kJ/mol
# GULP energy per Si atom -5569.634787 kJ/mol
# Density = 2.250973 g / cm^3
# Si number density = 22.561076 Si / 1000 Ang^3
#
#
#
# Elastic Constant Matrix: (Units=GPa)
#
#
# Indices 1 2 3 4 5 6 
#
# 1 87.3175 34.1493 51.1510 -0.9708 -24.4947 13.7853
# 2 34.1493 135.6182 88.4542 -19.1717 -18.1612 -0.2186
# 3 51.1510 88.4542 184.5406 -37.5878 -19.7015 7.6270
# 4 -0.9708 -19.1717 -37.5878 43.6362 -9.1486 -7.6693
# 5 -24.4947 -18.1612 -19.7015 -9.1486 36.1623 5.7279
# 6 13.7853 -0.2186 7.6270 -7.6693 5.7279 24.6685
#
#
#
# Elastic Compliance Matrix: (Units=1/GPa)
#
#
# Indices 1 2 3 4 5 6 
#
# 1 0.019556 -0.001507 -0.003497 -0.003125 0.011949 -0.013606
# 2 -0.001507 0.011227 -0.004399 0.002023 0.002355 0.002384
# 3 -0.003497 -0.004399 0.010331 0.007567 0.002902 0.000400
# 4 -0.003125 0.002023 0.007567 0.033748 0.010370 0.007509
# 5 0.011949 0.002355 0.002902 0.010370 0.043417 -0.014411
# 6 -0.013606 0.002384 0.000400 0.007509 -0.014411 0.053719
#
#
# Mechanical properties :
#
#
# Convention : Reuss Voigt Hill
#
# Bulk Modulus (GPa) = 44.82520 83.88724 64.35622
# Shear Modulus (GPa) = 25.22196 36.47485 30.84840
#
# Velocity S-wave (km/s) = 3.34719 4.02520 3.70175
# Velocity P-wave (km/s) = 5.90337 7.67242 6.84528
#
# Compressibility (1/GPa) = 0.02230888
#
# Stress axis : x y z
#
# Youngs Moduli (GPa) = 51.13649 89.06758 96.79485
#
# Poissons Ratio (x) = 0.13425 0.33845
# Poissons Ratio (y) = 0.07708 0.42578
# Poissons Ratio (z) = 0.17880 0.39179
#
# Static dielectric constant tensor:
#      x y z
#    x 1.921810 0.092850 0.106080 
#    y 0.092850 1.929130 0.138700 
#    z 0.106080 0.138700 2.034710 
# 
# From -- ./inp_files/82962.got.cif
#   From: 2010.05.17/outbox.cif.g08.bks.cpg/sg2_42_cif.got.tgz:82962.got - 2010.06.03 11:33:40.
