data_PCOD9012077
_publ_section_title
;
Structure prediction by ZEFSAII (Michael W. Deem and Ramdas Pophale) SiO2 
 PCOD9012077
Probable space group: P -1
;
_chemical_formula_sum "Si O2"
_cell_formula_units_Z 10
_cell_length_a 7.800817
_cell_length_b 7.533245
_cell_length_c 9.486095
_cell_angle_alpha 79.327762
_cell_angle_beta 48.377411
_cell_angle_gamma 64.027951
_cell_volume 369.970231
_symmetry_space_group_name_H-M "P -1"
_symmetry_group_IT_number 2
_symmetry_cell_setting 'triclinic'
loop_
_space_group_symop_operation_xyz
x,y,z
-x,-y,-z
loop_
_atom_site_type_symbol
_atom_site_label
_atom_site_fract_x
_atom_site_fract_y
_atom_site_fract_z
Si Si1 0.129046 0.470254 0.087209
Si Si2 0.931763 0.900565 0.243290
Si Si3 0.559420 0.823893 0.680383
Si Si4 0.718981 0.424012 0.511489
Si Si5 0.658633 0.112033 0.782591
O O1 0.102419 0.687681 0.112374
O O2 0.963464 0.417640 0.299722
O O3 0.408345 0.297697 0.946953
O O4 0.000000 0.500000 0.000000
O O5 0.745090 0.858599 0.459993
O O6 0.122841 0.966203 0.209499
O O7 0.732528 0.063128 0.225698
O O8 0.645166 0.587613 0.653905
O O9 0.588384 0.943600 0.780413
O O10 0.500000 0.500000 0.500000
O O11 0.747920 0.217780 0.593081
#
# Coordination Sequence:
#
# PCOD9012077 Si02
#       5
#     2   2   2   2   2
#     4  11  21  41  66  98 134 168 221 270 318 396
#     4  10  21  40  68  94 133 175 210 272 334 372
#     4  10  22  42  67 100 132 168 223 270 320 397
#     4  11  23  42  72  97 127 180 217 263 338 384
#     4  12  23  44  71  95 131 175 217 272 326 385
#
# _framework density 27.029204
#
# number of rings (size 3 to 8) (size 9 to 14) (size 15 to 20)
#    0.000    1.200    4.000    3.600    0.000    3.200 
#    0.000   10.000    0.000    8.400    0.000    0.000 
#    0.000    0.000    0.000    0.000    0.000    0.000 
#
# Total GULP energy -56212.565761 kJ/mol
# GULP energy per Si atom -5621.256576 kJ/mol
# Density = 2.696768 g / cm^3
# Si number density = 27.029204 Si / 1000 Ang^3
#
#
#
# Elastic Constant Matrix: (Units=GPa)
#
#
# Indices 1 2 3 4 5 6 
#
# 1 227.4551 90.9656 45.0962 30.6555 12.2653 -12.9508
# 2 90.9656 154.6276 65.5607 22.8069 15.5535 17.1898
# 3 45.0962 65.5607 148.2894 21.7131 -16.6888 7.2553
# 4 30.6555 22.8069 21.7131 72.8604 7.9300 4.0615
# 5 12.2653 15.5535 -16.6888 7.9300 32.8169 11.6742
# 6 -12.9508 17.1898 7.2553 4.0615 11.6742 48.1842
#
#
#
# Elastic Compliance Matrix: (Units=1/GPa)
#
#
# Indices 1 2 3 4 5 6 
#
# 1 0.006436 -0.003534 -0.000593 -0.001412 -0.002001 0.003684
# 2 -0.003534 0.011231 -0.004312 -0.000018 -0.005098 -0.003071
# 3 -0.000593 -0.004312 0.010258 -0.002297 0.008784 -0.002100
# 4 -0.001412 -0.000018 -0.002297 0.015490 -0.004269 -0.000299
# 5 -0.002001 -0.005098 0.008784 -0.004269 0.042702 -0.010028
# 6 0.003684 -0.003071 -0.002100 -0.000299 -0.010028 0.025610
#
#
# Mechanical properties :
#
#
# Convention : Reuss Voigt Hill
#
# Bulk Modulus (GPa) = 90.52799 103.73523 97.13161
# Shear Modulus (GPa) = 37.79650 52.68892 45.24271
#
# Velocity S-wave (km/s) = 3.74352 4.41992 4.09570
# Velocity P-wave (km/s) = 7.22846 8.03180 7.64069
#
# Compressibility (1/GPa) = 0.01104631
#
# Stress axis : x y z
#
# Youngs Moduli (GPa) = 155.38625 89.03741 97.48738
#
# Poissons Ratio (x) = 0.31470 0.05783
# Poissons Ratio (y) = 0.54920 0.42032
# Poissons Ratio (z) = 0.09217 0.38389
#
# Static dielectric constant tensor:
#      x y z
#    x 2.061030 -0.009430 0.033320 
#    y -0.009430 2.038710 -0.004410 
#    z 0.033320 -0.004410 2.145930 
# 
# From -- ./inp_files/143931.got.cif
#   From: 2010.05.17/outbox.cif.g08.bks.cpg/sg2_72_cif.got.tgz:143931.got - 2010.06.03 11:33:40.
