data_PCOD9012779
_publ_section_title
;
Structure prediction by ZEFSAII (Michael W. Deem and Ramdas Pophale) SiO2 
 PCOD9012779
Probable space group: P -1
;
_chemical_formula_sum "Si O2"
_cell_formula_units_Z 16
_cell_length_a 10.749876
_cell_length_b 18.688118
_cell_length_c 7.445133
_cell_angle_alpha 136.243791
_cell_angle_beta 41.719424
_cell_angle_gamma 133.132054
_cell_volume 653.543878
_symmetry_space_group_name_H-M "P -1"
_symmetry_group_IT_number 2
_symmetry_cell_setting 'triclinic'
loop_
_space_group_symop_operation_xyz
x,y,z
-x,-y,-z
loop_
_atom_site_type_symbol
_atom_site_label
_atom_site_fract_x
_atom_site_fract_y
_atom_site_fract_z
Si Si1 0.486168 0.940891 0.136116
Si Si2 0.946711 0.342937 0.594706
Si Si3 0.464979 0.788389 0.175860
Si Si4 0.623080 0.595118 0.664581
Si Si5 0.723469 0.463127 0.803662
Si Si6 0.535390 0.249097 0.467315
Si Si7 0.155162 0.936990 0.266468
Si Si8 0.113747 0.280241 0.960997
O O1 0.448707 0.835009 0.852649
O O2 0.679468 0.027594 0.003302
O O3 0.530807 0.902390 0.212592
O O4 0.287412 0.971689 0.367011
O O5 0.151647 0.400042 0.573239
O O6 0.013999 0.267980 0.241974
O O7 0.755134 0.269682 0.769376
O O8 0.858173 0.425396 0.733132
O O9 0.446040 0.785900 0.408237
O O10 0.597827 0.711087 0.849768
O O11 0.500000 0.500000 0.500000
O O12 0.499312 0.562749 0.925171
O O13 0.687087 0.373161 0.520318
O O14 0.826353 0.590514 0.901718
O O15 0.315005 0.252714 0.692504
O O16 0.000000 0.000000 0.500000
O O17 0.036991 0.808457 0.160827
#
# Coordination Sequence:
#
# PCOD9012779 Si02
#       8
#     2   2   2   2   2   2   2   2
#     4  11  25  47  74  94 138 175 223 284 338 390
#     4  10  21  41  60  95 140 171 225 272 325 410
#     4  10  24  43  66  99 131 178 219 273 341 394
#     4  10  22  36  58  92 142 175 218 274 325 402
#     4  10  23  37  63 101 130 182 223 260 344 399
#     4  10  21  44  71 100 138 171 221 278 330 403
#     4  11  25  45  68 104 129 173 232 281 328 400
#     4  12  21  41  70  94 138 180 223 280 332 395
#
# _framework density 24.481905999999999
#
# number of rings (size 3 to 8) (size 9 to 14) (size 15 to 20)
#    0.000    1.750    3.750    2.250    1.750    5.000 
#    0.000    6.250    0.000    0.000    0.000    0.000 
#    0.000    0.000    0.000    0.000    0.000    0.000 
#
# Total GULP energy -89422.769413 kJ/mol
# GULP energy per Si atom -5588.923088 kJ/mol
# Density = 2.442618 g / cm^3
# Si number density = 24.481906 Si / 1000 Ang^3
#
#
#
# Elastic Constant Matrix: (Units=GPa)
#
#
# Indices 1 2 3 4 5 6 
#
# 1 83.2386 45.5459 30.4814 -4.2766 -24.9095 19.2402
# 2 45.5459 134.6883 24.8982 10.6486 -14.7508 13.6729
# 3 30.4814 24.8982 68.3458 18.9855 -20.0329 8.6145
# 4 -4.2766 10.6486 18.9855 39.4949 11.6081 -1.3098
# 5 -24.9095 -14.7508 -20.0329 11.6081 35.4079 -4.2316
# 6 19.2402 13.6729 8.6145 -1.3098 -4.2316 50.5415
#
#
#
# Elastic Compliance Matrix: (Units=1/GPa)
#
#
# Indices 1 2 3 4 5 6 
#
# 1 0.020136 -0.004822 -0.005645 0.003950 0.007106 -0.004701
# 2 -0.004822 0.009588 0.000463 -0.003964 0.002072 -0.000766
# 3 -0.005645 0.000463 0.028023 -0.019646 0.018310 -0.001729
# 4 0.003950 -0.003964 -0.019646 0.043371 -0.023963 0.002035
# 5 0.007106 0.002072 0.018310 -0.023963 0.052002 -0.002653
# 6 -0.004701 -0.000766 -0.001729 0.002035 -0.002653 0.021908
#
#
# Mechanical properties :
#
#
# Convention : Reuss Voigt Hill
#
# Bulk Modulus (GPa) = 26.49987 54.23596 40.36792
# Shear Modulus (GPa) = 24.08304 37.44532 30.76418
#
# Velocity S-wave (km/s) = 3.13981 3.91514 3.54871
# Velocity P-wave (km/s) = 4.89820 6.52988 5.77199
#
# Compressibility (1/GPa) = 0.03773603
#
# Stress axis : x y z
#
# Youngs Moduli (GPa) = 49.66339 104.30007 35.68545
#
# Poissons Ratio (x) = 0.50296 0.20146
# Poissons Ratio (y) = 0.23949 -0.01651
# Poissons Ratio (z) = 0.28037 -0.04827
#
# Static dielectric constant tensor:
#      x y z
#    x 2.025080 -0.032330 0.030720 
#    y -0.032330 2.021030 0.025530 
#    z 0.030720 0.025530 2.015270 
# 
# From -- ./inp_files/282407.got.cif
#   From: 2010.05.17/outbox.cif.g08.bks.cpg/sg2_142_cif.got.tgz:282407.got - 2010.06.03 11:33:40.
