data_PCOD9012065
_publ_section_title
;
Structure prediction by ZEFSAII (Michael W. Deem and Ramdas Pophale) SiO2 
 PCOD9012065
Probable space group: P -1
;
_chemical_formula_sum "Si O2"
_cell_formula_units_Z 14
_cell_length_a 7.192844
_cell_length_b 21.873201
_cell_length_c 12.543856
_cell_angle_alpha 25.188458
_cell_angle_beta 51.696050
_cell_angle_gamma 51.932424
_cell_volume 649.890954
_symmetry_space_group_name_H-M "P -1"
_symmetry_group_IT_number 2
_symmetry_cell_setting 'triclinic'
loop_
_space_group_symop_operation_xyz
x,y,z
-x,-y,-z
loop_
_atom_site_type_symbol
_atom_site_label
_atom_site_fract_x
_atom_site_fract_y
_atom_site_fract_z
Si Si1 0.001596 0.604195 0.435394
Si Si2 0.074438 0.715244 0.661485
Si Si3 0.427546 0.081351 0.531869
Si Si4 0.612389 0.230266 0.055390
Si Si5 0.534149 0.801204 0.299659
Si Si6 0.276469 0.997715 0.934202
Si Si7 0.157290 0.485148 0.799814
O O1 0.114254 0.540887 0.606823
O O2 0.000000 0.500000 0.500000
O O3 0.719569 0.655088 0.474175
O O4 0.148385 0.729270 0.145041
O O5 0.301844 0.794248 0.463769
O O6 0.124562 0.615156 0.694210
O O7 0.831981 0.832189 0.550620
O O8 0.035531 0.612745 0.935617
O O9 0.617616 0.169727 0.270669
O O10 0.402000 0.077043 0.673578
O O11 0.460680 0.911587 0.753565
O O12 0.412112 0.375913 0.889173
O O13 0.695205 0.916209 0.103456
O O14 0.430697 0.841281 0.154881
O O15 0.000000 0.000000 0.000000
#
# Coordination Sequence:
#
# PCOD9012065 Si02
#       7
#     2   2   2   2   2   2   2
#     4  12  26  40  59  94 136 173 218 263 317 398
#     4  10  21  42  68  97 125 163 228 269 327 383
#     4  10  21  40  68  94 124 170 210 272 329 375
#     4  10  23  41  64  93 127 174 218 253 328 397
#     4  11  25  38  64 102 122 164 222 264 320 391
#     4  11  22  40  66  95 131 163 206 274 333 377
#     4  10  23  42  67  92 129 181 212 269 324 384
#
# _framework density 21.542078
#
# number of rings (size 3 to 8) (size 9 to 14) (size 15 to 20)
#    0.000    1.429    1.429    3.000    6.000    1.714 
#    0.000    0.714    0.000    0.000    0.000    0.000 
#    0.000    0.000    0.000    0.000    0.000    0.000 
#
# Total GULP energy -78068.782425 kJ/mol
# GULP energy per Si atom -5576.341602 kJ/mol
# Density = 2.149305 g / cm^3
# Si number density = 21.542078 Si / 1000 Ang^3
#
#
#
# Elastic Constant Matrix: (Units=GPa)
#
#
# Indices 1 2 3 4 5 6 
#
# 1 74.6910 17.0181 40.7003 14.1888 1.2297 4.7073
# 2 17.0181 74.7482 21.3067 2.0574 6.0362 -2.2997
# 3 40.7003 21.3067 134.8031 40.5358 4.0943 5.9963
# 4 14.1888 2.0574 40.5358 48.8979 1.1363 2.4219
# 5 1.2297 6.0362 4.0943 1.1363 27.6101 4.3160
# 6 4.7073 -2.2997 5.9963 2.4219 4.3160 24.6779
#
#
#
# Elastic Compliance Matrix: (Units=1/GPa)
#
#
# Indices 1 2 3 4 5 6 
#
# 1 0.016637 -0.002718 -0.004162 -0.001162 0.000903 -0.002459
# 2 -0.002718 0.014906 -0.002117 0.001854 -0.003342 0.002824
# 3 -0.004162 -0.002117 0.011550 -0.008201 -0.000522 -0.001314
# 4 -0.001162 0.001854 -0.008201 0.027527 -0.000227 -0.000275
# 5 0.000903 -0.003342 -0.000522 -0.000227 0.038089 -0.006996
# 6 -0.002459 0.002824 -0.001314 -0.000275 -0.006996 0.042824
#
#
# Mechanical properties :
#
#
# Convention : Reuss Voigt Hill
#
# Bulk Modulus (GPa) = 39.84327 49.14360 44.49344
# Shear Modulus (GPa) = 28.10675 33.91834 31.01254
#
# Velocity S-wave (km/s) = 3.61603 3.97232 3.79836
# Velocity P-wave (km/s) = 5.99750 6.62582 6.31947
#
# Compressibility (1/GPa) = 0.02509834
#
# Stress axis : x y z
#
# Youngs Moduli (GPa) = 60.10853 67.08601 86.58234
#
# Poissons Ratio (x) = 0.18233 0.36035
# Poissons Ratio (y) = 0.16337 0.18331
# Poissons Ratio (z) = 0.25017 0.14203
#
# Static dielectric constant tensor:
#      x y z
#    x 1.795870 0.008060 0.008860 
#    y 0.008060 1.915380 -0.103790 
#    z 0.008860 -0.103790 1.913290 
# 
# From -- ./inp_files/365066.got.cif
#   From: 2010.05.17/outbox.cif.g08.bks.cpg/sg2_183_cif.got.tgz:365066.got - 2010.06.03 11:33:40.
