data_PCOD9012107
_publ_section_title
;
Structure prediction by ZEFSAII (Michael W. Deem and Ramdas Pophale) SiO2 
 PCOD9012107
Probable space group: P -1
;
_chemical_formula_sum "Si O2"
_cell_formula_units_Z 11
_cell_length_a 13.012990
_cell_length_b 10.058387
_cell_length_c 14.266171
_cell_angle_alpha 149.913812
_cell_angle_beta 31.603073
_cell_angle_gamma 133.893207
_cell_volume 483.720570
_symmetry_space_group_name_H-M "P -1"
_symmetry_group_IT_number 2
_symmetry_cell_setting 'triclinic'
loop_
_space_group_symop_operation_xyz
x,y,z
-x,-y,-z
loop_
_atom_site_type_symbol
_atom_site_label
_atom_site_fract_x
_atom_site_fract_y
_atom_site_fract_z
Si Si1 0.673471 0.153987 0.337463
Si Si2 0.445094 0.732180 0.833732
Si Si3 0.060809 0.179407 0.940560
Si Si4 0.836151 0.262435 0.787064
Si Si5 0.000000 0.500000 0.000000
Si Si6 0.617820 0.901021 0.619964
O O1 0.595879 0.473085 0.592714
O O2 0.747669 0.030655 0.303911
O O3 0.497284 0.041652 0.352822
O O4 0.866596 0.095943 0.085873
O O5 0.472869 0.779788 0.732037
O O6 0.234563 0.688017 0.017432
O O7 0.500000 0.000000 0.000000
O O8 0.031063 0.243747 0.894592
O O9 0.096115 0.466121 0.131790
O O10 0.671811 0.166617 0.789966
O O11 0.000000 0.000000 0.500000
O O12 0.190401 0.330454 0.683630
#
# Coordination Sequence:
#
# PCOD9012107 Si02
#       6
#     2   2   2   2   1   2
#     4  11  24  44  64 103 136 175 221 282 335 394
#     4  10  21  40  68  95 136 175 218 270 340 396
#     4  11  25  42  68  97 140 174 224 278 334 394
#     4  11  22  41  66  99 132 177 226 273 325 404
#     4  12  22  42  70  98 126 184 226 272 322 416
#     4  11  24  39  69  98 132 178 228 269 339 396
#
# _framework density 22.740402
#
# number of rings (size 3 to 8) (size 9 to 14) (size 15 to 20)
#    0.000    1.091    3.636    2.727    2.545    3.636 
#    0.000    1.818    0.000   12.000    0.000    0.000 
#    0.000    0.000    0.000    0.000    0.000    0.000 
#
# Total GULP energy -61278.701799 kJ/mol
# GULP energy per Si atom -5570.791073 kJ/mol
# Density = 2.268864 g / cm^3
# Si number density = 22.740402 Si / 1000 Ang^3
#
#
#
# Elastic Constant Matrix: (Units=GPa)
#
#
# Indices 1 2 3 4 5 6 
#
# 1 114.4398 19.4209 26.6575 13.5780 -15.7240 -19.6261
# 2 19.4209 59.5742 -5.1619 -17.6171 -11.5614 -13.7314
# 3 26.6575 -5.1619 67.4119 -8.6569 -17.7257 -16.3101
# 4 13.5780 -17.6171 -8.6569 49.6085 -1.1288 1.3010
# 5 -15.7240 -11.5614 -17.7257 -1.1288 51.8349 13.1388
# 6 -19.6261 -13.7314 -16.3101 1.3010 13.1388 48.9910
#
#
#
# Elastic Compliance Matrix: (Units=1/GPa)
#
#
# Indices 1 2 3 4 5 6 
#
# 1 0.012119 -0.006085 -0.005793 -0.006530 -0.000169 0.001440
# 2 -0.006085 0.025618 0.008852 0.012284 0.005683 0.005840
# 3 -0.005793 0.008852 0.021944 0.008563 0.006516 0.005491
# 4 -0.006530 0.012284 0.008563 0.027838 0.003807 0.001917
# 5 -0.000169 0.005683 0.006516 0.003807 0.023506 -0.002711
# 6 0.001440 0.005840 0.005491 0.001917 -0.002711 0.025130
#
#
# Mechanical properties :
#
#
# Convention : Reuss Voigt Hill
#
# Bulk Modulus (GPa) = 18.64625 35.91765 27.28195
# Shear Modulus (GPa) = 31.23400 43.45418 37.34409
#
# Velocity S-wave (km/s) = 3.71010 4.37610 4.05679
# Velocity P-wave (km/s) = 5.15466 6.43138 5.82809
#
# Compressibility (1/GPa) = 0.05363009
#
# Stress axis : x y z
#
# Youngs Moduli (GPa) = 82.51750 39.03564 45.56980
#
# Poissons Ratio (x) = 0.23752 0.26398
# Poissons Ratio (y) = 0.50209 -0.40340
# Poissons Ratio (z) = 0.47802 -0.34555
#
# Static dielectric constant tensor:
#      x y z
#    x 1.802350 -0.018460 -0.012270 
#    y -0.018460 1.841780 -0.082050 
#    z -0.012270 -0.082050 1.843540 
# 
# From -- ./inp_files/171694.got.cif
#   From: 2010.05.17/outbox.cif.g08.bks.cpg/sg2_86_cif.got.tgz:171694.got - 2010.06.03 11:33:40.
