data_PCOD9012201
_publ_section_title
;
Structure prediction by ZEFSAII (Michael W. Deem and Ramdas Pophale) SiO2 
 PCOD9012201
Probable space group: P -1
;
_chemical_formula_sum "Si O2"
_cell_formula_units_Z 12
_cell_length_a 12.623022
_cell_length_b 6.168957
_cell_length_c 9.821030
_cell_angle_alpha 107.473444
_cell_angle_beta 118.894800
_cell_angle_gamma 115.823476
_cell_volume 458.996132
_symmetry_space_group_name_H-M "P -1"
_symmetry_group_IT_number 2
_symmetry_cell_setting 'triclinic'
loop_
_space_group_symop_operation_xyz
x,y,z
-x,-y,-z
loop_
_atom_site_type_symbol
_atom_site_label
_atom_site_fract_x
_atom_site_fract_y
_atom_site_fract_z
Si Si1 0.567606 0.403881 0.411974
Si Si2 0.627075 0.379419 0.155370
Si Si3 0.936476 0.264042 0.734481
Si Si4 0.806611 0.811019 0.103378
Si Si5 0.133261 0.504340 0.471348
Si Si6 0.224843 0.967609 0.136769
O O1 0.500000 0.500000 0.500000
O O2 0.580294 0.479042 0.273322
O O3 0.735979 0.468685 0.542530
O O4 0.389765 0.026078 0.230447
O O5 0.663530 0.566734 0.077540
O O6 0.794818 0.472863 0.333944
O O7 0.500000 0.000000 0.000000
O O8 0.857071 0.233452 0.537190
O O9 0.799180 0.020696 0.715890
O O10 0.067537 0.234616 0.814404
O O11 0.047845 0.623517 0.920505
O O12 0.936905 0.182314 0.291385
O O13 0.757223 0.800689 0.914767
#
# Coordination Sequence:
#
# PCOD9012201 Si02
#       6
#     2   2   2   2   2   2
#     4  10  22  42  64  98 136 176 229 277 340 397
#     4  10  23  44  68 103 137 177 230 281 345 407
#     4  10  21  40  68  99 137 178 227 285 335 404
#     4  11  21  42  69  98 135 180 227 280 339 413
#     4   9  23  42  67 102 134 177 233 277 340 406
#     4  10  22  39  64 100 135 180 227 275 341 406
#
# _framework density 26.144009
#
# number of rings (size 3 to 8) (size 9 to 14) (size 15 to 20)
#    1.000    1.000    0.000    3.000    0.000    4.667 
#    6.000    0.000    0.000    0.000    0.000    0.000 
#    0.000    0.000    0.000    0.000    0.000    0.000 
#
# Total GULP energy -66839.777331 kJ/mol
# GULP energy per Si atom -5569.981444 kJ/mol
# Density = 2.608450 g / cm^3
# Si number density = 26.144009 Si / 1000 Ang^3
#
#
#
# Elastic Constant Matrix: (Units=GPa)
#
#
# Indices 1 2 3 4 5 6 
#
# 1 166.2700 75.7926 24.6079 -12.4041 9.5557 38.6490
# 2 75.7926 167.5131 39.5572 -28.9737 -7.1838 37.2861
# 3 24.6079 39.5572 53.7297 -11.7286 -6.1672 11.0880
# 4 -12.4041 -28.9737 -11.7286 41.4347 7.6523 7.9159
# 5 9.5557 -7.1838 -6.1672 7.6523 39.2038 -2.3748
# 6 38.6490 37.2861 11.0880 7.9159 -2.3748 41.2578
#
#
#
# Elastic Compliance Matrix: (Units=1/GPa)
#
#
# Indices 1 2 3 4 5 6 
#
# 1 0.009238 -0.001834 -0.001026 0.003356 -0.003864 -0.007587
# 2 -0.001834 0.010942 -0.003765 0.007721 -0.000171 -0.008650
# 3 -0.001026 -0.003765 0.023464 0.003747 0.002367 -0.002525
# 4 0.003356 0.007721 0.003747 0.036439 -0.007049 -0.018525
# 5 -0.003864 -0.000171 0.002367 -0.007049 0.028538 0.006133
# 6 -0.007587 -0.008650 -0.002525 -0.018525 0.006133 0.043748
#
#
# Mechanical properties :
#
#
# Convention : Reuss Voigt Hill
#
# Bulk Modulus (GPa) = 32.90113 74.15870 53.52991
# Shear Modulus (GPa) = 28.44923 40.88292 34.66607
#
# Velocity S-wave (km/s) = 3.30233 3.95873 3.64533
# Velocity P-wave (km/s) = 5.21079 7.02299 6.18364
#
# Compressibility (1/GPa) = 0.03039409
#
# Stress axis : x y z
#
# Youngs Moduli (GPa) = 108.24601 91.39051 42.61801
#
# Poissons Ratio (x) = 0.16762 0.04373
# Poissons Ratio (y) = 0.19854 0.16046
# Poissons Ratio (z) = 0.11106 0.34409
#
# Static dielectric constant tensor:
#      x y z
#    x 2.124970 -0.045790 -0.095780 
#    y -0.045790 2.159060 0.204970 
#    z -0.095780 0.204970 2.279130 
# 
# From -- ./inp_files/442019.got.cif
#   From: 2010.05.17/outbox.cif.g08.bks.cpg/sg2_222_cif.got.tgz:442019.got - 2010.06.03 11:33:40.
