data_PCOD9013503
_publ_section_title
;
Structure prediction by ZEFSAII (Michael W. Deem and Ramdas Pophale) SiO2 
 PCOD9013503
Probable space group: P -1
;
_chemical_formula_sum "Si O2"
_cell_formula_units_Z 16
_cell_length_a 10.497142
_cell_length_b 6.518138
_cell_length_c 20.934477
_cell_angle_alpha 59.290300
_cell_angle_beta 147.730995
_cell_angle_gamma 120.947608
_cell_volume 646.804390
_symmetry_space_group_name_H-M "P -1"
_symmetry_group_IT_number 2
_symmetry_cell_setting 'triclinic'
loop_
_space_group_symop_operation_xyz
x,y,z
-x,-y,-z
loop_
_atom_site_type_symbol
_atom_site_label
_atom_site_fract_x
_atom_site_fract_y
_atom_site_fract_z
Si Si1 0.584837 0.096541 0.659161
Si Si2 0.171441 0.261224 0.522989
Si Si3 0.834899 0.101402 0.158815
Si Si4 0.664354 0.892646 0.994406
Si Si5 0.543818 0.545418 0.735509
Si Si6 0.221960 0.447518 0.733064
Si Si7 0.227227 0.864817 0.123175
Si Si8 0.037133 0.473094 0.782135
O O1 0.344785 0.214780 0.544880
O O2 0.667158 0.083347 0.770130
O O3 0.800523 0.285562 0.688653
O O4 0.553978 0.816941 0.669703
O O5 0.339328 0.362265 0.638141
O O6 0.000566 0.456699 0.409088
O O7 0.000000 0.000000 0.500000
O O8 0.835561 0.072691 0.087601
O O9 0.029641 0.302622 0.243556
O O10 0.821362 0.839412 0.226971
O O11 0.579368 0.178673 0.057028
O O12 0.613727 0.014587 0.888036
O O13 0.814110 0.677439 0.084607
O O14 0.453143 0.532919 0.772636
O O15 0.780998 0.421675 0.847217
O O16 0.212752 0.552006 0.784123
O O17 0.000000 0.000000 0.000000
#
# Coordination Sequence:
#
# PCOD9013503 Si02
#       8
#     2   2   2   2   2   2   2   2
#     4  11  26  45  66 104 139 182 224 283 343 407
#     4  11  25  44  74 102 133 174 232 289 340 400
#     4  10  23  41  68  97 136 177 230 279 341 401
#     4  10  21  41  64  99 129 183 229 279 336 402
#     4  11  25  44  73 101 135 174 237 280 339 412
#     4  11  24  41  71 102 125 179 228 284 333 405
#     4  11  23  43  67 100 137 180 230 280 341 400
#     4  11  25  43  65  98 144 177 224 282 343 407
#
# _framework density 24.736999999999998
#
# number of rings (size 3 to 8) (size 9 to 14) (size 15 to 20)
#    0.000    1.250    3.750    0.750    3.500    6.000 
#    0.000    1.250    0.000    0.000    0.000    0.000 
#    0.000    0.000    0.000    0.000    0.000    0.000 
#
# Total GULP energy -89421.900565 kJ/mol
# GULP energy per Si atom -5588.868785 kJ/mol
# Density = 2.468070 g / cm^3
# Si number density = 24.737000 Si / 1000 Ang^3
#
#
#
# Elastic Constant Matrix: (Units=GPa)
#
#
# Indices 1 2 3 4 5 6 
#
# 1 81.8859 42.0435 3.2993 -3.3795 5.5424 -11.1420
# 2 42.0435 150.2408 13.3008 8.7987 10.6488 -5.3923
# 3 3.2993 13.3008 60.6502 -18.8468 14.4361 -5.5830
# 4 -3.3795 8.7987 -18.8468 27.5466 -10.9165 5.6186
# 5 5.5424 10.6488 14.4361 -10.9165 44.9494 -6.8238
# 6 -11.1420 -5.3923 -5.5830 5.6186 -6.8238 31.4732
#
#
#
# Elastic Compliance Matrix: (Units=1/GPa)
#
#
# Indices 1 2 3 4 5 6 
#
# 1 0.015152 -0.004453 0.001617 0.003588 0.000190 0.004289
# 2 -0.004453 0.008691 -0.003128 -0.006272 -0.002023 0.000039
# 3 0.001617 -0.003128 0.022617 0.015392 -0.002881 0.000676
# 4 0.003588 -0.006272 0.015392 0.053581 0.008381 -0.004822
# 5 0.000190 -0.002023 -0.002881 0.008381 0.026178 0.003389
# 6 0.004289 0.000039 0.000676 -0.004822 0.003389 0.035014
#
#
# Mechanical properties :
#
#
# Convention : Reuss Voigt Hill
#
# Bulk Modulus (GPa) = 28.95822 45.56268 37.26045
# Shear Modulus (GPa) = 27.07512 36.40272 31.73892
#
# Velocity S-wave (km/s) = 3.31194 3.84029 3.58586
# Velocity P-wave (km/s) = 5.13392 6.17435 5.67802
#
# Compressibility (1/GPa) = 0.03453251
#
# Stress axis : x y z
#
# Youngs Moduli (GPa) = 65.99759 115.06107 44.21472
#
# Poissons Ratio (x) = 0.51236 -0.07149
# Poissons Ratio (y) = 0.29388 0.13829
# Poissons Ratio (z) = -0.10671 0.35987
#
# Static dielectric constant tensor:
#      x y z
#    x 2.001400 0.005040 0.030100 
#    y 0.005040 2.035710 0.057210 
#    z 0.030100 0.057210 2.003140 
# 
# From -- ./inp_files/609156.got.cif
#   From: 2010.05.17/outbox.cif.g08.bks.cpg/sg2_305_cif.got.tgz:609156.got - 2010.06.03 11:33:40.
