data_PCOD9013827
_publ_section_title
;
Structure prediction by ZEFSAII (Michael W. Deem and Ramdas Pophale) SiO2 
 PCOD9013827
Probable space group: P -1
;
_chemical_formula_sum "Si O2"
_cell_formula_units_Z 12
_cell_length_a 9.669799
_cell_length_b 6.700290
_cell_length_c 9.253534
_cell_angle_alpha 121.747236
_cell_angle_beta 91.317666
_cell_angle_gamma 77.983677
_cell_volume 495.957565
_symmetry_space_group_name_H-M "P -1"
_symmetry_group_IT_number 2
_symmetry_cell_setting 'triclinic'
loop_
_space_group_symop_operation_xyz
x,y,z
-x,-y,-z
loop_
_atom_site_type_symbol
_atom_site_label
_atom_site_fract_x
_atom_site_fract_y
_atom_site_fract_z
Si Si1 0.674341 0.524137 0.400161
Si Si2 0.820316 0.682732 0.216263
Si Si3 0.951581 0.147138 0.905240
Si Si4 0.681388 0.242013 0.779448
Si Si5 0.387823 0.863842 0.578022
Si Si6 0.495190 0.276551 0.070712
O O1 0.798213 0.620195 0.361433
O O2 0.551038 0.725648 0.551221
O O3 0.712240 0.307140 0.430924
O O4 0.593129 0.398232 0.226974
O O5 0.927547 0.820870 0.192994
O O6 0.669634 0.871577 0.258817
O O7 0.869157 0.416608 0.052619
O O8 0.828819 0.079561 0.779395
O O9 0.000000 0.000000 0.000000
O O10 0.634512 0.131641 0.591622
O O11 0.658268 0.532173 0.854448
O O12 0.572923 0.260155 0.913919
O O13 0.500000 0.000000 0.000000
#
# Coordination Sequence:
#
# PCOD9013827 Si02
#       6
#     2   2   2   2   2   2
#     4  10  21  41  65  99 133 166 213 263 336 395
#     4  11  23  41  68  92 126 178 219 263 322 385
#     4  11  25  44  65  92 131 182 223 263 312 388
#     4  10  23  43  60  99 132 162 224 268 318 382
#     4  10  23  39  66  96 134 167 207 275 332 380
#     4  10  22  38  68  95 130 171 211 272 324 387
#
# _framework density 24.195620000000002
#
# number of rings (size 3 to 8) (size 9 to 14) (size 15 to 20)
#    0.000    1.667    1.667    1.500    2.333    6.000 
#    0.000    1.667    0.000    0.000    0.000    0.000 
#    0.000    0.000    0.000    0.000    0.000    0.000 
#
# Total GULP energy -66883.826472 kJ/mol
# GULP energy per Si atom -5573.652206 kJ/mol
# Density = 2.414055 g / cm^3
# Si number density = 24.195620 Si / 1000 Ang^3
#
#
#
# Elastic Constant Matrix: (Units=GPa)
#
#
# Indices 1 2 3 4 5 6 
#
# 1 65.8708 23.3068 29.3596 -1.7183 -14.8645 -0.6265
# 2 23.3068 152.5234 26.1170 5.8389 -9.8391 8.1481
# 3 29.3596 26.1170 85.4846 7.8061 -27.0747 -3.8346
# 4 -1.7183 5.8389 7.8061 51.2245 -1.3145 -17.4644
# 5 -14.8645 -9.8391 -27.0747 -1.3145 38.6964 -14.0708
# 6 -0.6265 8.1481 -3.8346 -17.4644 -14.0708 38.7434
#
#
#
# Elastic Compliance Matrix: (Units=1/GPa)
#
#
# Indices 1 2 3 4 5 6 
#
# 1 0.019164 -0.002137 -0.004429 0.002871 0.005074 0.003458
# 2 -0.002137 0.007354 -0.001977 -0.001703 -0.001518 -0.003096
# 3 -0.004429 -0.001977 0.018282 -0.000021 0.013096 0.006901
# 4 0.002871 -0.001703 -0.000021 0.024735 0.006563 0.013936
# 5 0.005074 -0.001518 0.013096 0.006563 0.044340 0.020759
# 6 0.003458 -0.003096 0.006901 0.013936 0.020759 0.041022
#
#
# Mechanical properties :
#
#
# Convention : Reuss Voigt Hill
#
# Bulk Modulus (GPa) = 36.08192 51.27176 43.67684
# Shear Modulus (GPa) = 27.59041 40.73922 34.16481
#
# Velocity S-wave (km/s) = 3.38050 4.10780 3.76177
# Velocity P-wave (km/s) = 5.49382 6.61326 6.07936
#
# Compressibility (1/GPa) = 0.02771471
#
# Stress axis : x y z
#
# Youngs Moduli (GPa) = 52.18025 135.97767 54.69774
#
# Poissons Ratio (x) = 0.29064 0.24225
# Poissons Ratio (y) = 0.11153 0.10813
# Poissons Ratio (z) = 0.23110 0.26880
#
# Static dielectric constant tensor:
#      x y z
#    x 1.998530 0.006310 0.062530 
#    y 0.006310 2.079370 0.010500 
#    z 0.062530 0.010500 1.971190 
# 
# From -- ./inp_files/229329.got.cif
#   From: 2010.05.17/outbox.cif.g08.bks.cpg/sg2_115_cif.got.tgz:229329.got - 2010.06.03 11:33:40.
