data_PCOD9013562
_publ_section_title
;
Structure prediction by ZEFSAII (Michael W. Deem and Ramdas Pophale) SiO2 
 PCOD9013562
Probable space group: P -1
;
_chemical_formula_sum "Si O2"
_cell_formula_units_Z 16
_cell_length_a 19.445058
_cell_length_b 8.621169
_cell_length_c 22.024240
_cell_angle_alpha 42.618124
_cell_angle_beta 17.454291
_cell_angle_gamma 49.494615
_cell_volume 724.385609
_symmetry_space_group_name_H-M "P -1"
_symmetry_group_IT_number 2
_symmetry_cell_setting 'triclinic'
loop_
_space_group_symop_operation_xyz
x,y,z
-x,-y,-z
loop_
_atom_site_type_symbol
_atom_site_label
_atom_site_fract_x
_atom_site_fract_y
_atom_site_fract_z
Si Si1 0.447730 0.330956 0.259801
Si Si2 0.394151 0.053116 0.890623
Si Si3 0.225409 0.420977 0.997614
Si Si4 0.945589 0.199394 0.408727
Si Si5 0.272074 0.493319 0.140429
Si Si6 0.100362 0.274060 0.467679
Si Si7 0.439483 0.159201 0.685118
Si Si8 0.905534 0.538812 0.135510
O O1 0.206360 0.218484 0.459069
O O2 0.566315 0.115909 0.235035
O O3 0.509103 0.470101 0.230636
O O4 0.566640 0.511842 0.053441
O O5 0.662894 0.100409 0.674078
O O6 0.424382 0.188198 0.761871
O O7 0.237658 0.175003 0.028502
O O8 0.283200 0.771502 0.057745
O O9 0.045249 0.381470 0.217596
O O10 0.121118 0.562172 0.994097
O O11 0.027615 0.328429 0.365699
O O12 0.041579 0.971275 0.373362
O O13 0.288529 0.378975 0.224956
O O14 0.000000 0.500000 0.500000
O O15 0.686874 0.315204 0.404057
O O16 0.218954 0.244374 0.820050
O O17 0.000000 0.500000 0.000000
#
# Coordination Sequence:
#
# PCOD9013562 Si02
#       8
#     2   2   2   2   2   2   2   2
#     4  10  23  43  61  89 131 167 210 261 320 381
#     4  11  21  42  68  90 133 170 206 270 320 371
#     4  11  23  41  64  98 126 167 218 257 321 389
#     4  11  23  43  64  93 132 171 215 260 326 377
#     4  10  23  41  65  92 123 173 218 259 314 382
#     4  12  23  40  64  94 128 167 217 269 313 370
#     4  10  21  41  65  88 126 171 200 263 325 372
#     4  11  21  38  67  94 122 162 218 260 316 381
#
# _framework density 22.087683999999999
#
# number of rings (size 3 to 8) (size 9 to 14) (size 15 to 20)
#    0.000    1.250    5.000    1.500    1.750    0.500 
#    0.000    2.500    0.000    0.000    0.000    0.000 
#    0.000    0.000    0.000    0.000    0.000    0.000 
#
# Total GULP energy -89112.225395 kJ/mol
# GULP energy per Si atom -5569.514087 kJ/mol
# Density = 2.203741 g / cm^3
# Si number density = 22.087684 Si / 1000 Ang^3
#
#
#
# Elastic Constant Matrix: (Units=GPa)
#
#
# Indices 1 2 3 4 5 6 
#
# 1 129.6229 33.9795 30.9250 -4.6683 -3.3485 -2.7811
# 2 33.9795 93.3662 11.3506 -7.4299 -13.7010 -10.9179
# 3 30.9250 11.3506 69.3212 -6.0687 6.7000 7.3948
# 4 -4.6683 -7.4299 -6.0687 26.1979 5.6842 0.3912
# 5 -3.3485 -13.7010 6.7000 5.6842 41.6843 -7.2040
# 6 -2.7811 -10.9179 7.3948 0.3912 -7.2040 24.4823
#
#
#
# Elastic Compliance Matrix: (Units=1/GPa)
#
#
# Indices 1 2 3 4 5 6 
#
# 1 0.009412 -0.002692 -0.003988 -0.000195 0.000764 0.001301
# 2 -0.002692 0.013971 -0.002435 0.001487 0.006017 0.008407
# 3 -0.003988 -0.002435 0.018560 0.004394 -0.006269 -0.009060
# 4 -0.000195 0.001487 0.004394 0.041008 -0.006381 -0.003219
# 5 0.000764 0.006017 -0.006269 -0.006381 0.030270 0.013672
# 6 0.001301 0.008407 -0.009060 -0.003219 0.013672 0.051554
#
#
# Mechanical properties :
#
#
# Convention : Reuss Voigt Hill
#
# Bulk Modulus (GPa) = 42.16912 49.42449 45.79681
# Shear Modulus (GPa) = 26.19053 32.87660 29.53356
#
# Velocity S-wave (km/s) = 3.44721 3.86224 3.66061
# Velocity P-wave (km/s) = 5.91418 6.50494 6.21658
#
# Compressibility (1/GPa) = 0.02371404
#
# Stress axis : x y z
#
# Youngs Moduli (GPa) = 106.24271 71.57891 53.87854
#
# Poissons Ratio (x) = 0.19269 0.21486
# Poissons Ratio (y) = 0.28601 0.13118
# Poissons Ratio (z) = 0.42368 0.17427
#
# Static dielectric constant tensor:
#      x y z
#    x 1.852230 -0.008020 -0.065820 
#    y -0.008020 1.828630 0.026490 
#    z -0.065820 0.026490 1.971350 
# 
# From -- ./inp_files/613488.got.cif
#   From: 2010.05.17/outbox.cif.g08.bks.cpg/sg2_307_cif.got.tgz:613488.got - 2010.06.03 11:33:40.
