data_PCOD9013680
_publ_section_title
;
Structure prediction by ZEFSAII (Michael W. Deem and Ramdas Pophale) SiO2 
 PCOD9013680
Probable space group: P -1
;
_chemical_formula_sum "Si O2"
_cell_formula_units_Z 16
_cell_length_a 15.184394
_cell_length_b 9.322388
_cell_length_c 12.196607
_cell_angle_alpha 93.210040
_cell_angle_beta 26.821942
_cell_angle_gamma 81.604440
_cell_volume 700.352255
_symmetry_space_group_name_H-M "P -1"
_symmetry_group_IT_number 2
_symmetry_cell_setting 'triclinic'
loop_
_space_group_symop_operation_xyz
x,y,z
-x,-y,-z
loop_
_atom_site_type_symbol
_atom_site_label
_atom_site_fract_x
_atom_site_fract_y
_atom_site_fract_z
Si Si1 0.191723 0.838387 0.964456
Si Si2 0.662815 0.367202 0.729223
Si Si3 0.344632 0.065699 0.881830
Si Si4 0.087716 0.447756 0.561221
Si Si5 0.430715 0.165701 0.021990
Si Si6 0.643348 0.475929 0.114136
Si Si7 0.606360 0.711596 0.349434
Si Si8 0.200823 0.249274 0.647105
O O1 0.307087 0.705097 0.924719
O O2 0.365328 0.795579 0.671538
O O3 0.160816 0.006983 0.055275
O O4 0.982491 0.815580 0.159391
O O5 0.876793 0.395283 0.493240
O O6 0.567726 0.421842 0.715650
O O7 0.500000 0.500000 0.000000
O O8 0.634425 0.209598 0.782630
O O9 0.360318 0.172813 0.770071
O O10 0.569207 0.903449 0.630585
O O11 0.340008 0.149073 0.004537
O O12 0.247562 0.307068 0.300121
O O13 0.151699 0.377696 0.610481
O O14 0.841984 0.476475 0.823980
O O15 0.500000 0.000000 0.000000
O O16 0.637401 0.555230 0.241665
O O17 0.773064 0.680738 0.262451
#
# Coordination Sequence:
#
# PCOD9013680 Si02
#       8
#     2   2   2   2   2   2   2   2
#     4  10  23  39  66  90 127 168 201 255 313 363
#     4  10  22  40  65  89 122 167 198 256 312 354
#     4  11  22  42  61  92 128 163 207 258 310 362
#     4  10  23  42  66  92 127 163 204 260 303 370
#     4  11  22  42  68  90 124 165 208 255 309 370
#     4  11  23  42  62  98 124 161 211 252 309 370
#     4  11  23  39  63  92 129 163 206 259 303 370
#     4  10  21  41  65  93 126 162 209 252 310 365
#
# _framework density 22.845647
#
# number of rings (size 3 to 8) (size 9 to 14) (size 15 to 20)
#    0.000    1.500    2.500    3.375    1.750    7.000 
#    2.250    3.750    0.000    0.000    0.000    0.000 
#    0.000    0.000    0.000    0.000    0.000    0.000 
#
# Total GULP energy -89536.691402 kJ/mol
# GULP energy per Si atom -5596.043213 kJ/mol
# Density = 2.279365 g / cm^3
# Si number density = 22.845647 Si / 1000 Ang^3
#
#
#
# Elastic Constant Matrix: (Units=GPa)
#
#
# Indices 1 2 3 4 5 6 
#
# 1 95.2357 48.5939 38.0105 -16.4065 18.2896 5.5986
# 2 48.5939 130.6247 42.0545 -31.5230 9.1784 20.2555
# 3 38.0105 42.0545 71.0283 -21.9904 4.9860 16.9786
# 4 -16.4065 -31.5230 -21.9904 38.1699 -2.0264 -6.0076
# 5 18.2896 9.1784 4.9860 -2.0264 30.2680 0.2171
# 6 5.5986 20.2555 16.9786 -6.0076 0.2171 33.9732
#
#
#
# Elastic Compliance Matrix: (Units=1/GPa)
#
#
# Indices 1 2 3 4 5 6 
#
# 1 0.016451 -0.003879 -0.006653 0.000098 -0.007684 0.002993
# 2 -0.003879 0.011987 -0.001958 0.006386 -0.000510 -0.004397
# 3 -0.006653 -0.001958 0.022922 0.007566 0.001401 -0.007863
# 4 0.000098 0.006386 0.007566 0.035624 -0.000848 -0.001300
# 5 -0.007684 -0.000510 0.001401 -0.000848 0.037545 0.000480
# 6 0.002993 -0.004397 -0.007863 -0.001300 0.000480 0.035260
#
#
# Mechanical properties :
#
#
# Convention : Reuss Voigt Hill
#
# Bulk Modulus (GPa) = 37.90535 61.57851 49.74193
# Shear Modulus (GPa) = 25.83144 31.69755 28.76450
#
# Velocity S-wave (km/s) = 3.36623 3.72891 3.55220
# Velocity P-wave (km/s) = 5.63353 6.74925 6.21647
#
# Compressibility (1/GPa) = 0.02638150
#
# Stress axis : x y z
#
# Youngs Moduli (GPa) = 60.78568 83.42042 43.62586
#
# Poissons Ratio (x) = 0.32356 0.29024
# Poissons Ratio (y) = 0.23577 0.08542
# Poissons Ratio (z) = 0.40441 0.16335
#
# Static dielectric constant tensor:
#      x y z
#    x 1.862960 0.015840 -0.018970 
#    y 0.015840 1.853870 0.002450 
#    z -0.018970 0.002450 1.870850 
# 
# From -- ./inp_files/397514.got.cif
#   From: 2010.05.17/outbox.cif.g08.bks.cpg/sg2_199_cif.got.tgz:397514.got - 2010.06.03 11:33:40.
