data_PCOD9013874
_publ_section_title
;
Structure prediction by ZEFSAII (Michael W. Deem and Ramdas Pophale) SiO2 
 PCOD9013874
Probable space group: P -1
;
_chemical_formula_sum "Si O2"
_cell_formula_units_Z 16
_cell_length_a 13.067021
_cell_length_b 17.350323
_cell_length_c 5.543470
_cell_angle_alpha 80.674032
_cell_angle_beta 81.198696
_cell_angle_gamma 28.373907
_cell_volume 589.220506
_symmetry_space_group_name_H-M "P -1"
_symmetry_group_IT_number 2
_symmetry_cell_setting 'triclinic'
loop_
_space_group_symop_operation_xyz
x,y,z
-x,-y,-z
loop_
_atom_site_type_symbol
_atom_site_label
_atom_site_fract_x
_atom_site_fract_y
_atom_site_fract_z
Si Si1 0.142203 0.249736 0.592222
Si Si2 0.590008 0.166107 0.226025
Si Si3 0.331433 0.436206 0.832729
Si Si4 0.538635 0.901818 0.805009
Si Si5 0.006423 0.907909 0.939532
Si Si6 0.183856 0.373886 0.794339
Si Si7 0.223381 0.614754 0.171295
Si Si8 0.343443 0.728570 0.566600
O O1 0.268308 0.174459 0.332945
O O2 0.102548 0.364249 0.636589
O O3 0.939404 0.326613 0.631855
O O4 0.319569 0.094909 0.790049
O O5 0.512623 0.133294 0.354270
O O6 0.678386 0.167136 0.390040
O O7 0.396006 0.342201 0.089213
O O8 0.767171 0.036725 0.017147
O O9 0.242920 0.425766 0.697142
O O10 0.545161 0.334593 0.698898
O O11 0.195736 0.594569 0.924743
O O12 0.615681 0.801676 0.056278
O O13 0.119154 0.838167 0.671398
O O14 0.153350 0.750224 0.114760
O O15 0.000000 0.000000 0.000000
O O16 0.000000 0.500000 0.000000
O O17 0.466190 0.441516 0.266106
#
# Coordination Sequence:
#
# PCOD9013874 Si02
#       8
#     2   2   2   2   2   2   2   2
#     4  11  22  37  60  86 119 159 195 231 286 346
#     4   9  19  40  61  84 121 152 193 242 288 334
#     4  10  22  39  58  88 121 155 192 235 286 346
#     4  10  22  38  59  86 118 159 194 236 280 348
#     4  10  21  41  66  84 114 152 193 246 300 336
#     4  11  22  37  57  87 123 154 190 233 286 338
#     4  11  22  39  61  86 120 152 190 243 291 340
#     4  10  22  38  61  88 115 152 197 241 286 350
#
# _framework density 27.154520999999999
#
# number of rings (size 3 to 8) (size 9 to 14) (size 15 to 20)
#    0.000    1.750    2.500    1.500    1.750    1.500 
#    0.000    2.500    0.000    0.000    0.000    0.000 
#    0.000    0.000    0.000    0.000    0.000    0.000 
#
# Total GULP energy -89486.049512 kJ/mol
# GULP energy per Si atom -5592.878094 kJ/mol
# Density = 2.709272 g / cm^3
# Si number density = 27.154521 Si / 1000 Ang^3
#
#
#
# Elastic Constant Matrix: (Units=GPa)
#
#
# Indices 1 2 3 4 5 6 
#
# 1 116.1105 51.4198 32.0843 -0.1064 -23.2907 10.4780
# 2 51.4198 136.9899 24.0417 -9.6068 -3.7938 20.1129
# 3 32.0843 24.0417 86.3528 9.6063 -30.1271 -0.7145
# 4 -0.1064 -9.6068 9.6063 38.3090 -11.1166 -13.3430
# 5 -23.2907 -3.7938 -30.1271 -11.1166 45.5756 5.9329
# 6 10.4780 20.1129 -0.7145 -13.3430 5.9329 57.7355
#
#
#
# Elastic Compliance Matrix: (Units=1/GPa)
#
#
# Indices 1 2 3 4 5 6 
#
# 1 0.011862 -0.003801 -0.001705 0.000498 0.004901 -0.001238
# 2 -0.003801 0.009454 -0.002065 0.001620 -0.001856 -0.002064
# 3 -0.001705 -0.002065 0.016225 -0.001976 0.009223 -0.000175
# 4 0.000498 0.001620 -0.001976 0.030724 0.005819 0.005823
# 5 0.004901 -0.001856 0.009223 0.005819 0.032079 -0.002080
# 6 -0.001238 -0.002064 -0.000175 0.005823 -0.002080 0.019821
#
#
# Mechanical properties :
#
#
# Convention : Reuss Voigt Hill
#
# Bulk Modulus (GPa) = 44.64330 61.61610 53.12970
# Shear Modulus (GPa) = 35.02070 43.78453 39.40261
#
# Velocity S-wave (km/s) = 3.59511 4.01985 3.81340
# Velocity P-wave (km/s) = 5.80597 6.65476 6.24480
#
# Compressibility (1/GPa) = 0.02239978
#
# Stress axis : x y z
#
# Youngs Moduli (GPa) = 84.30166 105.77382 61.63399
#
# Poissons Ratio (x) = 0.40203 0.10508
# Poissons Ratio (y) = 0.32042 0.12727
# Poissons Ratio (z) = 0.14372 0.21842
#
# Static dielectric constant tensor:
#      x y z
#    x 2.188590 -0.010020 0.104140 
#    y -0.010020 2.099960 -0.007790 
#    z 0.104140 -0.007790 2.194830 
# 
# From -- ./inp_files/46663.got.cif
#   From: 2010.05.17/outbox.cif.g08.bks.cpg/sg2_24_cif.got.tgz:46663.got - 2010.06.03 11:33:40.
