data_PCOD9013546
_publ_section_title
;
Structure prediction by ZEFSAII (Michael W. Deem and Ramdas Pophale) SiO2 
 PCOD9013546
Probable space group: P -1
;
_chemical_formula_sum "Si O2"
_cell_formula_units_Z 14
_cell_length_a 9.568052
_cell_length_b 11.786900
_cell_length_c 7.493249
_cell_angle_alpha 56.282476
_cell_angle_beta 129.837351
_cell_angle_gamma 110.548294
_cell_volume 539.732093
_symmetry_space_group_name_H-M "P -1"
_symmetry_group_IT_number 2
_symmetry_cell_setting 'triclinic'
loop_
_space_group_symop_operation_xyz
x,y,z
-x,-y,-z
loop_
_atom_site_type_symbol
_atom_site_label
_atom_site_fract_x
_atom_site_fract_y
_atom_site_fract_z
Si Si1 0.629443 0.885881 0.945043
Si Si2 0.813690 0.508707 0.212520
Si Si3 0.666504 0.145519 0.517033
Si Si4 0.483805 0.503854 0.718590
Si Si5 0.406862 0.262286 0.609995
Si Si6 0.973198 0.773313 0.150723
Si Si7 0.879810 0.940051 0.611961
O O1 0.520155 0.810562 0.763403
O O2 0.631005 0.043538 0.744009
O O3 0.539129 0.843799 0.094649
O O4 0.834248 0.826013 0.143831
O O5 0.653219 0.516156 0.215489
O O6 0.877166 0.655441 0.066654
O O7 0.000000 0.500000 0.500000
O O8 0.691228 0.455974 0.986186
O O9 0.829250 0.251630 0.581057
O O10 0.748517 0.047755 0.510458
O O11 0.391203 0.404518 0.583242
O O12 0.478458 0.665429 0.517275
O O13 0.239669 0.180908 0.462583
O O14 0.998681 0.887669 0.921614
O O15 0.000000 0.000000 0.500000
#
# Coordination Sequence:
#
# PCOD9013546 Si02
#       7
#     2   2   2   2   2   2   2
#     4  10  21  41  65  87 126 166 207 255 311 366
#     4  11  24  43  70  94 117 165 221 257 309 380
#     4  10  23  38  65  96 119 167 218 251 302 382
#     4  10  24  44  65  94 125 164 211 261 316 368
#     4  11  21  41  66  89 133 167 196 264 324 365
#     4  11  21  42  65  89 124 166 208 262 313 364
#     4  11  22  39  64  95 131 167 205 258 320 373
#
# _framework density 25.938793
#
# number of rings (size 3 to 8) (size 9 to 14) (size 15 to 20)
#    0.000    1.429    2.857    3.429    2.000    0.571 
#    5.143    2.857    0.000    0.000    0.000    0.000 
#    0.000    0.000    0.000    0.000    0.000    0.000 
#
# Total GULP energy -77942.947265 kJ/mol
# GULP energy per Si atom -5567.353376 kJ/mol
# Density = 2.587975 g / cm^3
# Si number density = 25.938793 Si / 1000 Ang^3
#
#
#
# Elastic Constant Matrix: (Units=GPa)
#
#
# Indices 1 2 3 4 5 6 
#
# 1 62.2947 19.4032 19.6541 3.2656 -5.0242 34.5295
# 2 19.4032 154.9061 4.9635 39.9798 2.2592 31.9858
# 3 19.6541 4.9635 104.0032 14.6777 5.7420 16.9234
# 4 3.2656 39.9798 14.6777 50.0837 15.6868 -3.3383
# 5 -5.0242 2.2592 5.7420 15.6868 50.9386 -0.5565
# 6 34.5295 31.9858 16.9234 -3.3383 -0.5565 43.5663
#
#
#
# Elastic Compliance Matrix: (Units=1/GPa)
#
#
# Indices 1 2 3 4 5 6 
#
# 1 0.031628 0.004114 -0.000605 -0.008754 0.005390 -0.028455
# 2 0.004114 0.011884 0.002485 -0.012433 0.003276 -0.013862
# 3 -0.000605 0.002485 0.011426 -0.005788 0.000256 -0.006223
# 4 -0.008754 -0.012433 -0.005788 0.036943 -0.010807 0.021007
# 5 0.005390 0.003276 0.000256 -0.010807 0.023237 -0.007308
# 6 -0.028455 -0.013862 -0.006223 0.021007 -0.007308 0.059617
#
#
# Mechanical properties :
#
#
# Convention : Reuss Voigt Hill
#
# Bulk Modulus (GPa) = 14.94216 45.47175 30.20695
# Shear Modulus (GPa) = 27.01866 47.39658 37.20762
#
# Velocity S-wave (km/s) = 3.23093 4.27927 3.79151
# Velocity P-wave (km/s) = 4.43752 6.47956 5.55321
#
# Compressibility (1/GPa) = 0.06692471
#
# Stress axis : x y z
#
# Youngs Moduli (GPa) = 31.61727 84.14806 87.51820
#
# Poissons Ratio (x) = -0.34617 0.05298
# Poissons Ratio (y) = -0.13007 -0.21746
# Poissons Ratio (z) = 0.01914 -0.20908
#
# Static dielectric constant tensor:
#      x y z
#    x 2.097170 0.000930 -0.148940 
#    y 0.000930 2.269760 -0.227650 
#    z -0.148940 -0.227650 2.526720 
# 
# From -- ./inp_files/271976.got.cif
#   From: 2010.05.17/outbox.cif.g08.bks.cpg/sg2_136_cif.got.tgz:271976.got - 2010.06.03 11:33:40.
