data_PCOD9013346
_publ_section_title
;
Structure prediction by ZEFSAII (Michael W. Deem and Ramdas Pophale) SiO2 
 PCOD9013346
Probable space group: P -1
;
_chemical_formula_sum "Si O2"
_cell_formula_units_Z 12
_cell_length_a 9.051070
_cell_length_b 11.783513
_cell_length_c 19.120318
_cell_angle_alpha 21.911170
_cell_angle_beta 57.839900
_cell_angle_gamma 57.376712
_cell_volume 637.570087
_symmetry_space_group_name_H-M "P -1"
_symmetry_group_IT_number 2
_symmetry_cell_setting 'triclinic'
loop_
_space_group_symop_operation_xyz
x,y,z
-x,-y,-z
loop_
_atom_site_type_symbol
_atom_site_label
_atom_site_fract_x
_atom_site_fract_y
_atom_site_fract_z
Si Si1 0.390357 0.159207 0.501259
Si Si2 0.048160 0.562394 0.295110
Si Si3 0.006637 0.275737 0.943039
Si Si4 0.659208 0.677034 0.339722
Si Si5 0.390840 0.302458 0.821503
Si Si6 0.338631 0.763019 0.875089
O O1 0.206559 0.338721 0.416581
O O2 0.501739 0.412473 0.360592
O O3 0.500000 0.000000 0.500000
O O4 0.356262 0.913401 0.709098
O O5 0.058569 0.576180 0.200120
O O6 0.854209 0.485163 0.407573
O O7 0.047968 0.908959 0.126180
O O8 0.192998 0.375753 0.860184
O O9 0.851312 0.339669 0.002048
O O10 0.500000 0.500000 0.500000
O O11 0.640140 0.767928 0.211634
O O12 0.651171 0.969974 0.223380
O O13 0.500000 0.000000 0.000000
O O14 0.500000 0.500000 0.000000
#
# Coordination Sequence:
#
# PCOD9013346 Si02
#       6
#     2   2   2   2   2   2
#     4  12  25  40  61  94 125 159 200 254 308 355
#     4   9  19  37  63  88 122 158 199 247 302 361
#     4   9  19  39  64  87 118 164 201 241 302 363
#     4  10  21  41  64  92 117 161 208 246 296 361
#     4  11  22  39  66  92 120 157 207 250 293 364
#     4  11  24  41  63  88 128 162 198 252 308 354
#
# _framework density 18.821459999999998
#
# number of rings (size 3 to 8) (size 9 to 14) (size 15 to 20)
#    0.000    1.667    3.333    2.000    2.333    4.000 
#    3.000    3.333    0.000    0.000    0.000    0.000 
#    0.000    0.000    0.000    0.000    0.000    0.000 
#
# Total GULP energy -67009.028403 kJ/mol
# GULP energy per Si atom -5584.085700 kJ/mol
# Density = 1.877862 g / cm^3
# Si number density = 18.821460 Si / 1000 Ang^3
#
#
#
# Elastic Constant Matrix: (Units=GPa)
#
#
# Indices 1 2 3 4 5 6 
#
# 1 137.7569 52.9881 60.3141 16.9202 17.9918 -41.5943
# 2 52.9881 114.4269 46.7153 23.2173 18.0203 -24.6971
# 3 60.3141 46.7153 93.6069 23.8783 20.3101 -35.0039
# 4 16.9202 23.2173 23.8783 24.4702 -9.6858 -7.9761
# 5 17.9918 18.0203 20.3101 -9.6858 39.2436 1.2831
# 6 -41.5943 -24.6971 -35.0039 -7.9761 1.2831 39.1094
#
#
#
# Elastic Compliance Matrix: (Units=1/GPa)
#
#
# Indices 1 2 3 4 5 6 
#
# 1 0.013252 -0.000532 0.000508 -0.008384 -0.008581 0.012784
# 2 -0.000532 0.016373 0.005902 -0.024009 -0.016604 0.010703
# 3 0.000508 0.005902 0.038891 -0.048222 -0.035967 0.030421
# 4 -0.008384 -0.024009 -0.048222 0.131738 0.073738 -0.042789
# 5 -0.008581 -0.016604 -0.035967 0.073738 0.075137 -0.039230
# 6 0.012784 0.010703 0.030421 -0.042789 -0.039230 0.065713
#
#
# Mechanical properties :
#
#
# Convention : Reuss Voigt Hill
#
# Bulk Modulus (GPa) = 12.45792 73.98063 43.21928
# Shear Modulus (GPa) = 14.04076 32.94952 23.49514
#
# Velocity S-wave (km/s) = 2.73426 4.18860 3.53699
# Velocity P-wave (km/s) = 4.07451 7.92366 6.30024
#
# Compressibility (1/GPa) = 0.08027020
#
# Stress axis : x y z
#
# Youngs Moduli (GPa) = 75.45953 61.07712 25.71292
#
# Poissons Ratio (x) = 0.03252 -0.01306
# Poissons Ratio (y) = 0.04017 -0.15175
# Poissons Ratio (z) = -0.03834 -0.36045
#
# Static dielectric constant tensor:
#      x y z
#    x 1.663400 -0.018920 -0.028700 
#    y -0.018920 1.645650 0.037070 
#    z -0.028700 0.037070 1.639820 
# 
# From -- ./inp_files/144382.got.cif
#   From: 2010.05.17/outbox.cif.g08.bks.cpg/sg2_73_cif.got.tgz:144382.got - 2010.06.03 11:33:40.
