data_PCOD9013670
_publ_section_title
;
Structure prediction by ZEFSAII (Michael W. Deem and Ramdas Pophale) SiO2 
 PCOD9013670
Probable space group: P -1
;
_chemical_formula_sum "Si O2"
_cell_formula_units_Z 16
_cell_length_a 11.311573
_cell_length_b 9.313628
_cell_length_c 13.051372
_cell_angle_alpha 126.801247
_cell_angle_beta 40.556000
_cell_angle_gamma 131.131137
_cell_volume 659.387759
_symmetry_space_group_name_H-M "P -1"
_symmetry_group_IT_number 2
_symmetry_cell_setting 'triclinic'
loop_
_space_group_symop_operation_xyz
x,y,z
-x,-y,-z
loop_
_atom_site_type_symbol
_atom_site_label
_atom_site_fract_x
_atom_site_fract_y
_atom_site_fract_z
Si Si1 0.689765 0.032937 0.958653
Si Si2 0.073383 0.710279 0.490074
Si Si3 0.968303 0.308512 0.719781
Si Si4 0.636392 0.649332 0.778962
Si Si5 0.373657 0.233296 0.746778
Si Si6 0.463481 0.051316 0.414715
Si Si7 0.601008 0.683296 0.585643
Si Si8 0.012156 0.660592 0.974132
O O1 0.853022 0.151775 0.814816
O O2 0.792170 0.160265 0.044091
O O3 0.628924 0.806293 0.930818
O O4 0.500000 0.000000 0.000000
O O5 0.132525 0.716489 0.335092
O O6 0.254229 0.872391 0.496701
O O7 0.000000 0.500000 0.500000
O O8 0.869281 0.738860 0.642300
O O9 0.170792 0.279690 0.557906
O O10 0.013091 0.531296 0.819567
O O11 0.529247 0.424989 0.782280
O O12 0.539642 0.654253 0.732690
O O13 0.371510 0.038742 0.720524
O O14 0.171192 0.268662 0.880059
O O15 0.469648 0.210310 0.564461
O O16 0.440667 0.141292 0.360964
O O17 0.500000 0.500000 0.500000
O O18 0.000000 0.500000 0.000000
#
# Coordination Sequence:
#
# PCOD9013670 Si02
#       8
#     2   2   2   2   2   2   2   2
#     4  11  23  38  67  98 132 174 223 280 334 399
#     4  11  22  41  65  96 135 177 217 288 340 391
#     4  10  23  41  65 100 134 177 231 279 337 402
#     4  11  21  37  62  98 126 167 234 263 344 396
#     4  11  22  37  65  96 129 181 215 273 339 410
#     4  11  22  39  62  96 136 170 227 276 345 396
#     4  11  22  36  67  98 129 169 217 292 333 396
#     4  10  21  41  65  92 134 176 223 277 331 402
#
# _framework density 24.264935000000001
#
# number of rings (size 3 to 8) (size 9 to 14) (size 15 to 20)
#    0.000    1.250    2.500    5.250    1.750    2.000 
#    0.000    0.625    2.750    2.250    0.000    0.000 
#    0.000    0.000    0.000    0.000    0.000    0.000 
#
# Total GULP energy -89259.397306 kJ/mol
# GULP energy per Si atom -5578.712332 kJ/mol
# Density = 2.420971 g / cm^3
# Si number density = 24.264935 Si / 1000 Ang^3
#
#
#
# Elastic Constant Matrix: (Units=GPa)
#
#
# Indices 1 2 3 4 5 6 
#
# 1 91.2671 32.1094 35.7480 18.2254 -21.5717 6.3372
# 2 32.1094 114.9676 33.7189 34.4654 -4.9373 15.2509
# 3 35.7480 33.7189 87.4936 21.9531 -29.0617 7.0933
# 4 18.2254 34.4654 21.9531 45.0107 -0.6629 3.2202
# 5 -21.5717 -4.9373 -29.0617 -0.6629 39.3548 5.7625
# 6 6.3372 15.2509 7.0933 3.2202 5.7625 58.8249
#
#
#
# Elastic Compliance Matrix: (Units=1/GPa)
#
#
# Indices 1 2 3 4 5 6 
#
# 1 0.014771 -0.002105 -0.002262 -0.003086 0.006289 -0.001220
# 2 -0.002105 0.012414 -0.002228 -0.007423 -0.001043 -0.002214
# 3 -0.002262 -0.002228 0.019353 -0.006451 0.013020 -0.002435
# 4 -0.003086 -0.007423 -0.006451 0.032050 -0.007137 0.001979
# 5 0.006289 -0.001043 0.013020 -0.007137 0.039012 -0.005408
# 6 -0.001220 -0.002214 -0.002435 0.001979 -0.005408 0.018420
#
#
# Mechanical properties :
#
#
# Convention : Reuss Voigt Hill
#
# Bulk Modulus (GPa) = 29.98731 55.20899 42.59815
# Shear Modulus (GPa) = 31.18650 41.44823 36.31737
#
# Velocity S-wave (km/s) = 3.58893 4.13746 3.87292
# Velocity P-wave (km/s) = 5.43682 6.75476 6.13130
#
# Compressibility (1/GPa) = 0.03334744
#
# Stress axis : x y z
#
# Youngs Moduli (GPa) = 67.70203 80.55488 51.67185
#
# Poissons Ratio (x) = 0.16956 0.11687
# Poissons Ratio (y) = 0.14251 0.11514
# Poissons Ratio (z) = 0.15312 0.17951
#
# Static dielectric constant tensor:
#      x y z
#    x 1.953770 -0.031720 -0.031980 
#    y -0.031720 1.942180 0.086950 
#    z -0.031980 0.086950 2.077750 
# 
# From -- ./inp_files/399334.got.cif
#   From: 2010.05.17/outbox.cif.g08.bks.cpg/sg2_200_cif.got.tgz:399334.got - 2010.06.03 11:33:40.
