data_PCOD9013240
_publ_section_title
;
Structure prediction by ZEFSAII (Michael W. Deem and Ramdas Pophale) SiO2 
 PCOD9013240
Probable space group: P -1
;
_chemical_formula_sum "Si O2"
_cell_formula_units_Z 10
_cell_length_a 14.057801
_cell_length_b 8.086212
_cell_length_c 12.619362
_cell_angle_alpha 116.120829
_cell_angle_beta 151.434939
_cell_angle_gamma 46.544523
_cell_volume 438.978476
_symmetry_space_group_name_H-M "P -1"
_symmetry_group_IT_number 2
_symmetry_cell_setting 'triclinic'
loop_
_space_group_symop_operation_xyz
x,y,z
-x,-y,-z
loop_
_atom_site_type_symbol
_atom_site_label
_atom_site_fract_x
_atom_site_fract_y
_atom_site_fract_z
Si Si1 0.735777 0.272733 0.900518
Si Si2 0.667309 0.198974 0.595207
Si Si3 0.807677 0.605677 0.944909
Si Si4 0.288204 0.660951 0.743560
Si Si5 0.804849 0.853968 0.215305
O O1 0.641326 0.189190 0.694225
O O2 0.840117 0.385345 0.970115
O O3 0.477688 0.510224 0.782387
O O4 0.997910 0.025562 0.154395
O O5 0.500000 0.500000 0.500000
O O6 0.505710 0.173696 0.348191
O O7 0.864582 0.710553 0.124308
O O8 0.000000 0.500000 0.000000
O O9 0.035998 0.681979 0.485191
O O10 0.183615 0.936145 0.734367
O O11 0.500000 0.500000 0.000000
O O12 0.500000 0.000000 0.000000
#
# Coordination Sequence:
#
# PCOD9013240 Si02
#       5
#     2   2   2   2   2
#     4  10  21  41  63  98 134 173 230 278 330 412
#     4   9  21  38  66  90 131 173 216 278 344 387
#     4  11  23  40  67  96 133 178 225 281 341 392
#     4  11  26  42  70  98 137 186 224 275 347 400
#     4  11  25  46  68 100 142 176 231 281 330 410
#
# _framework density 22.780161
#
# number of rings (size 3 to 8) (size 9 to 14) (size 15 to 20)
#    0.000    1.600    2.000    1.200    2.800    9.600 
#    0.000    0.000    0.000    0.000    0.000    0.000 
#    0.000    0.000    0.000    0.000    0.000    0.000 
#
# Total GULP energy -55794.125852 kJ/mol
# GULP energy per Si atom -5579.412585 kJ/mol
# Density = 2.272831 g / cm^3
# Si number density = 22.780161 Si / 1000 Ang^3
#
#
#
# Elastic Constant Matrix: (Units=GPa)
#
#
# Indices 1 2 3 4 5 6 
#
# 1 72.3594 13.9176 28.9376 7.5877 8.2805 -14.7029
# 2 13.9176 92.9097 48.3162 17.0600 -6.3823 -22.6635
# 3 28.9376 48.3162 210.5642 19.0214 -15.1120 -2.3435
# 4 7.5877 17.0600 19.0214 43.4525 -8.0559 -8.6544
# 5 8.2805 -6.3823 -15.1120 -8.0559 25.9903 -1.9073
# 6 -14.7029 -22.6635 -2.3435 -8.6544 -1.9073 26.9294
#
#
#
# Elastic Compliance Matrix: (Units=1/GPa)
#
#
# Indices 1 2 3 4 5 6 
#
# 1 0.017607 0.000906 -0.002873 -0.001636 -0.006896 0.009111
# 2 0.000906 0.016113 -0.003345 -0.001991 0.002080 0.013271
# 3 -0.002873 -0.003345 0.006188 -0.001123 0.003051 -0.003990
# 4 -0.001636 -0.001991 -0.001123 0.027474 0.008391 0.006757
# 5 -0.006896 0.002080 0.003051 0.008391 0.045867 0.004196
# 6 0.009111 0.013271 -0.003990 0.006757 0.004196 0.055399
#
#
# Mechanical properties :
#
#
# Convention : Reuss Voigt Hill
#
# Bulk Modulus (GPa) = 34.15011 62.01956 48.08483
# Shear Modulus (GPa) = 26.45058 38.25190 32.35124
#
# Velocity S-wave (km/s) = 3.41122 4.10222 3.77258
# Velocity P-wave (km/s) = 5.52621 7.05138 6.33486
#
# Compressibility (1/GPa) = 0.02928248
#
# Stress axis : x y z
#
# Youngs Moduli (GPa) = 56.79632 62.06322 161.61588
#
# Poissons Ratio (x) = -0.05623 0.46437
# Poissons Ratio (y) = -0.05145 0.54058
# Poissons Ratio (z) = 0.16319 0.20759
#
# Static dielectric constant tensor:
#      x y z
#    x 1.855520 0.039940 -0.021880 
#    y 0.039940 1.831420 0.013710 
#    z -0.021880 0.013710 2.034540 
# 
# From -- ./inp_files/18060.got.cif
#   From: 2010.05.17/outbox.cif.g08.bks.cpg/sg2_10_cif.got.tgz:18060.got - 2010.06.03 11:33:40.
