data_PCOD9013199
_publ_section_title
;
Structure prediction by ZEFSAII (Michael W. Deem and Ramdas Pophale) SiO2 
 PCOD9013199
Probable space group: P -1
;
_chemical_formula_sum "Si O2"
_cell_formula_units_Z 16
_cell_length_a 18.778049
_cell_length_b 5.660929
_cell_length_c 9.475584
_cell_angle_alpha 49.501599
_cell_angle_beta 73.487360
_cell_angle_gamma 75.540614
_cell_volume 731.425021
_symmetry_space_group_name_H-M "P -1"
_symmetry_group_IT_number 2
_symmetry_cell_setting 'triclinic'
loop_
_space_group_symop_operation_xyz
x,y,z
-x,-y,-z
loop_
_atom_site_type_symbol
_atom_site_label
_atom_site_fract_x
_atom_site_fract_y
_atom_site_fract_z
Si Si1 0.078782 0.469242 0.390403
Si Si2 0.195017 0.700188 0.415272
Si Si3 0.549016 0.290194 0.870807
Si Si4 0.307782 0.093951 0.537977
Si Si5 0.042625 0.681518 0.027570
Si Si6 0.596029 0.327486 0.151069
Si Si7 0.838686 0.185788 0.312380
Si Si8 0.330106 0.078245 0.212608
O O1 0.133270 0.721167 0.318869
O O2 0.063235 0.473406 0.232599
O O3 0.000000 0.500000 0.500000
O O4 0.122732 0.150598 0.536442
O O5 0.155162 0.634178 0.612748
O O6 0.244524 0.996085 0.277338
O O7 0.255941 0.407712 0.475378
O O8 0.582907 0.274827 0.013839
O O9 0.615298 0.219890 0.750981
O O10 0.486782 0.578433 0.777071
O O11 0.500000 0.000000 0.000000
O O12 0.248478 0.834025 0.655831
O O13 0.343847 0.131197 0.349957
O O14 0.364148 0.964591 0.676242
O O15 0.118542 0.734783 0.882332
O O16 0.000000 0.500000 0.000000
O O17 0.000000 0.000000 0.000000
O O18 0.646305 0.625560 0.004229
#
# Coordination Sequence:
#
# PCOD9013199 Si02
#       8
#     2   2   2   2   2   2   2   2
#     4  11  23  44  70  93 132 172 216 277 339 397
#     4  10  23  42  66  94 133 176 220 274 338 403
#     4   9  20  38  64  93 128 169 219 267 332 395
#     4  10  23  41  62  93 130 169 221 270 329 399
#     4  12  27  44  69 103 131 172 228 279 343 418
#     4  10  21  41  64  93 131 171 215 276 329 395
#     4  10  24  43  64  95 129 171 217 274 337 406
#     4  10  21  41  63  95 129 169 219 272 330 401
#
# _framework density 21.875107
#
# number of rings (size 3 to 8) (size 9 to 14) (size 15 to 20)
#    0.000    1.750    1.250    1.500    3.500    9.500 
#    0.000   10.000    0.000    0.000    0.000    0.000 
#    0.000    0.000    0.000    0.000    0.000    0.000 
#
# Total GULP energy -89283.417455 kJ/mol
# GULP energy per Si atom -5580.213591 kJ/mol
# Density = 2.182532 g / cm^3
# Si number density = 21.875107 Si / 1000 Ang^3
#
#
#
# Elastic Constant Matrix: (Units=GPa)
#
#
# Indices 1 2 3 4 5 6 
#
# 1 106.3252 27.8132 40.3131 7.6526 10.9705 4.7306
# 2 27.8132 88.3839 13.9709 23.9045 -1.9531 -7.3015
# 3 40.3131 13.9709 86.8607 18.8213 -2.7580 -2.4570
# 4 7.6526 23.9045 18.8213 30.8299 -9.4156 -7.1919
# 5 10.9705 -1.9531 -2.7580 -9.4156 34.8998 6.9915
# 6 4.7306 -7.3015 -2.4570 -7.1919 6.9915 40.4006
#
#
#
# Elastic Compliance Matrix: (Units=1/GPa)
#
#
# Indices 1 2 3 4 5 6 
#
# 1 0.013041 -0.003873 -0.006001 0.001847 -0.003976 -0.001575
# 2 -0.003873 0.015690 0.001980 -0.012511 -0.001409 0.001426
# 3 -0.006001 0.001980 0.016091 -0.009627 0.000628 0.000217
# 4 0.001847 -0.012511 -0.009627 0.051945 0.011119 0.004260
# 5 -0.003976 -0.001409 0.000628 0.011119 0.033592 -0.003585
# 6 -0.001575 0.001426 0.000217 0.004260 -0.003585 0.026586
#
#
# Mechanical properties :
#
#
# Convention : Reuss Voigt Hill
#
# Bulk Modulus (GPa) = 34.43977 49.52934 41.98456
# Shear Modulus (GPa) = 27.41074 34.52424 30.96749
#
# Velocity S-wave (km/s) = 3.54369 3.97702 3.76659
# Velocity P-wave (km/s) = 5.70278 6.61664 6.17663
#
# Compressibility (1/GPa) = 0.02903620
#
# Stress axis : x y z
#
# Youngs Moduli (GPa) = 76.68336 63.73299 62.14579
#
# Poissons Ratio (x) = 0.24683 0.37291
# Poissons Ratio (y) = 0.29698 -0.12307
# Poissons Ratio (z) = 0.46014 -0.12621
#
# Static dielectric constant tensor:
#      x y z
#    x 1.838680 0.052100 -0.045400 
#    y 0.052100 1.905770 -0.025160 
#    z -0.045400 -0.025160 1.767280 
# 
# From -- ./inp_files/53004.got.cif
#   From: 2010.05.17/outbox.cif.g08.bks.cpg/sg2_27_cif.got.tgz:53004.got - 2010.06.03 11:33:40.
