data_PCOD9013698
_publ_section_title
;
Structure prediction by ZEFSAII (Michael W. Deem and Ramdas Pophale) SiO2 
 PCOD9013698
Probable space group: P -1
;
_chemical_formula_sum "Si O2"
_cell_formula_units_Z 14
_cell_length_a 12.009204
_cell_length_b 8.216148
_cell_length_c 7.320208
_cell_angle_alpha 66.145207
_cell_angle_beta 119.147641
_cell_angle_gamma 96.820339
_cell_volume 574.154791
_symmetry_space_group_name_H-M "P -1"
_symmetry_group_IT_number 2
_symmetry_cell_setting 'triclinic'
loop_
_space_group_symop_operation_xyz
x,y,z
-x,-y,-z
loop_
_atom_site_type_symbol
_atom_site_label
_atom_site_fract_x
_atom_site_fract_y
_atom_site_fract_z
Si Si1 0.972662 0.714378 0.372496
Si Si2 0.640770 0.503546 0.453279
Si Si3 0.154833 0.799145 0.193813
Si Si4 0.305377 0.126204 0.794840
Si Si5 0.185830 0.787788 0.787453
Si Si6 0.369006 0.066015 0.263974
Si Si7 0.378961 0.468034 0.154868
O O1 0.018659 0.802966 0.182090
O O2 0.060537 0.788381 0.566345
O O3 0.000000 0.500000 0.500000
O O4 0.826119 0.779605 0.265134
O O5 0.774386 0.386582 0.583691
O O6 0.641112 0.715777 0.344449
O O7 0.531338 0.452266 0.250654
O O8 0.620326 0.458705 0.669847
O O9 0.253008 0.944047 0.257961
O O10 0.148213 0.795854 0.969696
O O11 0.264888 0.955830 0.733992
O O12 0.392764 0.062301 0.065713
O O13 0.280441 0.608864 0.911303
O O14 0.333891 0.272245 0.195248
O O15 0.500000 0.000000 0.500000
#
# Coordination Sequence:
#
# PCOD9013698 Si02
#       7
#     2   2   2   2   2   2   2
#     4  12  24  44  70  97 129 176 225 269 326 385
#     4  10  21  41  65  93 135 168 214 273 322 390
#     4  10  23  44  67  98 135 172 217 273 327 386
#     4  11  25  43  63  98 132 171 224 269 320 391
#     4  10  25  44  64  98 137 171 219 269 327 392
#     4  11  23  42  67  96 131 171 218 271 329 390
#     4  10  22  41  65  96 130 173 212 265 340 384
#
# _framework density 24.383668
#
# number of rings (size 3 to 8) (size 9 to 14) (size 15 to 20)
#    0.000    1.429    2.857    1.286    4.000    5.143 
#    2.571    0.000    0.000    0.000    0.000    0.000 
#    0.000    0.000    0.000    0.000    0.000    0.000 
#
# Total GULP energy -78362.066548 kJ/mol
# GULP energy per Si atom -5597.290468 kJ/mol
# Density = 2.432817 g / cm^3
# Si number density = 24.383668 Si / 1000 Ang^3
#
#
#
# Elastic Constant Matrix: (Units=GPa)
#
#
# Indices 1 2 3 4 5 6 
#
# 1 58.1647 -6.8804 2.1741 2.7704 -6.8670 5.5766
# 2 -6.8804 122.3926 20.4131 -14.7437 -2.3913 9.6203
# 3 2.1741 20.4131 105.4297 13.4378 -1.0087 3.2336
# 4 2.7704 -14.7437 13.4378 50.2017 -1.6229 -0.6787
# 5 -6.8670 -2.3913 -1.0087 -1.6229 27.9074 -7.3566
# 6 5.5766 9.6203 3.2336 -0.6787 -7.3566 28.6648
#
#
#
# Elastic Compliance Matrix: (Units=1/GPa)
#
#
# Indices 1 2 3 4 5 6 
#
# 1 0.018117 0.001354 -0.000458 -0.000399 0.003750 -0.002974
# 2 0.001354 0.009223 -0.002125 0.003178 0.000460 -0.002926
# 3 -0.000458 -0.002125 0.010350 -0.003384 -0.000252 -0.000510
# 4 -0.000399 0.003178 -0.003384 0.021829 0.001392 0.000267
# 5 0.003750 0.000460 -0.000252 0.001392 0.039309 0.009266
# 6 -0.002974 -0.002926 -0.000510 0.000267 0.009266 0.038888
#
#
# Mechanical properties :
#
#
# Convention : Reuss Voigt Hill
#
# Bulk Modulus (GPa) = 28.38268 35.26675 31.82472
# Shear Modulus (GPa) = 32.91245 39.37346 36.14296
#
# Velocity S-wave (km/s) = 3.67791 4.02275 3.85419
# Velocity P-wave (km/s) = 5.44990 6.00594 5.73466
#
# Compressibility (1/GPa) = 0.03523275
#
# Stress axis : x y z
#
# Youngs Moduli (GPa) = 55.19767 108.42890 96.61487
#
# Poissons Ratio (x) = -0.14680 0.04423
# Poissons Ratio (y) = -0.07473 0.20526
# Poissons Ratio (z) = 0.02527 0.23036
#
# Static dielectric constant tensor:
#      x y z
#    x 2.049540 -0.036510 0.032110 
#    y -0.036510 1.907250 -0.029740 
#    z 0.032110 -0.029740 1.938130 
# 
# From -- ./inp_files/156800.got.cif
#   From: 2010.05.17/outbox.cif.g08.bks.cpg/sg2_79_cif.got.tgz:156800.got - 2010.06.03 11:33:40.
