data_PCOD9013703
_publ_section_title
;
Structure prediction by ZEFSAII (Michael W. Deem and Ramdas Pophale) SiO2 
 PCOD9013703
Probable space group: P -1
;
_chemical_formula_sum "Si O2"
_cell_formula_units_Z 16
_cell_length_a 23.447718
_cell_length_b 14.070470
_cell_length_c 8.182202
_cell_angle_alpha 147.032735
_cell_angle_beta 43.772974
_cell_angle_gamma 155.394464
_cell_volume 601.668111
_symmetry_space_group_name_H-M "P -1"
_symmetry_group_IT_number 2
_symmetry_cell_setting 'triclinic'
loop_
_space_group_symop_operation_xyz
x,y,z
-x,-y,-z
loop_
_atom_site_type_symbol
_atom_site_label
_atom_site_fract_x
_atom_site_fract_y
_atom_site_fract_z
Si Si1 0.577538 0.751160 0.573659
Si Si2 0.760717 0.751571 0.172946
Si Si3 0.241128 0.721807 0.796206
Si Si4 0.584044 0.471303 0.720465
Si Si5 0.872917 0.835506 0.725259
Si Si6 0.880966 0.514274 0.836645
Si Si7 0.009805 0.609131 0.356598
Si Si8 0.623386 0.159705 0.658178
O O1 0.500000 0.500000 0.500000
O O2 0.675257 0.772722 0.313754
O O3 0.465018 0.632838 0.513356
O O4 0.660979 0.026312 0.909540
O O5 0.883070 0.062800 0.463886
O O6 0.845754 0.801424 0.926842
O O7 0.655700 0.422772 0.978274
O O8 0.171211 0.434692 0.609366
O O9 0.323439 0.813222 0.590848
O O10 0.116889 0.630105 0.850799
O O11 0.751516 0.757388 0.796089
O O12 0.523406 0.191454 0.527317
O O13 0.500000 0.500000 0.000000
O O14 0.029381 0.161061 0.837853
O O15 0.945726 0.569908 0.605630
O O16 0.914700 0.432339 0.788401
O O17 0.720204 0.256738 0.748129
#
# Coordination Sequence:
#
# PCOD9013703 Si02
#       8
#     2   2   2   2   2   2   2   2
#     4  12  27  42  61  89 132 167 209 256 322 373
#     4  10  21  41  65  94 125 166 211 257 308 373
#     4  10  23  40  63  95 131 161 203 260 322 365
#     4  12  25  42  67  92 124 168 219 257 308 373
#     4  10  22  39  67  95 125 165 213 260 304 374
#     4   9  18  34  65 100 122 158 215 261 302 362
#     4   9  18  35  66  94 126 161 207 257 312 372
#     4  10  22  41  70  95 124 165 214 260 304 373
#
# _framework density 26.592732000000002
#
# number of rings (size 3 to 8) (size 9 to 14) (size 15 to 20)
#    0.000    1.750    1.250    2.250    8.750    5.000 
#    0.000    0.000    0.000    3.000    0.000    0.000 
#    0.000    0.000    0.000    0.000    0.000    0.000 
#
# Total GULP energy -89501.200578 kJ/mol
# GULP energy per Si atom -5593.825036 kJ/mol
# Density = 2.653221 g / cm^3
# Si number density = 26.592732 Si / 1000 Ang^3
#
#
#
# Elastic Constant Matrix: (Units=GPa)
#
#
# Indices 1 2 3 4 5 6 
#
# 1 124.8500 -1.7364 27.6837 -3.8591 16.8203 5.3922
# 2 -1.7364 66.8765 5.7108 6.5316 5.2564 -12.1615
# 3 27.6837 5.7108 135.8194 7.0661 4.6117 -9.5100
# 4 -3.8591 6.5316 7.0661 35.9892 -1.9340 -2.1297
# 5 16.8203 5.2564 4.6117 -1.9340 43.0919 9.0084
# 6 5.3922 -12.1615 -9.5100 -2.1297 9.0084 33.6714
#
#
#
# Elastic Compliance Matrix: (Units=1/GPa)
#
#
# Indices 1 2 3 4 5 6 
#
# 1 0.008911 0.000362 -0.001845 0.001032 -0.003085 -0.000927
# 2 0.000362 0.016770 -0.000030 -0.002796 -0.003734 0.006813
# 3 -0.001845 -0.000030 0.008038 -0.001655 -0.000766 0.002655
# 4 0.001032 -0.002796 -0.001655 0.028795 0.001452 -0.000210
# 5 -0.003085 -0.003734 -0.000766 0.001452 0.026711 -0.008125
# 6 -0.000927 0.006813 0.002655 -0.000210 -0.008125 0.035218
#
#
# Mechanical properties :
#
#
# Convention : Reuss Voigt Hill
#
# Bulk Modulus (GPa) = 32.57973 43.42913 38.00443
# Shear Modulus (GPa) = 36.31041 42.27637 39.29339
#
# Velocity S-wave (km/s) = 3.69918 3.99152 3.84812
# Velocity P-wave (km/s) = 5.52478 6.13267 5.83664
#
# Compressibility (1/GPa) = 0.03069393
#
# Stress axis : x y z
#
# Youngs Moduli (GPa) = 112.21592 59.62909 124.40725
#
# Poissons Ratio (x) = -0.02159 0.22958
# Poissons Ratio (y) = -0.04064 0.00369
# Poissons Ratio (z) = 0.20709 0.00177
#
# Static dielectric constant tensor:
#      x y z
#    x 2.140030 0.110890 -0.069800 
#    y 0.110890 2.228340 -0.092400 
#    z -0.069800 -0.092400 2.119910 
# 
# From -- ./inp_files/354613.got.cif
#   From: 2010.05.17/outbox.cif.g08.bks.cpg/sg2_178_cif.got.tgz:354613.got - 2010.06.03 11:33:40.
