data_PCOD9013883
_publ_section_title
;
Structure prediction by ZEFSAII (Michael W. Deem and Ramdas Pophale) SiO2 
 PCOD9013883
Probable space group: P -1
;
_chemical_formula_sum "Si O2"
_cell_formula_units_Z 16
_cell_length_a 5.256055
_cell_length_b 5.189282
_cell_length_c 22.976745
_cell_angle_alpha 83.463663
_cell_angle_beta 86.039375
_cell_angle_gamma 83.889991
_cell_volume 618.053924
_symmetry_space_group_name_H-M "P -1"
_symmetry_group_IT_number 2
_symmetry_cell_setting 'triclinic'
loop_
_space_group_symop_operation_xyz
x,y,z
-x,-y,-z
loop_
_atom_site_type_symbol
_atom_site_label
_atom_site_fract_x
_atom_site_fract_y
_atom_site_fract_z
Si Si1 0.155923 0.561696 0.566153
Si Si2 0.891235 0.268866 0.241158
Si Si3 0.557007 0.319981 0.731252
Si Si4 0.079494 0.167136 0.671141
Si Si5 0.207120 0.439969 0.128506
Si Si6 0.616354 0.010094 0.160844
Si Si7 0.016282 0.970186 0.069066
Si Si8 0.639400 0.753096 0.538677
O O1 0.089498 0.299300 0.605021
O O2 0.414006 0.665098 0.585294
O O3 0.255846 0.475814 0.502320
O O4 0.910964 0.776498 0.564801
O O5 0.616554 0.417854 0.256369
O O6 0.841457 0.038998 0.202840
O O7 0.056965 0.438505 0.192820
O O8 0.984824 0.122167 0.302539
O O9 0.363940 0.195455 0.691931
O O10 0.837261 0.335938 0.700847
O O11 0.571312 0.148389 0.794556
O O12 0.484353 0.294388 0.140614
O O13 0.203295 0.720839 0.092566
O O14 0.086839 0.237290 0.091227
O O15 0.748338 0.901601 0.103230
O O16 0.000000 0.000000 0.000000
O O17 0.500000 0.000000 0.500000
#
# Coordination Sequence:
#
# PCOD9013883 Si02
#       8
#     2   2   2   2   2   2   2   2
#     4  10  22  39  61  94 127 161 220 271 321 398
#     4  10  23  38  61  90 125 171 215 267 334 410
#     4  11  23  40  63  90 131 172 219 266 337 401
#     4  11  24  39  60  97 130 167 214 277 329 396
#     4  11  23  41  68  89 129 174 222 280 348 416
#     4  10  23  38  63  90 123 172 218 273 336 411
#     4  11  25  42  63  97 130 169 229 289 343 410
#     4  10  21  41  66  87 123 174 212 265 333 394
#
# _framework density 25.887709999999998
#
# number of rings (size 3 to 8) (size 9 to 14) (size 15 to 20)
#    0.000    1.500    2.500    1.500    3.500    3.000 
#    0.000    0.000    0.000    0.000    0.000    0.000 
#    0.000    0.000    0.000    0.000    0.000    0.000 
#
# Total GULP energy -89403.721217 kJ/mol
# GULP energy per Si atom -5587.732576 kJ/mol
# Density = 2.582879 g / cm^3
# Si number density = 25.887710 Si / 1000 Ang^3
#
#
#
# Elastic Constant Matrix: (Units=GPa)
#
#
# Indices 1 2 3 4 5 6 
#
# 1 118.1148 38.0672 25.6759 -5.5465 -4.0002 -24.9753
# 2 38.0672 104.3776 17.3928 -26.1125 2.0282 -21.8762
# 3 25.6759 17.3928 112.5685 -28.4542 -0.5361 -7.9251
# 4 -5.5465 -26.1125 -28.4542 36.3676 -2.4618 6.7442
# 5 -4.0002 2.0282 -0.5361 -2.4618 24.9750 -4.5341
# 6 -24.9753 -21.8762 -7.9251 6.7442 -4.5341 50.8537
#
#
#
# Elastic Compliance Matrix: (Units=1/GPa)
#
#
# Indices 1 2 3 4 5 6 
#
# 1 0.010977 -0.003649 -0.002530 -0.003525 0.002399 0.004108
# 2 -0.003649 0.013785 0.001411 0.009872 -0.000150 0.003035
# 3 -0.002530 0.001411 0.011736 0.009866 0.000695 -0.000053
# 4 -0.003525 0.009872 0.009866 0.042195 0.002769 -0.001296
# 5 0.002399 -0.000150 0.000695 0.002769 0.041552 0.004559
# 6 0.004108 0.003035 -0.000053 -0.001296 0.004559 0.023558
#
#
# Mechanical properties :
#
#
# Convention : Reuss Voigt Hill
#
# Bulk Modulus (GPa) = 37.09088 55.25919 46.17504
# Shear Modulus (GPa) = 30.80194 39.36759 35.08476
#
# Velocity S-wave (km/s) = 3.45313 3.90385 3.68539
# Velocity P-wave (km/s) = 5.50068 6.45849 5.99874
#
# Compressibility (1/GPa) = 0.02696080
#
# Stress axis : x y z
#
# Youngs Moduli (GPa) = 91.10076 72.54137 85.20671
#
# Poissons Ratio (x) = 0.26472 0.21560
# Poissons Ratio (y) = 0.33245 -0.12021
# Poissons Ratio (z) = 0.23052 -0.10234
#
# Static dielectric constant tensor:
#      x y z
#    x 2.195860 0.118510 0.057430 
#    y 0.118510 2.107910 0.028310 
#    z 0.057430 0.028310 2.013480 
# 
# From -- ./inp_files/125645.got.cif
#   From: 2010.05.17/outbox.cif.g08.bks.cpg/sg2_63_cif.got.tgz:125645.got - 2010.06.03 11:33:40.
