data_PCOD9013501
_publ_section_title
;
Structure prediction by ZEFSAII (Michael W. Deem and Ramdas Pophale) SiO2 
 PCOD9013501
Probable space group: P -1
;
_chemical_formula_sum "Si O2"
_cell_formula_units_Z 16
_cell_length_a 12.195715
_cell_length_b 8.468674
_cell_length_c 10.902874
_cell_angle_alpha 133.947204
_cell_angle_beta 102.097555
_cell_angle_gamma 61.375258
_cell_volume 698.066607
_symmetry_space_group_name_H-M "P -1"
_symmetry_group_IT_number 2
_symmetry_cell_setting 'triclinic'
loop_
_space_group_symop_operation_xyz
x,y,z
-x,-y,-z
loop_
_atom_site_type_symbol
_atom_site_label
_atom_site_fract_x
_atom_site_fract_y
_atom_site_fract_z
Si Si1 0.739776 0.993192 0.954762
Si Si2 0.340243 0.787399 0.522580
Si Si3 0.048511 0.215831 0.321744
Si Si4 0.020803 0.370708 0.064322
Si Si5 0.917884 0.869458 0.440181
Si Si6 0.817847 0.376541 0.182873
Si Si7 0.642882 0.924125 0.525460
Si Si8 0.587618 0.771029 0.689168
O O1 0.839910 0.888892 0.808284
O O2 0.624224 0.929059 0.879887
O O3 0.835062 0.844421 0.006780
O O4 0.714510 0.277099 0.107516
O O5 0.443823 0.830571 0.648829
O O6 0.352544 0.519030 0.413142
O O7 0.197230 0.005708 0.616995
O O8 0.355186 0.834711 0.405790
O O9 0.104143 0.085571 0.394456
O O10 0.000000 0.500000 0.500000
O O11 0.920845 0.237090 0.239970
O O12 0.999857 0.579272 0.273535
O O13 0.907371 0.309600 0.046282
O O14 0.000000 0.500000 0.000000
O O15 0.000000 0.000000 0.500000
O O16 0.745113 0.673758 0.345259
O O17 0.648914 0.828361 0.613675
O O18 0.500000 0.000000 0.500000
#
# Coordination Sequence:
#
# PCOD9013501 Si02
#       8
#     2   2   2   2   2   2   2   2
#     4  11  23  40  63  97 137 179 219 269 352 412
#     4  10  21  41  64  99 129 166 230 287 323 396
#     4  11  20  39  63  96 128 171 227 271 329 405
#     4  11  24  40  58  96 142 177 212 273 343 405
#     4  12  24  35  65  98 128 164 229 280 337 386
#     4  11  23  41  65  96 144 177 216 285 348 406
#     4  10  21  42  71  96 124 177 232 279 333 392
#     4  10  22  41  70  92 130 176 228 277 335 397
#
# _framework density 22.920451
#
# number of rings (size 3 to 8) (size 9 to 14) (size 15 to 20)
#    0.000    1.250    3.750    3.750    5.250    0.000 
#    2.250    2.500    0.000    7.500    0.000    0.000 
#    0.000    0.000    0.000    0.000    0.000    0.000 
#
# Total GULP energy -89072.739287 kJ/mol
# GULP energy per Si atom -5567.046205 kJ/mol
# Density = 2.286828 g / cm^3
# Si number density = 22.920451 Si / 1000 Ang^3
#
#
#
# Elastic Constant Matrix: (Units=GPa)
#
#
# Indices 1 2 3 4 5 6 
#
# 1 83.1915 43.1748 12.4669 -4.6667 40.4132 -9.5392
# 2 43.1748 159.9350 24.0812 -13.6875 11.5282 7.3373
# 3 12.4669 24.0812 32.8681 -9.1444 12.5929 0.2741
# 4 -4.6667 -13.6875 -9.1444 33.7083 6.7619 -5.6111
# 5 40.4132 11.5282 12.5929 6.7619 40.6345 4.5260
# 6 -9.5392 7.3373 0.2741 -5.6111 4.5260 35.1319
#
#
#
# Elastic Compliance Matrix: (Units=1/GPa)
#
#
# Indices 1 2 3 4 5 6 
#
# 1 0.043805 -0.009814 0.016035 0.020799 -0.051866 0.023822
# 2 -0.009814 0.009377 -0.008065 -0.002978 0.010811 -0.006428
# 3 0.016035 -0.008065 0.049048 0.021285 -0.033897 0.013422
# 4 0.020799 -0.002978 0.021285 0.047467 -0.036383 0.018372
# 5 -0.051866 0.010811 -0.033897 -0.036383 0.093464 -0.033928
# 6 0.023822 -0.006428 0.013422 0.018372 -0.033928 0.043476
#
#
# Mechanical properties :
#
#
# Convention : Reuss Voigt Hill
#
# Bulk Modulus (GPa) = 10.14791 48.38225 29.26508
# Shear Modulus (GPa) = 15.47164 34.97971 25.22568
#
# Velocity S-wave (km/s) = 2.60092 3.91082 3.32109
# Velocity P-wave (km/s) = 3.66835 6.44572 5.24424
#
# Compressibility (1/GPa) = 0.09854248
#
# Stress axis : x y z
#
# Youngs Moduli (GPa) = 22.82862 106.64493 20.38805
#
# Poissons Ratio (x) = 1.04660 -0.32692
# Poissons Ratio (y) = 0.22404 0.16442
# Poissons Ratio (z) = -0.36605 0.86005
#
# Static dielectric constant tensor:
#      x y z
#    x 1.874530 -0.046540 -0.014060 
#    y -0.046540 1.783270 -0.041610 
#    z -0.014060 -0.041610 1.907580 
# 
# From -- ./inp_files/420044.got.cif
#   From: 2010.05.17/outbox.cif.g08.bks.cpg/sg2_211_cif.got.tgz:420044.got - 2010.06.03 11:33:40.
