data_PCOD9013364
_publ_section_title
;
Structure prediction by ZEFSAII (Michael W. Deem and Ramdas Pophale) SiO2 
 PCOD9013364
Probable space group: P -1
;
_chemical_formula_sum "Si O2"
_cell_formula_units_Z 14
_cell_length_a 11.423430
_cell_length_b 12.183735
_cell_length_c 5.504816
_cell_angle_alpha 110.229596
_cell_angle_beta 124.030597
_cell_angle_gamma 54.393802
_cell_volume 516.009403
_symmetry_space_group_name_H-M "P -1"
_symmetry_group_IT_number 2
_symmetry_cell_setting 'triclinic'
loop_
_space_group_symop_operation_xyz
x,y,z
-x,-y,-z
loop_
_atom_site_type_symbol
_atom_site_label
_atom_site_fract_x
_atom_site_fract_y
_atom_site_fract_z
Si Si1 0.220435 0.029334 0.818524
Si Si2 0.128612 0.864271 0.277322
Si Si3 0.072147 0.598829 0.206957
Si Si4 0.612980 0.851459 0.627864
Si Si5 0.381826 0.773294 0.123202
Si Si6 0.626293 0.413065 0.375258
Si Si7 0.947367 0.657056 0.601370
O O1 0.165414 0.986402 0.477375
O O2 0.353262 0.885058 0.976823
O O3 0.059330 0.082841 0.842046
O O4 0.304755 0.120605 0.021569
O O5 0.207930 0.814280 0.069453
O O6 0.239818 0.736673 0.482657
O O7 0.255209 0.524786 0.462946
O O8 0.979386 0.696728 0.402138
O O9 0.000000 0.500000 0.000000
O O10 0.056289 0.653622 0.954571
O O11 0.498865 0.785162 0.467234
O O12 0.763513 0.754151 0.552639
O O13 0.500000 0.000000 0.500000
O O14 0.447847 0.628974 0.965660
O O15 0.500000 0.500000 0.500000
O O16 0.000000 0.500000 0.500000
#
# Coordination Sequence:
#
# PCOD9013364 Si02
#       7
#     2   2   2   2   2   2   2
#     4   9  20  41  63  91 128 167 227 276 340 413
#     4  10  21  41  64  92 128 171 224 275 345 410
#     4  10  24  45  72  98 134 182 235 284 340 418
#     4  10  22  43  64 100 138 178 233 286 353 406
#     4  10  23  40  63  94 130 174 216 283 344 415
#     4  11  26  41  62  96 135 173 223 284 347 401
#     4  10  23  45  72 101 134 181 234 285 341 417
#
# _framework density 27.131287
#
# number of rings (size 3 to 8) (size 9 to 14) (size 15 to 20)
#    0.000    2.000    0.000    1.286    8.000    3.429 
#   15.429    0.000    0.000    0.000    0.000    0.000 
#    0.000    0.000    0.000    0.000    0.000    0.000 
#
# Total GULP energy -78224.899007 kJ/mol
# GULP energy per Si atom -5587.492786 kJ/mol
# Density = 2.706954 g / cm^3
# Si number density = 27.131287 Si / 1000 Ang^3
#
#
#
# Elastic Constant Matrix: (Units=GPa)
#
#
# Indices 1 2 3 4 5 6 
#
# 1 102.6476 20.1751 57.6498 21.8927 18.0155 -22.7649
# 2 20.1751 134.9111 35.5366 20.6987 13.6044 -15.0848
# 3 57.6498 35.5366 168.8968 29.8099 25.1105 2.6498
# 4 21.8927 20.6987 29.8099 55.1173 0.0949 -5.8461
# 5 18.0155 13.6044 25.1105 0.0949 61.5775 1.8904
# 6 -22.7649 -15.0848 2.6498 -5.8461 1.8904 38.0485
#
#
#
# Elastic Compliance Matrix: (Units=1/GPa)
#
#
# Indices 1 2 3 4 5 6 
#
# 1 0.015477 0.000730 -0.004613 -0.002905 -0.003098 0.009578
# 2 0.000730 0.008624 -0.001465 -0.002343 -0.001631 0.003679
# 3 -0.004613 -0.001465 0.008604 -0.002721 -0.001700 -0.004274
# 4 -0.002905 -0.002343 -0.002721 0.021723 0.002421 0.000740
# 5 -0.003098 -0.001631 -0.001700 0.002421 0.018285 -0.002918
# 6 0.009578 0.003679 -0.004274 0.000740 -0.002918 0.034028
#
#
# Mechanical properties :
#
#
# Convention : Reuss Voigt Hill
#
# Bulk Modulus (GPa) = 45.43942 70.35317 57.89630
# Shear Modulus (GPa) = 40.07205 50.48826 45.28015
#
# Velocity S-wave (km/s) = 3.84730 4.31848 4.08968
# Velocity P-wave (km/s) = 6.04318 7.13110 6.60956
#
# Compressibility (1/GPa) = 0.02200732
#
# Stress axis : x y z
#
# Youngs Moduli (GPa) = 64.61121 115.94955 116.22802
#
# Poissons Ratio (x) = -0.08462 0.53620
# Poissons Ratio (y) = -0.04715 0.17033
# Poissons Ratio (z) = 0.29807 0.16992
#
# Static dielectric constant tensor:
#      x y z
#    x 2.244940 0.187750 0.018360 
#    y 0.187750 2.290710 -0.049770 
#    z 0.018360 -0.049770 2.196240 
# 
# From -- ./inp_files/46106.got.cif
#   From: 2010.05.17/outbox.cif.g08.bks.cpg/sg2_24_cif.got.tgz:46106.got - 2010.06.03 11:33:40.
