data_PCOD9013518
_publ_section_title
;
Structure prediction by ZEFSAII (Michael W. Deem and Ramdas Pophale) SiO2 
 PCOD9013518
Probable space group: P -1
;
_chemical_formula_sum "Si O2"
_cell_formula_units_Z 14
_cell_length_a 10.744979
_cell_length_b 8.035267
_cell_length_c 9.422892
_cell_angle_alpha 50.204467
_cell_angle_beta 106.931865
_cell_angle_gamma 112.934385
_cell_volume 574.667721
_symmetry_space_group_name_H-M "P -1"
_symmetry_group_IT_number 2
_symmetry_cell_setting 'triclinic'
loop_
_space_group_symop_operation_xyz
x,y,z
-x,-y,-z
loop_
_atom_site_type_symbol
_atom_site_label
_atom_site_fract_x
_atom_site_fract_y
_atom_site_fract_z
Si Si1 0.263851 0.420091 0.187033
Si Si2 0.996230 0.115997 0.142376
Si Si3 0.797806 0.306382 0.431013
Si Si4 0.587660 0.071737 0.128953
Si Si5 0.065916 0.697378 0.245691
Si Si6 0.801842 0.908969 0.436088
Si Si7 0.486092 0.688769 0.782295
O O1 0.317333 0.676857 0.013769
O O2 0.391838 0.313545 0.279208
O O3 0.142362 0.293266 0.112515
O O4 0.204827 0.335900 0.369304
O O5 0.929810 0.033252 0.315814
O O6 0.908640 0.231253 0.948182
O O7 0.011503 0.894531 0.191428
O O8 0.812654 0.302712 0.607782
O O9 0.795372 0.076932 0.472522
O O10 0.660945 0.365540 0.308135
O O11 0.938163 0.479788 0.333461
O O12 0.677399 0.908061 0.291007
O O13 0.503369 0.097360 0.228798
O O14 0.500000 0.000000 0.000000
O O15 0.500000 0.500000 0.000000
#
# Coordination Sequence:
#
# PCOD9013518 Si02
#       7
#     2   2   2   2   2   2   2
#     4  11  23  43  68  92 132 179 215 268 330 392
#     4  11  23  42  64  97 133 178 213 264 336 386
#     4  10  21  41  65 101 125 170 224 269 323 394
#     4  10  24  43  64 100 129 166 221 275 330 387
#     4  10  22  39  65  98 133 166 220 276 319 385
#     4  11  24  44  66  95 135 176 220 265 330 399
#     4   9  20  41  69  90 127 171 215 266 327 390
#
# _framework density 24.361903999999999
#
# number of rings (size 3 to 8) (size 9 to 14) (size 15 to 20)
#    0.000    1.714    1.429    3.000    0.000    9.714 
#    5.143    0.000    0.000    0.000    0.000    0.000 
#    0.000    0.000    0.000    0.000    0.000    0.000 
#
# Total GULP energy -78285.102014 kJ/mol
# GULP energy per Si atom -5591.793001 kJ/mol
# Density = 2.430646 g / cm^3
# Si number density = 24.361904 Si / 1000 Ang^3
#
#
#
# Elastic Constant Matrix: (Units=GPa)
#
#
# Indices 1 2 3 4 5 6 
#
# 1 84.8399 -3.3310 18.4577 20.6843 6.3991 7.7952
# 2 -3.3310 59.2689 20.8624 10.4029 -2.4745 10.6804
# 3 18.4577 20.8624 154.6210 14.6591 12.0748 18.4819
# 4 20.6843 10.4029 14.6591 41.7240 16.2492 7.3281
# 5 6.3991 -2.4745 12.0748 16.2492 43.6516 3.4248
# 6 7.7952 10.6804 18.4819 7.3281 3.4248 20.4598
#
#
#
# Elastic Compliance Matrix: (Units=1/GPa)
#
#
# Indices 1 2 3 4 5 6 
#
# 1 0.014173 0.003196 -0.001098 -0.007348 0.001431 -0.003685
# 2 0.003196 0.020535 -0.001848 -0.006144 0.004182 -0.008767
# 3 -0.001098 -0.001848 0.007603 -0.000139 -0.001590 -0.005169
# 4 -0.007348 -0.006144 -0.000139 0.034513 -0.011746 -0.004263
# 5 0.001431 0.004182 -0.001590 -0.011746 0.027885 -0.001753
# 6 -0.003685 -0.008767 -0.005169 -0.004263 -0.001753 0.061346
#
#
# Mechanical properties :
#
#
# Convention : Reuss Voigt Hill
#
# Bulk Modulus (GPa) = 23.35799 41.18976 32.27388
# Shear Modulus (GPa) = 27.80443 38.68314 33.24379
#
# Velocity S-wave (km/s) = 3.38199 3.98911 3.69803
# Velocity P-wave (km/s) = 4.98590 6.17750 5.61341
#
# Compressibility (1/GPa) = 0.04281191
#
# Stress axis : x y z
#
# Youngs Moduli (GPa) = 70.55536 48.69636 131.52584
#
# Poissons Ratio (x) = -0.15566 0.14441
# Poissons Ratio (y) = -0.22553 0.24312
# Poissons Ratio (z) = 0.07747 0.09001
#
# Static dielectric constant tensor:
#      x y z
#    x 2.013970 -0.040060 -0.009070 
#    y -0.040060 1.894460 0.010060 
#    z -0.009070 0.010060 1.996630 
# 
# From -- ./inp_files/204497.got.cif
#   From: 2010.05.17/outbox.cif.g08.bks.cpg/sg2_103_cif.got.tgz:204497.got - 2010.06.03 11:33:40.
