data_PCOD9013994
_publ_section_title
;
Structure prediction by ZEFSAII (Michael W. Deem and Ramdas Pophale) SiO2 
 PCOD9013994
Probable space group: P -1
;
_chemical_formula_sum "Si O2"
_cell_formula_units_Z 16
_cell_length_a 4.907972
_cell_length_b 8.276399
_cell_length_c 18.829405
_cell_angle_alpha 66.330158
_cell_angle_beta 87.593375
_cell_angle_gamma 62.919254
_cell_volume 614.348237
_symmetry_space_group_name_H-M "P -1"
_symmetry_group_IT_number 2
_symmetry_cell_setting 'triclinic'
loop_
_space_group_symop_operation_xyz
x,y,z
-x,-y,-z
loop_
_atom_site_type_symbol
_atom_site_label
_atom_site_fract_x
_atom_site_fract_y
_atom_site_fract_z
Si Si1 0.541727 0.142481 0.108032
Si Si2 0.801513 0.454880 0.717473
Si Si3 0.831437 0.815762 0.512279
Si Si4 0.010778 0.186285 0.189867
Si Si5 0.783371 0.405636 0.570364
Si Si6 0.794283 0.634205 0.060341
Si Si7 0.153155 0.802663 0.100661
Si Si8 0.116601 0.723321 0.672156
O O1 0.314140 0.065760 0.158470
O O2 0.710920 0.174021 0.168537
O O3 0.322889 0.326659 0.026347
O O4 0.840214 0.008483 0.079943
O O5 0.767779 0.357034 0.661361
O O6 0.827941 0.317138 0.806835
O O7 0.474040 0.656017 0.692544
O O8 0.061295 0.527202 0.704687
O O9 0.841646 0.597516 0.548524
O O10 0.971705 0.797875 0.435763
O O11 0.033634 0.811179 0.578410
O O12 0.500000 0.000000 0.500000
O O13 0.909206 0.418528 0.132314
O O14 0.067188 0.151841 0.279121
O O15 0.500000 0.500000 0.500000
O O16 0.484133 0.782991 0.082263
O O17 0.060436 0.694519 0.058980
#
# Coordination Sequence:
#
# PCOD9013994 Si02
#       8
#     2   2   2   2   2   2   2   2
#     4  12  26  40  61  99 130 157 214 283 315 372
#     4  11  21  41  67  92 126 173 216 255 320 388
#     4  10  23  42  66 100 131 172 219 267 327 388
#     4  12  23  42  63  91 129 168 213 258 332 380
#     4  10  21  41  66  93 132 172 215 267 323 389
#     4  12  23  43  67  87 125 175 216 255 325 392
#     4  12  23  42  65  94 123 172 215 262 322 387
#     4  11  22  42  67  91 130 172 210 262 314 395
#
# _framework density 26.043862000000001
#
# number of rings (size 3 to 8) (size 9 to 14) (size 15 to 20)
#    0.000    0.750    3.750    4.500    0.000    1.500 
#    2.250    0.000    0.000    0.000    0.000    0.000 
#    0.000    0.000    0.000    0.000    0.000    0.000 
#
# Total GULP energy -89489.770113 kJ/mol
# GULP energy per Si atom -5593.110632 kJ/mol
# Density = 2.598459 g / cm^3
# Si number density = 26.043862 Si / 1000 Ang^3
#
#
#
# Elastic Constant Matrix: (Units=GPa)
#
#
# Indices 1 2 3 4 5 6 
#
# 1 95.6731 0.1477 24.8296 7.6480 6.7936 -3.9353
# 2 0.1477 92.5329 16.0365 23.1943 -3.2340 -20.0408
# 3 24.8296 16.0365 123.4649 24.0501 -4.1325 9.3327
# 4 7.6480 23.1943 24.0501 43.3258 -8.0467 0.9187
# 5 6.7936 -3.2340 -4.1325 -8.0467 38.8132 13.5099
# 6 -3.9353 -20.0408 9.3327 0.9187 13.5099 32.9598
#
#
#
# Elastic Compliance Matrix: (Units=1/GPa)
#
#
# Indices 1 2 3 4 5 6 
#
# 1 0.011934 0.002171 -0.002721 -0.002746 -0.004685 0.005512
# 2 0.002171 0.016135 -0.001912 -0.009313 -0.005778 0.013239
# 3 -0.002721 -0.001912 0.010059 -0.003505 0.002492 -0.005259
# 4 -0.002746 -0.009313 -0.003505 0.032463 0.009467 -0.009783
# 5 -0.004685 -0.005778 0.002492 0.009467 0.035093 -0.019427
# 6 0.005512 0.013239 -0.005259 -0.009783 -0.019427 0.048773
#
#
# Mechanical properties :
#
#
# Convention : Reuss Voigt Hill
#
# Bulk Modulus (GPa) = 30.11757 43.74428 36.93092
# Shear Modulus (GPa) = 29.33445 41.06355 35.19900
#
# Velocity S-wave (km/s) = 3.35975 3.97509 3.68030
# Velocity P-wave (km/s) = 5.16138 6.15640 5.68072
#
# Compressibility (1/GPa) = 0.03320321
#
# Stress axis : x y z
#
# Youngs Moduli (GPa) = 83.79491 61.97784 99.41600
#
# Poissons Ratio (x) = -0.13454 0.27047
# Poissons Ratio (y) = -0.18190 0.19011
# Poissons Ratio (z) = 0.22797 0.11852
#
# Static dielectric constant tensor:
#      x y z
#    x 2.038940 -0.001950 -0.053620 
#    y -0.001950 2.114940 0.036400 
#    z -0.053620 0.036400 2.142100 
# 
# From -- ./inp_files/55532.got.cif
#   From: 2010.05.17/outbox.cif.g08.bks.cpg/sg2_28_cif.got.tgz:55532.got - 2010.06.03 11:33:40.
