data_PCOD9013751
_publ_section_title
;
Structure prediction by ZEFSAII (Michael W. Deem and Ramdas Pophale) SiO2 
 PCOD9013751
Probable space group: P -1
;
_chemical_formula_sum "Si O2"
_cell_formula_units_Z 16
_cell_length_a 18.709914
_cell_length_b 9.300524
_cell_length_c 18.618892
_cell_angle_alpha 49.596090
_cell_angle_beta 158.184246
_cell_angle_gamma 141.489915
_cell_volume 705.478234
_symmetry_space_group_name_H-M "P -1"
_symmetry_group_IT_number 2
_symmetry_cell_setting 'triclinic'
loop_
_space_group_symop_operation_xyz
x,y,z
-x,-y,-z
loop_
_atom_site_type_symbol
_atom_site_label
_atom_site_fract_x
_atom_site_fract_y
_atom_site_fract_z
Si Si1 0.250052 0.460169 0.991695
Si Si2 0.974598 0.315151 0.345307
Si Si3 0.436938 0.520771 0.307267
Si Si4 0.373692 0.877549 0.159749
Si Si5 0.720608 0.984682 0.703620
Si Si6 0.918857 0.240149 0.484335
Si Si7 0.455969 0.222924 0.246803
Si Si8 0.979245 0.091427 0.277755
O O1 0.224973 0.645337 0.871051
O O2 0.396323 0.545089 0.176600
O O3 0.373467 0.371875 0.088295
O O4 0.966217 0.230610 0.821865
O O5 0.261454 0.573037 0.527497
O O6 0.948648 0.146128 0.313128
O O7 0.939537 0.229027 0.421869
O O8 0.306277 0.615486 0.194019
O O9 0.342659 0.249420 0.320531
O O10 0.730051 0.702184 0.537746
O O11 0.632695 0.037195 0.306041
O O12 0.433481 0.031672 0.236716
O O13 0.178470 0.873847 0.932328
O O14 0.740117 0.931460 0.821652
O O15 0.500000 0.000000 0.500000
O O16 0.000000 0.500000 0.500000
O O17 0.070901 0.164326 0.687765
#
# Coordination Sequence:
#
# PCOD9013751 Si02
#       8
#     2   2   2   2   2   2   2   2
#     4  11  22  40  71  95 125 171 222 260 319 385
#     4  12  22  43  68  94 128 174 221 265 319 383
#     4  10  21  41  65  95 131 167 214 268 312 388
#     4  11  25  43  65  95 137 174 206 271 331 376
#     4  11  21  42  71  98 128 169 216 268 318 387
#     4  11  26  42  64  98 135 166 222 272 316 391
#     4  11  23  40  67  95 130 169 214 262 325 381
#     4  11  23  43  66  93 132 174 216 266 325 380
#
# _framework density 22.679649999999999
#
# number of rings (size 3 to 8) (size 9 to 14) (size 15 to 20)
#    0.000    1.000    6.250    1.875    1.750    2.000 
#    0.000    3.125    0.000    0.000    0.000    0.000 
#    0.000    0.000    0.000    0.000    0.000    0.000 
#
# Total GULP energy -89438.947899 kJ/mol
# GULP energy per Si atom -5589.934244 kJ/mol
# Density = 2.262803 g / cm^3
# Si number density = 22.679650 Si / 1000 Ang^3
#
#
#
# Elastic Constant Matrix: (Units=GPa)
#
#
# Indices 1 2 3 4 5 6 
#
# 1 14.7890 17.8426 -12.4228 1.2736 6.7969 -11.4586
# 2 17.8426 129.5411 42.3282 -22.6277 2.8374 -41.2768
# 3 -12.4228 42.3282 101.0354 -33.1779 10.6797 -11.2726
# 4 1.2736 -22.6277 -33.1779 39.8309 -6.9829 6.4820
# 5 6.7969 2.8374 10.6797 -6.9829 15.2959 -0.0939
# 6 -11.4586 -41.2768 -11.2726 6.4820 -0.0939 37.0678
#
#
#
# Elastic Compliance Matrix: (Units=1/GPa)
#
#
# Indices 1 2 3 4 5 6 
#
# 1 0.481041 -0.067834 0.124967 -0.020452 -0.297062 0.113992
# 2 -0.067834 0.023232 -0.020982 0.005841 0.043134 -0.002392
# 3 0.124967 -0.020982 0.047447 0.004463 -0.082553 0.028706
# 4 -0.020452 0.005841 0.004463 0.037451 0.021955 -0.004954
# 5 -0.297062 0.043134 -0.082553 0.021955 0.256597 -0.072091
# 6 0.113992 -0.002392 0.028706 -0.004954 -0.072091 0.068965
#
#
# Mechanical properties :
#
#
# Convention : Reuss Voigt Hill
#
# Bulk Modulus (GPa) = 1.60250 37.87347 19.73799
# Shear Modulus (GPa) = 4.75992 31.61342 18.18667
#
# Velocity S-wave (km/s) = 1.45028 3.73756 2.83485
# Velocity P-wave (km/s) = 1.87418 5.94655 4.40874
#
# Compressibility (1/GPa) = 0.62402356
#
# Stress axis : x y z
#
# Youngs Moduli (GPa) = 2.07883 43.04426 21.07600
#
# Poissons Ratio (x) = 2.91987 -2.63381
# Poissons Ratio (y) = 0.14102 0.44221
# Poissons Ratio (z) = -0.25979 0.90314
#
# Static dielectric constant tensor:
#      x y z
#    x 1.688060 -0.073780 -0.050170 
#    y -0.073780 1.938500 -0.066130 
#    z -0.050170 -0.066130 1.837890 
# 
# From -- ./inp_files/272561.got.cif
#   From: 2010.05.17/outbox.cif.g08.bks.cpg/sg2_137_cif.got.tgz:272561.got - 2010.06.03 11:33:40.
