data_PCOD9013194
_publ_section_title
;
Structure prediction by ZEFSAII (Michael W. Deem and Ramdas Pophale) SiO2 
 PCOD9013194
Probable space group: P -1
;
_chemical_formula_sum "Si O2"
_cell_formula_units_Z 16
_cell_length_a 11.262090
_cell_length_b 14.691010
_cell_length_c 10.659558
_cell_angle_alpha 55.188776
_cell_angle_beta 38.394231
_cell_angle_gamma 33.953573
_cell_volume 595.593804
_symmetry_space_group_name_H-M "P -1"
_symmetry_group_IT_number 2
_symmetry_cell_setting 'triclinic'
loop_
_space_group_symop_operation_xyz
x,y,z
-x,-y,-z
loop_
_atom_site_type_symbol
_atom_site_label
_atom_site_fract_x
_atom_site_fract_y
_atom_site_fract_z
Si Si1 0.527820 0.829825 0.249841
Si Si2 0.539561 0.765920 0.626028
Si Si3 0.419440 0.420216 0.489973
Si Si4 0.733706 0.038980 0.067202
Si Si5 0.027362 0.292311 0.801344
Si Si6 0.546262 0.570976 0.140859
Si Si7 0.764557 0.727605 0.868205
Si Si8 0.062673 0.071624 0.621434
O O1 0.481904 0.716306 0.386381
O O2 0.778152 0.746503 0.211038
O O3 0.660554 0.809864 0.025707
O O4 0.212940 0.009932 0.410364
O O5 0.562649 0.651667 0.603792
O O6 0.382052 0.822089 0.844573
O O7 0.849272 0.692037 0.430211
O O8 0.335688 0.948371 0.585045
O O9 0.597769 0.454837 0.295180
O O10 0.094677 0.589916 0.665501
O O11 0.440701 0.124435 0.179514
O O12 0.907618 0.865483 0.124345
O O13 0.918645 0.015484 0.823030
O O14 0.703826 0.461490 0.971588
O O15 0.200777 0.732538 0.290679
O O16 0.677896 0.634174 0.009888
#
# Coordination Sequence:
#
# PCOD9013194 Si02
#       8
#     2   2   2   2   2   2   2   2
#     4  10  22  44  66  88 135 170 205 271 315 372
#     4  10  21  43  66  89 132 172 206 266 318 375
#     4  10  22  41  67  94 131 165 210 264 322 371
#     4  11  23  39  67  92 129 172 215 256 321 380
#     4  10  21  41  63  95 127 169 216 256 321 381
#     4  11  22  41  65  98 128 164 214 260 316 382
#     4  11  24  43  63  98 130 165 218 264 310 382
#     4   9  22  41  62  94 128 162 220 259 312 384
#
# _framework density 26.863947
#
# number of rings (size 3 to 8) (size 9 to 14) (size 15 to 20)
#    0.000    2.000    2.500    2.625    3.500    3.500 
#    2.250    3.125    0.000    0.000    0.000    0.000 
#    0.000    0.000    0.000    0.000    0.000    0.000 
#
# Total GULP energy -89528.906685 kJ/mol
# GULP energy per Si atom -5595.556668 kJ/mol
# Density = 2.680280 g / cm^3
# Si number density = 26.863947 Si / 1000 Ang^3
#
#
#
# Elastic Constant Matrix: (Units=GPa)
#
#
# Indices 1 2 3 4 5 6 
#
# 1 54.7138 11.2863 29.7330 7.1742 7.2035 7.4300
# 2 11.2863 116.6537 63.0048 23.7872 -6.6581 13.7036
# 3 29.7330 63.0048 158.0088 44.1287 -7.1888 24.3890
# 4 7.1742 23.7872 44.1287 64.1175 12.6155 -9.7257
# 5 7.2035 -6.6581 -7.1888 12.6155 31.0866 0.1961
# 6 7.4300 13.7036 24.3890 -9.7257 0.1961 23.7934
#
#
#
# Elastic Compliance Matrix: (Units=1/GPa)
#
#
# Indices 1 2 3 4 5 6 
#
# 1 0.021690 -0.000291 -0.004842 0.002323 -0.007147 -0.000635
# 2 -0.000291 0.011662 -0.002194 -0.004504 0.003925 -0.006250
# 3 -0.004842 -0.002194 0.015428 -0.014108 0.010064 -0.018888
# 4 0.002323 -0.004504 -0.014108 0.035185 -0.019239 0.030871
# 5 -0.007147 0.003925 0.010064 -0.019239 0.044917 -0.018579
# 6 -0.000635 -0.006250 -0.018888 0.030871 -0.018579 0.077959
#
#
# Mechanical properties :
#
#
# Convention : Reuss Voigt Hill
#
# Bulk Modulus (GPa) = 29.30150 59.71382 44.50766
# Shear Modulus (GPa) = 21.47106 38.82299 30.14703
#
# Velocity S-wave (km/s) = 2.83017 3.80566 3.35358
# Velocity P-wave (km/s) = 4.64875 6.44882 5.62131
#
# Compressibility (1/GPa) = 0.03412794
#
# Stress axis : x y z
#
# Youngs Moduli (GPa) = 46.10326 85.74558 64.81670
#
# Poissons Ratio (x) = 0.02492 0.31382
# Poissons Ratio (y) = 0.01340 0.14223
# Poissons Ratio (z) = 0.22321 0.18815
#
# Static dielectric constant tensor:
#      x y z
#    x 2.165830 0.014870 0.028870 
#    y 0.014870 2.141490 0.015990 
#    z 0.028870 0.015990 2.123000 
# 
# From -- ./inp_files/456940.got.cif
#   From: 2010.05.17/outbox.cif.g08.bks.cpg/sg2_229_cif.got.tgz:456940.got - 2010.06.03 11:33:40.
