data_PCOD9013880
_publ_section_title
;
Structure prediction by ZEFSAII (Michael W. Deem and Ramdas Pophale) SiO2 
 PCOD9013880
Probable space group: P -1
;
_chemical_formula_sum "Si O2"
_cell_formula_units_Z 16
_cell_length_a 7.025585
_cell_length_b 16.824706
_cell_length_c 8.577829
_cell_angle_alpha 38.798982
_cell_angle_beta 69.731791
_cell_angle_gamma 71.713009
_cell_volume 594.322606
_symmetry_space_group_name_H-M "P -1"
_symmetry_group_IT_number 2
_symmetry_cell_setting 'triclinic'
loop_
_space_group_symop_operation_xyz
x,y,z
-x,-y,-z
loop_
_atom_site_type_symbol
_atom_site_label
_atom_site_fract_x
_atom_site_fract_y
_atom_site_fract_z
Si Si1 0.445861 0.081673 0.652151
Si Si2 0.252230 0.226246 0.755655
Si Si3 0.960585 0.518656 0.660974
Si Si4 0.052534 0.241804 0.108314
Si Si5 0.661335 0.187763 0.900867
Si Si6 0.183755 0.835643 0.425474
Si Si7 0.527236 0.697465 0.942967
Si Si8 0.224070 0.546142 0.811730
O O1 0.280552 0.130294 0.751558
O O2 0.652930 0.068539 0.713909
O O3 0.485549 0.191093 0.350655
O O4 0.386319 0.949220 0.804667
O O5 0.200017 0.360749 0.476505
O O6 0.466994 0.227183 0.784140
O O7 0.092378 0.200976 0.979192
O O8 0.000000 0.500000 0.500000
O O9 0.165406 0.556324 0.630450
O O10 0.914978 0.376348 0.941352
O O11 0.980975 0.153202 0.404282
O O12 0.269113 0.280185 0.050593
O O13 0.839155 0.159321 0.764393
O O14 0.648874 0.280982 0.910516
O O15 0.259865 0.685494 0.646248
O O16 0.590630 0.559732 0.060651
O O17 0.000000 0.500000 0.000000
#
# Coordination Sequence:
#
# PCOD9013880 Si02
#       8
#     2   2   2   2   2   2   2   2
#     4  11  23  41  64  84 123 165 209 250 289 359
#     4   9  18  35  62  85 111 163 200 235 304 357
#     4   9  17  33  58  87 118 157 191 239 302 363
#     4   9  19  37  60  88 124 152 196 247 307 360
#     4  10  23  44  59  84 126 166 205 249 296 352
#     4  11  22  39  62  92 127 155 198 255 308 353
#     4  10  21  41  66  87 119 169 197 244 314 362
#     4  11  20  37  64  91 128 151 189 259 314 361
#
# _framework density 26.921405
#
# number of rings (size 3 to 8) (size 9 to 14) (size 15 to 20)
#    0.000    2.000    2.500    3.375    0.000    1.000 
#    6.750    6.250    2.750    0.000    0.000    0.000 
#    0.000    0.000    0.000    0.000    0.000    0.000 
#
# Total GULP energy -89282.567286 kJ/mol
# GULP energy per Si atom -5580.160455 kJ/mol
# Density = 2.686013 g / cm^3
# Si number density = 26.921405 Si / 1000 Ang^3
#
#
#
# Elastic Constant Matrix: (Units=GPa)
#
#
# Indices 1 2 3 4 5 6 
#
# 1 74.1500 9.3030 6.5415 -1.1223 0.6182 -11.1210
# 2 9.3030 118.7510 39.5891 22.1965 -11.9938 -5.4090
# 3 6.5415 39.5891 141.4128 30.1637 -2.2298 -10.7049
# 4 -1.1223 22.1965 30.1637 54.7992 -11.3630 -2.7511
# 5 0.6182 -11.9938 -2.2298 -11.3630 43.7546 2.2829
# 6 -11.1210 -5.4090 -10.7049 -2.7511 2.2829 24.1580
#
#
#
# Elastic Compliance Matrix: (Units=1/GPa)
#
#
# Indices 1 2 3 4 5 6 
#
# 1 0.014642 -0.001057 -0.000101 0.000994 -0.000589 0.006628
# 2 -0.001057 0.009885 -0.002148 -0.002419 0.001971 0.000313
# 3 -0.000101 -0.002148 0.008755 -0.004081 -0.001358 0.003016
# 4 0.000994 -0.002419 -0.004081 0.022533 0.004956 0.000205
# 5 -0.000589 0.001971 -0.001358 0.004956 0.024736 -0.002205
# 6 0.006628 0.000313 0.003016 0.000205 -0.002205 0.046083
#
#
# Mechanical properties :
#
#
# Convention : Reuss Voigt Hill
#
# Bulk Modulus (GPa) = 37.49442 49.46458 43.47950
# Shear Modulus (GPa) = 35.17761 43.13436 39.15599
#
# Velocity S-wave (km/s) = 3.61872 4.00713 3.81787
# Velocity P-wave (km/s) = 5.60516 6.31055 5.96829
#
# Compressibility (1/GPa) = 0.02667064
#
# Stress axis : x y z
#
# Youngs Moduli (GPa) = 68.29831 101.16076 114.22189
#
# Poissons Ratio (x) = 0.10690 0.01154
# Poissons Ratio (y) = 0.07218 0.24532
# Poissons Ratio (z) = 0.00690 0.21727
#
# Static dielectric constant tensor:
#      x y z
#    x 2.242040 -0.073240 0.263080 
#    y -0.073240 2.196790 -0.034980 
#    z 0.263080 -0.034980 2.812310 
# 
# From -- ./inp_files/216423.got.cif
#   From: 2010.05.17/outbox.cif.g08.bks.cpg/sg2_109_cif.got.tgz:216423.got - 2010.06.03 11:33:40.
