data_PCOD9013234
_publ_section_title
;
Structure prediction by ZEFSAII (Michael W. Deem and Ramdas Pophale) SiO2 
 PCOD9013234
Probable space group: P -1
;
_chemical_formula_sum "Si O2"
_cell_formula_units_Z 16
_cell_length_a 13.636484
_cell_length_b 23.051608
_cell_length_c 8.879056
_cell_angle_alpha 134.969937
_cell_angle_beta 56.950136
_cell_angle_gamma 157.838350
_cell_volume 679.712729
_symmetry_space_group_name_H-M "P -1"
_symmetry_group_IT_number 2
_symmetry_cell_setting 'triclinic'
loop_
_space_group_symop_operation_xyz
x,y,z
-x,-y,-z
loop_
_atom_site_type_symbol
_atom_site_label
_atom_site_fract_x
_atom_site_fract_y
_atom_site_fract_z
Si Si1 0.660818 0.031336 0.511647
Si Si2 0.287766 0.585753 0.799136
Si Si3 0.505093 0.317902 0.673255
Si Si4 0.984989 0.068560 0.787421
Si Si5 0.556044 0.598670 0.497155
Si Si6 0.819093 0.405935 0.788585
Si Si7 0.091733 0.943387 0.838929
Si Si8 0.139273 0.303195 0.843360
O O1 0.852711 0.110756 0.371102
O O2 0.879913 0.179305 0.739890
O O3 0.500000 0.000000 0.500000
O O4 0.418698 0.812795 0.367338
O O5 0.319061 0.518370 0.566522
O O6 0.107893 0.539041 0.774610
O O7 0.157252 0.511922 0.943538
O O8 0.606409 0.820383 0.986666
O O9 0.243064 0.169786 0.735394
O O10 0.707373 0.378790 0.684473
O O11 0.689424 0.517897 0.881687
O O12 0.322519 0.171323 0.414930
O O13 0.020329 0.158223 0.790047
O O14 0.011897 0.125326 0.030584
O O15 0.500000 0.500000 0.500000
O O16 0.642028 0.601486 0.282260
O O17 0.860525 0.833963 0.720342
#
# Coordination Sequence:
#
# PCOD9013234 Si02
#       8
#     2   2   2   2   2   2   2   2
#     4  10  23  42  69  98 135 174 217 281 334 396
#     4  10  22  36  66  90 133 168 219 277 330 395
#     4  11  24  41  71  94 134 178 225 269 327 402
#     4  11  24  45  68  96 136 180 220 275 333 392
#     4  11  23  39  64 104 130 163 223 286 333 385
#     4  10  21  41  63  98 126 178 220 267 341 399
#     4  10  23  41  65  97 132 168 224 272 336 387
#     4  11  24  43  72  99 132 177 226 270 337 395
#
# _framework density 23.539356000000002
#
# number of rings (size 3 to 8) (size 9 to 14) (size 15 to 20)
#    0.000    1.500    1.250    3.000   12.250    0.000 
#    0.000    1.250    0.000    0.000    0.000    0.000 
#    0.000    0.000    0.000    0.000    0.000    0.000 
#
# Total GULP energy -89474.104677 kJ/mol
# GULP energy per Si atom -5592.131542 kJ/mol
# Density = 2.348578 g / cm^3
# Si number density = 23.539356 Si / 1000 Ang^3
#
#
#
# Elastic Constant Matrix: (Units=GPa)
#
#
# Indices 1 2 3 4 5 6 
#
# 1 128.9656 37.4047 36.7145 -4.1476 -3.0640 34.6630
# 2 37.4047 54.0862 11.5665 5.8427 -15.5266 19.1875
# 3 36.7145 11.5665 85.3107 15.8079 0.6767 2.0310
# 4 -4.1476 5.8427 15.8079 42.0811 -0.3610 1.3746
# 5 -3.0640 -15.5266 0.6767 -0.3610 27.3084 4.9203
# 6 34.6630 19.1875 2.0310 1.3746 4.9203 54.8287
#
#
#
# Elastic Compliance Matrix: (Units=1/GPa)
#
#
# Indices 1 2 3 4 5 6 
#
# 1 0.012753 -0.006465 -0.005268 0.004308 -0.001045 -0.005619
# 2 -0.006465 0.032174 -0.000710 -0.004388 0.019104 -0.008750
# 3 -0.005268 -0.000710 0.015180 -0.006250 -0.002059 0.003358
# 4 0.004308 -0.004388 -0.006250 0.027185 -0.001222 -0.001528
# 5 -0.001045 0.019104 -0.002059 -0.001222 0.049261 -0.010339
# 6 -0.005619 -0.008750 0.003358 -0.001528 -0.010339 0.025695
#
#
# Mechanical properties :
#
#
# Convention : Reuss Voigt Hill
#
# Bulk Modulus (GPa) = 28.39215 48.85930 38.62573
# Shear Modulus (GPa) = 25.14150 37.02210 31.08180
#
# Velocity S-wave (km/s) = 3.27167 3.97012 3.63770
# Velocity P-wave (km/s) = 5.13415 6.46663 5.83853
#
# Compressibility (1/GPa) = 0.03522100
#
# Stress axis : x y z
#
# Youngs Moduli (GPa) = 78.41435 31.08062 65.87678
#
# Poissons Ratio (x) = 0.20093 0.34704
# Poissons Ratio (y) = 0.50694 0.04678
# Poissons Ratio (z) = 0.41309 0.02207
#
# Static dielectric constant tensor:
#      x y z
#    x 1.914780 -0.005260 -0.020580 
#    y -0.005260 1.913610 0.038370 
#    z -0.020580 0.038370 1.941280 
# 
# From -- ./inp_files/320741.got.cif
#   From: 2010.05.17/outbox.cif.g08.bks.cpg/sg2_161_cif.got.tgz:320741.got - 2010.06.03 11:33:40.
