data_PCOD9013633
_publ_section_title
;
Structure prediction by ZEFSAII (Michael W. Deem and Ramdas Pophale) SiO2 
 PCOD9013633
Probable space group: P -1
;
_chemical_formula_sum "Si O2"
_cell_formula_units_Z 13
_cell_length_a 15.466898
_cell_length_b 13.506481
_cell_length_c 8.390335
_cell_angle_alpha 147.574599
_cell_angle_beta 136.932149
_cell_angle_gamma 43.009845
_cell_volume 609.542162
_symmetry_space_group_name_H-M "P -1"
_symmetry_group_IT_number 2
_symmetry_cell_setting 'triclinic'
loop_
_space_group_symop_operation_xyz
x,y,z
-x,-y,-z
loop_
_atom_site_type_symbol
_atom_site_label
_atom_site_fract_x
_atom_site_fract_y
_atom_site_fract_z
Si Si1 0.900281 0.745294 0.555263
Si Si2 0.580496 0.353039 0.775210
Si Si3 0.000000 0.000000 0.500000
Si Si4 0.136828 0.668761 0.000970
Si Si5 0.110829 0.288837 0.864250
Si Si6 0.614010 0.951813 0.457694
Si Si7 0.584158 0.779849 0.866253
O O1 0.895037 0.524884 0.249510
O O2 0.900372 0.803169 0.449556
O O3 0.761901 0.871163 0.618719
O O4 0.025994 0.759584 0.840017
O O5 0.491776 0.353860 0.500100
O O6 0.610023 0.141832 0.609539
O O7 0.500000 0.500000 0.000000
O O8 0.717499 0.385447 0.952813
O O9 0.924841 0.840438 0.225017
O O10 0.117207 0.826872 0.327302
O O11 0.263337 0.285407 0.078630
O O12 0.000000 0.500000 0.000000
O O13 0.500000 0.000000 0.500000
O O14 0.594173 0.794175 0.090049
O O15 0.500000 0.000000 0.000000
#
# Coordination Sequence:
#
# PCOD9013633 Si02
#       7
#     2   2   1   2   2   2   2
#     4  10  23  44  65  94 135 174 216 279 335 392
#     4  11  24  41  64  93 131 173 224 273 328 402
#     4  12  24  40  70 102 130 174 220 278 332 404
#     4  11  24  42  66  98 133 173 225 273 336 398
#     4  11  23  43  69  98 134 171 222 275 338 392
#     4  10  21  41  65  91 128 173 215 266 339 397
#     4   9  21  42  66  90 131 177 215 272 338 395
#
# _framework density 21.327483999999998
#
# number of rings (size 3 to 8) (size 9 to 14) (size 15 to 20)
#    0.000    1.538    1.538    3.692    2.154    6.154 
#    0.000    6.923    3.385    0.000    0.000    0.000 
#    0.000    0.000    0.000    0.000    0.000    0.000 
#
# Total GULP energy -72385.270287 kJ/mol
# GULP energy per Si atom -5568.097714 kJ/mol
# Density = 2.127894 g / cm^3
# Si number density = 21.327484 Si / 1000 Ang^3
#
#
#
# Elastic Constant Matrix: (Units=GPa)
#
#
# Indices 1 2 3 4 5 6 
#
# 1 110.8029 22.0196 30.1786 -13.9669 2.1155 -42.3900
# 2 22.0196 91.4652 35.2196 -14.5220 6.0112 -38.3238
# 3 30.1786 35.2196 86.6322 -3.4361 6.0852 -21.2134
# 4 -13.9669 -14.5220 -3.4361 44.5593 -8.7498 1.1071
# 5 2.1155 6.0112 6.0852 -8.7498 24.1009 5.8206
# 6 -42.3900 -38.3238 -21.2134 1.1071 5.8206 45.8135
#
#
#
# Elastic Compliance Matrix: (Units=1/GPa)
#
#
# Indices 1 2 3 4 5 6 
#
# 1 0.017467 0.007272 -0.003195 0.005985 -0.005517 0.021322
# 2 0.007272 0.023150 -0.005021 0.007153 -0.008508 0.024677
# 3 -0.003195 -0.005021 0.014866 -0.002088 -0.003018 0.000161
# 4 0.005985 0.007153 -0.002088 0.027434 0.005972 0.009133
# 5 -0.005517 -0.008508 -0.003018 0.005972 0.051946 -0.020363
# 6 0.021322 0.024677 0.000161 0.009133 -0.020363 0.064640
#
#
# Mechanical properties :
#
#
# Convention : Reuss Voigt Hill
#
# Bulk Modulus (GPa) = 18.65842 51.52620 35.09231
# Shear Modulus (GPa) = 22.80434 36.32690 29.56562
#
# Velocity S-wave (km/s) = 3.27348 4.13157 3.72730
# Velocity P-wave (km/s) = 4.80157 6.85360 5.91722
#
# Compressibility (1/GPa) = 0.05359512
#
# Stress axis : x y z
#
# Youngs Moduli (GPa) = 57.25094 43.19567 67.26844
#
# Poissons Ratio (x) = -0.31411 0.21493
# Poissons Ratio (y) = -0.41632 0.33774
# Poissons Ratio (z) = 0.18292 0.21688
#
# Static dielectric constant tensor:
#      x y z
#    x 1.756280 0.026980 -0.054770 
#    y 0.026980 1.724720 -0.018800 
#    z -0.054770 -0.018800 1.728300 
# 
# From -- ./inp_files/157772.got.cif
#   From: 2010.05.17/outbox.cif.g08.bks.cpg/sg2_79_cif.got.tgz:157772.got - 2010.06.03 11:33:40.
