data_PCOD9013578
_publ_section_title
;
Structure prediction by ZEFSAII (Michael W. Deem and Ramdas Pophale) SiO2 
 PCOD9013578
Probable space group: P -1
;
_chemical_formula_sum "Si O2"
_cell_formula_units_Z 12
_cell_length_a 10.133432
_cell_length_b 8.428744
_cell_length_c 14.320623
_cell_angle_alpha 31.552244
_cell_angle_beta 77.229755
_cell_angle_gamma 85.770946
_cell_volume 608.267276
_symmetry_space_group_name_H-M "P -1"
_symmetry_group_IT_number 2
_symmetry_cell_setting 'triclinic'
loop_
_space_group_symop_operation_xyz
x,y,z
-x,-y,-z
loop_
_atom_site_type_symbol
_atom_site_label
_atom_site_fract_x
_atom_site_fract_y
_atom_site_fract_z
Si Si1 0.377085 0.046664 0.429532
Si Si2 0.076119 0.713751 0.642472
Si Si3 0.579216 0.233196 0.640928
Si Si4 0.879132 0.576161 0.419049
Si Si5 0.396380 0.625833 0.022219
Si Si6 0.096825 0.687380 0.972490
O O1 0.373507 0.403277 0.227543
O O2 0.500000 0.000000 0.500000
O O3 0.229054 0.863482 0.583657
O O4 0.399113 0.910673 0.391823
O O5 0.100942 0.561863 0.616552
O O6 0.000000 0.000000 0.500000
O O7 0.986075 0.448163 0.853697
O O8 0.500000 0.500000 0.500000
O O9 0.731508 0.388812 0.575830
O O10 0.481313 0.976985 0.849052
O O11 0.000000 0.500000 0.500000
O O12 0.886020 0.943764 0.228359
O O13 0.500000 0.500000 0.000000
O O14 0.250699 0.620676 0.995457
O O15 0.000000 0.500000 0.000000
#
# Coordination Sequence:
#
# PCOD9013578 Si02
#       6
#     2   2   2   2   2   2
#     4  10  23  39  64  92 125 166 209 262 320 377
#     4  11  23  42  64  94 134 167 216 265 319 386
#     4  10  21  41  65  89 126 165 209 263 315 381
#     4  11  25  42  65  97 130 170 216 266 322 381
#     4  10  22  41  64  91 129 161 217 256 317 385
#     4  12  25  41  69  95 128 176 216 266 327 376
#
# _framework density 19.728169999999999
#
# number of rings (size 3 to 8) (size 9 to 14) (size 15 to 20)
#    0.000    1.333    3.333    1.500    9.333    1.333 
#    0.000    0.833    0.000    0.000    0.000    0.000 
#    0.000    0.000    0.000    0.000    0.000    0.000 
#
# Total GULP energy -66993.786389 kJ/mol
# GULP energy per Si atom -5582.815532 kJ/mol
# Density = 1.968327 g / cm^3
# Si number density = 19.728170 Si / 1000 Ang^3
#
#
#
# Elastic Constant Matrix: (Units=GPa)
#
#
# Indices 1 2 3 4 5 6 
#
# 1 220.0594 29.7054 79.9109 -10.5808 -8.6947 20.3873
# 2 29.7054 35.8629 24.6073 -14.9618 -2.9565 5.2646
# 3 79.9109 24.6073 141.5923 -23.3284 -7.8594 12.1271
# 4 -10.5808 -14.9618 -23.3284 29.3046 -4.6819 0.0645
# 5 -8.6947 -2.9565 -7.8594 -4.6819 41.8760 -1.2818
# 6 20.3873 5.2646 12.1271 0.0645 -1.2818 30.4621
#
#
#
# Elastic Compliance Matrix: (Units=1/GPa)
#
#
# Indices 1 2 3 4 5 6 
#
# 1 0.006252 -0.003547 -0.003015 -0.001918 0.000195 -0.002359
# 2 -0.003547 0.040580 -0.001369 0.018975 0.003871 -0.003971
# 3 -0.003015 -0.001369 0.010383 0.006790 0.001930 -0.001812
# 4 -0.001918 0.018975 0.006790 0.049756 0.007642 -0.004483
# 5 0.000195 0.003871 0.001930 0.007642 0.025395 -0.000516
# 6 -0.002359 -0.003971 -0.001812 -0.004483 -0.000516 0.035802
#
#
# Mechanical properties :
#
#
# Convention : Reuss Voigt Hill
#
# Bulk Modulus (GPa) = 24.18238 73.99574 49.08906
# Shear Modulus (GPa) = 25.27611 37.88129 31.57870
#
# Velocity S-wave (km/s) = 3.58330 4.38672 4.00520
# Velocity P-wave (km/s) = 5.42258 7.95279 6.80629
#
# Compressibility (1/GPa) = 0.04135242
#
# Stress axis : x y z
#
# Youngs Moduli (GPa) = 159.94953 24.64253 96.30973
#
# Poissons Ratio (x) = 0.08742 0.29038
# Poissons Ratio (y) = 0.56742 0.13184
# Poissons Ratio (z) = 0.48225 0.03373
#
# Static dielectric constant tensor:
#      x y z
#    x 1.783680 0.107450 -0.044110 
#    y 0.107450 1.740740 0.001980 
#    z -0.044110 0.001980 1.700460 
# 
# From -- ./inp_files/144592.got.cif
#   From: 2010.05.17/outbox.cif.g08.bks.cpg/sg2_73_cif.got.tgz:144592.got - 2010.06.03 11:33:40.
