data_PCOD9013593
_publ_section_title
;
Structure prediction by ZEFSAII (Michael W. Deem and Ramdas Pophale) SiO2 
 PCOD9013593
Probable space group: P -1
;
_chemical_formula_sum "Si O2"
_cell_formula_units_Z 16
_cell_length_a 13.016493
_cell_length_b 15.667737
_cell_length_c 14.863988
_cell_angle_alpha 27.137680
_cell_angle_beta 54.554378
_cell_angle_gamma 38.208848
_cell_volume 774.969794
_symmetry_space_group_name_H-M "P -1"
_symmetry_group_IT_number 2
_symmetry_cell_setting 'triclinic'
loop_
_space_group_symop_operation_xyz
x,y,z
-x,-y,-z
loop_
_atom_site_type_symbol
_atom_site_label
_atom_site_fract_x
_atom_site_fract_y
_atom_site_fract_z
Si Si1 0.738550 0.259713 0.898223
Si Si2 0.282735 0.749591 0.875167
Si Si3 0.339491 0.713340 0.599018
Si Si4 0.948182 0.362074 0.930358
Si Si5 0.647685 0.079601 0.787400
Si Si6 0.316176 0.399434 0.788430
Si Si7 0.901967 0.812716 0.583872
Si Si8 0.009508 0.667951 0.272129
O O1 0.526599 0.518933 0.742731
O O2 0.847590 0.335189 0.755935
O O3 0.775754 0.173768 0.063963
O O4 0.822377 0.991286 0.056313
O O5 0.216777 0.993832 0.621572
O O6 0.500000 0.500000 0.000000
O O7 0.184121 0.671878 0.958323
O O8 0.307106 0.533605 0.756561
O O9 0.366217 0.790937 0.418485
O O10 0.178164 0.987358 0.478716
O O11 0.891290 0.600623 0.795732
O O12 0.938630 0.431351 0.764572
O O13 0.157567 0.087881 0.106947
O O14 0.477442 0.295097 0.738600
O O15 0.647911 0.858072 0.971984
O O16 0.114892 0.630814 0.629956
O O17 0.000000 0.500000 0.500000
#
# Coordination Sequence:
#
# PCOD9013593 Si02
#       8
#     2   2   2   2   2   2   2   2
#     4  10  23  38  60  95 121 157 216 250 309 380
#     4  11  22  43  61  87 126 167 204 257 315 371
#     4  12  23  39  61  94 127 164 204 259 306 372
#     4  10  23  41  65  91 125 165 210 257 311 374
#     4  10  23  42  64  94 125 163 211 258 312 369
#     4  10  23  41  65  91 124 167 207 253 315 376
#     4  11  24  41  64  93 125 166 212 253 317 374
#     4  10  21  41  65  90 122 160 205 267 311 360
#
# _framework density 20.645965
#
# number of rings (size 3 to 8) (size 9 to 14) (size 15 to 20)
#    0.000    1.500    1.250    3.000    0.000   10.500 
#    2.250    0.000    0.000    0.000    0.000    0.000 
#    0.000    0.000    0.000    0.000    0.000    0.000 
#
# Total GULP energy -89412.930422 kJ/mol
# GULP energy per Si atom -5588.308151 kJ/mol
# Density = 2.059897 g / cm^3
# Si number density = 20.645965 Si / 1000 Ang^3
#
#
#
# Elastic Constant Matrix: (Units=GPa)
#
#
# Indices 1 2 3 4 5 6 
#
# 1 69.6158 25.3693 18.3521 -19.5767 -0.6309 0.6939
# 2 25.3693 61.5892 23.3840 -25.5200 -15.2254 2.1207
# 3 18.3521 23.3840 61.2947 -17.2352 3.4592 4.0348
# 4 -19.5767 -25.5200 -17.2352 41.1699 3.0101 1.8382
# 5 -0.6309 -15.2254 3.4592 3.0101 31.2450 -10.4758
# 6 0.6939 2.1207 4.0348 1.8382 -10.4758 32.8928
#
#
#
# Elastic Compliance Matrix: (Units=1/GPa)
#
#
# Indices 1 2 3 4 5 6 
#
# 1 0.018161 -0.005546 -0.001763 0.004719 -0.002933 -0.001007
# 2 -0.005546 0.029771 -0.007580 0.011378 0.015262 0.003352
# 3 -0.001763 -0.007580 0.021768 0.004403 -0.008245 -0.005016
# 4 0.004719 0.011378 0.004403 0.035521 0.000677 -0.003143
# 5 -0.002933 0.015262 -0.008245 0.000677 0.045059 0.014402
# 6 -0.001007 0.003352 -0.005016 -0.003143 0.014402 0.035585
#
#
# Mechanical properties :
#
#
# Convention : Reuss Voigt Hill
#
# Bulk Modulus (GPa) = 25.04882 36.30116 30.67499
# Shear Modulus (GPa) = 21.83884 29.42117 25.63001
#
# Velocity S-wave (km/s) = 3.25588 3.77906 3.52718
# Velocity P-wave (km/s) = 5.12769 6.05496 5.61051
#
# Compressibility (1/GPa) = 0.03992205
#
# Stress axis : x y z
#
# Youngs Moduli (GPa) = 55.06305 33.58937 45.93979
#
# Poissons Ratio (x) = 0.18630 0.08098
# Poissons Ratio (y) = 0.30541 0.34821
# Poissons Ratio (z) = 0.09706 0.25460
#
# Static dielectric constant tensor:
#      x y z
#    x 1.752930 0.006370 -0.024970 
#    y 0.006370 1.754760 -0.010730 
#    z -0.024970 -0.010730 1.710860 
# 
# From -- ./inp_files/515822.got.cif
#   From: 2010.05.17/outbox.cif.g08.bks.cpg/sg2_258_cif.got.tgz:515822.got - 2010.06.03 11:33:40.
