data_PCOD9013435
_publ_section_title
;
Structure prediction by ZEFSAII (Michael W. Deem and Ramdas Pophale) SiO2 
 PCOD9013435
Probable space group: P -1
;
_chemical_formula_sum "Si O2"
_cell_formula_units_Z 16
_cell_length_a 11.087804
_cell_length_b 14.995666
_cell_length_c 12.164647
_cell_angle_alpha 29.341874
_cell_angle_beta 96.128854
_cell_angle_gamma 116.290596
_cell_volume 685.847702
_symmetry_space_group_name_H-M "P -1"
_symmetry_group_IT_number 2
_symmetry_cell_setting 'triclinic'
loop_
_space_group_symop_operation_xyz
x,y,z
-x,-y,-z
loop_
_atom_site_type_symbol
_atom_site_label
_atom_site_fract_x
_atom_site_fract_y
_atom_site_fract_z
Si Si1 0.701430 0.190245 0.293672
Si Si2 0.856091 0.969346 0.583170
Si Si3 0.690168 0.607626 0.140791
Si Si4 0.881685 0.570314 0.714368
Si Si5 0.152683 0.577189 0.702490
Si Si6 0.542966 0.250646 0.693821
Si Si7 0.912284 0.717718 0.327082
Si Si8 0.725728 0.985961 0.900846
O O1 0.774539 0.063002 0.418129
O O2 0.799232 0.364173 0.226794
O O3 0.500000 0.000000 0.500000
O O4 0.737685 0.358188 0.013529
O O5 0.970545 0.171013 0.478472
O O6 0.000000 0.000000 0.500000
O O7 0.694730 0.690889 0.926966
O O8 0.841096 0.618898 0.130355
O O9 0.534423 0.324885 0.489438
O O10 0.723872 0.813066 0.003790
O O11 0.839394 0.638425 0.529847
O O12 0.968174 0.475783 0.782904
O O13 0.289656 0.852037 0.352397
O O14 0.746437 0.492220 0.481952
O O15 0.413154 0.209982 0.808894
O O16 0.500000 0.000000 0.000000
O O17 0.085427 0.780582 0.275660
O O18 0.000000 0.000000 0.000000
#
# Coordination Sequence:
#
# PCOD9013435 Si02
#       8
#     2   2   2   2   2   2   2   2
#     4  11  23  40  64  96 140 178 225 294 357 416
#     4  11  21  41  71  98 130 183 238 285 348 425
#     4  12  21  41  72  97 130 181 233 285 351 418
#     4  10  21  41  64  95 131 183 225 283 352 417
#     4  10  21  42  67  92 136 176 228 282 349 420
#     4  12  26  43  70 103 141 182 232 290 359 420
#     4  11  23  43  69  98 137 179 236 284 342 422
#     4  11  23  45  68  98 135 186 228 285 358 417
#
# _framework density 23.328795
#
# number of rings (size 3 to 8) (size 9 to 14) (size 15 to 20)
#    0.000    1.000    6.250    3.375    1.750    0.500 
#    0.000    3.750    2.750    0.000    0.000    0.000 
#    0.000    0.000    0.000    0.000    0.000    0.000 
#
# Total GULP energy -89177.117668 kJ/mol
# GULP energy per Si atom -5573.569854 kJ/mol
# Density = 2.327570 g / cm^3
# Si number density = 23.328795 Si / 1000 Ang^3
#
#
#
# Elastic Constant Matrix: (Units=GPa)
#
#
# Indices 1 2 3 4 5 6 
#
# 1 81.5817 19.2792 31.3632 2.2020 -6.0367 -22.9898
# 2 19.2792 42.4867 36.2785 26.5414 -0.6737 -0.7379
# 3 31.3632 36.2785 179.5903 43.6243 -7.7067 -9.3924
# 4 2.2020 26.5414 43.6243 47.2234 -8.8480 -6.2689
# 5 -6.0367 -0.6737 -7.7067 -8.8480 40.6634 5.1013
# 6 -22.9898 -0.7379 -9.3924 -6.2689 5.1013 29.6687
#
#
#
# Elastic Compliance Matrix: (Units=1/GPa)
#
#
# Indices 1 2 3 4 5 6 
#
# 1 0.021946 -0.015440 -0.002863 0.013266 0.003090 0.017987
# 2 -0.015440 0.049529 -0.001331 -0.029179 -0.006030 -0.016282
# 3 -0.002863 -0.001331 0.007867 -0.006579 -0.000249 -0.001108
# 4 0.013266 -0.029179 -0.006579 0.046721 0.008411 0.015897
# 5 0.003090 -0.006030 -0.000249 0.008411 0.026818 -0.000669
# 6 0.017987 -0.016282 -0.001108 0.015897 -0.000669 0.050362
#
#
# Mechanical properties :
#
#
# Convention : Reuss Voigt Hill
#
# Bulk Modulus (GPa) = 24.95363 53.05558 39.00461
# Shear Modulus (GPa) = 19.54128 37.96030 28.75079
#
# Velocity S-wave (km/s) = 2.89735 4.03822 3.51439
# Velocity P-wave (km/s) = 4.68109 6.67344 5.76400
#
# Compressibility (1/GPa) = 0.04007433
#
# Stress axis : x y z
#
# Youngs Moduli (GPa) = 45.56562 20.19005 127.11980
#
# Poissons Ratio (x) = 0.31173 0.36392
# Poissons Ratio (y) = 0.70353 0.16924
# Poissons Ratio (z) = 0.13044 0.02688
#
# Static dielectric constant tensor:
#      x y z
#    x 2.088580 -0.174080 -0.004970 
#    y -0.174080 2.325170 0.173640 
#    z -0.004970 0.173640 2.003290 
# 
# From -- ./inp_files/433686.got.cif
#   From: 2010.05.17/outbox.cif.g08.bks.cpg/sg2_217_cif.got.tgz:433686.got - 2010.06.03 11:33:40.
