data_PCOD9013862
_publ_section_title
;
Structure prediction by ZEFSAII (Michael W. Deem and Ramdas Pophale) SiO2 
 PCOD9013862
Probable space group: P -1
;
_chemical_formula_sum "Si O2"
_cell_formula_units_Z 16
_cell_length_a 11.739967
_cell_length_b 5.306438
_cell_length_c 15.977374
_cell_angle_alpha 85.051719
_cell_angle_beta 48.455850
_cell_angle_gamma 109.487004
_cell_volume 632.088827
_symmetry_space_group_name_H-M "P -1"
_symmetry_group_IT_number 2
_symmetry_cell_setting 'triclinic'
loop_
_space_group_symop_operation_xyz
x,y,z
-x,-y,-z
loop_
_atom_site_type_symbol
_atom_site_label
_atom_site_fract_x
_atom_site_fract_y
_atom_site_fract_z
Si Si1 0.082526 0.361809 0.898763
Si Si2 0.414816 0.166172 0.583623
Si Si3 0.543532 0.126954 0.265919
Si Si4 0.205450 0.122885 0.377335
Si Si5 0.951510 0.339687 0.250132
Si Si6 0.539752 0.272098 0.828976
Si Si7 0.199011 0.190173 0.046259
Si Si8 0.803975 0.182842 0.783757
O O1 0.293382 0.530642 0.814090
O O2 0.110462 0.499328 0.787560
O O3 0.935432 0.016552 0.957036
O O4 0.000000 0.500000 0.000000
O O5 0.500000 0.500000 0.500000
O O6 0.500000 0.000000 0.500000
O O7 0.433313 0.085093 0.672976
O O8 0.206698 0.998110 0.664255
O O9 0.345924 0.081927 0.366384
O O10 0.564383 0.019113 0.167887
O O11 0.302772 0.476269 0.310622
O O12 0.203789 0.987146 0.291139
O O13 0.000000 0.000000 0.500000
O O14 0.121308 0.372099 0.119232
O O15 0.014906 0.495844 0.303672
O O16 0.637338 0.225779 0.859370
O O17 0.404369 0.372424 0.916280
O O18 0.197112 0.987128 0.128579
#
# Coordination Sequence:
#
# PCOD9013862 Si02
#       8
#     2   2   2   2   2   2   2   2
#     4  10  21  41  66 102 144 180 225 301 378 448
#     4  11  28  49  75 108 148 201 254 319 380 452
#     4  10  25  46  70 107 143 186 248 306 382 455
#     4  11  27  47  73 102 143 196 254 313 374 447
#     4  10  25  42  67 104 137 189 245 300 376 448
#     4  11  24  43  69 105 139 195 242 307 378 448
#     4  11  23  41  73 103 145 188 241 303 378 458
#     4  10  24  45  67  99 146 183 249 302 377 440
#
# _framework density 25.312899999999999
#
# number of rings (size 3 to 8) (size 9 to 14) (size 15 to 20)
#    0.000    1.500    1.250    1.125    8.750    9.500 
#    0.000    0.000    0.000    0.000    0.000    0.000 
#    0.000    0.000    0.000    0.000    0.000    0.000 
#
# Total GULP energy -89460.227204 kJ/mol
# GULP energy per Si atom -5591.264200 kJ/mol
# Density = 2.525529 g / cm^3
# Si number density = 25.312900 Si / 1000 Ang^3
#
#
#
# Elastic Constant Matrix: (Units=GPa)
#
#
# Indices 1 2 3 4 5 6 
#
# 1 160.6638 34.2064 28.7117 -7.7976 -10.7686 22.9667
# 2 34.2064 90.9795 15.0792 -8.7773 -5.2818 21.1621
# 3 28.7117 15.0792 105.7026 -19.2843 -30.6435 5.2074
# 4 -7.7976 -8.7773 -19.2843 37.3439 -4.9509 -5.5771
# 5 -10.7686 -5.2818 -30.6435 -4.9509 38.2767 0.1122
# 6 22.9667 21.1621 5.2074 -5.5771 0.1122 41.6531
#
#
#
# Elastic Compliance Matrix: (Units=1/GPa)
#
#
# Indices 1 2 3 4 5 6 
#
# 1 0.007324 -0.001792 -0.001363 0.000061 0.000739 -0.002951
# 2 -0.001792 0.013256 -0.000439 0.001865 0.001231 -0.005445
# 3 -0.001363 -0.000439 0.015368 0.009320 0.013064 0.000266
# 4 0.000061 0.001865 0.009320 0.034004 0.012127 0.002374
# 5 0.000739 0.001231 0.013064 0.012127 0.038534 -0.001146
# 6 -0.002951 -0.005445 0.000266 0.002374 -0.001146 0.028689
#
#
# Mechanical properties :
#
#
# Convention : Reuss Voigt Hill
#
# Bulk Modulus (GPa) = 34.77201 57.03782 45.90491
# Shear Modulus (GPa) = 32.47817 42.07798 37.27808
#
# Velocity S-wave (km/s) = 3.58588 4.08157 3.84173
# Velocity P-wave (km/s) = 5.55980 6.69286 6.15247
#
# Compressibility (1/GPa) = 0.02875876
#
# Stress axis : x y z
#
# Youngs Moduli (GPa) = 136.54358 75.43691 65.07128
#
# Poissons Ratio (x) = 0.13522 0.08869
# Poissons Ratio (y) = 0.24475 0.02856
# Poissons Ratio (z) = 0.18610 0.03311
#
# Static dielectric constant tensor:
#      x y z
#    x 2.063180 -0.024300 0.017810 
#    y -0.024300 1.993900 -0.023390 
#    z 0.017810 -0.023390 2.023870 
# 
# From -- ./inp_files/364226.got.cif
#   From: 2010.05.17/outbox.cif.g08.bks.cpg/sg2_183_cif.got.tgz:364226.got - 2010.06.03 11:33:40.
