data_PCOD9013981
_publ_section_title
;
Structure prediction by ZEFSAII (Michael W. Deem and Ramdas Pophale) SiO2 
 PCOD9013981
Probable space group: P -1
;
_chemical_formula_sum "Si O2"
_cell_formula_units_Z 14
_cell_length_a 11.270961
_cell_length_b 5.577878
_cell_length_c 11.628661
_cell_angle_alpha 66.874108
_cell_angle_beta 86.525450
_cell_angle_gamma 53.802878
_cell_volume 527.901935
_symmetry_space_group_name_H-M "P -1"
_symmetry_group_IT_number 2
_symmetry_cell_setting 'triclinic'
loop_
_space_group_symop_operation_xyz
x,y,z
-x,-y,-z
loop_
_atom_site_type_symbol
_atom_site_label
_atom_site_fract_x
_atom_site_fract_y
_atom_site_fract_z
Si Si1 0.118290 0.620484 0.717691
Si Si2 0.643823 0.536065 0.083155
Si Si3 0.835786 0.130260 0.948426
Si Si4 0.342936 0.205359 0.318703
Si Si5 0.357456 0.949813 0.145746
Si Si6 0.693698 0.814587 0.411483
Si Si7 0.953115 0.736993 0.348593
O O1 0.247502 0.453415 0.837973
O O2 0.213702 0.516288 0.611589
O O3 0.026744 0.476192 0.723838
O O4 0.012025 0.007572 0.685070
O O5 0.495735 0.619418 0.136023
O O6 0.598591 0.816898 0.937954
O O7 0.517272 0.046189 0.354776
O O8 0.744634 0.217751 0.056325
O O9 0.804661 0.911060 0.920311
O O10 0.759711 0.447796 0.808362
O O11 0.000000 0.000000 0.000000
O O12 0.281229 0.250200 0.441813
O O13 0.352104 0.941909 0.284324
O O14 0.769458 0.979334 0.331904
O O15 0.000000 0.500000 0.500000
#
# Coordination Sequence:
#
# PCOD9013981 Si02
#       7
#     2   2   2   2   2   2   2
#     4  10  22  39  66  99 132 174 229 278 346 405
#     4  10  22  40  66  94 125 174 232 278 344 396
#     4  11  26  41  63  96 136 179 225 283 354 411
#     4  10  21  43  63  94 130 175 227 279 342 407
#     4  10  21  41  66  93 127 174 228 285 335 409
#     4   9  22  38  65  97 130 171 228 278 342 402
#     4  10  22  40  62  95 139 174 223 277 341 412
#
# _framework density 26.520078999999999
#
# number of rings (size 3 to 8) (size 9 to 14) (size 15 to 20)
#    0.857    1.143    1.429    0.857    4.000    4.571 
#    2.571    2.857    0.000    0.000    0.000    0.000 
#    0.000    0.000    0.000    0.000    0.000    0.000 
#
# Total GULP energy -78155.672149 kJ/mol
# GULP energy per Si atom -5582.548011 kJ/mol
# Density = 2.645972 g / cm^3
# Si number density = 26.520079 Si / 1000 Ang^3
#
#
#
# Elastic Constant Matrix: (Units=GPa)
#
#
# Indices 1 2 3 4 5 6 
#
# 1 81.6795 43.7060 44.4904 12.1929 9.2312 2.4307
# 2 43.7060 102.5223 44.1030 20.5128 -4.5764 5.9437
# 3 44.4904 44.1030 175.9054 28.7262 15.2312 -4.3712
# 4 12.1929 20.5128 28.7262 52.3871 -6.5931 2.1407
# 5 9.2312 -4.5764 15.2312 -6.5931 33.9027 5.7903
# 6 2.4307 5.9437 -4.3712 2.1407 5.7903 39.9506
#
#
#
# Elastic Compliance Matrix: (Units=1/GPa)
#
#
# Indices 1 2 3 4 5 6 
#
# 1 0.017699 -0.006652 -0.002211 -0.000947 -0.004984 0.000444
# 2 -0.006652 0.014243 -0.001980 -0.002262 0.004606 -0.002477
# 3 -0.002211 -0.001980 0.007737 -0.003564 -0.004188 0.002074
# 4 -0.000947 -0.002262 -0.003564 0.023044 0.006404 -0.002159
# 5 -0.004984 0.004606 -0.004188 0.006404 0.035688 -0.006356
# 6 0.000444 -0.002477 0.002074 -0.002159 -0.006356 0.026636
#
#
# Mechanical properties :
#
#
# Convention : Reuss Voigt Hill
#
# Bulk Modulus (GPa) = 55.57930 69.41178 62.49554
# Shear Modulus (GPa) = 32.73753 40.43528 36.58640
#
# Velocity S-wave (km/s) = 3.51728 3.90898 3.71829
# Velocity P-wave (km/s) = 6.12355 6.82669 6.48466
#
# Compressibility (1/GPa) = 0.01799231
#
# Stress axis : x y z
#
# Youngs Moduli (GPa) = 56.50195 70.20789 129.25375
#
# Poissons Ratio (x) = 0.46706 0.28581
# Poissons Ratio (y) = 0.37588 0.25586
# Poissons Ratio (z) = 0.12494 0.13898
#
# Static dielectric constant tensor:
#      x y z
#    x 2.104750 -0.004850 0.051770 
#    y -0.004850 2.246220 -0.054330 
#    z 0.051770 -0.054330 2.115060 
# 
# From -- ./inp_files/96326.got.cif
#   From: 2010.05.17/outbox.cif.g08.bks.cpg/sg2_49_cif.got.tgz:96326.got - 2010.06.03 11:33:40.
