data_PCOD9013059
_publ_section_title
;
Structure prediction by ZEFSAII (Michael W. Deem and Ramdas Pophale) SiO2 
 PCOD9013059
Probable space group: P -1
;
_chemical_formula_sum "Si O2"
_cell_formula_units_Z 14
_cell_length_a 10.916122
_cell_length_b 14.296482
_cell_length_c 13.944012
_cell_angle_alpha 41.525702
_cell_angle_beta 148.532770
_cell_angle_gamma 137.915245
_cell_volume 718.561345
_symmetry_space_group_name_H-M "P -1"
_symmetry_group_IT_number 2
_symmetry_cell_setting 'triclinic'
loop_
_space_group_symop_operation_xyz
x,y,z
-x,-y,-z
loop_
_atom_site_type_symbol
_atom_site_label
_atom_site_fract_x
_atom_site_fract_y
_atom_site_fract_z
Si Si1 0.775510 0.361084 0.919952
Si Si2 0.928467 0.445524 0.762234
Si Si3 0.753999 0.941854 0.946095
Si Si4 0.553308 0.371408 0.960686
Si Si5 0.754679 0.422930 0.451571
Si Si6 0.025924 0.845650 0.904932
Si Si7 0.480875 0.089468 0.513602
O O1 0.735443 0.418353 0.742942
O O2 0.585545 0.329593 0.903433
O O3 0.000000 0.500000 0.000000
O O4 0.855654 0.215702 0.058995
O O5 0.177334 0.577637 0.849149
O O6 0.804788 0.458275 0.570032
O O7 0.010327 0.294583 0.938949
O O8 0.545413 0.001633 0.712958
O O9 0.642307 0.765372 0.014176
O O10 0.817177 0.014399 0.037373
O O11 0.000000 0.000000 0.000000
O O12 0.453778 0.512109 0.778815
O O13 0.681181 0.248650 0.522759
O O14 0.000000 0.500000 0.500000
O O15 0.779124 0.878503 0.682951
O O16 0.500000 0.000000 0.500000
#
# Coordination Sequence:
#
# PCOD9013059 Si02
#       7
#     2   2   2   2   2   2   2
#     4   8  17  41  65  88 121 162 210 261 305 360
#     4   9  21  41  64  88 123 161 201 262 306 357
#     4  12  25  40  59  94 130 164 204 252 315 376
#     4  11  24  40  65  92 124 162 210 258 308 366
#     4  12  25  38  62  96 121 162 216 251 307 383
#     4  10  21  41  63  86 126 162 204 257 308 366
#     4  12  23  39  62  85 122 172 195 249 321 363
#
# _framework density 19.483374999999999
#
# number of rings (size 3 to 8) (size 9 to 14) (size 15 to 20)
#    0.857    0.571    4.286    0.857    2.000    1.714 
#    0.000    2.143    0.000    0.000    0.000    0.000 
#    0.000    0.000    0.000    0.000    0.000    0.000 
#
# Total GULP energy -78024.851120 kJ/mol
# GULP energy per Si atom -5573.203651 kJ/mol
# Density = 1.943903 g / cm^3
# Si number density = 19.483375 Si / 1000 Ang^3
#
#
#
# Elastic Constant Matrix: (Units=GPa)
#
#
# Indices 1 2 3 4 5 6 
#
# 1 48.6557 20.6058 -13.1811 -3.9387 0.5559 0.7389
# 2 20.6058 89.1005 13.0389 1.6354 -17.3562 -3.2799
# 3 -13.1811 13.0389 64.1906 -3.5432 -6.7842 6.9258
# 4 -3.9387 1.6354 -3.5432 26.2258 -3.4922 -2.6958
# 5 0.5559 -17.3562 -6.7842 -3.4922 24.8970 -5.8380
# 6 0.7389 -3.2799 6.9258 -2.6958 -5.8380 30.1256
#
#
#
# Elastic Compliance Matrix: (Units=1/GPa)
#
#
# Indices 1 2 3 4 5 6 
#
# 1 0.026531 -0.008331 0.007299 0.004486 -0.004659 -0.003737
# 2 -0.008331 0.016212 -0.004398 -0.000817 0.011373 0.005112
# 3 0.007299 -0.004398 0.018790 0.003641 0.001373 -0.004386
# 4 0.004486 -0.000817 0.003641 0.040679 0.006955 0.003952
# 5 -0.004659 0.011373 0.001373 0.006955 0.052314 0.011797
# 6 -0.003737 0.005112 -0.004386 0.003952 0.011797 0.037491
#
#
# Mechanical properties :
#
#
# Convention : Reuss Voigt Hill
#
# Bulk Modulus (GPa) = 19.73484 26.98602 23.36043
# Shear Modulus (GPa) = 22.75103 28.34856 25.54980
#
# Velocity S-wave (km/s) = 3.42089 3.81860 3.62520
# Velocity P-wave (km/s) = 5.07488 5.77262 5.43496
#
# Compressibility (1/GPa) = 0.05067180
#
# Stress axis : x y z
#
# Youngs Moduli (GPa) = 37.69147 61.68152 53.21943
#
# Poissons Ratio (x) = 0.51388 -0.38844
# Poissons Ratio (y) = 0.31402 0.23408
# Poissons Ratio (z) = -0.27510 0.27131
#
# Static dielectric constant tensor:
#      x y z
#    x 1.706340 -0.011200 0.003570 
#    y -0.011200 1.674590 -0.011490 
#    z 0.003570 -0.011490 1.689650 
# 
# From -- ./inp_files/521500.got.cif
#   From: 2010.05.17/outbox.cif.g08.bks.cpg/sg2_261_cif.got.tgz:521500.got - 2010.06.03 11:33:40.
