data_PCOD9013291
_publ_section_title
;
Structure prediction by ZEFSAII (Michael W. Deem and Ramdas Pophale) SiO2 
 PCOD9013291
Probable space group: P -1
;
_chemical_formula_sum "Si O2"
_cell_formula_units_Z 16
_cell_length_a 9.029059
_cell_length_b 12.277950
_cell_length_c 13.126421
_cell_angle_alpha 83.487225
_cell_angle_beta 104.956631
_cell_angle_gamma 148.881766
_cell_volume 709.516027
_symmetry_space_group_name_H-M "P -1"
_symmetry_group_IT_number 2
_symmetry_cell_setting 'triclinic'
loop_
_space_group_symop_operation_xyz
x,y,z
-x,-y,-z
loop_
_atom_site_type_symbol
_atom_site_label
_atom_site_fract_x
_atom_site_fract_y
_atom_site_fract_z
Si Si1 0.807026 0.124846 0.672743
Si Si2 0.665116 0.404327 0.816648
Si Si3 0.957664 0.587560 0.129647
Si Si4 0.847055 0.732515 0.560320
Si Si5 0.925698 0.919144 0.355390
Si Si6 0.689932 0.835347 0.022153
Si Si7 0.834581 0.161996 0.055705
Si Si8 0.138176 0.700281 0.543072
O O1 0.837250 0.213817 0.565188
O O2 0.931298 0.281810 0.764557
O O3 0.981320 0.116830 0.704574
O O4 0.455691 0.876157 0.636178
O O5 0.426965 0.268076 0.698233
O O6 0.467347 0.317392 0.890610
O O7 0.823518 0.382287 0.855472
O O8 0.955609 0.661012 0.838012
O O9 0.602547 0.335368 0.087249
O O10 0.010248 0.706245 0.035831
O O11 0.500000 0.500000 0.500000
O O12 0.986862 0.887743 0.473242
O O13 0.976868 0.689639 0.589689
O O14 0.899248 0.857135 0.642721
O O15 0.790111 0.008248 0.075002
O O16 0.000000 0.000000 0.000000
O O17 0.500000 0.000000 0.000000
O O18 0.000000 0.500000 0.500000
#
# Coordination Sequence:
#
# PCOD9013291 Si02
#       8
#     2   2   2   2   2   2   2   2
#     4  10  23  40  61  92 126 157 205 259 310 364
#     4  11  23  41  64  92 126 165 211 256 307 377
#     4  11  23  41  64  92 126 165 210 257 309 373
#     4  10  21  41  64  88 124 164 204 249 312 372
#     4  10  23  40  61  92 126 160 203 260 307 368
#     4  11  25  41  63  93 125 164 210 260 313 367
#     4  11  21  43  65  87 125 168 208 255 309 369
#     4  10  21  41  64  89 124 163 203 253 310 372
#
# _framework density 22.550585000000002
#
# number of rings (size 3 to 8) (size 9 to 14) (size 15 to 20)
#    0.000    1.500    2.500    2.250    3.500    6.000 
#    4.500    0.000    0.000    0.000    0.000    0.000 
#    0.000    0.000    0.000    0.000    0.000    0.000 
#
# Total GULP energy -89109.985691 kJ/mol
# GULP energy per Si atom -5569.374106 kJ/mol
# Density = 2.249926 g / cm^3
# Si number density = 22.550585 Si / 1000 Ang^3
#
#
#
# Elastic Constant Matrix: (Units=GPa)
#
#
# Indices 1 2 3 4 5 6 
#
# 1 112.5996 57.1301 30.0210 29.3429 0.5761 6.5671
# 2 57.1301 110.3484 26.2997 43.3601 -4.6269 -6.8247
# 3 30.0210 26.2997 84.6099 29.4574 -2.3219 -0.8748
# 4 29.3429 43.3601 29.4574 42.3376 -0.1160 -10.8959
# 5 0.5761 -4.6269 -2.3219 -0.1160 30.5155 8.0846
# 6 6.5671 -6.8247 -0.8748 -10.8959 8.0846 36.7992
#
#
#
# Elastic Compliance Matrix: (Units=1/GPa)
#
#
# Indices 1 2 3 4 5 6 
#
# 1 0.013257 -0.005259 -0.001837 -0.003674 -0.000017 -0.004469
# 2 -0.005259 0.017751 0.002103 -0.016313 0.003222 -0.001257
# 3 -0.001837 0.002103 0.016432 -0.013163 0.002434 -0.003324
# 4 -0.003674 -0.016313 -0.013163 0.056001 -0.007300 0.015503
# 5 -0.000017 0.003222 0.002434 -0.007300 0.035905 -0.009391
# 6 -0.004469 -0.001257 -0.003324 0.015503 -0.009391 0.034313
#
#
# Mechanical properties :
#
#
# Convention : Reuss Voigt Hill
#
# Bulk Modulus (GPa) = 26.69857 59.38440 43.04149
# Shear Modulus (GPa) = 25.49328 34.87091 30.18209
#
# Velocity S-wave (km/s) = 3.36593 3.93662 3.66241
# Velocity P-wave (km/s) = 5.19337 6.85957 6.08378
#
# Compressibility (1/GPa) = 0.03745519
#
# Stress axis : x y z
#
# Youngs Moduli (GPa) = 75.42979 56.33446 60.85677
#
# Poissons Ratio (x) = 0.29628 0.11177
# Poissons Ratio (y) = 0.39671 -0.12800
# Poissons Ratio (z) = 0.13854 -0.11849
#
# Static dielectric constant tensor:
#      x y z
#    x 1.872420 0.015970 -0.025430 
#    y 0.015970 1.861770 -0.043750 
#    z -0.025430 -0.043750 1.964270 
# 
# From -- ./inp_files/38596.got.cif
#   From: 2010.05.17/outbox.cif.g08.bks.cpg/sg2_20_cif.got.tgz:38596.got - 2010.06.03 11:33:40.
