data_PCOD9013820
_publ_section_title
;
Structure prediction by ZEFSAII (Michael W. Deem and Ramdas Pophale) SiO2 
 PCOD9013820
Probable space group: P -1
;
_chemical_formula_sum "Si O2"
_cell_formula_units_Z 14
_cell_length_a 9.352751
_cell_length_b 11.488125
_cell_length_c 5.452389
_cell_angle_alpha 84.468920
_cell_angle_beta 90.750796
_cell_angle_gamma 123.019898
_cell_volume 488.379031
_symmetry_space_group_name_H-M "P -1"
_symmetry_group_IT_number 2
_symmetry_cell_setting 'triclinic'
loop_
_space_group_symop_operation_xyz
x,y,z
-x,-y,-z
loop_
_atom_site_type_symbol
_atom_site_label
_atom_site_fract_x
_atom_site_fract_y
_atom_site_fract_z
Si Si1 0.702610 0.137816 0.254694
Si Si2 0.155227 0.077977 0.286864
Si Si3 0.188273 0.482172 0.659603
Si Si4 0.459367 0.834153 0.258986
Si Si5 0.423509 0.389726 0.249783
Si Si6 0.975729 0.183288 0.931897
Si Si7 0.263874 0.546839 0.176605
O O1 0.648915 0.178575 0.495382
O O2 0.895458 0.214787 0.154765
O O3 0.637739 0.973885 0.299274
O O4 0.612140 0.145008 0.003250
O O5 0.333260 0.223428 0.323759
O O6 0.097142 0.137533 0.050980
O O7 0.000000 0.000000 0.500000
O O8 0.164618 0.951760 0.201049
O O9 0.392497 0.538510 0.630254
O O10 0.153231 0.539913 0.403361
O O11 0.195397 0.548503 0.909924
O O12 0.074130 0.318359 0.738445
O O13 0.444397 0.692975 0.200750
O O14 0.264883 0.408969 0.257396
O O15 0.500000 0.500000 0.000000
#
# Coordination Sequence:
#
# PCOD9013820 Si02
#       7
#     2   2   2   2   2   2   2
#     4  10  24  43  69  92 136 167 227 280 334 388
#     4  11  24  42  67 103 137 178 227 267 344 408
#     4  11  24  41  66 100 139 176 218 271 337 414
#     4  10  23  45  66  99 122 178 229 276 330 401
#     4  10  21  41  65  98 140 177 219 272 333 415
#     4  11  25  41  67  98 139 174 219 281 340 392
#     4  11  22  40  70  92 133 172 227 271 328 391
#
# _framework density 28.666260999999999
#
# number of rings (size 3 to 8) (size 9 to 14) (size 15 to 20)
#    0.000    1.429    2.857    2.143    6.000    1.143 
#    0.000    4.286    0.000    0.000    0.000    0.000 
#    0.000    0.000    0.000    0.000    0.000    0.000 
#
# Total GULP energy -78066.169975 kJ/mol
# GULP energy per Si atom -5576.154998 kJ/mol
# Density = 2.860101 g / cm^3
# Si number density = 28.666261 Si / 1000 Ang^3
#
#
#
# Elastic Constant Matrix: (Units=GPa)
#
#
# Indices 1 2 3 4 5 6 
#
# 1 49.2717 19.2089 -2.3883 -4.4769 -22.8002 8.1201
# 2 19.2089 206.7216 43.2092 -4.5718 -9.6607 -1.0544
# 3 -2.3883 43.2092 194.6161 -17.9429 3.1064 -0.5480
# 4 -4.4769 -4.5718 -17.9429 46.2467 9.3632 -3.5230
# 5 -22.8002 -9.6607 3.1064 9.3632 45.3312 -5.7531
# 6 8.1201 -1.0544 -0.5480 -3.5230 -5.7531 39.6098
#
#
#
# Elastic Compliance Matrix: (Units=1/GPa)
#
#
# Indices 1 2 3 4 5 6 
#
# 1 0.027806 -0.002118 0.000571 -0.000234 0.013052 -0.003874
# 2 -0.002118 0.005301 -0.001220 -0.000162 0.000255 0.000581
# 3 0.000571 -0.001220 0.005641 0.002292 -0.000832 0.000012
# 4 -0.000234 -0.000162 0.002292 0.023596 -0.004999 0.001448
# 5 0.013052 0.000255 -0.000832 -0.004999 0.029923 0.001221
# 6 -0.003874 0.000581 0.000012 0.001448 0.001221 0.026362
#
#
# Mechanical properties :
#
#
# Convention : Reuss Voigt Hill
#
# Bulk Modulus (GPa) = 30.10945 63.40768 46.75857
# Shear Modulus (GPa) = 36.97267 52.27619 44.62443
#
# Velocity S-wave (km/s) = 3.59522 4.27501 3.94977
# Velocity P-wave (km/s) = 5.26882 6.82165 6.09489
#
# Compressibility (1/GPa) = 0.03321216
#
# Stress axis : x y z
#
# Youngs Moduli (GPa) = 35.96375 188.65824 177.27676
#
# Poissons Ratio (x) = 0.39958 -0.10117
# Poissons Ratio (y) = 0.07617 0.21631
# Poissons Ratio (z) = -0.02052 0.23020
#
# Static dielectric constant tensor:
#      x y z
#    x 2.143220 -0.139050 -0.036680 
#    y -0.139050 2.267310 0.127490 
#    z -0.036680 0.127490 2.370400 
# 
# From -- ./inp_files/70516.got.cif
#   From: 2010.05.17/outbox.cif.g08.bks.cpg/sg2_36_cif.got.tgz:70516.got - 2010.06.03 11:33:40.
