data_PCOD9013445
_publ_section_title
;
Structure prediction by ZEFSAII (Michael W. Deem and Ramdas Pophale) SiO2 
 PCOD9013445
Probable space group: P -1
;
_chemical_formula_sum "Si O2"
_cell_formula_units_Z 14
_cell_length_a 9.352562
_cell_length_b 14.454334
_cell_length_c 5.276087
_cell_angle_alpha 109.988344
_cell_angle_beta 122.720091
_cell_angle_gamma 64.636638
_cell_volume 536.493526
_symmetry_space_group_name_H-M "P -1"
_symmetry_group_IT_number 2
_symmetry_cell_setting 'triclinic'
loop_
_space_group_symop_operation_xyz
x,y,z
-x,-y,-z
loop_
_atom_site_type_symbol
_atom_site_label
_atom_site_fract_x
_atom_site_fract_y
_atom_site_fract_z
Si Si1 0.273888 0.808100 0.643150
Si Si2 0.390535 0.586757 0.666718
Si Si3 0.072483 0.856500 0.004625
Si Si4 0.753699 0.543457 0.201947
Si Si5 0.320853 0.203784 0.974114
Si Si6 0.688899 0.915639 0.648816
Si Si7 0.024189 0.352641 0.139330
O O1 0.268354 0.690363 0.520942
O O2 0.478851 0.796846 0.782349
O O3 0.209126 0.846370 0.896516
O O4 0.152008 0.872950 0.366247
O O5 0.500000 0.500000 0.500000
O O6 0.285046 0.535470 0.704438
O O7 0.555087 0.611555 0.994670
O O8 0.879873 0.934022 0.817268
O O9 0.039424 0.742703 0.904287
O O10 0.862628 0.609884 0.501849
O O11 0.869736 0.460341 0.033086
O O12 0.301427 0.119936 0.083234
O O13 0.164266 0.306212 0.003284
O O14 0.306314 0.169243 0.642116
O O15 0.500000 0.000000 0.500000
#
# Coordination Sequence:
#
# PCOD9013445 Si02
#       7
#     2   2   2   2   2   2   2
#     4  12  25  43  67 100 140 183 231 273 346 413
#     4  11  23  37  62  90 139 187 234 296 341 384
#     4  11  24  44  69  98 137 181 225 281 348 409
#     4  10  22  41  59  96 137 185 247 288 334 394
#     4  11  25  44  75 103 141 184 227 281 350 420
#     4  11  25  50  77 107 137 173 225 287 352 423
#     4  10  21  41  64  95 137 183 241 284 337 399
#
# _framework density 26.095378
#
# number of rings (size 3 to 8) (size 9 to 14) (size 15 to 20)
#    0.000    1.143    1.429    4.714    8.000    0.000 
#    2.571    7.143    0.000    0.000    0.000    0.000 
#    0.000    0.000    0.000    0.000    0.000    0.000 
#
# Total GULP energy -78453.260177 kJ/mol
# GULP energy per Si atom -5603.804298 kJ/mol
# Density = 2.603598 g / cm^3
# Si number density = 26.095378 Si / 1000 Ang^3
#
#
#
# Elastic Constant Matrix: (Units=GPa)
#
#
# Indices 1 2 3 4 5 6 
#
# 1 113.7980 19.0628 4.0133 -3.8224 2.5164 -29.9415
# 2 19.0628 120.6776 18.9893 -16.0134 -9.8452 -30.3671
# 3 4.0133 18.9893 89.9723 -10.5733 -0.3228 -4.5906
# 4 -3.8224 -16.0134 -10.5733 50.5282 -4.7721 -2.4335
# 5 2.5164 -9.8452 -0.3228 -4.7721 24.7900 7.7899
# 6 -29.9415 -30.3671 -4.5906 -2.4335 7.7899 38.2637
#
#
#
# Elastic Compliance Matrix: (Units=1/GPa)
#
#
# Indices 1 2 3 4 5 6 
#
# 1 0.011553 0.000634 0.000010 0.001205 -0.003966 0.010429
# 2 0.000634 0.011462 -0.001496 0.004032 0.002357 0.009190
# 3 0.000010 -0.001496 0.011681 0.001972 -0.000184 0.000385
# 4 0.001205 0.004032 0.001972 0.022210 0.004231 0.004931
# 5 -0.003966 0.002357 -0.000184 0.004231 0.045725 -0.010295
# 6 0.010429 0.009190 0.000385 0.004931 -0.010295 0.044044
#
#
# Mechanical properties :
#
#
# Convention : Reuss Voigt Hill
#
# Bulk Modulus (GPa) = 30.31085 45.39765 37.85425
# Shear Modulus (GPa) = 31.37274 41.54187 36.45730
#
# Velocity S-wave (km/s) = 3.47109 3.99422 3.74181
# Velocity P-wave (km/s) = 5.26357 6.22144 5.76244
#
# Compressibility (1/GPa) = 0.03299149
#
# Stress axis : x y z
#
# Youngs Moduli (GPa) = 86.55749 87.24784 85.61231
#
# Poissons Ratio (x) = -0.05531 -0.00088
# Poissons Ratio (y) = -0.05488 0.12809
# Poissons Ratio (z) = -0.00089 0.13053
#
# Static dielectric constant tensor:
#      x y z
#    x 2.075220 0.014460 0.048770 
#    y 0.014460 2.172270 0.000480 
#    z 0.048770 0.000480 2.033040 
# 
# From -- ./inp_files/45584.got.cif
#   From: 2010.05.17/outbox.cif.g08.bks.cpg/sg2_23_cif.got.tgz:45584.got - 2010.06.03 11:33:40.
