data_PCOD9013469
_publ_section_title
;
Structure prediction by ZEFSAII (Michael W. Deem and Ramdas Pophale) SiO2 
 PCOD9013469
Probable space group: P -1
;
_chemical_formula_sum "Si O2"
_cell_formula_units_Z 16
_cell_length_a 9.113840
_cell_length_b 5.781705
_cell_length_c 16.852069
_cell_angle_alpha 61.370977
_cell_angle_beta 122.447665
_cell_angle_gamma 92.571205
_cell_volume 630.174482
_symmetry_space_group_name_H-M "P -1"
_symmetry_group_IT_number 2
_symmetry_cell_setting 'triclinic'
loop_
_space_group_symop_operation_xyz
x,y,z
-x,-y,-z
loop_
_atom_site_type_symbol
_atom_site_label
_atom_site_fract_x
_atom_site_fract_y
_atom_site_fract_z
Si Si1 0.570243 0.117044 0.328227
Si Si2 0.038339 0.086564 0.734267
Si Si3 0.681614 0.590740 0.523071
Si Si4 0.042630 0.904655 0.118510
Si Si5 0.215057 0.269663 0.305620
Si Si6 0.327322 0.385706 0.745347
Si Si7 0.393398 0.309569 0.952591
Si Si8 0.657176 0.901886 0.871738
O O1 0.400667 0.141117 0.333176
O O2 0.691044 0.320363 0.349169
O O3 0.667506 0.790985 0.411234
O O4 0.474922 0.216866 0.199871
O O5 0.855679 0.329190 0.621644
O O6 0.083805 0.042954 0.849339
O O7 0.197355 0.190282 0.724836
O O8 0.963818 0.832292 0.733775
O O9 0.500000 0.500000 0.500000
O O10 0.718311 0.765153 0.579019
O O11 0.150162 0.586393 0.208189
O O12 0.188777 0.073543 0.147612
O O13 0.000000 0.000000 0.000000
O O14 0.303407 0.444515 0.823445
O O15 0.531044 0.200317 0.813876
O O16 0.500000 0.500000 0.000000
O O17 0.500000 0.000000 0.000000
O O18 0.273905 0.255978 0.000724
#
# Coordination Sequence:
#
# PCOD9013469 Si02
#       8
#     2   2   2   2   2   2   2   2
#     4  12  22  41  73  96 128 184 231 277 344 420
#     4  11  25  45  64 103 138 176 226 287 349 410
#     4  11  24  42  73 100 132 174 232 289 344 415
#     4  11  23  42  67 100 134 174 233 285 329 416
#     4  11  23  44  71  96 135 180 228 278 357 413
#     4  11  25  42  66  99 144 178 227 285 354 416
#     4  10  21  41  64  96 139 190 228 282 356 425
#     4  11  22  41  67  98 134 178 237 283 338 420
#
# _framework density 25.389792
#
# number of rings (size 3 to 8) (size 9 to 14) (size 15 to 20)
#    0.000    1.000    5.000    1.875    0.000    3.000 
#    4.500    1.250    0.000    0.000    0.000    0.000 
#    0.000    0.000    0.000    0.000    0.000    0.000 
#
# Total GULP energy -89254.580541 kJ/mol
# GULP energy per Si atom -5578.411284 kJ/mol
# Density = 2.533200 g / cm^3
# Si number density = 25.389792 Si / 1000 Ang^3
#
#
#
# Elastic Constant Matrix: (Units=GPa)
#
#
# Indices 1 2 3 4 5 6 
#
# 1 111.8386 26.2857 9.2167 -4.9449 -17.3816 32.7180
# 2 26.2857 84.3814 -0.1143 11.1148 -8.2574 36.4784
# 3 9.2167 -0.1143 76.2816 7.5935 -9.7207 9.6541
# 4 -4.9449 11.1148 7.5935 36.3950 3.5928 -5.1547
# 5 -17.3816 -8.2574 -9.7207 3.5928 29.3596 -6.5912
# 6 32.7180 36.4784 9.6541 -5.1547 -6.5912 54.0634
#
#
#
# Elastic Compliance Matrix: (Units=1/GPa)
#
#
# Indices 1 2 3 4 5 6 
#
# 1 0.011679 -0.000577 -0.000010 0.000388 0.005357 -0.005986
# 2 -0.000577 0.019648 0.003310 -0.009154 0.004291 -0.013848
# 3 -0.000010 0.003310 0.014943 -0.005340 0.005462 -0.004739
# 4 0.000388 -0.009154 -0.005340 0.033363 -0.006100 0.009333
# 5 0.005357 0.004291 0.005462 -0.006100 0.040371 -0.002773
# 6 -0.005986 -0.013848 -0.004739 0.009333 -0.002773 0.032862
#
#
# Mechanical properties :
#
#
# Convention : Reuss Voigt Hill
#
# Bulk Modulus (GPa) = 19.33694 38.14199 28.73947
# Shear Modulus (GPa) = 30.36584 39.77117 35.06850
#
# Velocity S-wave (km/s) = 3.46205 3.96210 3.72049
# Velocity P-wave (km/s) = 4.85939 5.99885 5.45893
#
# Compressibility (1/GPa) = 0.05171448
#
# Stress axis : x y z
#
# Youngs Moduli (GPa) = 85.62364 50.89660 66.92148
#
# Poissons Ratio (x) = 0.02937 0.00069
# Poissons Ratio (y) = 0.04942 -0.22151
# Poissons Ratio (z) = 0.00089 -0.16846
#
# Static dielectric constant tensor:
#      x y z
#    x 2.041970 0.019760 0.024010 
#    y 0.019760 2.121230 0.068160 
#    z 0.024010 0.068160 2.138840 
# 
# From -- ./inp_files/98724.got.cif
#   From: 2010.05.17/outbox.cif.g08.bks.cpg/sg2_50_cif.got.tgz:98724.got - 2010.06.03 11:33:40.
