data_PCOD9013332
_publ_section_title
;
Structure prediction by ZEFSAII (Michael W. Deem and Ramdas Pophale) SiO2 
 PCOD9013332
Probable space group: P -1
;
_chemical_formula_sum "Si O2"
_cell_formula_units_Z 14
_cell_length_a 8.816007
_cell_length_b 10.141343
_cell_length_c 21.523061
_cell_angle_alpha 156.449693
_cell_angle_beta 125.629624
_cell_angle_gamma 51.544393
_cell_volume 601.610837
_symmetry_space_group_name_H-M "P -1"
_symmetry_group_IT_number 2
_symmetry_cell_setting 'triclinic'
loop_
_space_group_symop_operation_xyz
x,y,z
-x,-y,-z
loop_
_atom_site_type_symbol
_atom_site_label
_atom_site_fract_x
_atom_site_fract_y
_atom_site_fract_z
Si Si1 0.137693 0.452536 0.952675
Si Si2 0.900656 0.383487 0.663559
Si Si3 0.472628 0.531310 0.150238
Si Si4 0.138678 0.780666 0.282223
Si Si5 0.482899 0.697191 0.516068
Si Si6 0.133915 0.852357 0.857930
Si Si7 0.818729 0.520469 0.420215
O O1 0.352660 0.435561 0.021266
O O2 0.029092 0.784708 0.029757
O O3 0.000000 0.500000 0.000000
O O4 0.075325 0.151288 0.770977
O O5 0.876591 0.425746 0.749300
O O6 0.690887 0.426549 0.606561
O O7 0.018906 0.617515 0.762595
O O8 0.000000 0.000000 0.500000
O O9 0.308522 0.611575 0.200645
O O10 0.659436 0.242412 0.096613
O O11 0.530656 0.889932 0.304259
O O12 0.192279 0.122572 0.463744
O O13 0.500000 0.500000 0.500000
O O14 0.647216 0.570437 0.449124
O O15 0.175276 0.743294 0.747985
O O16 0.000000 0.500000 0.500000
#
# Coordination Sequence:
#
# PCOD9013332 Si02
#       7
#     2   2   2   2   2   2   2
#     4  10  23  43  62  90 129 166 208 262 315 371
#     4  12  22  39  63  92 126 162 209 261 311 370
#     4  10  21  41  64  91 125 166 212 256 313 378
#     4  10  22  40  62  88 127 165 205 260 316 368
#     4  11  22  37  61  95 131 160 203 270 319 361
#     4  12  23  40  68  93 125 166 215 258 312 381
#     4  11  21  37  64  97 122 162 213 260 314 376
#
# _framework density 23.270856999999999
#
# number of rings (size 3 to 8) (size 9 to 14) (size 15 to 20)
#    0.000    1.143    2.857    5.143    0.000    5.143 
#    0.000    2.143    0.000    0.000    0.000    0.000 
#    0.000    0.000    0.000    0.000    0.000    0.000 
#
# Total GULP energy -78071.038770 kJ/mol
# GULP energy per Si atom -5576.502769 kJ/mol
# Density = 2.321789 g / cm^3
# Si number density = 23.270857 Si / 1000 Ang^3
#
#
#
# Elastic Constant Matrix: (Units=GPa)
#
#
# Indices 1 2 3 4 5 6 
#
# 1 86.5264 49.2321 16.7055 -7.6412 26.9049 7.9988
# 2 49.2321 149.8710 45.4055 -27.2219 16.5669 -2.4347
# 3 16.7055 45.4055 78.3843 -9.1236 12.5076 -4.4422
# 4 -7.6412 -27.2219 -9.1236 53.2237 -3.9958 13.0366
# 5 26.9049 16.5669 12.5076 -3.9958 23.4802 -3.2426
# 6 7.9988 -2.4347 -4.4422 13.0366 -3.2426 52.3409
#
#
#
# Elastic Compliance Matrix: (Units=1/GPa)
#
#
# Indices 1 2 3 4 5 6 
#
# 1 0.021738 -0.005186 0.001765 0.000256 -0.022822 -0.004891
# 2 -0.005186 0.010297 -0.004704 0.003847 0.001842 0.000028
# 3 0.001765 -0.004704 0.016299 -0.000018 -0.007328 0.000445
# 4 0.000256 0.003847 -0.000018 0.022106 0.000023 -0.005366
# 5 -0.022822 0.001842 -0.007328 0.000023 0.072374 0.007429
# 6 -0.004891 0.000028 0.000445 -0.005366 0.007429 0.021689
#
#
# Mechanical properties :
#
#
# Convention : Reuss Voigt Hill
#
# Bulk Modulus (GPa) = 31.16750 59.71865 45.44308
# Shear Modulus (GPa) = 26.11711 39.37154 32.74432
#
# Velocity S-wave (km/s) = 3.35372 4.11771 3.75520
# Velocity P-wave (km/s) = 5.33095 6.95166 6.19454
#
# Compressibility (1/GPa) = 0.03208470
#
# Stress axis : x y z
#
# Youngs Moduli (GPa) = 46.00203 97.11870 61.35502
#
# Poissons Ratio (x) = 0.50366 -0.10832
# Poissons Ratio (y) = 0.23857 0.28860
# Poissons Ratio (z) = -0.08121 0.45682
#
# Static dielectric constant tensor:
#      x y z
#    x 1.793090 -0.075150 -0.025520 
#    y -0.075150 2.273910 0.130630 
#    z -0.025520 0.130630 2.018370 
# 
# From -- ./inp_files/180559.got.cif
#   From: 2010.05.17/outbox.cif.g08.bks.cpg/sg2_91_cif.got.tgz:180559.got - 2010.06.03 11:33:40.
