data_PCOD9013885
_publ_section_title
;
Structure prediction by ZEFSAII (Michael W. Deem and Ramdas Pophale) SiO2 
 PCOD9013885
Probable space group: P -1
;
_chemical_formula_sum "Si O2"
_cell_formula_units_Z 16
_cell_length_a 20.712790
_cell_length_b 21.239257
_cell_length_c 8.206848
_cell_angle_alpha 50.366414
_cell_angle_beta 137.330009
_cell_angle_gamma 160.397157
_cell_volume 796.797592
_symmetry_space_group_name_H-M "P -1"
_symmetry_group_IT_number 2
_symmetry_cell_setting 'triclinic'
loop_
_space_group_symop_operation_xyz
x,y,z
-x,-y,-z
loop_
_atom_site_type_symbol
_atom_site_label
_atom_site_fract_x
_atom_site_fract_y
_atom_site_fract_z
Si Si1 0.674438 0.032945 0.347057
Si Si2 0.922992 0.127677 0.931336
Si Si3 0.184856 0.712877 0.026657
Si Si4 0.616158 0.473635 0.361370
Si Si5 0.766058 0.866435 0.289851
Si Si6 0.402705 0.467982 0.127476
Si Si7 0.935226 0.638713 0.909216
Si Si8 0.441062 0.203904 0.685543
O O1 0.818512 0.093189 0.641615
O O2 0.794424 0.208089 0.216995
O O3 0.620775 0.934604 0.253186
O O4 0.432720 0.867760 0.248481
O O5 0.160006 0.271576 0.082345
O O6 0.972882 0.233694 0.988130
O O7 0.770890 0.938487 0.038672
O O8 0.103864 0.702481 0.048059
O O9 0.000000 0.500000 0.000000
O O10 0.516442 0.470955 0.285281
O O11 0.855195 0.633959 0.617312
O O12 0.460358 0.274296 0.441615
O O13 0.625154 0.505681 0.138809
O O14 0.566261 0.647154 0.250169
O O15 0.726205 0.883341 0.355921
O O16 0.000000 0.000000 0.500000
O O17 0.695469 0.409887 0.888847
#
# Coordination Sequence:
#
# PCOD9013885 Si02
#       8
#     2   2   2   2   2   2   2   2
#     4  11  25  41  70  99 123 165 222 265 317 397
#     4  12  25  40  64  99 131 172 212 269 316 380
#     4  11  22  45  71  94 125 167 211 266 335 382
#     4   9  20  36  66  85 123 175 214 256 319 379
#     4  12  25  38  65  94 135 176 222 260 315 377
#     4  11  21  40  59  93 130 170 218 267 317 377
#     4  10  21  41  66  87 129 173 202 264 328 377
#     4  10  21  43  63  90 128 171 213 256 322 382
#
# _framework density 20.080380999999999
#
# number of rings (size 3 to 8) (size 9 to 14) (size 15 to 20)
#    0.750    0.500    2.500    3.750    0.000    5.000 
#    0.000    5.000    0.000    0.000    0.000    0.000 
#    0.000    0.000    0.000    0.000    0.000    0.000 
#
# Total GULP energy -89402.642812 kJ/mol
# GULP energy per Si atom -5587.665176 kJ/mol
# Density = 2.003468 g / cm^3
# Si number density = 20.080381 Si / 1000 Ang^3
#
#
#
# Elastic Constant Matrix: (Units=GPa)
#
#
# Indices 1 2 3 4 5 6 
#
# 1 109.4091 2.2805 2.2247 15.3887 26.0351 6.1000
# 2 2.2805 85.7615 11.7538 -9.3768 9.7308 -0.7650
# 3 2.2247 11.7538 45.5923 8.6143 7.5719 -6.1697
# 4 15.3887 -9.3768 8.6143 25.3621 5.5723 4.1427
# 5 26.0351 9.7308 7.5719 5.5723 27.7098 5.2073
# 6 6.1000 -0.7650 -6.1697 4.1427 5.2073 32.4875
#
#
#
# Elastic Compliance Matrix: (Units=1/GPa)
#
#
# Indices 1 2 3 4 5 6 
#
# 1 0.012641 -0.000055 0.002564 -0.006164 -0.011457 0.000735
# 2 -0.000055 0.013650 -0.004231 0.007726 -0.005016 -0.000653
# 3 0.002564 -0.004231 0.027382 -0.011999 -0.007371 0.007331
# 4 -0.006164 0.007726 -0.011999 0.051864 -0.002735 -0.007114
# 5 -0.011457 -0.005016 -0.007371 -0.002735 0.052578 -0.007445
# 6 0.000735 -0.000653 0.007331 -0.007114 -0.007445 0.034121
#
#
# Mechanical properties :
#
#
# Convention : Reuss Voigt Hill
#
# Bulk Modulus (GPa) = 19.90857 30.36454 25.13655
# Shear Modulus (GPa) = 23.53791 32.07879 27.80835
#
# Velocity S-wave (km/s) = 3.42743 4.00123 3.72540
# Velocity P-wave (km/s) = 5.05955 6.04159 5.57224
#
# Compressibility (1/GPa) = 0.05022963
#
# Stress axis : x y z
#
# Youngs Moduli (GPa) = 79.10458 73.26194 36.51982
#
# Poissons Ratio (x) = 0.00403 -0.09365
# Poissons Ratio (y) = 0.00435 0.15452
# Poissons Ratio (z) = -0.20285 0.30999
#
# Static dielectric constant tensor:
#      x y z
#    x 1.683750 0.011290 0.004680 
#    y 0.011290 1.725330 -0.009520 
#    z 0.004680 -0.009520 1.688300 
# 
# From -- ./inp_files/349490.got.cif
#   From: 2010.05.17/outbox.cif.g08.bks.cpg/sg2_175_cif.got.tgz:349490.got - 2010.06.03 11:33:40.
