data_PCOD9013457
_publ_section_title
;
Structure prediction by ZEFSAII (Michael W. Deem and Ramdas Pophale) SiO2 
 PCOD9013457
Probable space group: P -1
;
_chemical_formula_sum "Si O2"
_cell_formula_units_Z 16
_cell_length_a 11.902691
_cell_length_b 15.035899
_cell_length_c 9.130954
_cell_angle_alpha 80.350916
_cell_angle_beta 73.382148
_cell_angle_gamma 29.836254
_cell_volume 767.890539
_symmetry_space_group_name_H-M "P -1"
_symmetry_group_IT_number 2
_symmetry_cell_setting 'triclinic'
loop_
_space_group_symop_operation_xyz
x,y,z
-x,-y,-z
loop_
_atom_site_type_symbol
_atom_site_label
_atom_site_fract_x
_atom_site_fract_y
_atom_site_fract_z
Si Si1 0.582304 0.097355 0.894900
Si Si2 0.778370 0.512895 0.198246
Si Si3 0.987878 0.383011 0.858979
Si Si4 0.503511 0.978735 0.778550
Si Si5 0.028188 0.890533 0.922975
Si Si6 0.063531 0.405517 0.356781
Si Si7 0.550105 0.469844 0.318151
Si Si8 0.268345 0.611820 0.131306
O O1 0.385984 0.295753 0.848735
O O2 0.618260 0.995004 0.790183
O O3 0.802686 0.012586 0.879310
O O4 0.518045 0.080587 0.066134
O O5 0.875444 0.462619 0.339279
O O6 0.645955 0.506039 0.237637
O O7 0.985911 0.373334 0.038084
O O8 0.936245 0.517896 0.790098
O O9 0.774967 0.464448 0.853470
O O10 0.242580 0.178942 0.767343
O O11 0.689853 0.808406 0.650018
O O12 0.253969 0.729041 0.772916
O O13 0.060788 0.794732 0.065373
O O14 0.000000 0.000000 0.000000
O O15 0.000000 0.500000 0.500000
O O16 0.500000 0.500000 0.500000
O O17 0.307434 0.612269 0.283249
O O18 0.500000 0.500000 0.000000
#
# Coordination Sequence:
#
# PCOD9013457 Si02
#       8
#     2   2   2   2   2   2   2   2
#     4  11  21  39  70 100 124 169 229 286 320 399
#     4  12  22  45  69  96 130 179 227 273 338 408
#     4  12  22  44  71 100 128 174 234 275 326 406
#     4  11  22  40  69  98 132 173 223 275 337 391
#     4  11  22  39  67 100 127 165 231 282 329 398
#     4  12  28  43  65 101 139 178 218 281 346 400
#     4  11  25  44  66  94 137 183 220 278 353 404
#     4  10  21  41  64  96 126 170 220 273 326 396
#
# _framework density 20.836303999999998
#
# number of rings (size 3 to 8) (size 9 to 14) (size 15 to 20)
#    0.000    0.750    6.250    3.375    3.500    0.500 
#    0.000    2.500    0.000    0.000    0.000    0.000 
#    0.000    0.000    0.000    0.000    0.000    0.000 
#
# Total GULP energy -89284.585529 kJ/mol
# GULP energy per Si atom -5580.286596 kJ/mol
# Density = 2.078888 g / cm^3
# Si number density = 20.836304 Si / 1000 Ang^3
#
#
#
# Elastic Constant Matrix: (Units=GPa)
#
#
# Indices 1 2 3 4 5 6 
#
# 1 114.1473 19.4058 18.6544 13.9786 17.9139 -3.3399
# 2 19.4058 103.3820 23.0894 23.5559 4.1190 -1.3427
# 3 18.6544 23.0894 93.4972 11.4777 29.2877 -1.9230
# 4 13.9786 23.5559 11.4777 31.5434 7.5702 9.5877
# 5 17.9139 4.1190 29.2877 7.5702 27.3396 -7.6512
# 6 -3.3399 -1.3427 -1.9230 9.5877 -7.6512 39.1315
#
#
#
# Elastic Compliance Matrix: (Units=1/GPa)
#
#
# Indices 1 2 3 4 5 6 
#
# 1 0.010172 -0.001259 0.000574 -0.002286 -0.006413 0.000159
# 2 -0.001259 0.012958 -0.003745 -0.010697 0.007006 0.004144
# 3 0.000574 -0.003745 0.017484 0.002141 -0.020167 -0.003688
# 4 -0.002286 -0.010697 0.002141 0.048824 -0.017116 -0.015766
# 5 -0.006413 0.007006 -0.020167 -0.017116 0.070749 0.016729
# 6 0.000159 0.004144 -0.003688 -0.015766 0.016729 0.032663
#
#
# Mechanical properties :
#
#
# Convention : Reuss Voigt Hill
#
# Bulk Modulus (GPa) = 31.49243 48.14733 39.81988
# Shear Modulus (GPa) = 23.55215 36.26134 29.90675
#
# Velocity S-wave (km/s) = 3.36570 4.17621 3.79267
# Velocity P-wave (km/s) = 5.50009 6.81263 6.19124
#
# Compressibility (1/GPa) = 0.03175366
#
# Stress axis : x y z
#
# Youngs Moduli (GPa) = 98.31081 77.17472 57.19368
#
# Poissons Ratio (x) = 0.09718 -0.03284
# Poissons Ratio (y) = 0.12380 0.21419
# Poissons Ratio (z) = -0.05645 0.28902
#
# Static dielectric constant tensor:
#      x y z
#    x 1.794050 -0.014240 0.015860 
#    y -0.014240 1.792160 0.016140 
#    z 0.015860 0.016140 1.775420 
# 
# From -- ./inp_files/273117.got.cif
#   From: 2010.05.17/outbox.cif.g08.bks.cpg/sg2_137_cif.got.tgz:273117.got - 2010.06.03 11:33:40.
