data_PCOD9013972
_publ_section_title
;
Structure prediction by ZEFSAII (Michael W. Deem and Ramdas Pophale) SiO2 
 PCOD9013972
Probable space group: P -1
;
_chemical_formula_sum "Si O2"
_cell_formula_units_Z 15
_cell_length_a 15.191720
_cell_length_b 11.116925
_cell_length_c 13.573211
_cell_angle_alpha 134.883202
_cell_angle_beta 29.601161
_cell_angle_gamma 115.993032
_cell_volume 694.402949
_symmetry_space_group_name_H-M "P -1"
_symmetry_group_IT_number 2
_symmetry_cell_setting 'triclinic'
loop_
_space_group_symop_operation_xyz
x,y,z
-x,-y,-z
loop_
_atom_site_type_symbol
_atom_site_label
_atom_site_fract_x
_atom_site_fract_y
_atom_site_fract_z
Si Si1 0.001871 0.462999 0.344077
Si Si2 0.000000 0.000000 0.500000
Si Si3 0.634552 0.529640 0.250160
Si Si4 0.464032 0.206850 0.693768
Si Si5 0.915326 0.872055 0.712259
Si Si6 0.478369 0.757850 0.728559
Si Si7 0.090189 0.333483 0.661453
Si Si8 0.103934 0.868047 0.724420
O O1 0.955494 0.653629 0.562373
O O2 0.943168 0.555162 0.344786
O O3 0.885600 0.340371 0.395452
O O4 0.247244 0.312569 0.021575
O O5 0.036358 0.887869 0.509723
O O6 0.895575 0.873789 0.489185
O O7 0.563970 0.649562 0.287443
O O8 0.493263 0.663215 0.552782
O O9 0.622854 0.329731 0.147381
O O10 0.870926 0.464370 0.004243
O O11 0.668846 0.163715 0.526552
O O12 0.500000 0.000000 0.500000
O O13 0.971994 0.950291 0.800517
O O14 0.677125 0.013760 0.998746
O O15 0.704699 0.697141 0.506363
O O16 0.000000 0.000000 0.000000
#
# Coordination Sequence:
#
# PCOD9013972 Si02
#       8
#     2   1   2   2   2   2   2   2
#     4  10  24  45  65  99 137 175 231 277 333 410
#     4  10  22  44  60  96 134 176 218 266 334 402
#     4  10  22  41  62 102 136 165 232 278 329 410
#     4  11  23  43  68  96 133 182 222 279 342 395
#     4  11  25  45  69 101 141 179 226 281 336 415
#     4  11  22  40  68  98 132 179 222 273 346 396
#     4  10  21  41  66  92 137 175 216 281 330 400
#     4  12  24  45  71  99 135 175 229 286 335 393
#
# _framework density 21.601289000000001
#
# number of rings (size 3 to 8) (size 9 to 14) (size 15 to 20)
#    0.000    1.333    2.667    2.400    0.000    4.800 
#    7.200    0.000    0.000    0.000    0.000    0.000 
#    0.000    0.000    0.000    0.000    0.000    0.000 
#
# Total GULP energy -83550.859196 kJ/mol
# GULP energy per Si atom -5570.057280 kJ/mol
# Density = 2.155212 g / cm^3
# Si number density = 21.601289 Si / 1000 Ang^3
#
#
#
# Elastic Constant Matrix: (Units=GPa)
#
#
# Indices 1 2 3 4 5 6 
#
# 1 90.3409 22.7374 28.5509 -2.3197 -0.2983 4.7093
# 2 22.7374 101.8008 11.2153 5.0458 -6.4243 7.8633
# 3 28.5509 11.2153 92.8736 6.0362 -20.3375 14.3027
# 4 -2.3197 5.0458 6.0362 29.7390 4.6821 0.3818
# 5 -0.2983 -6.4243 -20.3375 4.6821 33.7798 -4.3889
# 6 4.7093 7.8633 14.3027 0.3818 -4.3889 27.8085
#
#
#
# Elastic Compliance Matrix: (Units=1/GPa)
#
#
# Indices 1 2 3 4 5 6 
#
# 1 0.013368 -0.002872 -0.004841 0.003093 -0.003718 0.000409
# 2 -0.002872 0.010868 0.000663 -0.002559 0.002470 -0.002503
# 3 -0.004841 0.000663 0.015430 -0.005015 0.009319 -0.005764
# 4 0.003093 -0.002559 -0.005015 0.036635 -0.008434 0.000945
# 5 -0.003718 0.002470 0.009319 -0.008434 0.036961 0.001087
# 6 0.000409 -0.002503 -0.005764 0.000945 0.001087 0.039722
#
#
# Mechanical properties :
#
#
# Convention : Reuss Voigt Hill
#
# Bulk Modulus (GPa) = 39.11439 45.55804 42.33622
# Shear Modulus (GPa) = 28.47313 33.09959 30.78636
#
# Velocity S-wave (km/s) = 3.63453 3.91870 3.77929
# Velocity P-wave (km/s) = 5.97995 6.45067 6.21977
#
# Compressibility (1/GPa) = 0.02556604
#
# Stress axis : x y z
#
# Youngs Moduli (GPa) = 74.80725 92.01711 64.80985
#
# Poissons Ratio (x) = 0.26426 0.31373
# Poissons Ratio (y) = 0.21484 -0.04298
# Poissons Ratio (z) = 0.36213 -0.06103
#
# Static dielectric constant tensor:
#      x y z
#    x 1.816610 -0.040470 0.075300 
#    y -0.040470 1.772370 0.032910 
#    z 0.075300 0.032910 1.860270 
# 
# From -- ./inp_files/532706.got.cif
#   From: 2010.05.17/outbox.cif.g08.bks.cpg/sg2_267_cif.got.tgz:532706.got - 2010.06.03 11:33:40.
