data_PCOD9013221
_publ_section_title
;
Structure prediction by ZEFSAII (Michael W. Deem and Ramdas Pophale) SiO2 
 PCOD9013221
Probable space group: P -1
;
_chemical_formula_sum "Si O2"
_cell_formula_units_Z 16
_cell_length_a 15.711987
_cell_length_b 8.831010
_cell_length_c 11.711633
_cell_angle_alpha 82.182694
_cell_angle_beta 92.329216
_cell_angle_gamma 27.612436
_cell_volume 698.708511
_symmetry_space_group_name_H-M "P -1"
_symmetry_group_IT_number 2
_symmetry_cell_setting 'triclinic'
loop_
_space_group_symop_operation_xyz
x,y,z
-x,-y,-z
loop_
_atom_site_type_symbol
_atom_site_label
_atom_site_fract_x
_atom_site_fract_y
_atom_site_fract_z
Si Si1 0.252246 0.638145 0.310932
Si Si2 0.227634 0.592168 0.064406
Si Si3 0.464049 0.730717 0.014592
Si Si4 0.295194 0.134675 0.184738
Si Si5 0.156912 0.049478 0.430288
Si Si6 0.020825 0.172268 0.640368
Si Si7 0.620622 0.006171 0.540960
Si Si8 0.890906 0.696040 0.222189
O O1 0.297023 0.561706 0.188224
O O2 0.055402 0.857669 0.301514
O O3 0.434834 0.270812 0.426971
O O4 0.218637 0.855948 0.342756
O O5 0.349611 0.465650 0.981118
O O6 0.264453 0.352618 0.107724
O O7 0.000000 0.000000 0.000000
O O8 0.286324 0.072356 0.887944
O O9 0.500000 0.500000 0.000000
O O10 0.395848 0.862813 0.126768
O O11 0.081671 0.418276 0.182051
O O12 0.412456 0.958782 0.328522
O O13 0.121713 0.996722 0.541329
O O14 0.961598 0.459542 0.343915
O O15 0.317238 0.917834 0.482679
O O16 0.144209 0.085373 0.738086
O O17 0.817317 0.594382 0.567705
#
# Coordination Sequence:
#
# PCOD9013221 Si02
#       8
#     2   2   2   2   2   2   2   2
#     4  12  24  41  67  98 132 178 214 269 337 387
#     4  12  28  47  67  96 139 176 226 277 329 397
#     4  12  28  42  73  98 125 183 228 273 333 400
#     4  10  23  49  67 100 137 173 217 285 330 387
#     4  10  23  38  66 102 133 170 213 276 326 393
#     4  10  21  41  63  96 136 170 212 271 328 394
#     4  10  22  42  68  96 134 168 218 272 329 395
#     4  10  22  44  69  95 136 173 218 274 333 398
#
# _framework density 22.899393
#
# number of rings (size 3 to 8) (size 9 to 14) (size 15 to 20)
#    0.000    1.500    2.500    4.125    8.750    1.000 
#    2.250    0.000    0.000    0.000    0.000    0.000 
#    0.000    0.000    0.000    0.000    0.000    0.000 
#
# Total GULP energy -89539.026865 kJ/mol
# GULP energy per Si atom -5596.189179 kJ/mol
# Density = 2.284727 g / cm^3
# Si number density = 22.899393 Si / 1000 Ang^3
#
#
#
# Elastic Constant Matrix: (Units=GPa)
#
#
# Indices 1 2 3 4 5 6 
#
# 1 35.9575 12.7334 -9.1275 7.9463 -3.4047 -4.5391
# 2 12.7334 60.7826 35.8901 17.1106 8.2377 5.0321
# 3 -9.1275 35.8901 85.5701 0.5988 9.8853 -8.7704
# 4 7.9463 17.1106 0.5988 40.0489 -9.1444 10.4412
# 5 -3.4047 8.2377 9.8853 -9.1444 35.6701 6.0349
# 6 -4.5391 5.0321 -8.7704 10.4412 6.0349 23.4442
#
#
#
# Elastic Compliance Matrix: (Units=1/GPa)
#
#
# Indices 1 2 3 4 5 6 
#
# 1 0.040609 -0.015789 0.013141 -0.006872 -0.001186 0.019533
# 2 -0.015789 0.033577 -0.016184 -0.009392 -0.005364 -0.010755
# 3 0.013141 -0.016184 0.021960 -0.001042 -0.004023 0.015733
# 4 -0.006872 -0.009392 -0.001042 0.039447 0.015512 -0.021266
# 5 -0.001186 -0.005364 -0.004023 0.015512 0.037137 -0.017051
# 6 0.019533 -0.010755 0.015733 -0.021266 -0.017051 0.068490
#
#
# Mechanical properties :
#
#
# Convention : Reuss Voigt Hill
#
# Bulk Modulus (GPa) = 17.09879 29.03357 23.06618
# Shear Modulus (GPa) = 16.75724 29.35362 23.05543
#
# Velocity S-wave (km/s) = 2.70807 3.58418 3.17648
# Velocity P-wave (km/s) = 4.15468 5.46212 4.85263
#
# Compressibility (1/GPa) = 0.05848366
#
# Stress axis : x y z
#
# Youngs Moduli (GPa) = 24.62480 29.78249 45.53644
#
# Poissons Ratio (x) = 0.47022 -0.59839
# Poissons Ratio (y) = 0.38879 0.73695
# Poissons Ratio (z) = -0.32359 0.48200
#
# Static dielectric constant tensor:
#      x y z
#    x 1.852750 0.022560 -0.006870 
#    y 0.022560 1.844830 -0.024160 
#    z -0.006870 -0.024160 1.843370 
# 
# From -- ./inp_files/185698.got.cif
#   From: 2010.05.17/outbox.cif.g08.bks.cpg/sg2_93_cif.got.tgz:185698.got - 2010.06.03 11:33:40.
