data_PCOD9013021
_publ_section_title
;
Structure prediction by ZEFSAII (Michael W. Deem and Ramdas Pophale) SiO2 
 PCOD9013021
Probable space group: P -1
;
_chemical_formula_sum "Si O2"
_cell_formula_units_Z 14
_cell_length_a 7.597290
_cell_length_b 12.138539
_cell_length_c 8.464421
_cell_angle_alpha 87.061803
_cell_angle_beta 128.273360
_cell_angle_gamma 114.552431
_cell_volume 533.675848
_symmetry_space_group_name_H-M "P -1"
_symmetry_group_IT_number 2
_symmetry_cell_setting 'triclinic'
loop_
_space_group_symop_operation_xyz
x,y,z
-x,-y,-z
loop_
_atom_site_type_symbol
_atom_site_label
_atom_site_fract_x
_atom_site_fract_y
_atom_site_fract_z
Si Si1 0.907290 0.821598 0.719774
Si Si2 0.206843 0.824283 0.430172
Si Si3 0.544770 0.580037 0.675465
Si Si4 0.985363 0.378526 0.398678
Si Si5 0.378015 0.929229 0.183269
Si Si6 0.731243 0.834218 0.294032
Si Si7 0.654281 0.450560 0.982160
O O1 0.660553 0.726863 0.692940
O O2 0.982386 0.725683 0.679828
O O3 0.839974 0.879683 0.528352
O O4 0.133875 0.913506 0.952360
O O5 0.277442 0.832588 0.284478
O O6 0.128157 0.698109 0.495671
O O7 0.961754 0.848736 0.309419
O O8 0.445453 0.935917 0.648333
O O9 0.500000 0.500000 0.500000
O O10 0.254789 0.501756 0.583246
O O11 0.748384 0.557479 0.892095
O O12 0.839278 0.421975 0.191784
O O13 0.553063 0.897540 0.165283
O O14 0.539917 0.682828 0.198139
O O15 0.500000 0.500000 0.000000
#
# Coordination Sequence:
#
# PCOD9013021 Si02
#       7
#     2   2   2   2   2   2   2
#     4  10  22  41  68  98 137 180 231 275 343 413
#     4  10  24  48  70 105 137 173 239 285 337 418
#     4  10  21  41  62  96 136 173 229 279 327 410
#     4  10  22  44  63  96 143 180 220 286 344 398
#     4  11  24  46  75 100 135 183 227 291 347 395
#     4  11  23  47  66 106 140 177 229 285 341 411
#     4  12  25  40  65 101 134 188 225 271 347 406
#
# _framework density 26.233153999999999
#
# number of rings (size 3 to 8) (size 9 to 14) (size 15 to 20)
#    0.000    1.429    5.714    0.429    2.000    7.429 
#    2.571    1.429    0.000    0.000    0.000    0.000 
#    0.000    0.000    0.000    0.000    0.000    0.000 
#
# Total GULP energy -78349.299277 kJ/mol
# GULP energy per Si atom -5596.378520 kJ/mol
# Density = 2.617345 g / cm^3
# Si number density = 26.233154 Si / 1000 Ang^3
#
#
#
# Elastic Constant Matrix: (Units=GPa)
#
#
# Indices 1 2 3 4 5 6 
#
# 1 83.8538 35.2516 30.3252 -9.2327 3.3495 17.0212
# 2 35.2516 100.0157 20.7934 -8.7801 5.9963 14.7431
# 3 30.3252 20.7934 122.0811 -4.6453 19.0259 16.2088
# 4 -9.2327 -8.7801 -4.6453 50.6739 -0.7001 -0.4875
# 5 3.3495 5.9963 19.0259 -0.7001 36.4328 0.1014
# 6 17.0212 14.7431 16.2088 -0.4875 0.1014 49.0121
#
#
#
# Elastic Compliance Matrix: (Units=1/GPa)
#
#
# Indices 1 2 3 4 5 6 
#
# 1 0.015555 -0.004329 -0.002756 0.001811 0.000765 -0.003172
# 2 -0.004329 0.012099 -0.000473 0.001227 -0.001317 -0.001965
# 3 -0.002756 -0.000473 0.010020 0.000246 -0.004891 -0.002202
# 4 0.001811 0.001227 0.000246 0.020289 -0.000105 -0.000878
# 5 0.000765 -0.001317 -0.004891 -0.000105 0.030142 0.001685
# 6 -0.003172 -0.001965 -0.002202 -0.000878 0.001685 0.022812
#
#
# Mechanical properties :
#
#
# Convention : Reuss Voigt Hill
#
# Bulk Modulus (GPa) = 44.32696 53.18789 48.75743
# Shear Modulus (GPa) = 37.43908 41.86244 39.65076
#
# Velocity S-wave (km/s) = 3.78188 3.99906 3.89199
# Velocity P-wave (km/s) = 6.00035 6.45309 6.23083
#
# Compressibility (1/GPa) = 0.02255963
#
# Stress axis : x y z
#
# Youngs Moduli (GPa) = 64.28945 82.65325 99.79824
#
# Poissons Ratio (x) = 0.35779 0.27501
# Poissons Ratio (y) = 0.27829 0.04716
# Poissons Ratio (z) = 0.17716 0.03906
#
# Static dielectric constant tensor:
#      x y z
#    x 2.182970 0.044170 0.062250 
#    y 0.044170 2.064930 -0.036090 
#    z 0.062250 -0.036090 2.004680 
# 
# From -- ./inp_files/196663.got.cif
#   From: 2010.05.17/outbox.cif.g08.bks.cpg/sg2_99_cif.got.tgz:196663.got - 2010.06.03 11:33:40.
