data_PCOD9013471
_publ_section_title
;
Structure prediction by ZEFSAII (Michael W. Deem and Ramdas Pophale) SiO2 
 PCOD9013471
Probable space group: P -1
;
_chemical_formula_sum "Si O2"
_cell_formula_units_Z 15
_cell_length_a 8.353987
_cell_length_b 11.388010
_cell_length_c 7.400734
_cell_angle_alpha 74.054796
_cell_angle_beta 100.859411
_cell_angle_gamma 114.316412
_cell_volume 614.642638
_symmetry_space_group_name_H-M "P -1"
_symmetry_group_IT_number 2
_symmetry_cell_setting 'triclinic'
loop_
_space_group_symop_operation_xyz
x,y,z
-x,-y,-z
loop_
_atom_site_type_symbol
_atom_site_label
_atom_site_fract_x
_atom_site_fract_y
_atom_site_fract_z
Si Si1 0.140787 0.283944 0.719319
Si Si2 0.376248 0.573531 0.787210
Si Si3 0.812214 0.425109 0.900676
Si Si4 0.681065 0.992719 0.826089
Si Si5 0.666646 0.599475 0.602791
Si Si6 0.271387 0.853861 0.889726
Si Si7 0.214391 0.772277 0.515150
Si Si8 0.000000 0.000000 0.000000
O O1 0.262290 0.420413 0.782860
O O2 0.244326 0.278125 0.560141
O O3 0.964383 0.296691 0.602524
O O4 0.086729 0.153182 0.877020
O O5 0.579939 0.622714 0.756882
O O6 0.303646 0.668398 0.619167
O O7 0.340878 0.591417 0.979549
O O8 0.787879 0.516717 0.701787
O O9 0.788371 0.274334 0.939869
O O10 0.000000 0.500000 0.000000
O O11 0.672403 0.103055 0.638110
O O12 0.480419 0.902282 0.868195
O O13 0.843315 0.956927 0.815948
O O14 0.765040 0.042346 0.028618
O O15 0.500000 0.500000 0.500000
O O16 0.182492 0.820133 0.689340
#
# Coordination Sequence:
#
# PCOD9013471 Si02
#       8
#     2   2   2   2   2   2   2   1
#     4  10  22  41  64  91 133 169 217 268 333 393
#     4  10  22  38  66  96 131 170 212 277 333 383
#     4  11  24  40  65  99 135 171 224 274 331 401
#     4  10  23  41  67  87 132 171 217 265 328 393
#     4  10  22  37  62  94 131 168 215 271 330 390
#     4  10  23  40  64  93 126 171 219 266 326 399
#     4  10  21  41  64  97 124 167 221 270 328 394
#     4  10  24  42  64  92 126 176 214 268 322 394
#
# _framework density 24.404423999999999
#
# number of rings (size 3 to 8) (size 9 to 14) (size 15 to 20)
#    0.000    1.867    0.000    2.800   11.200    1.067 
#    0.000    2.667    0.000    0.000    0.000    0.000 
#    0.000    0.000    0.000    0.000    0.000    0.000 
#
# Total GULP energy -83542.988730 kJ/mol
# GULP energy per Si atom -5569.532582 kJ/mol
# Density = 2.434888 g / cm^3
# Si number density = 24.404424 Si / 1000 Ang^3
#
#
#
# Elastic Constant Matrix: (Units=GPa)
#
#
# Indices 1 2 3 4 5 6 
#
# 1 26.5033 4.5078 23.2610 -15.5760 -11.8126 9.1821
# 2 4.5078 65.3704 50.5466 -22.9209 -5.6526 6.0338
# 3 23.2610 50.5466 135.0786 -39.1933 7.6662 -0.8765
# 4 -15.5760 -22.9209 -39.1933 54.3733 -4.9953 -10.7938
# 5 -11.8126 -5.6526 7.6662 -4.9953 48.7420 -5.8975
# 6 9.1821 6.0338 -0.8765 -10.7938 -5.8975 34.3928
#
#
#
# Elastic Compliance Matrix: (Units=1/GPa)
#
#
# Indices 1 2 3 4 5 6 
#
# 1 0.071308 0.014933 -0.014696 0.015391 0.021262 -0.013556
# 2 0.014933 0.026452 -0.010847 0.007375 0.008528 -0.005127
# 3 -0.014696 -0.010847 0.015196 0.002799 -0.006193 0.006030
# 4 0.015391 0.007375 0.002799 0.029706 0.007835 0.005335
# 5 0.021262 0.008528 -0.006193 0.007835 0.028436 0.000004
# 6 -0.013556 -0.005127 0.006030 0.005335 0.000004 0.035423
#
#
# Mechanical properties :
#
#
# Convention : Reuss Voigt Hill
#
# Bulk Modulus (GPa) = 10.90111 42.62037 26.76074
# Shear Modulus (GPa) = 19.35597 37.41075 28.38336
#
# Velocity S-wave (km/s) = 2.81932 3.91954 3.41404
# Velocity P-wave (km/s) = 3.88261 6.16326 5.15075
#
# Compressibility (1/GPa) = 0.09173380
#
# Stress axis : x y z
#
# Youngs Moduli (GPa) = 14.02371 37.80485 65.80891
#
# Poissons Ratio (x) = -0.56453 0.96714
# Poissons Ratio (y) = -0.20941 0.71383
# Poissons Ratio (z) = 0.20610 0.41007
#
# Static dielectric constant tensor:
#      x y z
#    x 1.181580 -0.017100 -0.126740 
#    y -0.017100 1.952070 0.027770 
#    z -0.126740 0.027770 1.841860 
# 
# From -- ./inp_files/185284.got.cif
#   From: 2010.05.17/outbox.cif.g08.bks.cpg/sg2_93_cif.got.tgz:185284.got - 2010.06.03 11:33:40.
