data_PCOD9013104
_publ_section_title
;
Structure prediction by ZEFSAII (Michael W. Deem and Ramdas Pophale) SiO2 
 PCOD9013104
Probable space group: P -1
;
_chemical_formula_sum "Si O2"
_cell_formula_units_Z 14
_cell_length_a 9.501183
_cell_length_b 7.824871
_cell_length_c 18.969279
_cell_angle_alpha 53.560503
_cell_angle_beta 131.482927
_cell_angle_gamma 145.456129
_cell_volume 595.188914
_symmetry_space_group_name_H-M "P -1"
_symmetry_group_IT_number 2
_symmetry_cell_setting 'triclinic'
loop_
_space_group_symop_operation_xyz
x,y,z
-x,-y,-z
loop_
_atom_site_type_symbol
_atom_site_label
_atom_site_fract_x
_atom_site_fract_y
_atom_site_fract_z
Si Si1 0.123991 0.137637 0.086240
Si Si2 0.769896 0.224832 0.166562
Si Si3 0.039061 0.275973 0.382923
Si Si4 0.481854 0.387609 0.634940
Si Si5 0.266798 0.835138 0.164290
Si Si6 0.738509 0.360738 0.489414
Si Si7 0.376569 0.138719 0.914270
O O1 0.383688 0.498692 0.088019
O O2 0.227426 0.980374 0.175077
O O3 0.882729 0.015818 0.086698
O O4 0.000000 0.000000 0.000000
O O5 0.907343 0.310223 0.267731
O O6 0.975449 0.532494 0.114695
O O7 0.483445 0.099250 0.116595
O O8 0.730403 0.972983 0.174370
O O9 0.285719 0.361216 0.404047
O O10 0.162699 0.507316 0.430862
O O11 0.790847 0.930671 0.409470
O O12 0.605594 0.288795 0.742221
O O13 0.385010 0.518241 0.610731
O O14 0.000000 0.500000 0.500000
O O15 0.500000 0.000000 0.500000
O O16 0.500000 0.000000 0.000000
#
# Coordination Sequence:
#
# PCOD9013104 Si02
#       7
#     2   2   2   2   2   2   2
#     4  12  24  41  66  96 126 163 210 261 312 375
#     4  10  21  41  63  90 126 167 206 252 314 374
#     4  10  21  41  65  87 123 171 206 250 315 376
#     4  10  21  41  65  87 123 171 206 250 315 376
#     4  10  21  41  63  90 126 167 206 252 314 374
#     4  12  24  40  64  98 126 160 214 266 310 372
#     4  12  24  41  66  96 126 163 210 261 312 375
#
# _framework density 23.521943
#
# number of rings (size 3 to 8) (size 9 to 14) (size 15 to 20)
#    0.000    1.143    0.000    6.857    0.000    0.000 
#    0.000   34.286    0.000    0.000    0.000    0.000 
#    0.000    0.000    0.000    0.000    0.000    0.000 
#
# Total GULP energy -78165.462807 kJ/mol
# GULP energy per Si atom -5583.247343 kJ/mol
# Density = 2.346841 g / cm^3
# Si number density = 23.521943 Si / 1000 Ang^3
#
#
#
# Elastic Constant Matrix: (Units=GPa)
#
#
# Indices 1 2 3 4 5 6 
#
# 1 219.1326 78.5426 28.4770 -0.7970 40.2183 21.8792
# 2 78.5426 223.8524 30.1235 5.6178 22.5897 20.2914
# 3 28.4770 30.1235 68.8904 -12.6708 18.0730 -11.8887
# 4 -0.7970 5.6178 -12.6708 29.1077 -8.0599 11.1009
# 5 40.2183 22.5897 18.0730 -8.0599 33.7772 5.4810
# 6 21.8792 20.2914 -11.8887 11.1009 5.4810 59.0508
#
#
#
# Elastic Compliance Matrix: (Units=1/GPa)
#
#
# Indices 1 2 3 4 5 6 
#
# 1 0.006460 -0.001361 -0.000834 -0.001217 -0.006420 -0.001269
# 2 -0.001361 0.005515 -0.002119 -0.001819 -0.001146 -0.001369
# 3 -0.000834 -0.002119 0.019517 0.004965 -0.007617 0.004740
# 4 -0.001217 -0.001819 0.004965 0.042633 0.011317 -0.006989
# 5 -0.006420 -0.001146 -0.007617 0.011317 0.045624 -0.005123
# 6 -0.001269 -0.001369 0.004740 -0.006989 -0.005123 0.020619
#
#
# Mechanical properties :
#
#
# Convention : Reuss Voigt Hill
#
# Bulk Modulus (GPa) = 43.73731 87.35127 65.54429
# Shear Modulus (GPa) = 31.92468 49.36931 40.64700
#
# Velocity S-wave (km/s) = 3.68806 4.58630 4.16149
# Velocity P-wave (km/s) = 6.06385 8.07851 7.14257
#
# Compressibility (1/GPa) = 0.02286377
#
# Stress axis : x y z
#
# Youngs Moduli (GPa) = 154.79256 181.31068 51.23817
#
# Poissons Ratio (x) = 0.24676 0.04273
# Poissons Ratio (y) = 0.21067 0.10859
# Poissons Ratio (z) = 0.12908 0.38427
#
# Static dielectric constant tensor:
#      x y z
#    x 1.898050 -0.015580 -0.034530 
#    y -0.015580 1.849490 -0.066040 
#    z -0.034530 -0.066040 2.117370 
# 
# From -- ./inp_files/605840.got.cif
#   From: 2010.05.17/outbox.cif.g08.bks.cpg/sg2_303_cif.got.tgz:605840.got - 2010.06.03 11:33:40.
