data_PCOD9013342
_publ_section_title
;
Structure prediction by ZEFSAII (Michael W. Deem and Ramdas Pophale) SiO2 
 PCOD9013342
Probable space group: P -1
;
_chemical_formula_sum "Si O2"
_cell_formula_units_Z 14
_cell_length_a 6.978495
_cell_length_b 12.071006
_cell_length_c 12.677356
_cell_angle_alpha 115.705004
_cell_angle_beta 62.413703
_cell_angle_gamma 143.808738
_cell_volume 555.207417
_symmetry_space_group_name_H-M "P -1"
_symmetry_group_IT_number 2
_symmetry_cell_setting 'triclinic'
loop_
_space_group_symop_operation_xyz
x,y,z
-x,-y,-z
loop_
_atom_site_type_symbol
_atom_site_label
_atom_site_fract_x
_atom_site_fract_y
_atom_site_fract_z
Si Si1 0.730563 0.380433 0.191647
Si Si2 0.826773 0.354830 0.386097
Si Si3 0.033414 0.861035 0.679326
Si Si4 0.758225 0.816750 0.114330
Si Si5 0.250916 0.280337 0.513657
Si Si6 0.502647 0.865218 0.030585
Si Si7 0.067086 0.275277 0.792084
O O1 0.913742 0.437317 0.279394
O O2 0.349084 0.259877 0.258809
O O3 0.876289 0.556833 0.164665
O O4 0.708277 0.255274 0.069375
O O5 0.447780 0.237065 0.442302
O O6 0.000000 0.500000 0.500000
O O7 0.898702 0.242399 0.331873
O O8 0.054745 0.855317 0.545361
O O9 0.234923 0.055729 0.763996
O O10 0.524631 0.751802 0.050684
O O11 0.713793 0.690344 0.157937
O O12 0.118878 0.950433 0.024343
O O13 0.500000 0.500000 0.500000
O O14 0.150026 0.258758 0.650036
O O15 0.321800 0.898288 0.150525
#
# Coordination Sequence:
#
# PCOD9013342 Si02
#       7
#     2   2   2   2   2   2   2
#     4  10  22  39  65  99 123 161 217 268 311 371
#     4  11  19  36  66  93 125 166 202 256 321 369
#     4  10  21  41  64  91 130 167 208 254 321 379
#     4  10  25  43  63  91 128 173 211 258 314 386
#     4  11  21  40  62 100 128 158 207 265 320 377
#     4  10  24  44  62  89 130 171 217 256 315 376
#     4  12  22  40  66  95 129 162 213 268 319 371
#
# _framework density 25.215800000000002
#
# number of rings (size 3 to 8) (size 9 to 14) (size 15 to 20)
#    0.000    1.429    4.286    0.857    0.000   11.429 
#    0.000    1.429    0.000    0.000    0.000    0.000 
#    0.000    0.000    0.000    0.000    0.000    0.000 
#
# Total GULP energy -78328.941167 kJ/mol
# GULP energy per Si atom -5594.924369 kJ/mol
# Density = 2.515841 g / cm^3
# Si number density = 25.215800 Si / 1000 Ang^3
#
#
#
# Elastic Constant Matrix: (Units=GPa)
#
#
# Indices 1 2 3 4 5 6 
#
# 1 166.7645 31.5424 58.5385 -6.5190 25.1929 -30.8625
# 2 31.5424 38.1183 23.1078 1.3837 15.6987 -12.4560
# 3 58.5385 23.1078 137.6934 -15.0417 16.1108 -3.1949
# 4 -6.5190 1.3837 -15.0417 20.8073 -4.8929 12.6823
# 5 25.1929 15.6987 16.1108 -4.8929 54.7917 -1.0518
# 6 -30.8625 -12.4560 -3.1949 12.6823 -1.0518 32.4138
#
#
#
# Elastic Compliance Matrix: (Units=1/GPa)
#
#
# Indices 1 2 3 4 5 6 
#
# 1 0.010128 0.000561 -0.004608 -0.008919 -0.004014 0.012764
# 2 0.000561 0.047815 -0.009398 -0.031048 -0.013397 0.029695
# 3 -0.004608 -0.009398 0.012001 0.016480 0.002502 -0.013183
# 4 -0.008919 -0.031048 0.016480 0.097300 0.015758 -0.056358
# 5 -0.004014 -0.013397 0.002502 0.015758 0.024336 -0.014099
# 6 0.012764 0.029695 -0.013183 -0.056358 -0.014099 0.074709
#
#
# Mechanical properties :
#
#
# Convention : Reuss Voigt Hill
#
# Bulk Modulus (GPa) = 23.22751 63.21707 43.22229
# Shear Modulus (GPa) = 16.25855 36.89508 26.57682
#
# Velocity S-wave (km/s) = 2.54200 3.82929 3.25002
# Velocity P-wave (km/s) = 4.22459 6.68402 5.59121
#
# Compressibility (1/GPa) = 0.04305241
#
# Stress axis : x y z
#
# Youngs Moduli (GPa) = 98.73629 20.91388 83.32929
#
# Poissons Ratio (x) = -0.01173 0.38402
# Poissons Ratio (y) = -0.05536 0.78312
# Poissons Ratio (z) = 0.45502 0.19655
#
# Static dielectric constant tensor:
#      x y z
#    x 1.958860 0.022080 0.002640 
#    y 0.022080 2.059310 -0.051600 
#    z 0.002640 -0.051600 2.097260 
# 
# From -- ./inp_files/364736.got.cif
#   From: 2010.05.17/outbox.cif.g08.bks.cpg/sg2_183_cif.got.tgz:364736.got - 2010.06.03 11:33:40.
