data_PCOD9013524
_publ_section_title
;
Structure prediction by ZEFSAII (Michael W. Deem and Ramdas Pophale) SiO2 
 PCOD9013524
Probable space group: P -1
;
_chemical_formula_sum "Si O2"
_cell_formula_units_Z 14
_cell_length_a 10.786536
_cell_length_b 6.215013
_cell_length_c 9.797186
_cell_angle_alpha 93.927609
_cell_angle_beta 75.374487
_cell_angle_gamma 116.327334
_cell_volume 568.871763
_symmetry_space_group_name_H-M "P -1"
_symmetry_group_IT_number 2
_symmetry_cell_setting 'triclinic'
loop_
_space_group_symop_operation_xyz
x,y,z
-x,-y,-z
loop_
_atom_site_type_symbol
_atom_site_label
_atom_site_fract_x
_atom_site_fract_y
_atom_site_fract_z
Si Si1 0.548745 0.793671 0.459591
Si Si2 0.602150 0.484382 0.262486
Si Si3 0.171441 0.902159 0.442159
Si Si4 0.550187 0.786940 0.952598
Si Si5 0.070862 0.438143 0.315203
Si Si6 0.922283 0.593766 0.136372
Si Si7 0.853992 0.913427 0.839829
O O1 0.568818 0.715059 0.297294
O O2 0.422980 0.588316 0.574754
O O3 0.500000 0.000000 0.500000
O O4 0.705126 0.910947 0.491003
O O5 0.483632 0.271559 0.200753
O O6 0.755036 0.519446 0.169817
O O7 0.186148 0.665897 0.373644
O O8 0.026377 0.771946 0.564163
O O9 0.158484 0.022351 0.311270
O O10 0.716164 0.906494 0.950092
O O11 0.500000 0.500000 0.000000
O O12 0.500000 0.000000 0.000000
O O13 0.145032 0.341953 0.179400
O O14 0.961702 0.510809 0.266562
O O15 0.003541 0.881721 0.130421
O O16 0.000000 0.500000 0.000000
#
# Coordination Sequence:
#
# PCOD9013524 Si02
#       7
#     2   2   2   2   2   2   2
#     4  11  24  41  71 102 148 187 242 316 382 448
#     4  11  26  45  70 109 144 193 249 310 382 444
#     4  10  21  41  65 101 139 175 243 297 375 436
#     4  12  30  51  79 108 151 202 255 309 369 456
#     4  10  23  39  69 100 134 189 233 308 361 451
#     4  11  25  46  66  99 148 187 253 300 376 443
#     4  11  24  43  73  96 138 185 248 297 374 434
#
# _framework density 24.610116000000001
#
# number of rings (size 3 to 8) (size 9 to 14) (size 15 to 20)
#    0.000    1.143    1.429    3.000   10.000    2.857 
#    2.571    0.000    0.000    0.000    0.000    0.000 
#    0.000    0.000    0.000    0.000    0.000    0.000 
#
# Total GULP energy -78080.899690 kJ/mol
# GULP energy per Si atom -5577.207121 kJ/mol
# Density = 2.455410 g / cm^3
# Si number density = 24.610116 Si / 1000 Ang^3
#
#
#
# Elastic Constant Matrix: (Units=GPa)
#
#
# Indices 1 2 3 4 5 6 
#
# 1 43.8053 26.0037 16.8562 -2.0916 -18.9404 -0.9902
# 2 26.0037 106.0320 35.4009 22.1308 -13.2767 6.0486
# 3 16.8562 35.4009 102.5405 23.0435 -19.1887 -8.7512
# 4 -2.0916 22.1308 23.0435 56.1547 -8.1624 3.7404
# 5 -18.9404 -13.2767 -19.1887 -8.1624 41.3090 7.4266
# 6 -0.9902 6.0486 -8.7512 3.7404 7.4266 42.4636
#
#
#
# Elastic Compliance Matrix: (Units=1/GPa)
#
#
# Indices 1 2 3 4 5 6 
#
# 1 0.034492 -0.007351 -0.002269 0.007285 0.014149 -0.001732
# 2 -0.007351 0.013026 -0.002663 -0.004310 -0.000907 -0.002037
# 3 -0.002269 -0.002663 0.012699 -0.004043 0.002695 0.002828
# 4 0.007285 -0.004310 -0.004043 0.022359 0.005016 -0.002896
# 5 0.014149 -0.000907 0.002695 0.005016 0.033600 -0.005304
# 6 -0.001732 -0.002037 0.002828 -0.002896 -0.005304 0.025565
#
#
# Mechanical properties :
#
#
# Convention : Reuss Voigt Hill
#
# Bulk Modulus (GPa) = 28.05197 45.43328 36.74262
# Shear Modulus (GPa) = 28.05979 39.59326 33.82652
#
# Velocity S-wave (km/s) = 3.38031 4.01536 3.71144
# Velocity P-wave (km/s) = 5.16320 6.32446 5.77310
#
# Compressibility (1/GPa) = 0.03564812
#
# Stress axis : x y z
#
# Youngs Moduli (GPa) = 28.99252 76.77218 78.74640
#
# Poissons Ratio (x) = 0.56438 0.17870
# Poissons Ratio (y) = 0.21313 0.20973
# Poissons Ratio (z) = 0.06579 0.20447
#
# Static dielectric constant tensor:
#      x y z
#    x 2.025900 -0.331800 -0.039780 
#    y -0.331800 2.780200 0.142260 
#    z -0.039780 0.142260 2.072810 
# 
# From -- ./inp_files/68699.got.cif
#   From: 2010.05.17/outbox.cif.g08.bks.cpg/sg2_35_cif.got.tgz:68699.got - 2010.06.03 11:33:40.
