data_PCOD9013477
_publ_section_title
;
Structure prediction by ZEFSAII (Michael W. Deem and Ramdas Pophale) SiO2 
 PCOD9013477
Probable space group: P -1
;
_chemical_formula_sum "Si O2"
_cell_formula_units_Z 16
_cell_length_a 6.296228
_cell_length_b 14.031614
_cell_length_c 11.105532
_cell_angle_alpha 63.076934
_cell_angle_beta 87.304140
_cell_angle_gamma 117.414418
_cell_volume 734.975307
_symmetry_space_group_name_H-M "P -1"
_symmetry_group_IT_number 2
_symmetry_cell_setting 'triclinic'
loop_
_space_group_symop_operation_xyz
x,y,z
-x,-y,-z
loop_
_atom_site_type_symbol
_atom_site_label
_atom_site_fract_x
_atom_site_fract_y
_atom_site_fract_z
Si Si1 0.835267 0.748044 0.548471
Si Si2 0.466782 0.763991 0.400470
Si Si3 0.934016 0.552818 0.586393
Si Si4 0.234424 0.913371 0.267856
Si Si5 0.757200 0.737270 0.207332
Si Si6 0.510654 0.792577 0.956209
Si Si7 0.021653 0.403994 0.842432
Si Si8 0.494421 0.606900 0.862452
O O1 0.681528 0.806769 0.467965
O O2 0.725187 0.685597 0.716486
O O3 0.785087 0.623157 0.545890
O O4 0.113133 0.860354 0.434309
O O5 0.218051 0.670642 0.535491
O O6 0.425737 0.865412 0.277750
O O7 0.533788 0.696508 0.333135
O O8 0.866570 0.455024 0.749820
O O9 0.000000 0.500000 0.500000
O O10 0.009472 0.841434 0.215393
O O11 0.364652 0.061455 0.164414
O O12 0.814850 0.631812 0.224944
O O13 0.672586 0.784084 0.067018
O O14 0.511627 0.709334 0.894689
O O15 0.210468 0.728455 0.025392
O O16 0.224061 0.519682 0.853293
O O17 0.500000 0.500000 0.000000
#
# Coordination Sequence:
#
# PCOD9013477 Si02
#       8
#     2   2   2   2   2   2   2   2
#     4  10  23  43  68  96 132 177 222 279 330 393
#     4  10  21  41  64  97 137 168 217 280 337 395
#     4  11  21  35  66 102 134 170 214 276 341 399
#     4  10  24  45  69 101 134 174 228 278 338 392
#     4  11  23  42  70 104 135 177 219 283 340 394
#     4  12  26  44  68  98 137 184 225 275 327 397
#     4  12  25  41  68 104 134 176 221 273 344 401
#     4  12  25  48  70  96 138 178 226 274 330 406
#
# _framework density 21.769439999999999
#
# number of rings (size 3 to 8) (size 9 to 14) (size 15 to 20)
#    0.000    1.000    2.500    5.250    1.750    5.500 
#    0.000    0.625    0.000    0.000    0.000    0.000 
#    0.000    0.000    0.000    0.000    0.000    0.000 
#
# Total GULP energy -89152.156167 kJ/mol
# GULP energy per Si atom -5572.009760 kJ/mol
# Density = 2.171989 g / cm^3
# Si number density = 21.769440 Si / 1000 Ang^3
#
#
#
# Elastic Constant Matrix: (Units=GPa)
#
#
# Indices 1 2 3 4 5 6 
#
# 1 98.6240 34.2451 46.0351 -4.5041 8.4681 -11.9827
# 2 34.2451 83.2237 48.7968 -7.0685 -1.0748 4.1150
# 3 46.0351 48.7968 127.4882 -8.2995 3.1958 -0.5499
# 4 -4.5041 -7.0685 -8.2995 30.1591 -3.0171 -1.6740
# 5 8.4681 -1.0748 3.1958 -3.0171 32.2373 3.8332
# 6 -11.9827 4.1150 -0.5499 -1.6740 3.8332 17.0269
#
#
#
# Elastic Compliance Matrix: (Units=1/GPa)
#
#
# Indices 1 2 3 4 5 6 
#
# 1 0.015654 -0.005104 -0.003479 0.000379 -0.005497 0.013413
# 2 -0.005104 0.017630 -0.004909 0.001901 0.003620 -0.008639
# 3 -0.003479 -0.004909 0.011065 0.001320 -0.000135 -0.000744
# 4 0.000379 0.001901 0.001320 0.034443 0.002745 0.002618
# 5 -0.005497 0.003620 -0.000135 0.002745 0.034306 -0.012201
# 6 0.013413 -0.008639 -0.000744 0.002618 -0.012201 0.073238
#
#
# Mechanical properties :
#
#
# Convention : Reuss Voigt Hill
#
# Bulk Modulus (GPa) = 57.58472 63.05443 60.31958
# Shear Modulus (GPa) = 22.81982 27.90192 25.36087
#
# Velocity S-wave (km/s) = 3.24118 3.58397 3.41688
# Velocity P-wave (km/s) = 6.36526 6.79367 6.58295
#
# Compressibility (1/GPa) = 0.01736572
#
# Stress axis : x y z
#
# Youngs Moduli (GPa) = 63.87967 56.72243 90.37343
#
# Poissons Ratio (x) = 0.28949 0.31440
# Poissons Ratio (y) = 0.32602 0.44366
# Poissons Ratio (z) = 0.22223 0.27846
#
# Static dielectric constant tensor:
#      x y z
#    x 1.891730 0.013650 -0.020160 
#    y 0.013650 1.828700 0.030260 
#    z -0.020160 0.030260 1.839920 
# 
# From -- ./inp_files/367611.got.cif
#   From: 2010.05.17/outbox.cif.g08.bks.cpg/sg2_184_cif.got.tgz:367611.got - 2010.06.03 11:33:40.
