data_PCOD9013216
_publ_section_title
;
Structure prediction by ZEFSAII (Michael W. Deem and Ramdas Pophale) SiO2 
 PCOD9013216
Probable space group: P -1
;
_chemical_formula_sum "Si O2"
_cell_formula_units_Z 16
_cell_length_a 10.288326
_cell_length_b 17.450000
_cell_length_c 15.649931
_cell_angle_alpha 156.735297
_cell_angle_beta 133.990881
_cell_angle_gamma 35.954888
_cell_volume 636.809399
_symmetry_space_group_name_H-M "P -1"
_symmetry_group_IT_number 2
_symmetry_cell_setting 'triclinic'
loop_
_space_group_symop_operation_xyz
x,y,z
-x,-y,-z
loop_
_atom_site_type_symbol
_atom_site_label
_atom_site_fract_x
_atom_site_fract_y
_atom_site_fract_z
Si Si1 0.183511 0.413859 0.219049
Si Si2 0.891115 0.855084 0.635932
Si Si3 0.776599 0.773944 0.678706
Si Si4 0.027493 0.787109 0.376704
Si Si5 0.685653 0.178805 0.171726
Si Si6 0.510246 0.356173 0.938618
Si Si7 0.988226 0.251416 0.852869
Si Si8 0.456273 0.465717 0.689177
O O1 0.073894 0.615171 0.299317
O O2 0.443470 0.312632 0.245910
O O3 0.013678 0.572859 0.380685
O O4 0.159325 0.214825 0.966153
O O5 0.801438 0.895759 0.732964
O O6 0.096735 0.874403 0.736456
O O7 0.671982 0.067580 0.702098
O O8 0.586935 0.733959 0.541527
O O9 0.000000 0.500000 0.500000
O O10 0.741356 0.933075 0.906566
O O11 0.279284 0.669603 0.338045
O O12 0.915327 0.778841 0.230145
O O13 0.935174 0.056732 0.637465
O O14 0.652400 0.347643 0.248810
O O15 0.500000 0.500000 0.000000
O O16 0.612434 0.405269 0.117709
O O17 0.249241 0.482260 0.970575
#
# Coordination Sequence:
#
# PCOD9013216 Si02
#       8
#     2   2   2   2   2   2   2   2
#     4  11  24  41  68  98 132 171 216 282 334 391
#     4  12  25  44  65 103 139 171 221 279 338 389
#     4  12  23  41  72  97 128 180 227 272 325 404
#     4   9  20  41  65  92 131 174 225 271 318 395
#     4  11  23  47  70  95 132 177 226 276 333 393
#     4  11  24  42  65  95 143 178 209 277 334 392
#     4  10  21  41  63  96 128 178 228 258 324 398
#     4  10  21  41  68  97 126 176 229 269 328 394
#
# _framework density 25.125257999999999
#
# number of rings (size 3 to 8) (size 9 to 14) (size 15 to 20)
#    0.000    1.250    2.500    3.375    1.750    0.500 
#    9.000    0.625    0.000    0.000    0.000    0.000 
#    0.000    0.000    0.000    0.000    0.000    0.000 
#
# Total GULP energy -89539.082937 kJ/mol
# GULP energy per Si atom -5596.192684 kJ/mol
# Density = 2.506807 g / cm^3
# Si number density = 25.125258 Si / 1000 Ang^3
#
#
#
# Elastic Constant Matrix: (Units=GPa)
#
#
# Indices 1 2 3 4 5 6 
#
# 1 48.1231 18.2938 16.8663 9.6724 -4.0928 -0.8910
# 2 18.2938 73.6099 18.9009 15.7352 3.6290 -8.9238
# 3 16.8663 18.9009 107.3309 3.5967 -5.7413 -14.9849
# 4 9.6724 15.7352 3.5967 49.7307 -2.7778 6.9950
# 5 -4.0928 3.6290 -5.7413 -2.7778 32.8782 0.0275
# 6 -0.8910 -8.9238 -14.9849 6.9950 0.0275 27.9711
#
#
#
# Elastic Compliance Matrix: (Units=1/GPa)
#
#
# Indices 1 2 3 4 5 6 
#
# 1 0.024491 -0.005157 -0.002957 -0.002499 0.002892 -0.001827
# 2 -0.005157 0.017253 -0.001392 -0.005372 -0.003248 0.005941
# 3 -0.002957 -0.001392 0.010883 -0.000439 0.001644 0.005401
# 4 -0.002499 -0.005372 -0.000439 0.023564 0.002203 -0.007924
# 5 0.002892 -0.003248 0.001644 0.002203 0.031608 -0.000645
# 6 -0.001827 0.005941 0.005401 -0.007924 -0.000645 0.042464
#
#
# Mechanical properties :
#
#
# Convention : Reuss Voigt Hill
#
# Bulk Modulus (GPa) = 29.74859 37.46511 33.60685
# Shear Modulus (GPa) = 27.70374 33.78287 30.74331
#
# Velocity S-wave (km/s) = 3.32418 3.67083 3.50180
# Velocity P-wave (km/s) = 5.15746 5.73675 5.45480
#
# Compressibility (1/GPa) = 0.03361504
#
# Stress axis : x y z
#
# Youngs Moduli (GPa) = 40.83058 57.96068 91.88224
#
# Poissons Ratio (x) = 0.29892 0.27171
# Poissons Ratio (y) = 0.21057 0.12791
# Poissons Ratio (z) = 0.12074 0.08069
#
# Static dielectric constant tensor:
#      x y z
#    x 2.052690 0.016990 -0.003170 
#    y 0.016990 2.036270 -0.045690 
#    z -0.003170 -0.045690 2.061510 
# 
# From -- ./inp_files/570803.got.cif
#   From: 2010.05.17/outbox.cif.g08.bks.cpg/sg2_286_cif.got.tgz:570803.got - 2010.06.03 11:33:40.
