data_PCOD9013128
_publ_section_title
;
Structure prediction by ZEFSAII (Michael W. Deem and Ramdas Pophale) SiO2 
 PCOD9013128
Probable space group: P -1
;
_chemical_formula_sum "Si O2"
_cell_formula_units_Z 16
_cell_length_a 18.595017
_cell_length_b 8.962641
_cell_length_c 5.397075
_cell_angle_alpha 115.697512
_cell_angle_beta 59.550912
_cell_angle_gamma 105.644981
_cell_volume 697.285396
_symmetry_space_group_name_H-M "P -1"
_symmetry_group_IT_number 2
_symmetry_cell_setting 'triclinic'
loop_
_space_group_symop_operation_xyz
x,y,z
-x,-y,-z
loop_
_atom_site_type_symbol
_atom_site_label
_atom_site_fract_x
_atom_site_fract_y
_atom_site_fract_z
Si Si1 0.427472 0.387543 0.424529
Si Si2 0.199739 0.132432 0.264236
Si Si3 0.044897 0.668467 0.788889
Si Si4 0.244408 0.461060 0.756634
Si Si5 0.511971 0.126347 0.838295
Si Si6 0.889882 0.653342 0.733441
Si Si7 0.137070 0.773103 0.189504
Si Si8 0.632233 0.926587 0.352503
O O1 0.500000 0.500000 0.500000
O O2 0.344532 0.480809 0.582147
O O3 0.391879 0.227420 0.533596
O O4 0.482041 0.308128 0.059991
O O5 0.220976 0.296470 0.511522
O O6 0.122285 0.177212 0.261694
O O7 0.278917 0.098325 0.931717
O O8 0.178025 0.956375 0.300445
O O9 0.069067 0.476759 0.613747
O O10 0.076127 0.763015 0.048168
O O11 0.947864 0.671722 0.888127
O O12 0.090594 0.725886 0.493586
O O13 0.202274 0.634070 0.904864
O O14 0.202345 0.413137 0.062403
O O15 0.438752 0.073066 0.733465
O O16 0.611818 0.108517 0.620396
O O17 0.500000 0.000000 0.000000
#
# Coordination Sequence:
#
# PCOD9013128 Si02
#       8
#     2   2   2   2   2   2   2   2
#     4  11  23  41  65  95 132 177 228 286 347 413
#     4  12  24  43  72  98 134 191 224 298 352 418
#     4  10  24  47  68 110 144 187 239 290 352 429
#     4  11  24  46  66 101 139 182 237 289 355 424
#     4   9  20  39  61  87 123 165 217 279 332 407
#     4  10  23  43  76  94 146 190 225 291 360 414
#     4  11  27  44  72 108 145 182 243 293 350 421
#     4  10  21  41  63  91 127 171 230 269 348 415
#
# _framework density 22.946126
#
# number of rings (size 3 to 8) (size 9 to 14) (size 15 to 20)
#    0.000    1.500    3.750    0.000    3.500    6.000 
#    6.750    0.000    0.000    0.000    0.000    0.000 
#    0.000    0.000    0.000    0.000    0.000    0.000 
#
# Total GULP energy -89127.040606 kJ/mol
# GULP energy per Si atom -5570.440038 kJ/mol
# Density = 2.289390 g / cm^3
# Si number density = 22.946126 Si / 1000 Ang^3
#
#
#
# Elastic Constant Matrix: (Units=GPa)
#
#
# Indices 1 2 3 4 5 6 
#
# 1 88.1186 17.3419 22.9560 11.9882 -20.3239 -8.6447
# 2 17.3419 71.8421 10.9971 9.0807 -17.1518 -0.6412
# 3 22.9560 10.9971 60.7340 0.4543 -30.1868 1.5392
# 4 11.9882 9.0807 0.4543 13.0406 -5.3370 1.8595
# 5 -20.3239 -17.1518 -30.1868 -5.3370 39.3173 -2.1779
# 6 -8.6447 -0.6412 1.5392 1.8595 -2.1779 28.1121
#
#
#
# Elastic Compliance Matrix: (Units=1/GPa)
#
#
# Indices 1 2 3 4 5 6 
#
# 1 0.015766 -0.000650 -0.004417 -0.013552 0.002979 0.006202
# 2 -0.000650 0.016572 0.000248 -0.008678 0.005972 0.001201
# 3 -0.004417 0.000248 0.028653 0.011911 0.021327 -0.002057
# 4 -0.013552 -0.008678 0.011911 0.101004 0.011465 -0.010810
# 5 0.002979 0.005972 0.021327 0.011465 0.047666 0.002819
# 6 0.006202 0.001201 -0.002057 -0.010810 0.002819 0.038553
#
#
# Mechanical properties :
#
#
# Convention : Reuss Voigt Hill
#
# Bulk Modulus (GPa) = 19.47280 35.92052 27.69666
# Shear Modulus (GPa) = 18.18384 27.38730 22.78557
#
# Velocity S-wave (km/s) = 2.81812 3.45852 3.15461
# Velocity P-wave (km/s) = 4.36964 5.62466 5.03640
#
# Compressibility (1/GPa) = 0.05135368
#
# Stress axis : x y z
#
# Youngs Moduli (GPa) = 63.42667 60.34354 34.90037
#
# Poissons Ratio (x) = 0.03923 0.15414
# Poissons Ratio (y) = 0.04123 -0.00865
# Poissons Ratio (z) = 0.28013 -0.01496
#
# Static dielectric constant tensor:
#      x y z
#    x -2.992020 -0.915390 -11.482520 
#    y -0.915390 1.696900 -2.104950 
#    z -11.482520 -2.104950 -25.230240 
# 
# From -- ./inp_files/47344.got.cif
#   From: 2010.05.17/outbox.cif.g08.bks.cpg/sg2_24_cif.got.tgz:47344.got - 2010.06.03 11:33:40.
