data_PCOD9013232
_publ_section_title
;
Structure prediction by ZEFSAII (Michael W. Deem and Ramdas Pophale) SiO2 
 PCOD9013232
Probable space group: P -1
;
_chemical_formula_sum "Si O2"
_cell_formula_units_Z 13
_cell_length_a 7.321071
_cell_length_b 14.804444
_cell_length_c 7.588607
_cell_angle_alpha 111.843217
_cell_angle_beta 55.864827
_cell_angle_gamma 130.716506
_cell_volume 515.974987
_symmetry_space_group_name_H-M "P -1"
_symmetry_group_IT_number 2
_symmetry_cell_setting 'triclinic'
loop_
_space_group_symop_operation_xyz
x,y,z
-x,-y,-z
loop_
_atom_site_type_symbol
_atom_site_label
_atom_site_fract_x
_atom_site_fract_y
_atom_site_fract_z
Si Si1 0.699815 0.427901 0.180124
Si Si2 0.500000 0.000000 0.000000
Si Si3 0.281121 0.156249 0.140761
Si Si4 0.465834 0.409564 0.662242
Si Si5 0.069175 0.795537 0.393124
Si Si6 0.528579 0.779576 0.283504
Si Si7 0.465880 0.048391 0.368659
O O1 0.549354 0.289605 0.123278
O O2 0.673155 0.442654 0.413869
O O3 0.540983 0.478117 0.213054
O O4 0.000000 0.500000 0.000000
O O5 0.670472 0.936999 0.878703
O O6 0.308860 0.897225 0.860199
O O7 0.054886 0.159916 0.367880
O O8 0.266095 0.148220 0.932666
O O9 0.510880 0.342476 0.739672
O O10 0.169827 0.308467 0.667548
O O11 0.244579 0.757298 0.364133
O O12 0.284466 0.919742 0.261690
O O13 0.618854 0.865773 0.467745
O O14 0.500000 0.000000 0.500000
#
# Coordination Sequence:
#
# PCOD9013232 Si02
#       7
#     2   1   2   2   2   2   2
#     4  10  22  43  67  98 131 178 226 280 342 403
#     4  12  22  42  70  96 138 182 220 284 334 406
#     4  11  24  41  67 100 136 177 233 273 345 409
#     4  10  23  42  68  95 134 175 225 282 342 398
#     4  10  22  44  64  97 136 177 219 285 335 398
#     4  11  23  45  64 102 140 171 230 284 331 421
#     4  10  21  41  63  97 138 175 224 277 333 401
#
# _framework density 25.195018000000001
#
# number of rings (size 3 to 8) (size 9 to 14) (size 15 to 20)
#    0.000    1.538    3.077    2.769    0.000    4.923 
#    5.538   10.769    0.000    0.000    0.000    0.000 
#    0.000    0.000    0.000    0.000    0.000    0.000 
#
# Total GULP energy -72553.838512 kJ/mol
# GULP energy per Si atom -5581.064501 kJ/mol
# Density = 2.513767 g / cm^3
# Si number density = 25.195018 Si / 1000 Ang^3
#
#
#
# Elastic Constant Matrix: (Units=GPa)
#
#
# Indices 1 2 3 4 5 6 
#
# 1 111.5054 32.8616 45.3182 -11.9566 -4.9369 -38.1181
# 2 32.8616 88.0977 -3.1724 0.8368 8.0233 -25.0214
# 3 45.3182 -3.1724 130.8738 15.4618 6.3047 -0.9407
# 4 -11.9566 0.8368 15.4618 46.5488 5.6126 -4.7370
# 5 -4.9369 8.0233 6.3047 5.6126 38.4634 -11.3187
# 6 -38.1181 -25.0214 -0.9407 -4.7370 -11.3187 61.3213
#
#
#
# Elastic Compliance Matrix: (Units=1/GPa)
#
#
# Indices 1 2 3 4 5 6 
#
# 1 0.018427 -0.004632 -0.007647 0.007687 0.006786 0.011293
# 2 -0.004632 0.014082 0.002298 -0.001616 -0.003020 0.002220
# 3 -0.007647 0.002298 0.011174 -0.005739 -0.003868 -0.004802
# 4 0.007687 -0.001616 -0.005739 0.025980 0.000265 0.006087
# 5 0.006786 -0.003020 -0.003868 0.000265 0.030626 0.008600
# 6 0.011293 0.002220 -0.004802 0.006087 0.008600 0.026217
#
#
# Mechanical properties :
#
#
# Convention : Reuss Voigt Hill
#
# Bulk Modulus (GPa) = 42.15726 53.38797 47.77261
# Shear Modulus (GPa) = 32.38830 46.29801 39.34315
#
# Velocity S-wave (km/s) = 3.58928 4.29136 3.95593
# Velocity P-wave (km/s) = 5.82632 6.76685 6.31412
#
# Compressibility (1/GPa) = 0.02372071
#
# Stress axis : x y z
#
# Youngs Moduli (GPa) = 54.26948 71.01018 89.48976
#
# Poissons Ratio (x) = 0.32894 0.68432
# Poissons Ratio (y) = 0.25139 -0.20563
# Poissons Ratio (z) = 0.41499 -0.16317
#
# Static dielectric constant tensor:
#      x y z
#    x 2.197160 0.089720 0.174210 
#    y 0.089720 2.033730 -0.033720 
#    z 0.174210 -0.033720 2.183580 
# 
# From -- ./inp_files/202907.got.cif
#   From: 2010.05.17/outbox.cif.g08.bks.cpg/sg2_102_cif.got.tgz:202907.got - 2010.06.03 11:33:40.
