data_PCOD9013387
_publ_section_title
;
Structure prediction by ZEFSAII (Michael W. Deem and Ramdas Pophale) SiO2 
 PCOD9013387
Probable space group: P -1
;
_chemical_formula_sum "Si O2"
_cell_formula_units_Z 16
_cell_length_a 7.318442
_cell_length_b 5.161113
_cell_length_c 16.659996
_cell_angle_alpha 106.672635
_cell_angle_beta 103.851414
_cell_angle_gamma 70.223462
_cell_volume 560.145451
_symmetry_space_group_name_H-M "P -1"
_symmetry_group_IT_number 2
_symmetry_cell_setting 'triclinic'
loop_
_space_group_symop_operation_xyz
x,y,z
-x,-y,-z
loop_
_atom_site_type_symbol
_atom_site_label
_atom_site_fract_x
_atom_site_fract_y
_atom_site_fract_z
Si Si1 0.792887 0.698256 0.856178
Si Si2 0.850942 0.166887 0.165860
Si Si3 0.684845 0.747615 0.024469
Si Si4 0.480711 0.302360 0.832133
Si Si5 0.811839 0.949273 0.519264
Si Si6 0.069603 0.655518 0.651380
Si Si7 0.226114 0.562532 0.326712
Si Si8 0.395811 0.916971 0.650989
O O1 0.745646 0.472033 0.769508
O O2 0.015048 0.694212 0.861917
O O3 0.668718 0.024722 0.850536
O O4 0.761081 0.605499 0.934955
O O5 0.630224 0.369802 0.181221
O O6 0.960453 0.115404 0.258916
O O7 0.834924 0.895885 0.093381
O O8 0.604821 0.617254 0.079562
O O9 0.500000 0.000000 0.000000
O O10 0.387449 0.139833 0.740956
O O11 0.722847 0.199275 0.595002
O O12 0.672465 0.938500 0.429525
O O13 0.912714 0.697920 0.567194
O O14 0.000000 0.000000 0.500000
O O15 0.999204 0.420152 0.672771
O O16 0.264980 0.702338 0.636878
O O17 0.380125 0.271819 0.345387
#
# Coordination Sequence:
#
# PCOD9013387 Si02
#       8
#     2   2   2   2   2   2   2   2
#     4   9  22  39  62  94 125 161 213 259 303 387
#     4  11  22  40  66  87 129 170 203 262 322 367
#     4  10  21  41  64  93 128 161 212 259 310 384
#     4  10  22  42  63  91 129 165 213 259 314 376
#     4  10  23  40  66  94 128 164 215 265 312 387
#     4  10  23  40  62  95 121 171 211 255 320 380
#     4  10  22  43  61  94 132 162 212 267 316 379
#     4  10  21  43  63  93 130 168 211 267 314 378
#
# _framework density 28.56401
#
# number of rings (size 3 to 8) (size 9 to 14) (size 15 to 20)
#    0.000    2.000    1.250    0.750    7.000    5.000 
#    6.750    5.000    0.000    0.000    0.000    0.000 
#    0.000    0.000    0.000    0.000    0.000    0.000 
#
# Total GULP energy -89284.602441 kJ/mol
# GULP energy per Si atom -5580.287653 kJ/mol
# Density = 2.849900 g / cm^3
# Si number density = 28.564010 Si / 1000 Ang^3
#
#
#
# Elastic Constant Matrix: (Units=GPa)
#
#
# Indices 1 2 3 4 5 6 
#
# 1 91.3096 8.7289 19.5770 17.6634 -13.0572 -22.6910
# 2 8.7289 94.4955 40.7011 5.2507 -5.7992 -25.1974
# 3 19.5770 40.7011 254.6001 7.9060 -8.7371 -8.7216
# 4 17.6634 5.2507 7.9060 31.9524 -7.4578 1.0566
# 5 -13.0572 -5.7992 -8.7371 -7.4578 43.3947 -4.9513
# 6 -22.6910 -25.1974 -8.7216 1.0566 -4.9513 39.7798
#
#
#
# Elastic Compliance Matrix: (Units=1/GPa)
#
#
# Indices 1 2 3 4 5 6 
#
# 1 0.016054 0.002720 -0.000847 -0.008349 0.004904 0.011527
# 2 0.002720 0.014374 -0.001942 -0.003027 0.003048 0.010690
# 3 -0.000847 -0.001942 0.004292 -0.000196 0.000232 -0.000738
# 4 -0.008349 -0.003027 -0.000196 0.037312 0.002613 -0.007389
# 5 0.004904 0.003048 0.000232 0.002613 0.026334 0.007987
# 6 0.011527 0.010690 -0.000738 -0.007389 0.007987 0.039514
#
#
# Mechanical properties :
#
#
# Convention : Reuss Voigt Hill
#
# Bulk Modulus (GPa) = 28.91645 64.26880 46.59262
# Shear Modulus (GPa) = 33.43485 47.78528 40.61007
#
# Velocity S-wave (km/s) = 3.42500 4.09457 3.77466
# Velocity P-wave (km/s) = 5.07801 6.70095 5.94512
#
# Compressibility (1/GPa) = 0.03458240
#
# Stress axis : x y z
#
# Youngs Moduli (GPa) = 62.28923 69.57210 232.98666
#
# Poissons Ratio (x) = -0.18926 0.19732
# Poissons Ratio (y) = -0.16945 0.45250
# Poissons Ratio (z) = 0.05275 0.13512
#
# Static dielectric constant tensor:
#      x y z
#    x 2.323590 0.024890 -0.008530 
#    y 0.024890 2.345510 -0.061930 
#    z -0.008530 -0.061930 2.186940 
# 
# From -- ./inp_files/553860.got.cif
#   From: 2010.05.17/outbox.cif.g08.bks.cpg/sg2_277_cif.got.tgz:553860.got - 2010.06.03 11:33:40.
