data_PCOD9013936
_publ_section_title
;
Structure prediction by ZEFSAII (Michael W. Deem and Ramdas Pophale) SiO2 
 PCOD9013936
Probable space group: P -1
;
_chemical_formula_sum "Si O2"
_cell_formula_units_Z 16
_cell_length_a 15.941992
_cell_length_b 20.360127
_cell_length_c 6.813637
_cell_angle_alpha 78.805579
_cell_angle_beta 84.921965
_cell_angle_gamma 154.457355
_cell_volume 731.446267
_symmetry_space_group_name_H-M "P -1"
_symmetry_group_IT_number 2
_symmetry_cell_setting 'triclinic'
loop_
_space_group_symop_operation_xyz
x,y,z
-x,-y,-z
loop_
_atom_site_type_symbol
_atom_site_label
_atom_site_fract_x
_atom_site_fract_y
_atom_site_fract_z
Si Si1 0.589724 0.802483 0.998116
Si Si2 0.896969 0.416647 0.290148
Si Si3 0.438273 0.516739 0.639348
Si Si4 0.747872 0.489196 0.431657
Si Si5 0.511323 0.795753 0.618377
Si Si6 0.785440 0.232554 0.743960
Si Si7 0.027469 0.893853 0.924873
Si Si8 0.247841 0.209727 0.219044
O O1 0.557973 0.833447 0.817425
O O2 0.597927 0.737944 0.920538
O O3 0.372616 0.646010 0.292300
O O4 0.842570 0.994427 0.960191
O O5 0.618228 0.238238 0.433670
O O6 0.845574 0.306749 0.469422
O O7 0.086711 0.609335 0.253494
O O8 0.000000 0.500000 0.000000
O O9 0.500000 0.500000 0.500000
O O10 0.430871 0.579576 0.482255
O O11 0.604610 0.641801 0.726372
O O12 0.153939 0.303482 0.893533
O O13 0.683508 0.408558 0.281877
O O14 0.039895 0.701662 0.286704
O O15 0.764894 0.965084 0.360866
O O16 0.500000 0.000000 0.000000
O O17 0.847753 0.817295 0.925561
O O18 0.000000 0.000000 0.500000
#
# Coordination Sequence:
#
# PCOD9013936 Si02
#       8
#     2   2   2   2   2   2   2   2
#     4  11  20  41  65  88 119 175 217 256 316 387
#     4  10  22  43  69 100 134 173 222 275 336 404
#     4  12  25  41  60  94 132 167 211 267 322 373
#     4  10  22  42  64  92 128 171 213 261 324 392
#     4  10  21  41  66  91 126 170 213 261 321 392
#     4  10  23  43  70 100 136 174 220 279 338 398
#     4  11  24  37  61  93 125 161 215 266 318 371
#     4  12  21  41  63  85 124 170 216 260 312 382
#
# _framework density 21.874469999999999
#
# number of rings (size 3 to 8) (size 9 to 14) (size 15 to 20)
#    0.000    1.250    2.500    3.750    1.750    1.500 
#    0.000    0.000    0.000    0.000    0.000    0.000 
#    0.000    0.000    0.000    0.000    0.000    0.000 
#
# Total GULP energy -89198.311000 kJ/mol
# GULP energy per Si atom -5574.894438 kJ/mol
# Density = 2.182468 g / cm^3
# Si number density = 21.874470 Si / 1000 Ang^3
#
#
#
# Elastic Constant Matrix: (Units=GPa)
#
#
# Indices 1 2 3 4 5 6 
#
# 1 54.0124 26.2309 -4.1164 5.7473 2.1694 27.6177
# 2 26.2309 140.5028 42.5037 8.6923 2.3514 19.6827
# 3 -4.1164 42.5037 79.3578 6.1173 13.4236 6.8817
# 4 5.7473 8.6923 6.1173 34.2070 6.2634 -1.3239
# 5 2.1694 2.3514 13.4236 6.2634 25.9122 0.8893
# 6 27.6177 19.6827 6.8817 -1.3239 0.8893 33.2270
#
#
#
# Elastic Compliance Matrix: (Units=1/GPa)
#
#
# Indices 1 2 3 4 5 6 
#
# 1 0.038243 -0.004904 0.008579 -0.007096 -0.004428 -0.030823
# 2 -0.004904 0.009949 -0.005917 -0.001203 0.002888 -0.000717
# 3 0.008579 -0.005917 0.018527 -0.001872 -0.009077 -0.007295
# 4 -0.007096 -0.001203 -0.001872 0.032583 -0.006494 0.008470
# 5 -0.004428 0.002888 -0.009077 -0.006494 0.044890 0.002389
# 6 -0.030823 -0.000717 -0.007295 0.008470 0.002389 0.057925
#
#
# Mechanical properties :
#
#
# Convention : Reuss Voigt Hill
#
# Bulk Modulus (GPa) = 16.06768 44.78992 30.42880
# Shear Modulus (GPa) = 21.99279 32.61956 27.30617
#
# Velocity S-wave (km/s) = 3.17426 3.86582 3.53698
# Velocity P-wave (km/s) = 4.56025 6.35975 5.53364
#
# Compressibility (1/GPa) = 0.06223673
#
# Stress axis : x y z
#
# Youngs Moduli (GPa) = 26.14840 100.50939 53.97412
#
# Poissons Ratio (x) = 0.49290 -0.46306
# Poissons Ratio (y) = 0.12823 0.31936
# Poissons Ratio (z) = -0.22433 0.59470
#
# Static dielectric constant tensor:
#      x y z
#    x 2.309540 0.099760 0.286400 
#    y 0.099760 1.842290 0.062800 
#    z 0.286400 0.062800 1.994430 
# 
# From -- ./inp_files/112838.got.cif
#   From: 2010.05.17/outbox.cif.g08.bks.cpg/sg2_57_cif.got.tgz:112838.got - 2010.06.03 11:33:40.
