data_PCOD9013254
_publ_section_title
;
Structure prediction by ZEFSAII (Michael W. Deem and Ramdas Pophale) SiO2 
 PCOD9013254
Probable space group: P -1
;
_chemical_formula_sum "Si O2"
_cell_formula_units_Z 14
_cell_length_a 5.328278
_cell_length_b 15.504871
_cell_length_c 7.895753
_cell_angle_alpha 114.414610
_cell_angle_beta 66.069320
_cell_angle_gamma 93.370120
_cell_volume 538.246948
_symmetry_space_group_name_H-M "P -1"
_symmetry_group_IT_number 2
_symmetry_cell_setting 'triclinic'
loop_
_space_group_symop_operation_xyz
x,y,z
-x,-y,-z
loop_
_atom_site_type_symbol
_atom_site_label
_atom_site_fract_x
_atom_site_fract_y
_atom_site_fract_z
Si Si1 0.225552 0.095564 0.085383
Si Si2 0.624545 0.211659 0.258789
Si Si3 0.620532 0.518601 0.205632
Si Si4 0.416337 0.164262 0.634833
Si Si5 0.185310 0.593748 0.628047
Si Si6 0.357817 0.355496 0.001057
Si Si7 0.864449 0.992087 0.307582
O O1 0.465458 0.155445 0.121079
O O2 0.935762 0.162127 0.175839
O O3 0.148498 0.029333 0.208353
O O4 0.271230 0.029538 0.854616
O O5 0.452743 0.209024 0.477661
O O6 0.652911 0.319151 0.288166
O O7 0.310183 0.565738 0.386971
O O8 0.758158 0.494763 0.330120
O O9 0.747981 0.587743 0.097462
O O10 0.596793 0.417723 0.039831
O O11 0.421125 0.246477 0.838620
O O12 0.670452 0.079367 0.516109
O O13 0.149284 0.107546 0.674962
O O14 0.867058 0.632380 0.778386
#
# Coordination Sequence:
#
# PCOD9013254 Si02
#       7
#     2   2   2   2   2   2   2
#     4  10  23  44  69  99 138 185 236 285 345 418
#     4  11  24  43  69 103 139 185 233 285 350 419
#     4  10  24  43  67  98 135 174 236 288 348 423
#     4  10  21  41  63  99 140 177 234 287 347 413
#     4  11  23  42  67  98 135 181 230 286 353 418
#     4  11  22  44  67  98 135 180 229 291 350 417
#     4   9  21  41  68  97 137 183 231 285 346 411
#
# _framework density 26.010368
#
# number of rings (size 3 to 8) (size 9 to 14) (size 15 to 20)
#    0.000    1.714    1.429    1.714    4.000    5.714 
#    5.143    2.857    0.000    0.000    0.000    0.000 
#    0.000    0.000    0.000    0.000    0.000    0.000 
#
# Total GULP energy -78356.818774 kJ/mol
# GULP energy per Si atom -5596.915627 kJ/mol
# Density = 2.595117 g / cm^3
# Si number density = 26.010368 Si / 1000 Ang^3
#
#
#
# Elastic Constant Matrix: (Units=GPa)
#
#
# Indices 1 2 3 4 5 6 
#
# 1 93.4225 36.8967 26.1878 9.2527 8.0249 16.5218
# 2 36.8967 146.5634 34.1249 9.9849 -5.4081 19.7854
# 3 26.1878 34.1249 124.6175 17.0041 -12.3217 6.4649
# 4 9.2527 9.9849 17.0041 61.0783 7.6834 8.8133
# 5 8.0249 -5.4081 -12.3217 7.6834 18.7362 6.2015
# 6 16.5218 19.7854 6.4649 8.8133 6.2015 29.5918
#
#
#
# Elastic Compliance Matrix: (Units=1/GPa)
#
#
# Indices 1 2 3 4 5 6 
#
# 1 0.013798 -0.002601 -0.002802 0.000626 -0.007443 -0.003979
# 2 -0.002601 0.008590 -0.000988 -0.000636 0.004826 -0.004897
# 3 -0.002802 -0.000988 0.010319 -0.003323 0.009398 -0.001009
# 4 0.000626 -0.000636 -0.003323 0.018906 -0.009447 -0.002849
# 5 -0.007443 0.004826 0.009398 -0.009447 0.072476 -0.013499
# 6 -0.003979 -0.004897 -0.001009 -0.002849 -0.013499 0.043187
#
#
# Mechanical properties :
#
#
# Convention : Reuss Voigt Hill
#
# Bulk Modulus (GPa) = 50.18828 62.11358 56.15093
# Shear Modulus (GPa) = 26.78074 39.70751 33.24413
#
# Velocity S-wave (km/s) = 3.21225 3.91142 3.57895
# Velocity P-wave (km/s) = 5.75286 6.65816 6.22200
#
# Compressibility (1/GPa) = 0.01992497
#
# Stress axis : x y z
#
# Youngs Moduli (GPa) = 72.47459 116.40985 96.90867
#
# Poissons Ratio (x) = 0.30281 0.27155
# Poissons Ratio (y) = 0.18853 0.09572
# Poissons Ratio (z) = 0.20308 0.11498
#
# Static dielectric constant tensor:
#      x y z
#    x 2.115500 -0.049130 -0.041000 
#    y -0.049130 2.069280 -0.028080 
#    z -0.041000 -0.028080 2.046970 
# 
# From -- ./inp_files/139477.got.cif
#   From: 2010.05.17/outbox.cif.g08.bks.cpg/sg2_70_cif.got.tgz:139477.got - 2010.06.03 11:33:40.
