data_PCOD9013267
_publ_section_title
;
Structure prediction by ZEFSAII (Michael W. Deem and Ramdas Pophale) SiO2 
 PCOD9013267
Probable space group: P -1
;
_chemical_formula_sum "Si O2"
_cell_formula_units_Z 14
_cell_length_a 7.947571
_cell_length_b 14.938554
_cell_length_c 5.087770
_cell_angle_alpha 68.197629
_cell_angle_beta 93.264361
_cell_angle_gamma 75.122368
_cell_volume 534.173700
_symmetry_space_group_name_H-M "P -1"
_symmetry_group_IT_number 2
_symmetry_cell_setting 'triclinic'
loop_
_space_group_symop_operation_xyz
x,y,z
-x,-y,-z
loop_
_atom_site_type_symbol
_atom_site_label
_atom_site_fract_x
_atom_site_fract_y
_atom_site_fract_z
Si Si1 0.513359 0.601180 0.750632
Si Si2 0.386858 0.137400 0.607795
Si Si3 0.900681 0.477540 0.767632
Si Si4 0.698600 0.049327 0.319940
Si Si5 0.012170 0.085746 0.108828
Si Si6 0.120061 0.268904 0.027919
Si Si7 0.478573 0.284771 0.852617
O O1 0.708865 0.553876 0.700994
O O2 0.431145 0.656907 0.412387
O O3 0.500000 0.500000 0.000000
O O4 0.471873 0.684953 0.885151
O O5 0.529328 0.103709 0.419715
O O6 0.479057 0.182205 0.800321
O O7 0.341588 0.033993 0.784734
O O8 0.218072 0.218849 0.363176
O O9 0.000000 0.500000 0.500000
O O10 0.936872 0.357380 0.930852
O O11 0.000000 0.500000 0.000000
O O12 0.808836 0.122840 0.150960
O O13 0.845308 0.974890 0.601923
O O14 0.080113 0.180492 0.950173
O O15 0.000000 0.000000 0.000000
O O16 0.265006 0.313339 0.860458
#
# Coordination Sequence:
#
# PCOD9013267 Si02
#       7
#     2   2   2   2   2   2   2
#     4  12  26  45  69  98 140 180 228 304 359 410
#     4  10  21  41  69 101 135 188 234 280 352 415
#     4  12  23  45  71 101 135 183 238 291 352 418
#     4   9  21  41  66  99 143 180 225 291 346 418
#     4  10  21  41  64 102 143 175 227 286 352 415
#     4  11  23  39  70  97 134 188 231 286 341 425
#     4  12  22  44  69  99 134 177 241 279 349 424
#
# _framework density 26.208707
#
# number of rings (size 3 to 8) (size 9 to 14) (size 15 to 20)
#    0.000    1.143    4.286    1.286    0.000    2.286 
#    2.571    4.286    0.000    0.000    0.000    0.000 
#    0.000    0.000    0.000    0.000    0.000    0.000 
#
# Total GULP energy -78069.544086 kJ/mol
# GULP energy per Si atom -5576.396006 kJ/mol
# Density = 2.614905 g / cm^3
# Si number density = 26.208707 Si / 1000 Ang^3
#
#
#
# Elastic Constant Matrix: (Units=GPa)
#
#
# Indices 1 2 3 4 5 6 
#
# 1 56.5970 3.8854 34.4134 3.9584 7.7476 7.1349
# 2 3.8854 147.8955 39.6397 12.5039 15.1222 -3.7361
# 3 34.4134 39.6397 136.9028 13.7743 -13.8707 7.6005
# 4 3.9584 12.5039 13.7743 50.8278 2.6568 -6.9732
# 5 7.7476 15.1222 -13.8707 2.6568 39.8440 -3.1349
# 6 7.1349 -3.7361 7.6005 -6.9732 -3.1349 32.9669
#
#
#
# Elastic Compliance Matrix: (Units=1/GPa)
#
#
# Indices 1 2 3 4 5 6 
#
# 1 0.023457 0.002033 -0.007016 -0.000569 -0.008061 -0.004116
# 2 0.002033 0.008140 -0.003262 -0.000958 -0.004509 0.000603
# 3 -0.007016 -0.003262 0.010948 -0.002122 0.006460 -0.001210
# 4 -0.000569 -0.000958 -0.002122 0.021266 -0.001298 0.004878
# 5 -0.008061 -0.004509 0.006460 -0.001298 0.030901 0.002408
# 6 -0.004116 0.000603 -0.001210 0.004878 0.002408 0.032832
#
#
# Mechanical properties :
#
#
# Convention : Reuss Voigt Hill
#
# Bulk Modulus (GPa) = 38.38115 55.25249 46.81682
# Shear Modulus (GPa) = 32.73976 42.29152 37.51564
#
# Velocity S-wave (km/s) = 3.53823 4.02138 3.78751
# Velocity P-wave (km/s) = 5.60074 6.53372 6.08514
#
# Compressibility (1/GPa) = 0.02605445
#
# Stress axis : x y z
#
# Youngs Moduli (GPa) = 42.63047 122.85660 91.34474
#
# Poissons Ratio (x) = -0.24971 0.64088
# Poissons Ratio (y) = -0.08665 0.29793
# Poissons Ratio (z) = 0.29910 0.40070
#
# Static dielectric constant tensor:
#      x y z
#    x 2.174380 -0.088640 0.041170 
#    y -0.088640 2.214360 -0.197510 
#    z 0.041170 -0.197510 2.278740 
# 
# From -- ./inp_files/34405.got.cif
#   From: 2010.05.17/outbox.cif.g08.bks.cpg/sg2_18_cif.got.tgz:34405.got - 2010.06.03 11:33:40.
