data_PCOD9013669
_publ_section_title
;
Structure prediction by ZEFSAII (Michael W. Deem and Ramdas Pophale) SiO2 
 PCOD9013669
Probable space group: P -1
;
_chemical_formula_sum "Si O2"
_cell_formula_units_Z 14
_cell_length_a 12.009121
_cell_length_b 8.836461
_cell_length_c 12.582043
_cell_angle_alpha 137.625384
_cell_angle_beta 51.142056
_cell_angle_gamma 130.424696
_cell_volume 655.781766
_symmetry_space_group_name_H-M "P -1"
_symmetry_group_IT_number 2
_symmetry_cell_setting 'triclinic'
loop_
_space_group_symop_operation_xyz
x,y,z
-x,-y,-z
loop_
_atom_site_type_symbol
_atom_site_label
_atom_site_fract_x
_atom_site_fract_y
_atom_site_fract_z
Si Si1 0.410070 0.442863 0.912502
Si Si2 0.914960 0.231576 0.954831
Si Si3 0.339238 0.277051 0.490833
Si Si4 0.500536 0.767576 0.438886
Si Si5 0.895469 0.012198 0.167129
Si Si6 0.352470 0.906345 0.115564
Si Si7 0.799892 0.375979 0.317483
O O1 0.518588 0.433906 0.743657
O O2 0.273307 0.184034 0.856146
O O3 0.500000 0.500000 0.000000
O O4 0.340966 0.647441 0.033049
O O5 0.828283 0.258070 0.129557
O O6 0.789529 0.105389 0.877770
O O7 0.000000 0.500000 0.000000
O O8 0.027338 0.085447 0.834788
O O9 0.500000 0.500000 0.500000
O O10 0.346527 0.202450 0.570098
O O11 0.199810 0.362175 0.583510
O O12 0.356657 0.077389 0.299676
O O13 0.364556 0.721833 0.579633
O O14 0.500000 0.000000 0.500000
O O15 0.895411 0.284364 0.300120
O O16 0.000000 0.000000 0.000000
O O17 0.500000 0.000000 0.000000
#
# Coordination Sequence:
#
# PCOD9013669 Si02
#       7
#     2   2   2   2   2   2   2
#     4  12  25  40  69 106 131 169 240 280 332 408
#     4  11  23  44  72  96 135 178 229 274 344 409
#     4  10  22  39  62  94 133 173 218 279 341 385
#     4  11  20  38  65  97 134 173 213 284 344 383
#     4  10  23  43  68  93 137 184 215 275 348 404
#     4  12  24  41  69 103 129 175 232 287 327 404
#     4  10  21  41  65  92 132 178 223 262 343 403
#
# _framework density 21.348566999999999
#
# number of rings (size 3 to 8) (size 9 to 14) (size 15 to 20)
#    0.000    1.143    2.857    5.143    6.000    0.000 
#    0.000    1.429    3.143    0.000    0.000    0.000 
#    0.000    0.000    0.000    0.000    0.000    0.000 
#
# Total GULP energy -78016.227931 kJ/mol
# GULP energy per Si atom -5572.587709 kJ/mol
# Density = 2.129998 g / cm^3
# Si number density = 21.348567 Si / 1000 Ang^3
#
#
#
# Elastic Constant Matrix: (Units=GPa)
#
#
# Indices 1 2 3 4 5 6 
#
# 1 155.5187 37.9925 46.7320 6.3861 -6.3745 -42.6757
# 2 37.9925 60.1328 19.8442 -8.7696 -0.5591 -24.1717
# 3 46.7320 19.8442 130.6721 3.0708 -2.5696 -20.2680
# 4 6.3861 -8.7696 3.0708 35.6584 -9.9504 -13.2412
# 5 -6.3745 -0.5591 -2.5696 -9.9504 43.8747 10.5479
# 6 -42.6757 -24.1717 -20.2680 -13.2412 10.5479 49.6400
#
#
#
# Elastic Compliance Matrix: (Units=1/GPa)
#
#
# Indices 1 2 3 4 5 6 
#
# 1 0.009331 -0.002930 -0.001995 -0.000130 -0.000221 0.005793
# 2 -0.002930 0.025623 -0.001159 0.011460 -0.000614 0.012672
# 3 -0.001995 -0.001159 0.008740 -0.000258 -0.000152 0.001252
# 4 -0.000130 0.011460 -0.000258 0.037675 0.005218 0.014304
# 5 -0.000221 -0.000614 -0.000152 0.005218 0.025002 -0.004472
# 6 0.005793 0.012672 0.001252 0.014304 -0.004472 0.036573
#
#
# Mechanical properties :
#
#
# Convention : Reuss Voigt Hill
#
# Bulk Modulus (GPa) = 31.71969 61.71787 46.71878
# Shear Modulus (GPa) = 30.18945 41.95161 36.07053
#
# Velocity S-wave (km/s) = 3.76456 4.43773 4.11493
# Velocity P-wave (km/s) = 5.81258 7.43171 6.67145
#
# Compressibility (1/GPa) = 0.03152616
#
# Stress axis : x y z
#
# Youngs Moduli (GPa) = 107.16682 39.02752 114.42225
#
# Poissons Ratio (x) = 0.11433 0.22827
# Poissons Ratio (y) = 0.31395 0.13265
# Poissons Ratio (z) = 0.21379 0.04524
#
# Static dielectric constant tensor:
#      x y z
#    x 1.879840 -0.050100 -0.028260 
#    y -0.050100 1.933370 -0.013050 
#    z -0.028260 -0.013050 1.753290 
# 
# From -- ./inp_files/285243.got.cif
#   From: 2010.05.17/outbox.cif.g08.bks.cpg/sg2_143_cif.got.tgz:285243.got - 2010.06.03 11:33:40.
