data_PCOD9013334
_publ_section_title
;
Structure prediction by ZEFSAII (Michael W. Deem and Ramdas Pophale) SiO2 
 PCOD9013334
Probable space group: P -1
;
_chemical_formula_sum "Si O2"
_cell_formula_units_Z 14
_cell_length_a 5.583413
_cell_length_b 23.066993
_cell_length_c 15.627767
_cell_angle_alpha 15.822474
_cell_angle_beta 97.717543
_cell_angle_gamma 94.584692
_cell_volume 534.700208
_symmetry_space_group_name_H-M "P -1"
_symmetry_group_IT_number 2
_symmetry_cell_setting 'triclinic'
loop_
_space_group_symop_operation_xyz
x,y,z
-x,-y,-z
loop_
_atom_site_type_symbol
_atom_site_label
_atom_site_fract_x
_atom_site_fract_y
_atom_site_fract_z
Si Si1 0.676979 0.745870 0.116253
Si Si2 0.205967 0.744605 0.178335
Si Si3 0.675073 0.692067 0.771934
Si Si4 0.329521 0.059587 0.324249
Si Si5 0.179565 0.772146 0.336255
Si Si6 0.435726 0.376523 0.310137
Si Si7 0.027174 0.644945 0.007190
O O1 0.420482 0.848969 0.999621
O O2 0.750766 0.503293 0.502064
O O3 0.923190 0.843923 0.003723
O O4 0.623707 0.748990 0.008222
O O5 0.249874 0.728514 0.303687
O O6 0.741296 0.684866 0.685172
O O7 0.427107 0.860671 0.547163
O O8 0.623544 0.466411 0.128281
O O9 0.888591 0.731795 0.789371
O O10 0.500000 0.000000 0.500000
O O11 0.059634 0.164418 0.199305
O O12 0.407626 0.792798 0.379107
O O13 0.059754 0.572285 0.651586
O O14 0.000000 0.000000 0.000000
O O15 0.301369 0.561196 0.106009
#
# Coordination Sequence:
#
# PCOD9013334 Si02
#       7
#     2   2   2   2   2   2   2
#     4  10  22  43  67  94 131 176 218 278 341 400
#     4  10  23  42  66  92 132 176 224 274 334 402
#     4   9  21  41  60  96 125 168 217 269 340 407
#     4  10  21  41  65  98 132 164 223 276 341 399
#     4  11  25  40  60  93 126 170 228 275 338 401
#     4  10  22  40  66  86 130 171 214 276 334 411
#     4  10  21  41  64  91 126 167 219 278 339 396
#
# _framework density 26.182897000000001
#
# number of rings (size 3 to 8) (size 9 to 14) (size 15 to 20)
#    0.000    2.000    1.429    0.429    4.000    3.429 
#    5.143    0.000    0.000    0.000    0.000    0.000 
#    0.000    0.000    0.000    0.000    0.000    0.000 
#
# Total GULP energy -78114.467099 kJ/mol
# GULP energy per Si atom -5579.604793 kJ/mol
# Density = 2.612330 g / cm^3
# Si number density = 26.182897 Si / 1000 Ang^3
#
#
#
# Elastic Constant Matrix: (Units=GPa)
#
#
# Indices 1 2 3 4 5 6 
#
# 1 106.4664 57.1792 39.0211 17.1279 15.5419 -20.6109
# 2 57.1792 159.8101 51.0561 16.0119 16.7014 -12.6652
# 3 39.0211 51.0561 117.1987 3.4622 24.8349 -1.0592
# 4 17.1279 16.0119 3.4622 52.7761 2.3727 3.1077
# 5 15.5419 16.7014 24.8349 2.3727 38.7126 -0.2870
# 6 -20.6109 -12.6652 -1.0592 3.1077 -0.2870 31.1751
#
#
#
# Elastic Compliance Matrix: (Units=1/GPa)
#
#
# Indices 1 2 3 4 5 6 
#
# 1 0.014802 -0.002998 -0.002897 -0.004115 -0.002473 0.008857
# 2 -0.002998 0.008469 -0.002472 -0.001489 -0.000762 0.001516
# 3 -0.002897 -0.002472 0.011642 0.001326 -0.005340 -0.002705
# 4 -0.004115 -0.001489 0.001326 0.020959 0.000119 -0.005368
# 5 -0.002473 -0.000762 -0.005340 0.000119 0.030558 -0.001856
# 6 0.008857 0.001516 -0.002705 -0.005368 -0.001856 0.038975
#
#
# Mechanical properties :
#
#
# Convention : Reuss Voigt Hill
#
# Bulk Modulus (GPa) = 55.00744 75.33198 65.16971
# Shear Modulus (GPa) = 33.73886 40.28068 37.00977
#
# Velocity S-wave (km/s) = 3.59358 3.92654 3.76375
# Velocity P-wave (km/s) = 6.18651 7.02787 6.62057
#
# Compressibility (1/GPa) = 0.01817936
#
# Stress axis : x y z
#
# Youngs Moduli (GPa) = 67.55851 118.08009 85.89655
#
# Poissons Ratio (x) = 0.35401 0.24881
# Poissons Ratio (y) = 0.20254 0.21234
# Poissons Ratio (z) = 0.19569 0.29190
#
# Static dielectric constant tensor:
#      x y z
#    x 2.235290 0.093870 -0.026520 
#    y 0.093870 2.078660 -0.052050 
#    z -0.026520 -0.052050 2.083130 
# 
# From -- ./inp_files/370050.got.cif
#   From: 2010.05.17/outbox.cif.g08.bks.cpg/sg2_186_cif.got.tgz:370050.got - 2010.06.03 11:33:40.
