data_PCOD9013514
_publ_section_title
;
Structure prediction by ZEFSAII (Michael W. Deem and Ramdas Pophale) SiO2 
 PCOD9013514
Probable space group: P -1
;
_chemical_formula_sum "Si O2"
_cell_formula_units_Z 16
_cell_length_a 5.141160
_cell_length_b 11.554757
_cell_length_c 17.974969
_cell_angle_alpha 136.039645
_cell_angle_beta 119.793823
_cell_angle_gamma 80.857163
_cell_volume 607.224336
_symmetry_space_group_name_H-M "P -1"
_symmetry_group_IT_number 2
_symmetry_cell_setting 'triclinic'
loop_
_space_group_symop_operation_xyz
x,y,z
-x,-y,-z
loop_
_atom_site_type_symbol
_atom_site_label
_atom_site_fract_x
_atom_site_fract_y
_atom_site_fract_z
Si Si1 0.811429 0.195439 0.091616
Si Si2 0.826193 0.733312 0.560185
Si Si3 0.641324 0.955461 0.286203
Si Si4 0.182152 0.620162 0.674348
Si Si5 0.995490 0.529188 0.190536
Si Si6 0.697972 0.938120 0.829769
Si Si7 0.360939 0.568826 0.112851
Si Si8 0.309931 0.864942 0.474827
O O1 0.713323 0.302700 0.193373
O O2 0.051733 0.361895 0.159492
O O3 0.964059 0.070138 0.100968
O O4 0.620180 0.069461 0.940059
O O5 0.876069 0.584284 0.442994
O O6 0.508591 0.760362 0.499614
O O7 0.877883 0.664265 0.617356
O O8 0.083914 0.925547 0.672201
O O9 0.540932 0.748233 0.178363
O O10 0.338342 0.996787 0.227597
O O11 0.758289 0.021114 0.415712
O O12 0.458103 0.741507 0.716629
O O13 0.612572 0.464188 0.090627
O O14 0.266369 0.591733 0.195192
O O15 0.037481 0.703105 0.325718
O O16 0.000000 0.500000 0.000000
O O17 0.500000 0.000000 0.500000
#
# Coordination Sequence:
#
# PCOD9013514 Si02
#       8
#     2   2   2   2   2   2   2   2
#     4  11  23  41  68 101 141 185 246 300 361 434
#     4  10  23  40  68 102 144 187 237 298 368 436
#     4  11  24  44  71 100 149 189 245 298 370 437
#     4  10  21  41  65 100 139 187 234 298 363 436
#     4  12  28  46  77 108 145 193 248 304 370 434
#     4  10  23  42  65 102 138 191 240 299 366 434
#     4  12  28  52  74 106 148 196 248 302 365 441
#     4  12  24  41  67 104 140 186 237 303 359 430
#
# _framework density 26.349404
#
# number of rings (size 3 to 8) (size 9 to 14) (size 15 to 20)
#    0.000    1.000    1.250    4.500    5.250    1.000 
#    4.500    5.000    0.000    0.000    0.000    0.000 
#    0.000    0.000    0.000    0.000    0.000    0.000 
#
# Total GULP energy -89405.243886 kJ/mol
# GULP energy per Si atom -5587.827743 kJ/mol
# Density = 2.628943 g / cm^3
# Si number density = 26.349404 Si / 1000 Ang^3
#
#
#
# Elastic Constant Matrix: (Units=GPa)
#
#
# Indices 1 2 3 4 5 6 
#
# 1 94.9664 21.1093 31.2104 -2.6914 -11.7517 -0.4116
# 2 21.1093 102.2968 36.5002 4.4729 -6.4001 -4.5034
# 3 31.2104 36.5002 131.1757 1.2536 -13.8948 10.5416
# 4 -2.6914 4.4729 1.2536 39.3355 5.2854 0.5487
# 5 -11.7517 -6.4001 -13.8948 5.2854 27.4158 -8.7281
# 6 -0.4116 -4.5034 10.5416 0.5487 -8.7281 35.2991
#
#
#
# Elastic Compliance Matrix: (Units=1/GPa)
#
#
# Indices 1 2 3 4 5 6 
#
# 1 0.012097 -0.001405 -0.002180 0.000472 0.004183 0.001640
# 2 -0.001405 0.011385 -0.002850 -0.001579 0.001793 0.002755
# 3 -0.002180 -0.002850 0.009404 -0.000414 0.002421 -0.002592
# 4 0.000472 -0.001579 -0.000414 0.026498 -0.006120 -0.001998
# 5 0.004183 0.001793 0.002421 -0.006120 0.044484 0.010649
# 6 0.001640 0.002755 -0.002592 -0.001998 0.010649 0.032138
#
#
# Mechanical properties :
#
#
# Convention : Reuss Voigt Hill
#
# Bulk Modulus (GPa) = 49.96289 56.23096 53.09692
# Shear Modulus (GPa) = 32.14440 36.38469 34.26455
#
# Velocity S-wave (km/s) = 3.49654 3.72002 3.61001
# Velocity P-wave (km/s) = 5.94171 6.31175 6.12952
#
# Compressibility (1/GPa) = 0.02001486
#
# Stress axis : x y z
#
# Youngs Moduli (GPa) = 82.66435 87.83657 106.33920
#
# Poissons Ratio (x) = 0.12341 0.23187
# Poissons Ratio (y) = 0.11614 0.30307
# Poissons Ratio (z) = 0.18025 0.25034
#
# Static dielectric constant tensor:
#      x y z
#    x 2.224020 -0.080340 0.007970 
#    y -0.080340 2.097550 -0.122840 
#    z 0.007970 -0.122840 2.155250 
# 
# From -- ./inp_files/549576.got.cif
#   From: 2010.05.17/outbox.cif.g08.bks.cpg/sg2_275_cif.got.tgz:549576.got - 2010.06.03 11:33:40.
