data_PCOD9013482
_publ_section_title
;
Structure prediction by ZEFSAII (Michael W. Deem and Ramdas Pophale) SiO2 
 PCOD9013482
Probable space group: P -1
;
_chemical_formula_sum "Si O2"
_cell_formula_units_Z 16
_cell_length_a 9.373402
_cell_length_b 9.361530
_cell_length_c 10.554654
_cell_angle_alpha 77.666594
_cell_angle_beta 131.408421
_cell_angle_gamma 110.274519
_cell_volume 651.438555
_symmetry_space_group_name_H-M "P -1"
_symmetry_group_IT_number 2
_symmetry_cell_setting 'triclinic'
loop_
_space_group_symop_operation_xyz
x,y,z
-x,-y,-z
loop_
_atom_site_type_symbol
_atom_site_label
_atom_site_fract_x
_atom_site_fract_y
_atom_site_fract_z
Si Si1 0.968461 0.748685 0.324682
Si Si2 0.686698 0.501814 0.766653
Si Si3 0.382737 0.976352 0.595114
Si Si4 0.356595 0.832535 0.972952
Si Si5 0.342809 0.241510 0.678533
Si Si6 0.374397 0.186010 0.336182
Si Si7 0.065843 0.970793 0.904520
Si Si8 0.928307 0.462868 0.173175
O O1 0.851898 0.721597 0.394490
O O2 0.886296 0.871890 0.174142
O O3 0.939223 0.595622 0.255985
O O4 0.196546 0.840924 0.465089
O O5 0.496109 0.358942 0.656922
O O6 0.589397 0.639276 0.698924
O O7 0.850646 0.526388 0.748003
O O8 0.810764 0.492501 0.970769
O O9 0.558052 0.895950 0.730183
O O10 0.308445 0.068328 0.644040
O O11 0.468144 0.113565 0.519027
O O12 0.193938 0.707878 0.820018
O O13 0.218655 0.871224 0.996409
O O14 0.514649 0.744625 0.119313
O O15 0.500000 0.000000 0.000000
O O16 0.144711 0.130784 0.252498
O O17 0.000000 0.000000 0.000000
#
# Coordination Sequence:
#
# PCOD9013482 Si02
#       8
#     2   2   2   2   2   2   2   2
#     4  11  24  43  62  91 137 172 212 269 317 384
#     4  10  22  40  68  95 131 164 213 273 330 383
#     4  10  24  42  67  92 127 175 228 263 310 377
#     4  11  22  42  65  99 126 164 210 269 332 387
#     4  11  24  42  63  95 136 173 211 268 328 380
#     4  10  21  41  64  98 121 168 223 268 313 374
#     4  11  21  37  66  96 124 164 216 266 327 381
#     4  10  23  41  65  98 132 166 211 267 330 387
#
# _framework density 24.561025999999998
#
# number of rings (size 3 to 8) (size 9 to 14) (size 15 to 20)
#    0.000    1.500    2.500    1.875    8.750    2.500 
#    4.500    0.625    0.000    0.000    0.000    0.000 
#    0.000    0.000    0.000    0.000    0.000    0.000 
#
# Total GULP energy -89196.621832 kJ/mol
# GULP energy per Si atom -5574.788864 kJ/mol
# Density = 2.450512 g / cm^3
# Si number density = 24.561026 Si / 1000 Ang^3
#
#
#
# Elastic Constant Matrix: (Units=GPa)
#
#
# Indices 1 2 3 4 5 6 
#
# 1 132.1281 53.1035 30.8732 29.8852 31.8170 -14.9019
# 2 53.1035 162.2415 27.9665 46.0972 12.5336 -9.2585
# 3 30.8732 27.9665 43.1043 11.2543 8.4014 -4.3092
# 4 29.8852 46.0972 11.2543 41.3501 -2.9021 2.1768
# 5 31.8170 12.5336 8.4014 -2.9021 27.9361 5.8610
# 6 -14.9019 -9.2585 -4.3092 2.1768 5.8610 45.9540
#
#
#
# Elastic Compliance Matrix: (Units=1/GPa)
#
#
# Indices 1 2 3 4 5 6 
#
# 1 0.018622 0.001820 -0.004446 -0.016516 -0.024480 0.009893
# 2 0.001820 0.010699 -0.002735 -0.013301 -0.008309 0.004179
# 3 -0.004446 -0.002735 0.029398 -0.002017 -0.003021 0.001245
# 4 -0.016516 -0.013301 -0.002017 0.054701 0.034253 -0.015185
# 5 -0.024480 -0.008309 -0.003021 0.034253 0.076330 -0.021253
# 6 0.009893 0.004179 0.001245 -0.015185 -0.021253 0.029358
#
#
# Mechanical properties :
#
#
# Convention : Reuss Voigt Hill
#
# Bulk Modulus (GPa) = 20.83460 62.37338 41.60399
# Shear Modulus (GPa) = 20.33919 38.08341 29.21130
#
# Velocity S-wave (km/s) = 2.88081 3.94199 3.45242
# Velocity P-wave (km/s) = 4.42342 6.79481 5.73306
#
# Compressibility (1/GPa) = 0.04799708
#
# Stress axis : x y z
#
# Youngs Moduli (GPa) = 53.69869 93.46603 34.01560
#
# Poissons Ratio (x) = -0.17006 0.15123
# Poissons Ratio (y) = -0.09771 0.09303
# Poissons Ratio (z) = 0.23874 0.25562
#
# Static dielectric constant tensor:
#      x y z
#    x 2.050720 0.058630 -0.082600 
#    y 0.058630 1.976370 -0.040570 
#    z -0.082600 -0.040570 2.092520 
# 
# From -- ./inp_files/308351.got.cif
#   From: 2010.05.17/outbox.cif.g08.bks.cpg/sg2_155_cif.got.tgz:308351.got - 2010.06.03 11:33:40.
