data_PCOD9013505
_publ_section_title
;
Structure prediction by ZEFSAII (Michael W. Deem and Ramdas Pophale) SiO2 
 PCOD9013505
Probable space group: P -1
;
_chemical_formula_sum "Si O2"
_cell_formula_units_Z 16
_cell_length_a 15.284009
_cell_length_b 9.169780
_cell_length_c 11.326353
_cell_angle_alpha 112.703158
_cell_angle_beta 75.358018
_cell_angle_gamma 150.175722
_cell_volume 716.564676
_symmetry_space_group_name_H-M "P -1"
_symmetry_group_IT_number 2
_symmetry_cell_setting 'triclinic'
loop_
_space_group_symop_operation_xyz
x,y,z
-x,-y,-z
loop_
_atom_site_type_symbol
_atom_site_label
_atom_site_fract_x
_atom_site_fract_y
_atom_site_fract_z
Si Si1 0.996431 0.146631 0.379761
Si Si2 0.275583 0.802388 0.539393
Si Si3 0.202292 0.171897 0.435447
Si Si4 0.366070 0.265305 0.189063
Si Si5 0.635672 0.112203 0.905680
Si Si6 0.038736 0.722448 0.985747
Si Si7 0.231673 0.037181 0.769640
Si Si8 0.445211 0.796129 0.627107
O O1 0.155666 0.506895 0.408455
O O2 0.083587 0.111196 0.376287
O O3 0.921342 0.105510 0.516767
O O4 0.856515 0.943620 0.257941
O O5 0.339244 0.793129 0.625579
O O6 0.196807 0.843277 0.628712
O O7 0.446019 0.092214 0.490894
O O8 0.325631 0.254103 0.334643
O O9 0.308799 0.445770 0.575989
O O10 0.553318 0.617844 0.189232
O O11 0.372644 0.086051 0.120408
O O12 0.186731 0.042415 0.109246
O O13 0.837523 0.482219 0.963295
O O14 0.566241 0.011564 0.764286
O O15 0.500000 0.000000 0.000000
O O16 0.134276 0.848662 0.865776
O O17 0.000000 0.500000 0.000000
#
# Coordination Sequence:
#
# PCOD9013505 Si02
#       8
#     2   2   2   2   2   2   2   2
#     4  10  23  37  64 102 139 174 222 276 344 396
#     4  10  22  36  65  98 138 174 213 287 336 399
#     4  10  22  43  66 101 138 178 214 286 341 402
#     4  11  25  44  70  96 140 178 228 278 345 396
#     4  11  26  45  72  97 132 181 230 277 333 414
#     4  10  26  46  65  96 132 184 230 277 339 400
#     4  12  23  42  68 102 135 179 232 278 337 405
#     4  10  21  41  64  99 133 173 223 272 343 398
#
# _framework density 22.328759000000002
#
# number of rings (size 3 to 8) (size 9 to 14) (size 15 to 20)
#    0.000    1.500    1.250    2.250    8.750    4.000 
#    0.000    1.250    0.000    0.000    0.000    0.000 
#    0.000    0.000    0.000    0.000    0.000    0.000 
#
# Total GULP energy -89337.026545 kJ/mol
# GULP energy per Si atom -5583.564159 kJ/mol
# Density = 2.227794 g / cm^3
# Si number density = 22.328759 Si / 1000 Ang^3
#
#
#
# Elastic Constant Matrix: (Units=GPa)
#
#
# Indices 1 2 3 4 5 6 
#
# 1 63.8851 27.1497 42.4272 -7.3645 2.2939 15.6940
# 2 27.1497 119.8128 35.2019 -10.7358 2.7398 20.8267
# 3 42.4272 35.2019 75.1426 8.0093 13.7241 8.8787
# 4 -7.3645 -10.7358 8.0093 31.7097 13.6132 9.1975
# 5 2.2939 2.7398 13.7241 13.6132 35.4968 4.6063
# 6 15.6940 20.8267 8.8787 9.1975 4.6063 29.0098
#
#
#
# Elastic Compliance Matrix: (Units=1/GPa)
#
#
# Indices 1 2 3 4 5 6 
#
# 1 0.037322 0.004346 -0.022818 0.022521 0.000493 -0.023546
# 2 0.004346 0.013012 -0.008108 0.011554 -0.000930 -0.012727
# 3 -0.022818 -0.008108 0.031025 -0.018194 -0.004892 0.015214
# 4 0.022521 0.011554 -0.018194 0.060727 -0.014467 -0.031866
# 5 0.000493 -0.000930 -0.004892 -0.014467 0.035542 0.000841
# 6 -0.023546 -0.012727 0.015214 -0.031866 0.000841 0.061660
#
#
# Mechanical properties :
#
#
# Convention : Reuss Voigt Hill
#
# Bulk Modulus (GPa) = 35.45923 52.04424 43.75174
# Shear Modulus (GPa) = 16.56469 29.51402 23.03935
#
# Velocity S-wave (km/s) = 2.72666 3.63959 3.21569
# Velocity P-wave (km/s) = 5.08211 6.40476 5.78138
#
# Compressibility (1/GPa) = 0.02820140
#
# Stress axis : x y z
#
# Youngs Moduli (GPa) = 26.79359 76.84928 32.23255
#
# Poissons Ratio (x) = -0.33402 0.73547
# Poissons Ratio (y) = -0.11646 0.26134
# Poissons Ratio (z) = 0.61136 0.62308
#
# Static dielectric constant tensor:
#      x y z
#    x 1.865460 0.024130 0.049560 
#    y 0.024130 1.802420 0.032270 
#    z 0.049560 0.032270 1.797140 
# 
# From -- ./inp_files/185271.got.cif
#   From: 2010.05.17/outbox.cif.g08.bks.cpg/sg2_93_cif.got.tgz:185271.got - 2010.06.03 11:33:40.
