data_PCOD9013139
_publ_section_title
;
Structure prediction by ZEFSAII (Michael W. Deem and Ramdas Pophale) SiO2 
 PCOD9013139
Probable space group: P -1
;
_chemical_formula_sum "Si O2"
_cell_formula_units_Z 14
_cell_length_a 20.548511
_cell_length_b 7.089357
_cell_length_c 23.349790
_cell_angle_alpha 65.507665
_cell_angle_beta 168.734113
_cell_angle_gamma 115.497916
_cell_volume 599.241154
_symmetry_space_group_name_H-M "P -1"
_symmetry_group_IT_number 2
_symmetry_cell_setting 'triclinic'
loop_
_space_group_symop_operation_xyz
x,y,z
-x,-y,-z
loop_
_atom_site_type_symbol
_atom_site_label
_atom_site_fract_x
_atom_site_fract_y
_atom_site_fract_z
Si Si1 0.564535 0.457299 0.725210
Si Si2 0.895603 0.797292 0.734269
Si Si3 0.706381 0.992837 0.294604
Si Si4 0.775130 0.158168 0.183490
Si Si5 0.746346 0.451049 0.435542
Si Si6 0.705961 0.795528 0.018339
Si Si7 0.397745 0.059627 0.340903
O O1 0.298103 0.315430 0.473130
O O2 0.449255 0.463937 0.690958
O O3 0.554129 0.693157 0.663408
O O4 0.924417 0.366271 0.050748
O O5 0.621734 0.922855 0.512829
O O6 0.198606 0.974773 0.954823
O O7 0.516123 0.188562 0.118172
O O8 0.000000 0.000000 0.500000
O O9 0.902209 0.962457 0.526040
O O10 0.415596 0.814992 0.043470
O O11 0.940811 0.367906 0.331100
O O12 0.500000 0.000000 0.000000
O O13 0.502472 0.359780 0.186333
O O14 0.940941 0.271489 0.651408
O O15 0.500000 0.000000 0.500000
O O16 0.000000 0.000000 0.000000
#
# Coordination Sequence:
#
# PCOD9013139 Si02
#       7
#     2   2   2   2   2   2   2
#     4  12  26  46  76 106 146 197 244 295 370 431
#     4  12  26  46  76 106 146 197 244 295 370 431
#     4  10  21  41  63  91 135 179 228 288 361 422
#     4  10  21  41  63  91 135 179 228 288 361 422
#     4  12  24  42  70 103 138 183 248 305 352 426
#     4  12  24  42  70 103 138 183 248 305 352 426
#     4  12  28  48  74 110 156 184 242 308 352 442
#
# _framework density 23.362881000000002
#
# number of rings (size 3 to 8) (size 9 to 14) (size 15 to 20)
#    0.000    0.571    1.429    6.857    2.000    3.429 
#    0.000   17.143    0.000    0.000    0.000    0.000 
#    0.000    0.000    0.000    0.000    0.000    0.000 
#
# Total GULP energy -78119.727001 kJ/mol
# GULP energy per Si atom -5579.980500 kJ/mol
# Density = 2.330971 g / cm^3
# Si number density = 23.362881 Si / 1000 Ang^3
#
#
#
# Elastic Constant Matrix: (Units=GPa)
#
#
# Indices 1 2 3 4 5 6 
#
# 1 102.2709 62.3099 50.0559 10.8257 7.9777 -15.8555
# 2 62.3099 138.4078 48.6527 2.3974 5.7191 -9.7420
# 3 50.0559 48.6527 175.2384 -5.9213 -12.4936 -22.2404
# 4 10.8257 2.3974 -5.9213 55.3335 -8.3803 -8.0151
# 5 7.9777 5.7191 -12.4936 -8.3803 47.4331 -0.9236
# 6 -15.8555 -9.7420 -22.2404 -8.0151 -0.9236 41.0860
#
#
#
# Elastic Compliance Matrix: (Units=1/GPa)
#
#
# Indices 1 2 3 4 5 6 
#
# 1 0.015623 -0.005642 -0.002935 -0.003272 -0.003252 0.002391
# 2 -0.005642 0.010211 -0.001302 0.000379 -0.000566 -0.000400
# 3 -0.002935 -0.001302 0.007620 0.002388 0.003142 0.003220
# 4 -0.003272 0.000379 0.002388 0.020285 0.004799 0.004185
# 5 -0.003252 -0.000566 0.003142 0.004799 0.023408 0.001774
# 6 0.002391 -0.000400 0.003220 0.004185 0.001774 0.027766
#
#
# Mechanical properties :
#
#
# Convention : Reuss Voigt Hill
#
# Bulk Modulus (GPa) = 73.01411 81.99487 77.50449
# Shear Modulus (GPa) = 38.68908 45.76378 42.22643
#
# Velocity S-wave (km/s) = 4.07382 4.43066 4.25598
# Velocity P-wave (km/s) = 7.31082 7.83242 7.57611
#
# Compressibility (1/GPa) = 0.01369598
#
# Stress axis : x y z
#
# Youngs Moduli (GPa) = 64.00899 97.93033 131.23942
#
# Poissons Ratio (x) = 0.55254 0.38520
# Poissons Ratio (y) = 0.36115 0.17083
# Poissons Ratio (z) = 0.18787 0.12747
#
# Static dielectric constant tensor:
#      x y z
#    x 2.099570 0.085520 -0.024190 
#    y 0.085520 1.976420 -0.070040 
#    z -0.024190 -0.070040 1.924370 
# 
# From -- ./inp_files/102932.got.cif
#   From: 2010.05.17/outbox.cif.g08.bks.cpg/sg2_52_cif.got.tgz:102932.got - 2010.06.03 11:33:40.
