data_PCOD9013602
_publ_section_title
;
Structure prediction by ZEFSAII (Michael W. Deem and Ramdas Pophale) SiO2 
 PCOD9013602
Probable space group: P -1
;
_chemical_formula_sum "Si O2"
_cell_formula_units_Z 14
_cell_length_a 8.234348
_cell_length_b 8.628581
_cell_length_c 9.533330
_cell_angle_alpha 119.684393
_cell_angle_beta 70.971338
_cell_angle_gamma 82.348553
_cell_volume 519.279791
_symmetry_space_group_name_H-M "P -1"
_symmetry_group_IT_number 2
_symmetry_cell_setting 'triclinic'
loop_
_space_group_symop_operation_xyz
x,y,z
-x,-y,-z
loop_
_atom_site_type_symbol
_atom_site_label
_atom_site_fract_x
_atom_site_fract_y
_atom_site_fract_z
Si Si1 0.564320 0.180847 0.577090
Si Si2 0.382047 0.578207 0.928037
Si Si3 0.193497 0.103944 0.425738
Si Si4 0.351030 0.267123 0.229215
Si Si5 0.097882 0.154175 0.047628
Si Si6 0.852653 0.309807 0.421343
Si Si7 0.970867 0.708128 0.156053
O O1 0.406218 0.380676 0.751167
O O2 0.681412 0.238917 0.450008
O O3 0.500000 0.000000 0.500000
O O4 0.710037 0.105864 0.631693
O O5 0.470572 0.701852 0.865645
O O6 0.500000 0.500000 0.000000
O O7 0.176296 0.706526 0.080671
O O8 0.347127 0.165059 0.331229
O O9 0.025707 0.155899 0.385508
O O10 0.106143 0.231576 0.642812
O O11 0.271910 0.156549 0.088872
O O12 0.209930 0.485882 0.392205
O O13 0.930383 0.322216 0.250089
O O14 0.149719 0.167670 0.878875
O O15 0.000000 0.000000 0.000000
O O16 0.000000 0.500000 0.000000
#
# Coordination Sequence:
#
# PCOD9013602 Si02
#       7
#     2   2   2   2   2   2   2
#     4  11  24  40  63  97 134 169 215 275 327 378
#     4  11  25  44  66  95 135 177 216 265 329 392
#     4  11  22  42  70  96 125 175 225 263 319 399
#     4  10  23  45  68  92 130 177 220 260 323 405
#     4  11  23  39  64  99 130 162 215 282 327 369
#     4  10  21  41  65  90 126 176 219 256 319 405
#     4  12  23  41  69 101 132 170 220 275 327 384
#
# _framework density 26.960419000000002
#
# number of rings (size 3 to 8) (size 9 to 14) (size 15 to 20)
#    0.000    1.143    0.000    8.143    0.000    5.714 
#    0.000    5.000    0.000    0.000    0.000    0.000 
#    0.000    0.000    0.000    0.000    0.000    0.000 
#
# Total GULP energy -78398.625400 kJ/mol
# GULP energy per Si atom -5599.901814 kJ/mol
# Density = 2.689906 g / cm^3
# Si number density = 26.960419 Si / 1000 Ang^3
#
#
#
# Elastic Constant Matrix: (Units=GPa)
#
#
# Indices 1 2 3 4 5 6 
#
# 1 87.1779 16.0287 50.8926 0.9651 -5.5847 24.8970
# 2 16.0287 102.3184 41.1604 0.3478 -3.7887 25.8916
# 3 50.8926 41.1604 158.5920 -9.6016 -2.6258 17.2527
# 4 0.9651 0.3478 -9.6016 63.0150 11.2796 -5.2988
# 5 -5.5847 -3.7887 -2.6258 11.2796 39.7364 3.1212
# 6 24.8970 25.8916 17.2527 -5.2988 3.1212 55.7713
#
#
#
# Elastic Compliance Matrix: (Units=1/GPa)
#
#
# Indices 1 2 3 4 5 6 
#
# 1 0.016232 0.001240 -0.004879 -0.002136 0.003209 -0.006695
# 2 0.001240 0.012283 -0.003031 -0.001369 0.001970 -0.005558
# 3 -0.004879 -0.003031 0.008620 0.001673 -0.000969 0.001132
# 4 -0.002136 -0.001369 0.001673 0.017404 -0.005499 0.003033
# 5 0.003209 0.001970 -0.000969 -0.005499 0.027625 -0.004116
# 6 -0.006695 -0.005558 0.001132 0.003033 -0.004116 0.023668
#
#
# Mechanical properties :
#
#
# Convention : Reuss Voigt Hill
#
# Bulk Modulus (GPa) = 42.02549 62.69464 52.36007
# Shear Modulus (GPa) = 39.33816 47.70497 43.52157
#
# Velocity S-wave (km/s) = 3.82397 4.21104 4.02216
# Velocity P-wave (km/s) = 5.92610 6.85191 6.40575
#
# Compressibility (1/GPa) = 0.02379508
#
# Stress axis : x y z
#
# Youngs Moduli (GPa) = 61.60592 81.41513 116.01008
#
# Poissons Ratio (x) = -0.10096 0.56597
# Poissons Ratio (y) = -0.07640 0.35166
# Poissons Ratio (z) = 0.30055 0.24680
#
# Static dielectric constant tensor:
#      x y z
#    x 2.184600 0.033220 0.015180 
#    y 0.033220 2.063220 -0.010240 
#    z 0.015180 -0.010240 2.088190 
# 
# From -- ./inp_files/159506.got.cif
#   From: 2010.05.17/outbox.cif.g08.bks.cpg/sg2_80_cif.got.tgz:159506.got - 2010.06.03 11:33:40.
