data_PCOD9013645
_publ_section_title
;
Structure prediction by ZEFSAII (Michael W. Deem and Ramdas Pophale) SiO2 
 PCOD9013645
Probable space group: P -1
;
_chemical_formula_sum "Si O2"
_cell_formula_units_Z 16
_cell_length_a 17.924286
_cell_length_b 12.585017
_cell_length_c 8.017281
_cell_angle_alpha 51.521830
_cell_angle_beta 100.465581
_cell_angle_gamma 143.519001
_cell_volume 613.567905
_symmetry_space_group_name_H-M "P -1"
_symmetry_group_IT_number 2
_symmetry_cell_setting 'triclinic'
loop_
_space_group_symop_operation_xyz
x,y,z
-x,-y,-z
loop_
_atom_site_type_symbol
_atom_site_label
_atom_site_fract_x
_atom_site_fract_y
_atom_site_fract_z
Si Si1 0.868093 0.612707 0.673060
Si Si2 0.732551 0.037832 0.518725
Si Si3 0.670521 0.501499 0.841557
Si Si4 0.671985 0.786615 0.395012
Si Si5 0.123668 0.647081 0.188985
Si Si6 0.797640 0.648663 0.287607
Si Si7 0.694155 0.196771 0.587964
Si Si8 0.739992 0.776503 0.911845
O O1 0.821100 0.629750 0.793577
O O2 0.795730 0.344344 0.901772
O O3 0.770924 0.548031 0.558597
O O4 0.063632 0.915529 0.386881
O O5 0.690772 0.120211 0.482434
O O6 0.938899 0.366438 0.302831
O O7 0.671411 0.877383 0.475968
O O8 0.682818 0.839601 0.825897
O O9 0.721948 0.715642 0.542446
O O10 0.641154 0.526354 0.983515
O O11 0.489487 0.138682 0.078291
O O12 0.500000 0.500000 0.500000
O O13 0.799467 0.080237 0.047745
O O14 0.157382 0.634788 0.398031
O O15 0.730950 0.414792 0.380956
O O16 0.721553 0.669529 0.181981
O O17 0.000000 0.000000 0.000000
#
# Coordination Sequence:
#
# PCOD9013645 Si02
#       8
#     2   2   2   2   2   2   2   2
#     4   9  20  39  63  88 122 166 206 257 310 372
#     4  10  23  41  67  90 127 171 210 261 314 374
#     4  11  23  39  59  92 128 164 206 257 318 373
#     4  11  23  43  61  95 131 161 215 262 317 379
#     4  10  21  41  65  92 123 165 216 258 310 379
#     4   9  20  39  61  89 121 158 213 258 306 376
#     4  11  23  40  61  93 131 166 211 257 317 376
#     4   9  20  39  62  91 122 159 213 257 309 374
#
# _framework density 26.076982000000001
#
# number of rings (size 3 to 8) (size 9 to 14) (size 15 to 20)
#    0.000    2.000    1.250    1.875    0.000    8.500 
#    2.250    0.000    0.000    0.000    0.000    0.000 
#    0.000    0.000    0.000    0.000    0.000    0.000 
#
# Total GULP energy -89358.949954 kJ/mol
# GULP energy per Si atom -5584.934372 kJ/mol
# Density = 2.601763 g / cm^3
# Si number density = 26.076982 Si / 1000 Ang^3
#
#
#
# Elastic Constant Matrix: (Units=GPa)
#
#
# Indices 1 2 3 4 5 6 
#
# 1 99.6147 15.5823 34.9479 -17.2913 10.4638 -24.4814
# 2 15.5823 103.4222 29.9757 -29.4379 -2.0732 -7.0998
# 3 34.9479 29.9757 102.5341 -24.0323 31.5920 1.4456
# 4 -17.2913 -29.4379 -24.0323 46.2475 -4.9078 8.0213
# 5 10.4638 -2.0732 31.5920 -4.9078 38.9131 -8.4834
# 6 -24.4814 -7.0998 1.4456 8.0213 -8.4834 42.4908
#
#
#
# Elastic Compliance Matrix: (Units=1/GPa)
#
#
# Indices 1 2 3 4 5 6 
#
# 1 0.013994 0.000596 -0.005605 0.001507 0.002894 0.008646
# 2 0.000596 0.012864 -0.004098 0.006406 0.005197 0.002461
# 3 -0.005605 -0.004098 0.018836 0.004947 -0.015240 -0.008531
# 4 0.001507 0.006406 0.004947 0.029401 -0.001250 -0.004029
# 5 0.002894 0.005197 -0.015240 -0.001250 0.039864 0.011249
# 6 0.008646 0.002461 -0.008531 -0.004029 0.011249 0.032224
#
#
# Mechanical properties :
#
#
# Convention : Reuss Voigt Hill
#
# Bulk Modulus (GPa) = 36.38802 51.84255 44.11528
# Shear Modulus (GPa) = 28.64401 40.53463 34.58932
#
# Velocity S-wave (km/s) = 3.31787 3.94689 3.64597
# Velocity P-wave (km/s) = 5.35369 6.37921 5.88882
#
# Compressibility (1/GPa) = 0.02748157
#
# Stress axis : x y z
#
# Youngs Moduli (GPa) = 71.45833 77.73881 53.08842
#
# Poissons Ratio (x) = -0.04637 0.29753
# Poissons Ratio (y) = -0.04262 0.21757
# Poissons Ratio (z) = 0.40049 0.31860
#
# Static dielectric constant tensor:
#      x y z
#    x 2.094490 -0.024760 -0.084080 
#    y -0.024760 2.130110 0.015870 
#    z -0.084080 0.015870 2.129900 
# 
# From -- ./inp_files/332914.got.cif
#   From: 2010.05.17/outbox.cif.g08.bks.cpg/sg2_167_cif.got.tgz:332914.got - 2010.06.03 11:33:40.
