data_PCOD9013590
_publ_section_title
;
Structure prediction by ZEFSAII (Michael W. Deem and Ramdas Pophale) SiO2 
 PCOD9013590
Probable space group: P -1
;
_chemical_formula_sum "Si O2"
_cell_formula_units_Z 14
_cell_length_a 13.248000
_cell_length_b 5.056591
_cell_length_c 12.336173
_cell_angle_alpha 89.405327
_cell_angle_beta 41.626807
_cell_angle_gamma 94.578715
_cell_volume 544.132944
_symmetry_space_group_name_H-M "P -1"
_symmetry_group_IT_number 2
_symmetry_cell_setting 'triclinic'
loop_
_space_group_symop_operation_xyz
x,y,z
-x,-y,-z
loop_
_atom_site_type_symbol
_atom_site_label
_atom_site_fract_x
_atom_site_fract_y
_atom_site_fract_z
Si Si1 0.186412 0.124328 0.516429
Si Si2 0.745842 0.116029 0.737585
Si Si3 0.251268 0.396670 0.114347
Si Si4 0.142921 0.723706 0.868463
Si Si5 0.945240 0.014177 0.870532
Si Si6 0.451214 0.586018 0.249178
Si Si7 0.392354 0.806442 0.510182
O O1 0.297618 0.376532 0.382589
O O2 0.041017 0.187115 0.700799
O O3 0.139811 0.935954 0.451774
O O4 0.289434 0.968013 0.514107
O O5 0.791457 0.370468 0.775520
O O6 0.596722 0.177122 0.788857
O O7 0.718955 0.852905 0.833032
O O8 0.130954 0.255586 0.124396
O O9 0.405440 0.508065 0.925398
O O10 0.277703 0.634631 0.686996
O O11 0.175768 0.850052 0.960868
O O12 0.075187 0.945464 0.849320
O O13 0.000000 0.500000 0.000000
O O14 0.484783 0.661057 0.347463
O O15 0.500000 0.000000 0.500000
#
# Coordination Sequence:
#
# PCOD9013590 Si02
#       7
#     2   2   2   2   2   2   2
#     4  10  23  43  64  92 136 171 215 267 331 381
#     4  11  25  44  66  98 132 174 215 272 322 379
#     4  12  26  41  70  97 132 170 224 265 317 390
#     4  10  21  41  65  89 134 170 212 266 331 384
#     4  10  24  42  62  98 127 173 216 269 325 387
#     4  11  23  42  67  94 132 173 215 268 329 381
#     4  10  22  38  63  97 129 167 219 268 322 385
#
# _framework density 25.729009000000001
#
# number of rings (size 3 to 8) (size 9 to 14) (size 15 to 20)
#    0.000    1.429    1.429    2.571    6.000    2.857 
#    0.000    0.000    0.000    0.000    0.000    0.000 
#    0.000    0.000    0.000    0.000    0.000    0.000 
#
# Total GULP energy -78327.535349 kJ/mol
# GULP energy per Si atom -5594.823953 kJ/mol
# Density = 2.567045 g / cm^3
# Si number density = 25.729009 Si / 1000 Ang^3
#
#
#
# Elastic Constant Matrix: (Units=GPa)
#
#
# Indices 1 2 3 4 5 6 
#
# 1 98.3402 40.7357 61.8151 25.8256 15.8916 12.2250
# 2 40.7357 126.2007 53.3347 2.6191 33.0582 22.1837
# 3 61.8151 53.3347 120.7669 -11.2484 50.2937 13.2807
# 4 25.8256 2.6191 -11.2484 36.0409 24.8493 13.3928
# 5 15.8916 33.0582 50.2937 24.8493 21.3507 9.4812
# 6 12.2250 22.1837 13.2807 13.3928 9.4812 51.0239
#
#
#
# Elastic Compliance Matrix: (Units=1/GPa)
#
#
# Indices 1 2 3 4 5 6 
#
# 1 0.010863 0.000133 0.001436 0.003944 -0.015759 -0.001141
# 2 0.000133 0.010114 -0.005612 -0.003363 0.002508 -0.002552
# 3 0.001436 -0.005612 0.001866 -0.012015 0.016450 0.001707
# 4 0.003944 -0.003363 -0.012015 0.002469 0.028741 -0.002344
# 5 -0.015759 0.002508 0.016450 0.028741 -0.014668 -0.006415
# 6 -0.001141 -0.002552 0.001707 -0.002344 -0.006415 0.022345
#
#
# Mechanical properties :
#
#
# Convention : Reuss Voigt Hill
#
# Bulk Modulus (GPa) = 67.75562 73.00874 70.38218
# Shear Modulus (GPa) = 108.71022 34.31128 71.51075
#
# Velocity S-wave (km/s) = 6.50721 3.65576 5.27770
# Velocity P-wave (km/s) = 9.10219 6.80126 8.03452
#
# Compressibility (1/GPa) = 0.01475892
#
# Stress axis : x y z
#
# Youngs Moduli (GPa) = 92.05158 98.87345 535.80861
#
# Poissons Ratio (x) = -0.01318 -0.76965
# Poissons Ratio (y) = -0.01227 3.00702
# Poissons Ratio (z) = -0.13222 0.55489
#
# Static dielectric constant tensor:
#      x y z
#    x 2.014840 0.001870 0.016900 
#    y 0.001870 2.051900 0.046960 
#    z 0.016900 0.046960 2.058670 
# 
# From -- ./inp_files/38550.got.cif
#   From: 2010.05.17/outbox.cif.g08.bks.cpg/sg2_20_cif.got.tgz:38550.got - 2010.06.03 11:33:40.
