data_PCOD9013430
_publ_section_title
;
Structure prediction by ZEFSAII (Michael W. Deem and Ramdas Pophale) SiO2 
 PCOD9013430
Probable space group: P -1
;
_chemical_formula_sum "Si O2"
_cell_formula_units_Z 12
_cell_length_a 11.756871
_cell_length_b 10.169081
_cell_length_c 5.922348
_cell_angle_alpha 77.597803
_cell_angle_beta 129.572845
_cell_angle_gamma 97.724512
_cell_volume 533.041049
_symmetry_space_group_name_H-M "P -1"
_symmetry_group_IT_number 2
_symmetry_cell_setting 'triclinic'
loop_
_space_group_symop_operation_xyz
x,y,z
-x,-y,-z
loop_
_atom_site_type_symbol
_atom_site_label
_atom_site_fract_x
_atom_site_fract_y
_atom_site_fract_z
Si Si1 0.011591 0.566961 0.236844
Si Si2 0.168849 0.085651 0.942040
Si Si3 0.100727 0.819112 0.714718
Si Si4 0.298893 0.622333 0.772934
Si Si5 0.825736 0.764863 0.709846
Si Si6 0.373028 0.313109 0.901297
O O1 0.174449 0.629118 0.420812
O O2 0.000000 0.500000 0.500000
O O3 0.000000 0.500000 0.000000
O O4 0.878759 0.671002 0.015357
O O5 0.291663 0.186410 0.957867
O O6 0.999237 0.126932 0.642573
O O7 0.182730 0.940892 0.896233
O O8 0.194275 0.093773 0.240358
O O9 0.214068 0.700674 0.837921
O O10 0.965893 0.772333 0.719862
O O11 0.334842 0.462147 0.896531
O O12 0.451049 0.694044 0.879982
O O13 0.692543 0.698791 0.431623
#
# Coordination Sequence:
#
# PCOD9013430 Si02
#       6
#     2   2   2   2   2   2
#     4  12  23  40  69  99 134 176 231 281 339 408
#     4  10  21  41  64  95 128 176 227 277 336 400
#     4  10  22  39  67  94 130 173 231 279 329 404
#     4  11  22  43  63 100 132 177 218 281 344 403
#     4  11  21  40  66  95 129 175 224 283 335 399
#     4  10  24  42  63  94 140 172 219 278 347 405
#
# _framework density 22.512336999999999
#
# number of rings (size 3 to 8) (size 9 to 14) (size 15 to 20)
#    0.000    1.333    3.333    2.500    0.000    0.667 
#    6.000    3.333    0.000    0.000    0.000    0.000 
#    0.000    0.000    0.000    0.000    0.000    0.000 
#
# Total GULP energy -66864.603639 kJ/mol
# GULP energy per Si atom -5572.050303 kJ/mol
# Density = 2.246110 g / cm^3
# Si number density = 22.512337 Si / 1000 Ang^3
#
#
#
# Elastic Constant Matrix: (Units=GPa)
#
#
# Indices 1 2 3 4 5 6 
#
# 1 108.9836 50.9767 71.4652 34.5235 21.9139 -2.1808
# 2 50.9767 119.5684 50.8963 51.2166 0.1169 -12.2312
# 3 71.4652 50.8963 109.7122 30.0323 13.7943 0.3116
# 4 34.5235 51.2166 30.0323 36.4317 4.6430 -7.8402
# 5 21.9139 0.1169 13.7943 4.6430 40.2971 12.2670
# 6 -2.1808 -12.2312 0.3116 -7.8402 12.2670 42.8924
#
#
#
# Elastic Compliance Matrix: (Units=1/GPa)
#
#
# Indices 1 2 3 4 5 6 
#
# 1 0.019871 -0.000213 -0.009329 -0.009707 -0.006860 0.001205
# 2 -0.000213 0.022106 -0.002645 -0.029328 0.004432 -0.000316
# 3 -0.009329 -0.002645 0.016896 -0.001730 0.000004 -0.001669
# 4 -0.009707 -0.029328 -0.001730 0.081715 -0.005820 0.007757
# 5 -0.006860 0.004432 0.000004 -0.005820 0.032037 -0.009311
# 6 0.001205 -0.000316 -0.001669 0.007757 -0.009311 0.027378
#
#
# Mechanical properties :
#
#
# Convention : Reuss Voigt Hill
#
# Bulk Modulus (GPa) = 28.98502 76.10451 52.54477
# Shear Modulus (GPa) = 21.19768 34.91931 28.05849
#
# Velocity S-wave (km/s) = 3.07188 3.94270 3.53421
# Velocity P-wave (km/s) = 5.04828 7.38956 6.32814
#
# Compressibility (1/GPa) = 0.03450058
#
# Stress axis : x y z
#
# Youngs Moduli (GPa) = 50.32440 45.23729 59.18610
#
# Poissons Ratio (x) = 0.00963 0.55212
# Poissons Ratio (y) = 0.01071 0.15652
# Poissons Ratio (z) = 0.46946 0.11963
#
# Static dielectric constant tensor:
#      x y z
#    x 1.883300 -0.027430 -0.089120 
#    y -0.027430 2.081850 0.004060 
#    z -0.089120 0.004060 1.872530 
# 
# From -- ./inp_files/62350.got.cif
#   From: 2010.05.17/outbox.cif.g08.bks.cpg/sg2_32_cif.got.tgz:62350.got - 2010.06.03 11:33:40.
