data_PCOD9013786
_publ_section_title
;
Structure prediction by ZEFSAII (Michael W. Deem and Ramdas Pophale) SiO2 
 PCOD9013786
Probable space group: P -1
;
_chemical_formula_sum "Si O2"
_cell_formula_units_Z 16
_cell_length_a 14.518881
_cell_length_b 6.528767
_cell_length_c 11.025157
_cell_angle_alpha 69.475072
_cell_angle_beta 89.524241
_cell_angle_gamma 52.220692
_cell_volume 742.860791
_symmetry_space_group_name_H-M "P -1"
_symmetry_group_IT_number 2
_symmetry_cell_setting 'triclinic'
loop_
_space_group_symop_operation_xyz
x,y,z
-x,-y,-z
loop_
_atom_site_type_symbol
_atom_site_label
_atom_site_fract_x
_atom_site_fract_y
_atom_site_fract_z
Si Si1 0.634888 0.893614 0.511977
Si Si2 0.283451 0.871961 0.145789
Si Si3 0.723184 0.585198 0.319763
Si Si4 0.092348 0.923177 0.735387
Si Si5 0.899489 0.470242 0.981927
Si Si6 0.445604 0.544083 0.712096
Si Si7 0.150299 0.639763 0.251775
Si Si8 0.706071 0.096631 0.139052
O O1 0.701548 0.689124 0.436027
O O2 0.728308 0.688825 0.659042
O O3 0.500000 0.000000 0.500000
O O4 0.615912 0.179962 0.430691
O O5 0.410769 0.666987 0.255243
O O6 0.195041 0.820431 0.206131
O O7 0.224635 0.200938 0.086605
O O8 0.301556 0.799787 0.017282
O O9 0.844036 0.265710 0.347575
O O10 0.610998 0.603022 0.282704
O O11 0.719302 0.815450 0.196399
O O12 0.178973 0.976942 0.777596
O O13 0.096680 0.717928 0.875198
O O14 0.954084 0.217138 0.675102
O O15 0.910956 0.340265 0.877690
O O16 0.000000 0.500000 0.000000
O O17 0.407285 0.667761 0.823709
#
# Coordination Sequence:
#
# PCOD9013786 Si02
#       8
#     2   2   2   2   2   2   2   2
#     4  11  25  47  68  94 137 176 224 273 322 393
#     4  12  22  38  67 101 133 177 216 269 344 392
#     4  10  24  44  69  94 133 178 220 278 322 382
#     4  11  22  43  66  96 137 168 219 275 332 396
#     4  12  24  39  65 104 134 171 217 274 336 394
#     4  10  24  42  66  97 131 177 223 277 323 385
#     4  12  26  41  68 101 135 181 215 270 337 389
#     4  10  21  41  65  96 137 172 215 277 335 392
#
# _framework density 21.538357000000001
#
# number of rings (size 3 to 8) (size 9 to 14) (size 15 to 20)
#    0.000    1.000    5.000    1.500    1.750    2.500 
#    0.000    5.625    0.000    0.000    0.000    0.000 
#    0.000    0.000    0.000    0.000    0.000    0.000 
#
# Total GULP energy -89464.366020 kJ/mol
# GULP energy per Si atom -5591.522876 kJ/mol
# Density = 2.148933 g / cm^3
# Si number density = 21.538357 Si / 1000 Ang^3
#
#
#
# Elastic Constant Matrix: (Units=GPa)
#
#
# Indices 1 2 3 4 5 6 
#
# 1 131.3257 43.3218 13.5368 -12.3742 -2.6595 -0.3013
# 2 43.3218 67.8781 18.5969 -15.3311 12.1135 -2.2027
# 3 13.5368 18.5969 49.7400 -6.5062 4.7398 -6.0553
# 4 -12.3742 -15.3311 -6.5062 28.1233 -4.8693 -1.9205
# 5 -2.6595 12.1135 4.7398 -4.8693 24.3731 -8.3080
# 6 -0.3013 -2.2027 -6.0553 -1.9205 -8.3080 37.5538
#
#
#
# Elastic Compliance Matrix: (Units=1/GPa)
#
#
# Indices 1 2 3 4 5 6 
#
# 1 0.010208 -0.006970 -0.000362 0.001577 0.005256 0.000858
# 2 -0.006970 0.024081 -0.005369 0.006833 -0.010851 -0.001560
# 3 -0.000362 -0.005369 0.022968 0.002436 -0.000167 0.003473
# 4 0.001577 0.006833 0.002436 0.041897 0.006141 0.004307
# 5 0.005256 -0.010851 -0.000167 0.006141 0.052077 0.011214
# 6 0.000858 -0.001560 0.003473 0.004307 0.011214 0.029805
#
#
# Mechanical properties :
#
#
# Convention : Reuss Voigt Hill
#
# Bulk Modulus (GPa) = 31.39223 44.42830 37.91026
# Shear Modulus (GPa) = 23.03548 29.57594 26.30571
#
# Velocity S-wave (km/s) = 3.27388 3.70966 3.49856
# Velocity P-wave (km/s) = 5.37566 6.24668 5.82747
#
# Compressibility (1/GPa) = 0.03185501
#
# Stress axis : x y z
#
# Youngs Moduli (GPa) = 97.96028 41.52687 43.53932
#
# Poissons Ratio (x) = 0.28944 0.01578
# Poissons Ratio (y) = 0.68277 0.23375
# Poissons Ratio (z) = 0.03550 0.22294
#
# Static dielectric constant tensor:
#      x y z
#    x 1.745340 -0.027780 0.003040 
#    y -0.027780 1.808380 0.008100 
#    z 0.003040 0.008100 1.788110 
# 
# From -- ./inp_files/68986.got.cif
#   From: 2010.05.17/outbox.cif.g08.bks.cpg/sg2_35_cif.got.tgz:68986.got - 2010.06.03 11:33:40.
