data_PCOD9013914
_publ_section_title
;
Structure prediction by ZEFSAII (Michael W. Deem and Ramdas Pophale) SiO2 
 PCOD9013914
Probable space group: P -1
;
_chemical_formula_sum "Si O2"
_cell_formula_units_Z 16
_cell_length_a 11.429626
_cell_length_b 11.208174
_cell_length_c 8.828327
_cell_angle_alpha 45.558038
_cell_angle_beta 58.879491
_cell_angle_gamma 69.191004
_cell_volume 691.208546
_symmetry_space_group_name_H-M "P -1"
_symmetry_group_IT_number 2
_symmetry_cell_setting 'triclinic'
loop_
_space_group_symop_operation_xyz
x,y,z
-x,-y,-z
loop_
_atom_site_type_symbol
_atom_site_label
_atom_site_fract_x
_atom_site_fract_y
_atom_site_fract_z
Si Si1 0.820319 0.388270 0.386985
Si Si2 0.909896 0.706118 0.218123
Si Si3 0.310042 0.084752 0.691308
Si Si4 0.457061 0.129212 0.256449
Si Si5 0.701031 0.619155 0.047231
Si Si6 0.639625 0.399400 0.008333
Si Si7 0.022565 0.178674 0.246997
Si Si8 0.837844 0.240490 0.805057
O O1 0.908508 0.524992 0.301416
O O2 0.796943 0.244693 0.653569
O O3 0.905363 0.303480 0.271695
O O4 0.697753 0.498311 0.303216
O O5 0.758285 0.756951 0.325291
O O6 0.007508 0.724142 0.281165
O O7 0.967666 0.825449 0.938159
O O8 0.331168 0.109548 0.474230
O O9 0.458476 0.032296 0.705822
O O10 0.206252 0.935375 0.936664
O O11 0.417569 0.253418 0.037100
O O12 0.572438 0.215232 0.212545
O O13 0.712591 0.485875 0.022386
O O14 0.834953 0.734738 0.874016
O O15 0.747104 0.385389 0.814274
O O16 0.500000 0.500000 0.000000
O O17 0.000000 0.000000 0.500000
#
# Coordination Sequence:
#
# PCOD9013914 Si02
#       8
#     2   2   2   2   2   2   2   2
#     4  11  24  40  60  96 132 163 212 265 315 391
#     4  11  23  39  65  94 128 172 215 266 321 380
#     4  10  22  40  63  97 128 160 220 271 316 378
#     4   9  21  40  68  94 127 167 220 266 314 383
#     4  10  21  41  66  90 126 174 211 260 323 377
#     4   9  19  38  65  90 121 166 217 258 307 379
#     4  11  24  41  62  93 138 170 206 261 333 389
#     4  11  22  37  64  97 127 166 214 267 322 377
#
# _framework density 23.147860999999999
#
# number of rings (size 3 to 8) (size 9 to 14) (size 15 to 20)
#    0.000    1.750    0.000    4.500    7.000    0.000 
#    2.250    8.125    0.000    0.000    0.000    0.000 
#    0.000    0.000    0.000    0.000    0.000    0.000 
#
# Total GULP energy -89188.984107 kJ/mol
# GULP energy per Si atom -5574.311507 kJ/mol
# Density = 2.309518 g / cm^3
# Si number density = 23.147861 Si / 1000 Ang^3
#
#
#
# Elastic Constant Matrix: (Units=GPa)
#
#
# Indices 1 2 3 4 5 6 
#
# 1 81.8876 32.8027 30.0020 4.8061 24.7469 -10.5032
# 2 32.8027 87.8836 17.2883 10.0356 5.9405 -26.8518
# 3 30.0020 17.2883 78.2817 -4.4190 19.3986 -5.3410
# 4 4.8061 10.0356 -4.4190 36.1939 0.1187 -3.9572
# 5 24.7469 5.9405 19.3986 0.1187 30.8920 -4.0598
# 6 -10.5032 -26.8518 -5.3410 -3.9572 -4.0598 32.6744
#
#
#
# Elastic Compliance Matrix: (Units=1/GPa)
#
#
# Indices 1 2 3 4 5 6 
#
# 1 0.019534 -0.005905 -0.003193 -0.001396 -0.012612 -0.000832
# 2 -0.005905 0.017913 -0.002057 -0.003065 0.004251 0.012644
# 3 -0.003193 -0.002057 0.016425 0.002958 -0.007451 -0.000599
# 4 -0.001396 -0.003065 0.002958 0.029138 -0.000127 0.001029
# 5 -0.012612 0.004251 -0.007451 -0.000127 0.046865 0.004029
# 6 -0.000832 0.012644 -0.000599 0.001029 0.004029 0.041255
#
#
# Mechanical properties :
#
#
# Convention : Reuss Voigt Hill
#
# Bulk Modulus (GPa) = 31.68294 45.35989 38.52142
# Shear Modulus (GPa) = 24.51462 31.14939 27.83200
#
# Velocity S-wave (km/s) = 3.25783 3.67232 3.47126
# Velocity P-wave (km/s) = 5.27903 6.13347 5.72222
#
# Compressibility (1/GPa) = 0.03156273
#
# Stress axis : x y z
#
# Youngs Moduli (GPa) = 51.19382 55.82491 60.88402
#
# Poissons Ratio (x) = 0.32965 0.19438
# Poissons Ratio (y) = 0.30231 0.12522
# Poissons Ratio (z) = 0.16344 0.11481
#
# Static dielectric constant tensor:
#      x y z
#    x 1.899440 -0.026300 0.020210 
#    y -0.026300 2.080870 -0.102340 
#    z 0.020210 -0.102340 2.000430 
# 
# From -- ./inp_files/261494.got.cif
#   From: 2010.05.17/outbox.cif.g08.bks.cpg/sg2_131_cif.got.tgz:261494.got - 2010.06.03 11:33:40.
