data_PCOD9013407
_publ_section_title
;
Structure prediction by ZEFSAII (Michael W. Deem and Ramdas Pophale) SiO2 
 PCOD9013407
Probable space group: P -1
;
_chemical_formula_sum "Si O2"
_cell_formula_units_Z 16
_cell_length_a 8.199899
_cell_length_b 14.389927
_cell_length_c 12.716485
_cell_angle_alpha 48.141127
_cell_angle_beta 137.729130
_cell_angle_gamma 129.506858
_cell_volume 720.705704
_symmetry_space_group_name_H-M "P -1"
_symmetry_group_IT_number 2
_symmetry_cell_setting 'triclinic'
loop_
_space_group_symop_operation_xyz
x,y,z
-x,-y,-z
loop_
_atom_site_type_symbol
_atom_site_label
_atom_site_fract_x
_atom_site_fract_y
_atom_site_fract_z
Si Si1 0.718793 0.060484 0.921337
Si Si2 0.835371 0.826758 0.248909
Si Si3 0.825494 0.915388 0.392053
Si Si4 0.674537 0.380546 0.881228
Si Si5 0.921227 0.753096 0.899947
Si Si6 0.631270 0.666240 0.620319
Si Si7 0.098615 0.695439 0.331733
Si Si8 0.398083 0.378500 0.967108
O O1 0.419296 0.034757 0.785246
O O2 0.842548 0.131126 0.034416
O O3 0.818638 0.171176 0.797691
O O4 0.794209 0.926228 0.063600
O O5 0.947042 0.907961 0.343252
O O6 0.558781 0.724182 0.208131
O O7 0.016355 0.742064 0.366436
O O8 0.737677 0.766381 0.502164
O O9 0.000000 0.000000 0.500000
O O10 0.930450 0.352686 0.983499
O O11 0.688714 0.528518 0.749158
O O12 0.594670 0.361985 0.982762
O O13 0.729968 0.731135 0.924982
O O14 0.750965 0.747995 0.719851
O O15 0.330015 0.637424 0.494667
O O16 0.844858 0.606864 0.224474
O O17 0.500000 0.500000 0.000000
#
# Coordination Sequence:
#
# PCOD9013407 Si02
#       8
#     2   2   2   2   2   2   2   2
#     4  10  21  43  70  90 129 170 223 270 325 390
#     4  11  22  42  69  96 124 175 224 265 325 399
#     4  11  24  42  63  98 130 169 214 275 329 380
#     4  11  24  42  69 100 129 177 225 261 330 399
#     4  11  22  44  69  95 134 177 218 274 322 393
#     4  11  24  43  62  97 140 168 212 273 330 387
#     4   9  23  43  64  95 132 169 214 276 334 378
#     4  10  21  41  64  94 129 170 223 260 318 393
#
# _framework density 22.200464
#
# number of rings (size 3 to 8) (size 9 to 14) (size 15 to 20)
#    0.000    1.500    2.500    1.875    1.750    2.500 
#    4.500    6.875    0.000    0.000    0.000    0.000 
#    0.000    0.000    0.000    0.000    0.000    0.000 
#
# Total GULP energy -89204.500205 kJ/mol
# GULP energy per Si atom -5575.281263 kJ/mol
# Density = 2.214993 g / cm^3
# Si number density = 22.200464 Si / 1000 Ang^3
#
#
#
# Elastic Constant Matrix: (Units=GPa)
#
#
# Indices 1 2 3 4 5 6 
#
# 1 65.9306 9.1490 14.4518 -7.4088 -8.8683 -7.9492
# 2 9.1490 77.3153 25.3998 16.7531 5.5513 -6.3303
# 3 14.4518 25.3998 62.9572 4.9542 -10.5874 -5.9160
# 4 -7.4088 16.7531 4.9542 52.0055 -1.5147 -9.8341
# 5 -8.8683 5.5513 -10.5874 -1.5147 26.8075 1.0092
# 6 -7.9492 -6.3303 -5.9160 -9.8341 1.0092 29.6847
#
#
#
# Elastic Compliance Matrix: (Units=1/GPa)
#
#
# Indices 1 2 3 4 5 6 
#
# 1 0.017872 -0.002438 -0.002042 0.004678 0.005679 0.005215
# 2 -0.002438 0.017344 -0.007279 -0.005453 -0.007583 0.000046
# 3 -0.002042 -0.007279 0.020947 0.000701 0.009069 0.001999
# 4 0.004678 -0.005453 0.000701 0.023170 0.003970 0.007770
# 5 0.005679 -0.007583 0.009069 0.003970 0.044501 0.001513
# 6 0.005215 0.000046 0.001999 0.007770 0.001513 0.038015
#
#
# Mechanical properties :
#
#
# Convention : Reuss Voigt Hill
#
# Bulk Modulus (GPa) = 30.63357 33.80047 32.21702
# Shear Modulus (GPa) = 25.47780 32.17971 28.82875
#
# Velocity S-wave (km/s) = 3.39134 3.81137 3.60747
# Velocity P-wave (km/s) = 5.40032 5.88446 5.64758
#
# Compressibility (1/GPa) = 0.03264393
#
# Stress axis : x y z
#
# Youngs Moduli (GPa) = 55.95441 57.65705 47.73906
#
# Poissons Ratio (x) = 0.14059 0.09747
# Poissons Ratio (y) = 0.13644 0.34751
# Poissons Ratio (z) = 0.11424 0.41971
#
# Static dielectric constant tensor:
#      x y z
#    x 1.876810 0.055650 -0.029060 
#    y 0.055650 1.857650 -0.008750 
#    z -0.029060 -0.008750 1.805290 
# 
# From -- ./inp_files/271915.got.cif
#   From: 2010.05.17/outbox.cif.g08.bks.cpg/sg2_136_cif.got.tgz:271915.got - 2010.06.03 11:33:40.
