data_PCOD9013149
_publ_section_title
;
Structure prediction by ZEFSAII (Michael W. Deem and Ramdas Pophale) SiO2 
 PCOD9013149
Probable space group: P -1
;
_chemical_formula_sum "Si O2"
_cell_formula_units_Z 16
_cell_length_a 7.513495
_cell_length_b 18.453967
_cell_length_c 11.668672
_cell_angle_alpha 54.491947
_cell_angle_beta 124.932759
_cell_angle_gamma 145.229808
_cell_volume 735.018201
_symmetry_space_group_name_H-M "P -1"
_symmetry_group_IT_number 2
_symmetry_cell_setting 'triclinic'
loop_
_space_group_symop_operation_xyz
x,y,z
-x,-y,-z
loop_
_atom_site_type_symbol
_atom_site_label
_atom_site_fract_x
_atom_site_fract_y
_atom_site_fract_z
Si Si1 0.841289 0.119750 0.574842
Si Si2 0.281656 0.099547 0.644549
Si Si3 0.713589 0.802567 0.661307
Si Si4 0.634135 0.940804 0.046799
Si Si5 0.836639 0.300707 0.298550
Si Si6 0.111882 0.166995 0.868183
Si Si7 0.831123 0.429245 0.882493
Si Si8 0.052700 0.730167 0.888775
O O1 0.953682 0.250459 0.457032
O O2 0.062828 0.109959 0.612831
O O3 0.868214 0.125172 0.717335
O O4 0.500000 0.000000 0.500000
O O5 0.448565 0.203512 0.507166
O O6 0.449534 0.106746 0.809826
O O7 0.057665 0.953884 0.646722
O O8 0.515748 0.779736 0.716010
O O9 0.763664 0.711696 0.775151
O O10 0.762915 0.889671 0.081870
O O11 0.318153 0.866275 0.927961
O O12 0.920623 0.094658 0.981723
O O13 0.829545 0.266677 0.195571
O O14 0.047473 0.452060 0.257367
O O15 0.448363 0.319260 0.857674
O O16 0.958374 0.367648 0.956516
O O17 0.000000 0.500000 0.000000
#
# Coordination Sequence:
#
# PCOD9013149 Si02
#       8
#     2   2   2   2   2   2   2   2
#     4  11  19  35  63  92 124 160 199 253 319 367
#     4  10  22  36  55  93 127 157 200 253 316 378
#     4  11  23  36  61  91 127 157 210 248 308 384
#     4   9  19  35  63  85 130 154 195 267 319 355
#     4  11  22  38  65  89 122 167 208 251 305 367
#     4   9  19  32  60  98 116 160 211 251 307 373
#     4   9  21  38  61  88 121 163 218 252 298 369
#     4  10  21  41  63  93 120 162 208 258 314 367
#
# _framework density 21.768169
#
# number of rings (size 3 to 8) (size 9 to 14) (size 15 to 20)
#    0.000    2.000    2.500    0.750    7.000    1.500 
#    0.000    0.000    0.000    6.750    0.000    0.000 
#    0.000    0.000    0.000    0.000    0.000    0.000 
#
# Total GULP energy -89171.424470 kJ/mol
# GULP energy per Si atom -5573.214029 kJ/mol
# Density = 2.171862 g / cm^3
# Si number density = 21.768169 Si / 1000 Ang^3
#
#
#
# Elastic Constant Matrix: (Units=GPa)
#
#
# Indices 1 2 3 4 5 6 
#
# 1 79.1809 -0.1042 34.9218 -3.2516 11.0543 -15.2890
# 2 -0.1042 78.7824 34.0756 -10.2673 14.8231 -2.2325
# 3 34.9218 34.0756 113.9073 -5.2715 14.1519 -4.1916
# 4 -3.2516 -10.2673 -5.2715 36.3203 -13.2474 8.5916
# 5 11.0543 14.8231 14.1519 -13.2474 28.7190 -3.2672
# 6 -15.2890 -2.2325 -4.1916 8.5916 -3.2672 13.8373
#
#
#
# Elastic Compliance Matrix: (Units=1/GPa)
#
#
# Indices 1 2 3 4 5 6 
#
# 1 0.020583 0.003820 -0.005986 -0.006130 -0.007078 0.023681
# 2 0.003820 0.016363 -0.005088 0.001112 -0.006545 0.003084
# 3 -0.005986 -0.005088 0.012169 0.000281 -0.001421 -0.004259
# 4 -0.006130 0.001112 0.000281 0.040002 0.016989 -0.027334
# 5 -0.007078 -0.006545 -0.001421 0.016989 0.048504 -0.008403
# 6 0.023681 0.003084 -0.004259 -0.027334 -0.008403 0.112629
#
#
# Mechanical properties :
#
#
# Convention : Reuss Voigt Hill
#
# Bulk Modulus (GPa) = 28.89532 45.51745 37.20638
# Shear Modulus (GPa) = 18.09670 29.30714 23.70192
#
# Velocity S-wave (km/s) = 2.88642 3.67322 3.30333
# Velocity P-wave (km/s) = 4.94080 6.24063 5.62837
#
# Compressibility (1/GPa) = 0.03460768
#
# Stress axis : x y z
#
# Youngs Moduli (GPa) = 48.58277 61.11424 82.17391
#
# Poissons Ratio (x) = -0.23348 0.49191
# Poissons Ratio (y) = -0.18561 0.41811
# Poissons Ratio (z) = 0.29083 0.31096
#
# Static dielectric constant tensor:
#      x y z
#    x 1.809830 0.001490 -0.002810 
#    y 0.001490 1.821990 -0.026750 
#    z -0.002810 -0.026750 1.926430 
# 
# From -- ./inp_files/404795.got.cif
#   From: 2010.05.17/outbox.cif.g08.bks.cpg/sg2_203_cif.got.tgz:404795.got - 2010.06.03 11:33:40.
