data_PCOD9013955
_publ_section_title
;
Structure prediction by ZEFSAII (Michael W. Deem and Ramdas Pophale) SiO2 
 PCOD9013955
Probable space group: P -1
;
_chemical_formula_sum "Si O2"
_cell_formula_units_Z 14
_cell_length_a 10.490767
_cell_length_b 11.898886
_cell_length_c 11.716263
_cell_angle_alpha 148.701136
_cell_angle_beta 100.358451
_cell_angle_gamma 63.368212
_cell_volume 610.694358
_symmetry_space_group_name_H-M "P -1"
_symmetry_group_IT_number 2
_symmetry_cell_setting 'triclinic'
loop_
_space_group_symop_operation_xyz
x,y,z
-x,-y,-z
loop_
_atom_site_type_symbol
_atom_site_label
_atom_site_fract_x
_atom_site_fract_y
_atom_site_fract_z
Si Si1 0.670170 0.254607 0.772009
Si Si2 0.262109 0.710581 0.448458
Si Si3 0.412316 0.431674 0.586140
Si Si4 0.818085 0.969031 0.873396
Si Si5 0.316695 0.257213 0.204515
Si Si6 0.054552 0.830074 0.092374
Si Si7 0.253216 0.251367 0.550195
O O1 0.705965 0.293364 0.683415
O O2 0.802220 0.225496 0.852444
O O3 0.687191 0.979744 0.550208
O O4 0.500000 0.500000 0.000000
O O5 0.407151 0.691879 0.518358
O O6 0.265932 0.454794 0.262531
O O7 0.103442 0.976790 0.695866
O O8 0.323017 0.415681 0.450478
O O9 0.388440 0.286303 0.559290
O O10 0.332575 0.730796 0.871583
O O11 0.804991 0.818460 0.847845
O O12 0.795333 0.834651 0.644936
O O13 0.948243 0.014677 0.887185
O O14 0.500000 0.000000 0.000000
O O15 0.106974 0.538537 0.816095
#
# Coordination Sequence:
#
# PCOD9013955 Si02
#       7
#     2   2   2   2   2   2   2
#     4  11  24  43  68  93 126 169 219 264 312 384
#     4  12  24  40  63 100 132 168 208 271 320 371
#     4  10  21  41  66  92 126 166 219 264 307 376
#     4   9  19  42  67  88 128 169 213 260 307 379
#     4  11  23  40  67  97 127 169 221 260 313 377
#     4  10  23  43  63  95 137 162 211 264 321 383
#     4   9  20  42  65  90 121 173 211 257 318 379
#
# _framework density 22.924724000000001
#
# number of rings (size 3 to 8) (size 9 to 14) (size 15 to 20)
#    0.000    1.714    1.429    3.429    2.000    3.429 
#    5.143    6.429    0.000    0.000    0.000    0.000 
#    0.000    0.000    0.000    0.000    0.000    0.000 
#
# Total GULP energy -78299.906715 kJ/mol
# GULP energy per Si atom -5592.850480 kJ/mol
# Density = 2.287255 g / cm^3
# Si number density = 22.924724 Si / 1000 Ang^3
#
#
#
# Elastic Constant Matrix: (Units=GPa)
#
#
# Indices 1 2 3 4 5 6 
#
# 1 72.7627 56.6882 77.9977 15.0490 -24.8004 22.1119
# 2 56.6882 149.5789 56.4691 10.3676 4.6041 57.2441
# 3 77.9977 56.4691 179.9227 19.1526 -17.5597 24.9104
# 4 15.0490 10.3676 19.1526 29.2231 8.8611 7.7758
# 5 -24.8004 4.6041 -17.5597 8.8611 45.6852 2.7267
# 6 22.1119 57.2441 24.9104 7.7758 2.7267 50.1786
#
#
#
# Elastic Compliance Matrix: (Units=1/GPa)
#
#
# Indices 1 2 3 4 5 6 
#
# 1 0.056698 -0.016599 -0.014102 -0.024451 0.031594 0.003025
# 2 -0.016599 0.017536 0.001720 0.008285 -0.010874 -0.014238
# 3 -0.014102 0.001720 0.010798 0.001012 -0.003811 -0.001058
# 4 -0.024451 0.008285 0.001012 0.051896 -0.023430 -0.005948
# 5 0.031594 -0.010874 -0.003811 -0.023430 0.043116 0.001663
# 6 0.003025 -0.014238 -0.001058 -0.005948 0.001663 0.036195
#
#
# Mechanical properties :
#
#
# Convention : Reuss Voigt Hill
#
# Bulk Modulus (GPa) = 36.94070 87.17492 62.05781
# Shear Modulus (GPa) = 17.65381 39.09133 28.37257
#
# Velocity S-wave (km/s) = 2.77804 4.13389 3.52183
# Velocity P-wave (km/s) = 5.14188 7.80350 6.60808
#
# Compressibility (1/GPa) = 0.02707041
#
# Stress axis : x y z
#
# Youngs Moduli (GPa) = 17.63720 57.02510 92.60798
#
# Poissons Ratio (x) = 0.94658 1.30595
# Poissons Ratio (y) = 0.29277 -0.15930
# Poissons Ratio (z) = 0.24872 -0.09809
#
# Static dielectric constant tensor:
#      x y z
#    x 1.898030 0.012450 0.039070 
#    y 0.012450 1.885000 -0.004170 
#    z 0.039070 -0.004170 1.821740 
# 
# From -- ./inp_files/40245.got.cif
#   From: 2010.05.17/outbox.cif.g08.bks.cpg/sg2_21_cif.got.tgz:40245.got - 2010.06.03 11:33:40.
