data_PCOD9013003
_publ_section_title
;
Structure prediction by ZEFSAII (Michael W. Deem and Ramdas Pophale) SiO2 
 PCOD9013003
Probable space group: P -1
;
_chemical_formula_sum "Si O2"
_cell_formula_units_Z 16
_cell_length_a 8.928464
_cell_length_b 5.129372
_cell_length_c 28.272342
_cell_angle_alpha 90.746393
_cell_angle_beta 147.570526
_cell_angle_gamma 94.919290
_cell_volume 682.897575
_symmetry_space_group_name_H-M "P -1"
_symmetry_group_IT_number 2
_symmetry_cell_setting 'triclinic'
loop_
_space_group_symop_operation_xyz
x,y,z
-x,-y,-z
loop_
_atom_site_type_symbol
_atom_site_label
_atom_site_fract_x
_atom_site_fract_y
_atom_site_fract_z
Si Si1 0.286578 0.691522 0.060538
Si Si2 0.174081 0.545732 0.764153
Si Si3 0.708258 0.089528 0.842752
Si Si4 0.735484 0.734417 0.766794
Si Si5 0.245581 0.394453 0.678457
Si Si6 0.199930 0.553345 0.937020
Si Si7 0.166182 0.016340 0.300580
Si Si8 0.589908 0.259245 0.493365
O O1 0.546386 0.537542 0.139067
O O2 0.311076 0.925546 0.106161
O O3 0.270359 0.752750 0.001096
O O4 0.000000 0.500000 0.000000
O O5 0.206752 0.563074 0.715973
O O6 0.085297 0.814658 0.759039
O O7 0.930556 0.285370 0.709333
O O8 0.427292 0.184473 0.747599
O O9 0.982216 0.303664 0.900034
O O10 0.735710 0.830568 0.821224
O O11 0.441269 0.531101 0.688114
O O12 0.750307 0.957858 0.732138
O O13 0.028617 0.626693 0.845821
O O14 0.927140 0.298709 0.576179
O O15 0.500000 0.500000 0.000000
O O16 0.416450 0.186056 0.398752
O O17 0.500000 0.500000 0.500000
O O18 0.500000 0.000000 0.500000
#
# Coordination Sequence:
#
# PCOD9013003 Si02
#       8
#     2   2   2   2   2   2   2   2
#     4   9  20  41  63  93 131 180 237 279 333 408
#     4  11  24  45  71  98 137 183 231 284 339 411
#     4   9  22  41  61  94 136 178 230 276 349 405
#     4  11  26  41  68  98 141 182 222 289 356 410
#     4  10  23  43  70  94 139 176 228 282 343 410
#     4  10  21  41  62  94 137 176 236 285 342 399
#     4  12  26  45  70 105 137 179 227 284 356 403
#     4  12  24  45  72 106 134 174 237 286 336 416
#
# _framework density 23.429576000000001
#
# number of rings (size 3 to 8) (size 9 to 14) (size 15 to 20)
#    0.000    1.500    2.500    1.500   10.500    1.500 
#    4.500    0.625    0.000    0.000    0.000    0.000 
#    0.000    0.000    0.000    0.000    0.000    0.000 
#
# Total GULP energy -89428.249054 kJ/mol
# GULP energy per Si atom -5589.265566 kJ/mol
# Density = 2.337625 g / cm^3
# Si number density = 23.429576 Si / 1000 Ang^3
#
#
#
# Elastic Constant Matrix: (Units=GPa)
#
#
# Indices 1 2 3 4 5 6 
#
# 1 97.3515 15.6636 45.3055 -4.8357 1.1775 11.1836
# 2 15.6636 70.7735 3.5513 5.8379 10.8899 5.5299
# 3 45.3055 3.5513 143.3909 -2.7851 29.5716 4.0261
# 4 -4.8357 5.8379 -2.7851 18.7065 -5.5759 0.1399
# 5 1.1775 10.8899 29.5716 -5.5759 39.0329 -3.9350
# 6 11.1836 5.5299 4.0261 0.1399 -3.9350 28.9576
#
#
#
# Elastic Compliance Matrix: (Units=1/GPa)
#
#
# Indices 1 2 3 4 5 6 
#
# 1 0.013842 -0.003768 -0.005104 0.005496 0.004956 -0.003270
# 2 -0.003768 0.016986 0.002323 -0.008255 -0.007881 -0.003143
# 3 -0.005104 0.002323 0.010330 -0.003145 -0.008881 -0.001100
# 4 0.005496 -0.008255 -0.003145 0.060961 0.013371 0.001414
# 5 0.004956 -0.007881 -0.008881 0.013371 0.036889 0.005774
# 6 -0.003270 -0.003143 -0.001100 0.001414 0.005774 0.037327
#
#
# Mechanical properties :
#
#
# Convention : Reuss Voigt Hill
#
# Bulk Modulus (GPa) = 35.63587 48.95074 42.29330
# Shear Modulus (GPa) = 25.15269 33.80578 29.47923
#
# Velocity S-wave (km/s) = 3.28005 3.80263 3.55097
# Velocity P-wave (km/s) = 5.43947 6.34177 5.90787
#
# Compressibility (1/GPa) = 0.02806162
#
# Stress axis : x y z
#
# Youngs Moduli (GPa) = 72.24325 58.87174 96.80336
#
# Poissons Ratio (x) = 0.22182 0.49405
# Poissons Ratio (y) = 0.27220 -0.22488
# Poissons Ratio (z) = 0.36870 -0.13676
#
# Static dielectric constant tensor:
#      x y z
#    x 1.914420 -0.056440 0.029680 
#    y -0.056440 1.904370 0.043200 
#    z 0.029680 0.043200 2.000660 
# 
# From -- ./inp_files/56235.got.cif
#   From: 2010.05.17/outbox.cif.g08.bks.cpg/sg2_29_cif.got.tgz:56235.got - 2010.06.03 11:33:40.
