data_PCOD9013378
_publ_section_title
;
Structure prediction by ZEFSAII (Michael W. Deem and Ramdas Pophale) SiO2 
 PCOD9013378
Probable space group: P -1
;
_chemical_formula_sum "Si O2"
_cell_formula_units_Z 15
_cell_length_a 9.149915
_cell_length_b 13.126988
_cell_length_c 10.715846
_cell_angle_alpha 31.812867
_cell_angle_beta 102.533699
_cell_angle_gamma 108.480548
_cell_volume 639.958864
_symmetry_space_group_name_H-M "P -1"
_symmetry_group_IT_number 2
_symmetry_cell_setting 'triclinic'
loop_
_space_group_symop_operation_xyz
x,y,z
-x,-y,-z
loop_
_atom_site_type_symbol
_atom_site_label
_atom_site_fract_x
_atom_site_fract_y
_atom_site_fract_z
Si Si1 0.150901 0.428507 0.449068
Si Si2 0.716971 0.927396 0.083710
Si Si3 0.000000 0.500000 0.000000
Si Si4 0.567673 0.362391 0.290263
Si Si5 0.310091 0.857979 0.672484
Si Si6 0.175096 0.676769 0.446588
Si Si7 0.595342 0.194778 0.983650
Si Si8 0.257625 0.281737 0.212387
O O1 0.194302 0.220912 0.684912
O O2 0.156259 0.519937 0.494010
O O3 0.277619 0.593239 0.227434
O O4 0.970363 0.394565 0.410966
O O5 0.573733 0.804710 0.100038
O O6 0.822201 0.106249 0.834056
O O7 0.651187 0.042203 0.061086
O O8 0.162670 0.671010 0.851985
O O9 0.901865 0.670811 0.833920
O O10 0.588657 0.209186 0.345756
O O11 0.657769 0.309835 0.479028
O O12 0.387073 0.349501 0.275883
O O13 0.662028 0.580834 0.032268
O O14 0.250683 0.051576 0.427806
O O15 0.399504 0.877738 0.799729
#
# Coordination Sequence:
#
# PCOD9013378 Si02
#       8
#     2   2   1   2   2   2   2   2
#     4  10  22  39  64  91 128 164 210 270 323 369
#     4  10  21  41  64  93 122 169 209 266 323 378
#     4  10  24  40  58  90 130 166 218 260 314 378
#     4  10  23  40  66  95 131 168 220 260 321 392
#     4  11  23  41  64  94 132 172 214 261 322 389
#     4  10  22  41  62  92 126 164 218 262 312 391
#     4  10  23  39  64  94 127 160 220 262 314 388
#     4  10  22  42  62  92 128 173 213 265 317 386
#
# _framework density 23.439005999999999
#
# number of rings (size 3 to 8) (size 9 to 14) (size 15 to 20)
#    0.000    1.867    0.000    2.400    3.733    6.400 
#    2.400    0.000    0.000    0.000    0.000    0.000 
#    0.000    0.000    0.000    0.000    0.000    0.000 
#
# Total GULP energy -83715.283338 kJ/mol
# GULP energy per Si atom -5581.018889 kJ/mol
# Density = 2.338566 g / cm^3
# Si number density = 23.439006 Si / 1000 Ang^3
#
#
#
# Elastic Constant Matrix: (Units=GPa)
#
#
# Indices 1 2 3 4 5 6 
#
# 1 85.9506 20.8559 -24.8163 -1.8879 28.0713 8.7358
# 2 20.8559 42.9596 38.3675 0.6003 -23.6825 -9.5674
# 3 -24.8163 38.3675 50.9365 -17.7578 54.4567 -4.1704
# 4 -1.8879 0.6003 -17.7578 30.3037 -0.4845 3.4245
# 5 28.0713 -23.6825 54.4567 -0.4845 -0.4114 -17.9256
# 6 8.7358 -9.5674 -4.1704 3.4245 -17.9256 17.0967
#
#
#
# Elastic Compliance Matrix: (Units=1/GPa)
#
#
# Indices 1 2 3 4 5 6 
#
# 1 0.008464 0.001792 -0.003041 -0.001386 0.005108 0.001569
# 2 0.001792 0.012745 0.003022 0.001986 -0.010699 -0.004662
# 3 -0.003041 0.003022 0.007799 0.002820 0.009594 0.014642
# 4 -0.001386 0.001986 0.002820 0.034330 0.006733 0.002690
# 5 0.005108 -0.010699 0.009594 0.006733 0.002723 -0.004750
# 6 0.001569 -0.004662 0.014642 0.002690 -0.004750 0.053133
#
#
# Mechanical properties :
#
#
# Convention : Reuss Voigt Hill
#
# Bulk Modulus (GPa) = 30.72001 27.62900 29.17450
# Shear Modulus (GPa) = 39.52554 19.09378 29.30966
#
# Velocity S-wave (km/s) = 4.11093 2.85724 3.54003
# Velocity P-wave (km/s) = 5.97225 4.76428 5.40214
#
# Compressibility (1/GPa) = 0.03255207
#
# Stress axis : x y z
#
# Youngs Moduli (GPa) = 118.15026 78.46057 128.22154
#
# Poissons Ratio (x) = -0.14056 0.38994
# Poissons Ratio (y) = -0.21167 -0.38744
# Poissons Ratio (z) = 0.35931 -0.23708
#
# Static dielectric constant tensor:
#      x y z
#    x 1.901450 0.020890 -0.035250 
#    y 0.020890 1.886380 0.009600 
#    z -0.035250 0.009600 1.895110 
# 
# From -- ./inp_files/398279.got.cif
#   From: 2010.05.17/outbox.cif.g08.bks.cpg/sg2_200_cif.got.tgz:398279.got - 2010.06.03 11:33:40.
