data_PCOD9013825
_publ_section_title
;
Structure prediction by ZEFSAII (Michael W. Deem and Ramdas Pophale) SiO2 
 PCOD9013825
Probable space group: P -1
;
_chemical_formula_sum "Si O2"
_cell_formula_units_Z 16
_cell_length_a 17.423723
_cell_length_b 6.144081
_cell_length_c 14.498775
_cell_angle_alpha 72.287430
_cell_angle_beta 31.221731
_cell_angle_gamma 80.074669
_cell_volume 754.193906
_symmetry_space_group_name_H-M "P -1"
_symmetry_group_IT_number 2
_symmetry_cell_setting 'triclinic'
loop_
_space_group_symop_operation_xyz
x,y,z
-x,-y,-z
loop_
_atom_site_type_symbol
_atom_site_label
_atom_site_fract_x
_atom_site_fract_y
_atom_site_fract_z
Si Si1 0.537966 0.656745 0.283178
Si Si2 0.991771 0.060385 0.281697
Si Si3 0.127042 0.692524 0.301381
Si Si4 0.393861 0.159839 0.539715
Si Si5 0.356117 0.017899 0.383786
Si Si6 0.210385 0.997380 0.905744
Si Si7 0.204548 0.512385 0.048356
Si Si8 0.456027 0.765332 0.009140
O O1 0.472954 0.425074 0.434643
O O2 0.398034 0.763050 0.378791
O O3 0.651799 0.846199 0.200190
O O4 0.646618 0.599459 0.097746
O O5 0.813652 0.991152 0.472733
O O6 0.057867 0.328811 0.196482
O O7 0.061255 0.918843 0.308672
O O8 0.062697 0.010219 0.115964
O O9 0.182071 0.601126 0.160687
O O10 0.000000 0.500000 0.500000
O O11 0.275570 0.732942 0.204624
O O12 0.235181 0.096348 0.764815
O O13 0.500000 0.000000 0.500000
O O14 0.376228 0.114769 0.454697
O O15 0.475018 0.150140 0.172283
O O16 0.227071 0.729776 0.928072
O O17 0.500000 0.500000 0.000000
O O18 0.500000 0.000000 0.000000
#
# Coordination Sequence:
#
# PCOD9013825 Si02
#       8
#     2   2   2   2   2   2   2   2
#     4  11  21  39  69  98 138 176 243 296 370 430
#     4  10  25  44  67  97 145 190 239 297 377 448
#     4  11  25  46  76 103 140 195 243 309 384 450
#     4  12  23  40  72 103 139 184 246 304 373 445
#     4  12  27  44  69 107 144 192 242 309 374 442
#     4  10  21  41  65  99 128 186 230 295 356 445
#     4  10  21  41  68  93 137 178 241 287 366 444
#     4  12  30  51  80 118 153 194 258 320 379 452
#
# _framework density 21.214704999999999
#
# number of rings (size 3 to 8) (size 9 to 14) (size 15 to 20)
#    0.000    1.000    2.500    4.125    7.000    3.000 
#    0.000    1.250    0.000    0.000    0.000    0.000 
#    0.000    0.000    0.000    0.000    0.000    0.000 
#
# Total GULP energy -89298.843233 kJ/mol
# GULP energy per Si atom -5581.177702 kJ/mol
# Density = 2.116642 g / cm^3
# Si number density = 21.214705 Si / 1000 Ang^3
#
#
#
# Elastic Constant Matrix: (Units=GPa)
#
#
# Indices 1 2 3 4 5 6 
#
# 1 66.7449 38.0799 30.0288 -12.8483 -10.4883 -3.8032
# 2 38.0799 109.7081 26.9126 -30.3818 -11.4800 -12.6085
# 3 30.0288 26.9126 121.7682 -31.0949 -10.6504 -11.7692
# 4 -12.8483 -30.3818 -31.0949 34.6263 -9.5843 1.3751
# 5 -10.4883 -11.4800 -10.6504 -9.5843 42.5554 -0.5069
# 6 -3.8032 -12.6085 -11.7692 1.3751 -0.5069 25.0443
#
#
#
# Elastic Compliance Matrix: (Units=1/GPa)
#
#
# Indices 1 2 3 4 5 6 
#
# 1 0.020404 -0.006323 -0.003796 -0.000708 0.002192 -0.001785
# 2 -0.006323 0.017313 0.004021 0.018423 0.008373 0.008804
# 3 -0.003796 0.004021 0.013724 0.016184 0.007314 0.007156
# 4 -0.000708 0.018423 0.016184 0.065339 0.023724 0.013666
# 5 0.002192 0.008373 0.007314 0.023724 0.033559 0.007362
# 6 -0.001785 0.008804 0.007156 0.013666 0.007362 0.046852
#
#
# Mechanical properties :
#
#
# Convention : Reuss Voigt Hill
#
# Bulk Modulus (GPa) = 25.48093 54.25152 39.86622
# Shear Modulus (GPa) = 22.47493 33.99186 28.23339
#
# Velocity S-wave (km/s) = 3.25838 4.00719 3.65203
# Velocity P-wave (km/s) = 5.11792 6.85844 6.05109
#
# Compressibility (1/GPa) = 0.03924504
#
# Stress axis : x y z
#
# Youngs Moduli (GPa) = 49.00959 57.75856 72.86563
#
# Poissons Ratio (x) = 0.36520 0.27659
# Poissons Ratio (y) = 0.30988 -0.29296
# Poissons Ratio (z) = 0.18603 -0.23222
#
# Static dielectric constant tensor:
#      x y z
#    x 1.791120 0.010580 0.011390 
#    y 0.010580 1.845040 0.015150 
#    z 0.011390 0.015150 1.768360 
# 
# From -- ./inp_files/288618.got.cif
#   From: 2010.05.17/outbox.cif.g08.bks.cpg/sg2_145_cif.got.tgz:288618.got - 2010.06.03 11:33:40.
