data_PCOD9013650
_publ_section_title
;
Structure prediction by ZEFSAII (Michael W. Deem and Ramdas Pophale) SiO2 
 PCOD9013650
Probable space group: P -1
;
_chemical_formula_sum "Si O2"
_cell_formula_units_Z 16
_cell_length_a 14.400387
_cell_length_b 11.221353
_cell_length_c 10.027177
_cell_angle_alpha 61.458484
_cell_angle_beta 56.890429
_cell_angle_gamma 107.701612
_cell_volume 763.722397
_symmetry_space_group_name_H-M "P -1"
_symmetry_group_IT_number 2
_symmetry_cell_setting 'triclinic'
loop_
_space_group_symop_operation_xyz
x,y,z
-x,-y,-z
loop_
_atom_site_type_symbol
_atom_site_label
_atom_site_fract_x
_atom_site_fract_y
_atom_site_fract_z
Si Si1 0.660248 0.341997 0.574584
Si Si2 0.194581 0.234234 0.739440
Si Si3 0.306973 0.344068 0.290891
Si Si4 0.714654 0.897999 0.048492
Si Si5 0.392739 0.719654 0.040380
Si Si6 0.777013 0.972783 0.645464
Si Si7 0.131276 0.687074 0.189014
Si Si8 0.926422 0.394495 0.255659
O O1 0.788944 0.591172 0.336207
O O2 0.634023 0.278158 0.783198
O O3 0.737782 0.285450 0.472640
O O4 0.478600 0.224897 0.727463
O O5 0.290814 0.302962 0.484358
O O6 0.272309 0.222701 0.807145
O O7 0.000000 0.000000 0.000000
O O8 0.279760 0.479331 0.221282
O O9 0.189414 0.129835 0.413918
O O10 0.500000 0.500000 0.000000
O O11 0.755991 0.918743 0.847711
O O12 0.836329 0.127994 0.893624
O O13 0.311110 0.771959 0.004750
O O14 0.592680 0.862072 0.796539
O O15 0.912006 0.221199 0.388095
O O16 0.000000 0.500000 0.500000
O O17 0.041093 0.576827 0.178828
O O18 0.000000 0.500000 0.000000
#
# Coordination Sequence:
#
# PCOD9013650 Si02
#       8
#     2   2   2   2   2   2   2   2
#     4  10  21  42  64  91 127 165 211 254 309 382
#     4  11  24  40  69  98 127 168 215 265 312 372
#     4   9  21  41  65  92 131 166 202 258 317 379
#     4  11  23  41  69  93 121 170 216 256 311 386
#     4   9  19  40  68  89 117 169 211 247 307 381
#     4  10  21  41  65  92 126 163 207 261 314 373
#     4  12  22  40  64  90 123 162 215 258 310 379
#     4  12  26  41  59  92 132 159 206 268 322 363
#
# _framework density 20.950021
#
# number of rings (size 3 to 8) (size 9 to 14) (size 15 to 20)
#    0.000    1.500    2.500    2.625    5.250    2.000 
#    6.750    2.500    0.000    0.000    0.000    0.000 
#    0.000    0.000    0.000    0.000    0.000    0.000 
#
# Total GULP energy -89408.683980 kJ/mol
# GULP energy per Si atom -5588.042749 kJ/mol
# Density = 2.090234 g / cm^3
# Si number density = 20.950021 Si / 1000 Ang^3
#
#
#
# Elastic Constant Matrix: (Units=GPa)
#
#
# Indices 1 2 3 4 5 6 
#
# 1 74.0401 21.2532 1.0801 8.0854 10.5599 13.2939
# 2 21.2532 116.9198 13.0172 -2.8792 18.6685 -5.3429
# 3 1.0801 13.0172 45.5298 -1.0304 8.8831 2.7199
# 4 8.0854 -2.8792 -1.0304 33.7690 -0.4564 0.8813
# 5 10.5599 18.6685 8.8831 -0.4564 25.7921 -4.0578
# 6 13.2939 -5.3429 2.7199 0.8813 -4.0578 32.5130
#
#
#
# Elastic Compliance Matrix: (Units=1/GPa)
#
#
# Indices 1 2 3 4 5 6 
#
# 1 0.017270 -0.002713 0.002197 -0.004176 -0.007272 -0.008485
# 2 -0.002713 0.010237 -0.001943 0.001333 -0.005250 0.002263
# 3 0.002197 -0.001943 0.024400 0.000050 -0.008577 -0.004331
# 4 -0.004176 0.001333 0.000050 0.030715 0.001472 0.001274
# 5 -0.007272 -0.005250 -0.008577 0.001472 0.049949 0.009022
# 6 -0.008485 0.002263 -0.004331 0.001274 0.009022 0.036052
#
#
# Mechanical properties :
#
#
# Convention : Reuss Voigt Hill
#
# Bulk Modulus (GPa) = 21.28162 34.13230 27.70696
# Shear Modulus (GPa) = 26.42655 31.82410 29.12533
#
# Velocity S-wave (km/s) = 3.55549 3.90173 3.73262
# Velocity P-wave (km/s) = 5.19958 6.05191 5.64186
#
# Compressibility (1/GPa) = 0.04698890
#
# Stress axis : x y z
#
# Youngs Moduli (GPa) = 57.90453 97.68589 40.98291
#
# Poissons Ratio (x) = 0.26505 -0.09005
# Poissons Ratio (y) = 0.15711 0.07964
# Poissons Ratio (z) = -0.12724 0.18982
#
# Static dielectric constant tensor:
#      x y z
#    x 1.750990 0.001330 -0.039020 
#    y 0.001330 1.775660 -0.079390 
#    z -0.039020 -0.079390 1.786150 
# 
# From -- ./inp_files/208911.got.cif
#   From: 2010.05.17/outbox.cif.g08.bks.cpg/sg2_105_cif.got.tgz:208911.got - 2010.06.03 11:33:40.
