data_PCOD9013425
_publ_section_title
;
Structure prediction by ZEFSAII (Michael W. Deem and Ramdas Pophale) SiO2 
 PCOD9013425
Probable space group: P -1
;
_chemical_formula_sum "Si O2"
_cell_formula_units_Z 16
_cell_length_a 9.662358
_cell_length_b 11.189993
_cell_length_c 9.486533
_cell_angle_alpha 87.070528
_cell_angle_beta 87.452519
_cell_angle_gamma 37.799141
_cell_volume 627.811409
_symmetry_space_group_name_H-M "P -1"
_symmetry_group_IT_number 2
_symmetry_cell_setting 'triclinic'
loop_
_space_group_symop_operation_xyz
x,y,z
-x,-y,-z
loop_
_atom_site_type_symbol
_atom_site_label
_atom_site_fract_x
_atom_site_fract_y
_atom_site_fract_z
Si Si1 0.372853 0.615205 0.851901
Si Si2 0.298314 0.046121 0.011002
Si Si3 0.936305 0.599341 0.842257
Si Si4 0.105247 0.058061 0.457527
Si Si5 0.725043 0.512852 0.359531
Si Si6 0.051553 0.168431 0.736554
Si Si7 0.854148 0.049363 0.829233
Si Si8 0.350258 0.378951 0.327944
O O1 0.403875 0.481644 0.750555
O O2 0.106561 0.827132 0.871703
O O3 0.469322 0.664750 0.762477
O O4 0.500000 0.500000 0.000000
O O5 0.135980 0.217926 0.122697
O O6 0.317097 0.893067 0.056045
O O7 0.191561 0.121602 0.859729
O O8 0.500000 0.000000 0.000000
O O9 0.729934 0.680826 0.757743
O O10 0.147588 0.470049 0.734779
O O11 0.000000 0.500000 0.000000
O O12 0.204751 0.033314 0.602416
O O13 0.910653 0.287107 0.416638
O O14 0.231630 0.947463 0.314619
O O15 0.000000 0.000000 0.500000
O O16 0.615757 0.638782 0.501834
O O17 0.877015 0.388043 0.690807
O O18 0.908369 0.150748 0.794592
#
# Coordination Sequence:
#
# PCOD9013425 Si02
#       8
#     2   2   2   2   2   2   2   2
#     4  11  21  38  67  99 130 166 213 265 322 379
#     4  12  25  42  62  92 126 169 217 262 317 380
#     4  12  23  44  65  87 135 175 212 263 322 381
#     4   8  16  35  68  88 118 159 204 256 319 369
#     4  10  21  41  65  94 130 168 214 263 322 376
#     4  10  21  41  64  95 122 163 212 263 317 377
#     4  10  21  43  66  90 126 166 209 269 320 369
#     4  11  23  39  68  97 128 168 215 261 319 389
#
# _framework density 25.485364000000001
#
# number of rings (size 3 to 8) (size 9 to 14) (size 15 to 20)
#    0.000    1.500    3.750    2.625    1.750    0.000 
#    2.250    0.625    0.000    0.000    0.000    0.000 
#    0.000    0.000    0.000    0.000    0.000    0.000 
#
# Total GULP energy -89422.510366 kJ/mol
# GULP energy per Si atom -5588.906898 kJ/mol
# Density = 2.542736 g / cm^3
# Si number density = 25.485364 Si / 1000 Ang^3
#
#
#
# Elastic Constant Matrix: (Units=GPa)
#
#
# Indices 1 2 3 4 5 6 
#
# 1 154.8979 -4.5370 73.4384 0.0081 22.8744 -0.0611
# 2 -4.5370 46.0571 23.4591 0.8686 9.6162 16.3606
# 3 73.4384 23.4591 206.0493 -2.7662 26.3855 -3.8239
# 4 0.0081 0.8686 -2.7662 44.9463 -0.9424 1.2183
# 5 22.8744 9.6162 26.3855 -0.9424 59.5962 4.0957
# 6 -0.0611 16.3606 -3.8239 1.2183 4.0957 30.1975
#
#
#
# Elastic Compliance Matrix: (Units=1/GPa)
#
#
# Indices 1 2 3 4 5 6 
#
# 1 0.008394 0.003637 -0.003155 -0.000259 -0.002276 -0.002034
# 2 0.003637 0.031233 -0.004771 -0.000501 -0.003158 -0.017070
# 3 -0.003155 -0.004771 0.006753 0.000385 -0.001249 0.003588
# 4 -0.000259 -0.000501 0.000385 0.022308 0.000406 -0.000635
# 5 -0.002276 -0.003158 -0.001249 0.000406 0.018792 -0.001017
# 6 -0.002034 -0.017070 0.003588 -0.000635 -0.001017 0.042977
#
#
# Mechanical properties :
#
#
# Convention : Reuss Voigt Hill
#
# Bulk Modulus (GPa) = 26.45551 65.74727 46.10139
# Shear Modulus (GPa) = 32.97354 47.92425 40.44889
#
# Velocity S-wave (km/s) = 3.60088 4.34113 3.98822
# Velocity P-wave (km/s) = 5.26228 7.14012 6.27188
#
# Compressibility (1/GPa) = 0.03779930
#
# Stress axis : x y z
#
# Youngs Moduli (GPa) = 119.13735 32.01735 148.08770
#
# Poissons Ratio (x) = -0.11643 0.46728
# Poissons Ratio (y) = -0.43324 0.70655
# Poissons Ratio (z) = 0.37593 0.15276
#
# Static dielectric constant tensor:
#      x y z
#    x 1.959090 -0.070260 0.017620 
#    y -0.070260 2.132040 0.039540 
#    z 0.017620 0.039540 2.068120 
# 
# From -- ./inp_files/186606.got.cif
#   From: 2010.05.17/outbox.cif.g08.bks.cpg/sg2_94_cif.got.tgz:186606.got - 2010.06.03 11:33:40.
