data_PCOD9013875
_publ_section_title
;
Structure prediction by ZEFSAII (Michael W. Deem and Ramdas Pophale) SiO2 
 PCOD9013875
Probable space group: P -1
;
_chemical_formula_sum "Si O2"
_cell_formula_units_Z 16
_cell_length_a 7.485842
_cell_length_b 9.104175
_cell_length_c 13.960116
_cell_angle_alpha 57.087354
_cell_angle_beta 70.800254
_cell_angle_gamma 63.851735
_cell_volume 711.906524
_symmetry_space_group_name_H-M "P -1"
_symmetry_group_IT_number 2
_symmetry_cell_setting 'triclinic'
loop_
_space_group_symop_operation_xyz
x,y,z
-x,-y,-z
loop_
_atom_site_type_symbol
_atom_site_label
_atom_site_fract_x
_atom_site_fract_y
_atom_site_fract_z
Si Si1 0.242435 0.392097 0.700613
Si Si2 0.684764 0.341295 0.720306
Si Si3 0.775417 0.034034 0.487255
Si Si4 0.145100 0.418300 0.917266
Si Si5 0.513287 0.991101 0.279904
Si Si6 0.979153 0.324126 0.513074
Si Si7 0.574556 0.330716 0.254710
Si Si8 0.681289 0.982167 0.904728
O O1 0.465831 0.375056 0.701007
O O2 0.107173 0.420047 0.809377
O O3 0.151160 0.575816 0.589860
O O4 0.291500 0.193487 0.708146
O O5 0.840084 0.269067 0.632894
O O6 0.642460 0.534549 0.715264
O O7 0.736785 0.166548 0.842461
O O8 0.694357 0.202985 0.367371
O O9 0.620571 0.048226 0.595855
O O10 0.000000 0.000000 0.500000
O O11 0.820727 0.840994 0.489237
O O12 0.311644 0.527300 0.852495
O O13 0.176301 0.207331 0.014808
O O14 0.000000 0.500000 0.000000
O O15 0.558596 0.177652 0.235686
O O16 0.386427 0.027579 0.190113
O O17 0.000000 0.500000 0.500000
O O18 0.500000 0.000000 0.000000
#
# Coordination Sequence:
#
# PCOD9013875 Si02
#       8
#     2   2   2   2   2   2   2   2
#     4  10  21  43  63  86 123 168 204 238 313 371
#     4  10  21  41  66  85 123 168 202 243 300 377
#     4  12  24  38  64 100 125 160 206 256 307 371
#     4  11  25  42  65  89 122 162 209 261 297 367
#     4  11  23  40  68  91 127 163 202 261 304 369
#     4  12  24  38  60  96 129 154 198 260 311 358
#     4  11  23  42  63  95 126 162 206 253 317 360
#     4  11  21  44  64  89 116 164 219 241 298 376
#
# _framework density 22.47486
#
# number of rings (size 3 to 8) (size 9 to 14) (size 15 to 20)
#    0.000    1.000    3.750    6.000    5.250    0.500 
#    0.000    0.625    0.000    0.000    0.000    0.000 
#    0.000    0.000    0.000    0.000    0.000    0.000 
#
# Total GULP energy -89169.542506 kJ/mol
# GULP energy per Si atom -5573.096407 kJ/mol
# Density = 2.242371 g / cm^3
# Si number density = 22.474860 Si / 1000 Ang^3
#
#
#
# Elastic Constant Matrix: (Units=GPa)
#
#
# Indices 1 2 3 4 5 6 
#
# 1 21.5927 -13.4471 -0.3582 8.8865 -17.8856 16.9591
# 2 -13.4471 124.8130 7.6035 19.7830 -48.6838 15.0993
# 3 -0.3582 7.6035 93.3392 18.3261 -60.5314 -8.4186
# 4 8.8865 19.7830 18.3261 53.6221 8.1341 -8.9792
# 5 -17.8856 -48.6838 -60.5314 8.1341 -22.4751 20.6807
# 6 16.9591 15.0993 -8.4186 -8.9792 20.6807 30.6835
#
#
#
# Elastic Compliance Matrix: (Units=1/GPa)
#
#
# Indices 1 2 3 4 5 6 
#
# 1 0.045513 0.000809 -0.013271 -0.003267 -0.019230 -0.017190
# 2 0.000809 0.006503 -0.004004 -0.000571 -0.005354 -0.001305
# 3 -0.013271 -0.004004 0.011834 0.001814 0.000036 0.013059
# 4 -0.003267 -0.000571 0.001814 0.018023 0.007843 0.002573
# 5 -0.019230 -0.005354 0.000036 0.007843 -0.000325 0.015787
# 6 -0.017190 -0.001305 0.013059 0.002573 0.015787 0.036429
#
#
# Mechanical properties :
#
#
# Convention : Reuss Voigt Hill
#
# Bulk Modulus (GPa) = 32.34367 25.26013 28.80190
# Shear Modulus (GPa) = 31.01451 28.76254 29.88852
#
# Velocity S-wave (km/s) = 3.71882 3.58126 3.65069
# Velocity P-wave (km/s) = 5.73252 5.32581 5.53290
#
# Compressibility (1/GPa) = 0.03091795
#
# Stress axis : x y z
#
# Youngs Moduli (GPa) = 21.97167 153.77015 84.50469
#
# Poissons Ratio (x) = -0.12437 1.12144
# Poissons Ratio (y) = -0.01777 0.33836
# Poissons Ratio (z) = 0.29158 0.61570
#
# Static dielectric constant tensor:
#      x y z
#    x 1.995280 0.071620 -0.132890 
#    y 0.071620 1.868140 0.056710 
#    z -0.132890 0.056710 2.155530 
# 
# From -- ./inp_files/216575.got.cif
#   From: 2010.05.17/outbox.cif.g08.bks.cpg/sg2_109_cif.got.tgz:216575.got - 2010.06.03 11:33:40.
