data_PCOD9013190
_publ_section_title
;
Structure prediction by ZEFSAII (Michael W. Deem and Ramdas Pophale) SiO2 
 PCOD9013190
Probable space group: P -1
;
_chemical_formula_sum "Si O2"
_cell_formula_units_Z 14
_cell_length_a 13.088917
_cell_length_b 20.345389
_cell_length_c 6.569952
_cell_angle_alpha 94.142701
_cell_angle_beta 93.007442
_cell_angle_gamma 21.678363
_cell_volume 644.085294
_symmetry_space_group_name_H-M "P -1"
_symmetry_group_IT_number 2
_symmetry_cell_setting 'triclinic'
loop_
_space_group_symop_operation_xyz
x,y,z
-x,-y,-z
loop_
_atom_site_type_symbol
_atom_site_label
_atom_site_fract_x
_atom_site_fract_y
_atom_site_fract_z
Si Si1 0.652657 0.477267 0.494438
Si Si2 0.914945 0.631179 0.888837
Si Si3 0.772464 0.678664 0.304733
Si Si4 0.788605 0.799859 0.563674
Si Si5 0.760264 0.197448 0.751981
Si Si6 0.551474 0.642121 0.860189
Si Si7 0.684188 0.119041 0.445916
O O1 0.500000 0.500000 0.500000
O O2 0.501406 0.609396 0.331594
O O3 0.612825 0.540661 0.713910
O O4 0.977606 0.284266 0.437902
O O5 0.716295 0.724761 0.069052
O O6 0.194576 0.487990 0.999105
O O7 0.017489 0.509217 0.729454
O O8 0.784132 0.767855 0.775841
O O9 0.880892 0.683175 0.403347
O O10 0.511401 0.815688 0.446816
O O11 0.500000 0.000000 0.500000
O O12 0.768028 0.121028 0.630431
O O13 0.705825 0.219710 0.987955
O O14 0.034669 0.071246 0.678604
O O15 0.478140 0.742866 0.713366
#
# Coordination Sequence:
#
# PCOD9013190 Si02
#       7
#     2   2   2   2   2   2   2
#     4  11  25  45  66  91 133 188 228 274 342 411
#     4  11  23  42  72 105 133 181 228 284 348 410
#     4  11  24  41  72 101 137 174 229 283 344 409
#     4  12  27  46  67 100 144 181 228 286 341 411
#     4  10  21  41  63  94 137 171 221 276 339 404
#     4  11  20  42  68 100 134 173 229 282 340 411
#     4  10  22  36  65 104 134 169 211 287 344 395
#
# _framework density 21.736253999999999
#
# number of rings (size 3 to 8) (size 9 to 14) (size 15 to 20)
#    0.000    1.143    4.286    1.714    6.000    1.143 
#    0.000    0.000    0.000    0.000    0.000    0.000 
#    0.000    0.000    0.000    0.000    0.000    0.000 
#
# Total GULP energy -78269.085424 kJ/mol
# GULP energy per Si atom -5590.648959 kJ/mol
# Density = 2.168678 g / cm^3
# Si number density = 21.736254 Si / 1000 Ang^3
#
#
#
# Elastic Constant Matrix: (Units=GPa)
#
#
# Indices 1 2 3 4 5 6 
#
# 1 102.0238 43.9715 42.6445 4.4730 -9.5456 -28.1689
# 2 43.9715 132.0521 42.9706 -0.3216 -25.3477 -19.2122
# 3 42.6445 42.9706 110.2664 11.0327 -28.1849 -8.2900
# 4 4.4730 -0.3216 11.0327 29.8289 -13.6895 -14.1139
# 5 -9.5456 -25.3477 -28.1849 -13.6895 39.7246 4.4939
# 6 -28.1689 -19.2122 -8.2900 -14.1139 4.4939 35.7327
#
#
#
# Elastic Compliance Matrix: (Units=1/GPa)
#
#
# Indices 1 2 3 4 5 6 
#
# 1 0.015932 -0.001956 -0.005163 0.005012 -0.000757 0.012385
# 2 -0.001956 0.011108 -0.002068 0.007162 0.006950 0.005905
# 3 -0.005163 -0.002068 0.013516 -0.003287 0.006365 -0.004145
# 4 0.005012 0.007162 -0.003287 0.055624 0.019608 0.026544
# 5 -0.000757 0.006950 0.006365 0.019608 0.039868 0.007348
# 6 0.012385 0.005905 -0.004145 0.026544 0.007348 0.049522
#
#
# Mechanical properties :
#
#
# Convention : Reuss Voigt Hill
#
# Bulk Modulus (GPa) = 45.08432 67.05728 56.07080
# Shear Modulus (GPa) = 23.65870 35.37430 29.51650
#
# Velocity S-wave (km/s) = 3.30274 4.03852 3.68902
# Velocity P-wave (km/s) = 5.94396 7.25697 6.63303
#
# Compressibility (1/GPa) = 0.02218066
#
# Stress axis : x y z
#
# Youngs Moduli (GPa) = 62.76835 90.02626 73.98662
#
# Poissons Ratio (x) = 0.17611 0.38199
# Poissons Ratio (y) = 0.12279 0.15302
# Poissons Ratio (z) = 0.32407 0.18620
#
# Static dielectric constant tensor:
#      x y z
#    x 1.809170 -0.049260 -0.018010 
#    y -0.049260 1.849570 0.015730 
#    z -0.018010 0.015730 1.815350 
# 
# From -- ./inp_files/101565.got.cif
#   From: 2010.05.17/outbox.cif.g08.bks.cpg/sg2_51_cif.got.tgz:101565.got - 2010.06.03 11:33:40.
