data_PCOD9013022
_publ_section_title
;
Structure prediction by ZEFSAII (Michael W. Deem and Ramdas Pophale) SiO2 
 PCOD9013022
Probable space group: P -1
;
_chemical_formula_sum "Si O2"
_cell_formula_units_Z 14
_cell_length_a 11.175810
_cell_length_b 13.227695
_cell_length_c 7.679518
_cell_angle_alpha 69.854219
_cell_angle_beta 115.881002
_cell_angle_gamma 146.120505
_cell_volume 569.011725
_symmetry_space_group_name_H-M "P -1"
_symmetry_group_IT_number 2
_symmetry_cell_setting 'triclinic'
loop_
_space_group_symop_operation_xyz
x,y,z
-x,-y,-z
loop_
_atom_site_type_symbol
_atom_site_label
_atom_site_fract_x
_atom_site_fract_y
_atom_site_fract_z
Si Si1 0.762864 0.479196 0.221661
Si Si2 0.655568 0.672315 0.816710
Si Si3 0.105489 0.773625 0.743897
Si Si4 0.426604 0.854312 0.664612
Si Si5 0.096899 0.847621 0.094764
Si Si6 0.781973 0.921260 0.467009
Si Si7 0.351794 0.565086 0.212869
O O1 0.570056 0.442017 0.159791
O O2 0.720415 0.341983 0.379234
O O3 0.003764 0.692893 0.254889
O O4 0.730912 0.437409 0.019149
O O5 0.705506 0.810125 0.654789
O O6 0.610997 0.537882 0.746888
O O7 0.890436 0.796649 0.986828
O O8 0.290179 0.814128 0.764057
O O9 0.850403 0.564049 0.699144
O O10 0.145761 0.908629 0.580911
O O11 0.126581 0.820562 0.933171
O O12 0.500000 0.000000 0.500000
O O13 0.662065 0.956015 0.813481
O O14 0.575356 0.768535 0.295550
O O15 0.000000 0.000000 0.500000
#
# Coordination Sequence:
#
# PCOD9013022 Si02
#       7
#     2   2   2   2   2   2   2
#     4  10  23  43  63  91 126 167 200 250 314 363
#     4  10  21  41  62  97 127 159 201 253 312 363
#     4  10  23  42  62  93 123 164 209 247 300 369
#     4  12  26  42  61  91 123 165 212 250 305 362
#     4  10  22  42  64  88 123 162 208 258 297 365
#     4  12  21  38  65  96 127 156 200 255 310 360
#     4  10  22  39  66  95 122 160 203 255 307 364
#
# _framework density 24.604064000000001
#
# number of rings (size 3 to 8) (size 9 to 14) (size 15 to 20)
#    0.000    1.714    2.857    4.286    0.000    5.714 
#    5.143    0.000    0.000    0.000    0.000    0.000 
#    0.000    0.000    0.000    0.000    0.000    0.000 
#
# Total GULP energy -78304.865093 kJ/mol
# GULP energy per Si atom -5593.204649 kJ/mol
# Density = 2.454806 g / cm^3
# Si number density = 24.604064 Si / 1000 Ang^3
#
#
#
# Elastic Constant Matrix: (Units=GPa)
#
#
# Indices 1 2 3 4 5 6 
#
# 1 99.4761 33.6838 19.6589 -17.9997 0.7071 13.1806
# 2 33.6838 130.0453 30.6814 -10.4019 -8.7219 20.8780
# 3 19.6589 30.6814 46.6476 -20.4105 1.6083 -3.2968
# 4 -17.9997 -10.4019 -20.4105 46.9045 0.8962 4.0957
# 5 0.7071 -8.7219 1.6083 0.8962 20.9217 -8.8430
# 6 13.1806 20.8780 -3.2968 4.0957 -8.8430 36.6938
#
#
#
# Elastic Compliance Matrix: (Units=1/GPa)
#
#
# Indices 1 2 3 4 5 6 
#
# 1 0.012532 -0.001713 -0.002769 0.003718 -0.003179 -0.004957
# 2 -0.001713 0.010845 -0.007345 -0.001032 0.002906 -0.005400
# 3 -0.002769 -0.007345 0.032856 0.011142 -0.003410 0.006060
# 4 0.003718 -0.001032 0.011142 0.027785 -0.004238 -0.003870
# 5 -0.003179 0.002906 -0.003410 -0.004238 0.055018 0.012915
# 6 -0.004957 -0.005400 0.006060 -0.003870 0.012915 0.036194
#
#
# Mechanical properties :
#
#
# Convention : Reuss Voigt Hill
#
# Bulk Modulus (GPa) = 30.69318 49.35747 40.02533
# Shear Modulus (GPa) = 23.83851 33.71364 28.77608
#
# Velocity S-wave (km/s) = 3.11607 3.70570 3.42360
# Velocity P-wave (km/s) = 5.04464 6.19789 5.65077
#
# Compressibility (1/GPa) = 0.03258052
#
# Stress axis : x y z
#
# Youngs Moduli (GPa) = 79.79596 92.20489 30.43570
#
# Poissons Ratio (x) = 0.15793 0.08427
# Poissons Ratio (y) = 0.13667 0.22355
# Poissons Ratio (z) = 0.22093 0.67725
#
# Static dielectric constant tensor:
#      x y z
#    x 1.925610 -0.021260 -0.010290 
#    y -0.021260 1.989850 -0.028430 
#    z -0.010290 -0.028430 2.014970 
# 
# From -- ./inp_files/269858.got.cif
#   From: 2010.05.17/outbox.cif.g08.bks.cpg/sg2_135_cif.got.tgz:269858.got - 2010.06.03 11:33:40.
