data_PCOD9013697
_publ_section_title
;
Structure prediction by ZEFSAII (Michael W. Deem and Ramdas Pophale) SiO2 
 PCOD9013697
Probable space group: P -1
;
_chemical_formula_sum "Si O2"
_cell_formula_units_Z 16
_cell_length_a 9.738631
_cell_length_b 9.388038
_cell_length_c 14.738148
_cell_angle_alpha 137.436512
_cell_angle_beta 53.927895
_cell_angle_gamma 101.908206
_cell_volume 669.986708
_symmetry_space_group_name_H-M "P -1"
_symmetry_group_IT_number 2
_symmetry_cell_setting 'triclinic'
loop_
_space_group_symop_operation_xyz
x,y,z
-x,-y,-z
loop_
_atom_site_type_symbol
_atom_site_label
_atom_site_fract_x
_atom_site_fract_y
_atom_site_fract_z
Si Si1 0.065327 0.038384 0.892996
Si Si2 0.898172 0.276208 0.669805
Si Si3 0.273804 0.237778 0.486826
Si Si4 0.389532 0.802212 0.371253
Si Si5 0.511477 0.101805 0.903780
Si Si6 0.344220 0.806850 0.923248
Si Si7 0.275942 0.378690 0.962345
Si Si8 0.415759 0.666458 0.494047
O O1 0.164531 0.216033 0.931419
O O2 0.217506 0.790479 0.680488
O O3 0.868348 0.157979 0.974561
O O4 0.000000 0.000000 0.000000
O O5 0.736283 0.323125 0.680446
O O6 0.051380 0.377563 0.636813
O O7 0.836534 0.363584 0.836949
O O8 0.000000 0.000000 0.500000
O O9 0.421490 0.339647 0.504048
O O10 0.319445 0.043399 0.457119
O O11 0.329909 0.113688 0.310060
O O12 0.605054 0.659117 0.192026
O O13 0.378144 0.829893 0.495995
O O14 0.426007 0.279614 0.939205
O O15 0.356698 0.021191 0.964573
O O16 0.587193 0.184840 0.998654
O O17 0.491176 0.583048 0.707851
#
# Coordination Sequence:
#
# PCOD9013697 Si02
#       8
#     2   2   2   2   2   2   2   2
#     4  12  25  45  70 102 131 179 226 274 339 400
#     4  10  22  37  63  99 129 177 225 263 331 409
#     4  10  21  41  65  93 134 174 218 272 336 395
#     4  10  22  41  64  95 135 174 220 273 333 396
#     4  10  22  45  64  93 136 178 215 284 335 389
#     4  11  25  43  67 100 134 172 233 276 331 393
#     4  11  21  44  67  92 141 179 216 280 339 392
#     4  12  24  43  68 101 134 178 221 281 328 397
#
# _framework density 23.881073000000001
#
# number of rings (size 3 to 8) (size 9 to 14) (size 15 to 20)
#    0.000    1.250    3.750    2.250    1.750    5.000 
#    2.250    2.500    0.000    0.000    0.000    0.000 
#    0.000    0.000    0.000    0.000    0.000    0.000 
#
# Total GULP energy -89424.278857 kJ/mol
# GULP energy per Si atom -5589.017429 kJ/mol
# Density = 2.382672 g / cm^3
# Si number density = 23.881073 Si / 1000 Ang^3
#
#
#
# Elastic Constant Matrix: (Units=GPa)
#
#
# Indices 1 2 3 4 5 6 
#
# 1 126.6009 26.7062 69.1914 -9.5651 -2.2345 21.2119
# 2 26.7062 59.7987 28.9458 -17.3652 -4.1811 4.6152
# 3 69.1914 28.9458 167.8403 -23.5670 8.8629 7.2408
# 4 -9.5651 -17.3652 -23.5670 37.4554 2.9101 -5.0971
# 5 -2.2345 -4.1811 8.8629 2.9101 34.6294 -6.5972
# 6 21.2119 4.6152 7.2408 -5.0971 -6.5972 24.2627
#
#
#
# Elastic Compliance Matrix: (Units=1/GPa)
#
#
# Indices 1 2 3 4 5 6 
#
# 1 0.012464 -0.003390 -0.004494 -0.002499 -0.000045 -0.009447
# 2 -0.003390 0.021295 -0.001314 0.008227 0.002314 0.001663
# 3 -0.004494 -0.001314 0.008688 0.004154 -0.002692 0.001727
# 4 -0.002499 0.008227 0.004154 0.033438 -0.001920 0.005883
# 5 -0.000045 0.002314 -0.002692 -0.001920 0.031643 0.008603
# 6 -0.009447 0.001663 0.001727 0.005883 0.008603 0.052219
#
#
# Mechanical properties :
#
#
# Convention : Reuss Voigt Hill
#
# Bulk Modulus (GPa) = 41.57917 67.10298 54.34108
# Shear Modulus (GPa) = 26.85849 34.56259 30.71054
#
# Velocity S-wave (km/s) = 3.35726 3.80844 3.58994
# Velocity P-wave (km/s) = 5.69886 6.89193 6.32360
#
# Compressibility (1/GPa) = 0.02405051
#
# Stress axis : x y z
#
# Youngs Moduli (GPa) = 80.23312 46.95843 115.09684
#
# Poissons Ratio (x) = 0.15921 0.51728
# Poissons Ratio (y) = 0.27203 0.15120
# Poissons Ratio (z) = 0.36059 0.06169
#
# Static dielectric constant tensor:
#      x y z
#    x 1.942350 0.059680 -0.071880 
#    y 0.059680 2.024690 0.029770 
#    z -0.071880 0.029770 2.017220 
# 
# From -- ./inp_files/500956.got.cif
#   From: 2010.05.17/outbox.cif.g08.bks.cpg/sg2_251_cif.got.tgz:500956.got - 2010.06.03 11:33:40.
