data_PCOD9013086
_publ_section_title
;
Structure prediction by ZEFSAII (Michael W. Deem and Ramdas Pophale) SiO2 
 PCOD9013086
Probable space group: P -1
;
_chemical_formula_sum "Si O2"
_cell_formula_units_Z 16
_cell_length_a 23.632558
_cell_length_b 5.071805
_cell_length_c 17.639873
_cell_angle_alpha 112.111670
_cell_angle_beta 19.492550
_cell_angle_gamma 119.678495
_cell_volume 582.440577
_symmetry_space_group_name_H-M "P -1"
_symmetry_group_IT_number 2
_symmetry_cell_setting 'triclinic'
loop_
_space_group_symop_operation_xyz
x,y,z
-x,-y,-z
loop_
_atom_site_type_symbol
_atom_site_label
_atom_site_fract_x
_atom_site_fract_y
_atom_site_fract_z
Si Si1 0.716633 0.590368 0.904216
Si Si2 0.623093 0.365136 0.280717
Si Si3 0.738310 0.436312 0.633927
Si Si4 0.727763 0.900143 0.389459
Si Si5 0.918555 0.550125 0.029815
Si Si6 0.686625 0.953890 0.836179
Si Si7 0.934649 0.761783 0.802919
Si Si8 0.698555 0.601334 0.548892
O O1 0.732473 0.841759 0.847225
O O2 0.822729 0.741903 0.864702
O O3 0.774787 0.332312 0.767181
O O4 0.494143 0.376338 0.182724
O O5 0.500000 0.500000 0.500000
O O6 0.461512 0.099715 0.403653
O O7 0.746805 0.266658 0.171938
O O8 0.780795 0.598740 0.047150
O O9 0.763419 0.789663 0.659630
O O10 0.678877 0.348218 0.611750
O O11 0.930686 0.411015 0.400339
O O12 0.544015 0.214707 0.900041
O O13 0.822736 0.782342 0.190849
O O14 0.689252 0.639450 0.474473
O O15 0.893559 0.251443 0.234525
O O16 0.000000 0.500000 0.000000
O O17 0.091945 0.112014 0.667216
#
# Coordination Sequence:
#
# PCOD9013086 Si02
#       8
#     2   2   2   2   2   2   2   2
#     4  11  25  45  72 102 146 186 236 288 360 416
#     4  10  22  42  64  96 135 176 226 283 346 416
#     4  10  25  41  72 100 139 182 236 284 357 419
#     4  10  21  41  63  88 134 170 220 283 344 412
#     4  10  22  39  63  93 124 174 224 280 344 411
#     4  10  24  48  71 105 145 189 230 295 356 426
#     4  12  24  42  68 101 134 184 234 291 347 427
#     4  11  23  42  64  99 136 181 226 295 348 415
#
# _framework density 27.470616
#
# number of rings (size 3 to 8) (size 9 to 14) (size 15 to 20)
#    0.000    1.500    3.750    0.000    5.250    3.000 
#    0.000    2.500    0.000    0.000    0.000    0.000 
#    0.000    0.000    0.000    0.000    0.000    0.000 
#
# Total GULP energy -89454.099557 kJ/mol
# GULP energy per Si atom -5590.881222 kJ/mol
# Density = 2.740809 g / cm^3
# Si number density = 27.470616 Si / 1000 Ang^3
#
#
#
# Elastic Constant Matrix: (Units=GPa)
#
#
# Indices 1 2 3 4 5 6 
#
# 1 193.8399 12.8417 70.6611 -4.3991 -35.0079 -14.4320
# 2 12.8417 44.6948 33.0943 -4.1225 -7.2533 -11.1907
# 3 70.6611 33.0943 173.8314 9.9727 -6.9537 -8.8768
# 4 -4.3991 -4.1225 9.9727 31.4300 10.0775 6.3036
# 5 -35.0079 -7.2533 -6.9537 10.0775 67.3788 -0.4820
# 6 -14.4320 -11.1907 -8.8768 6.3036 -0.4820 30.2543
#
#
#
# Elastic Compliance Matrix: (Units=1/GPa)
#
#
# Indices 1 2 3 4 5 6 
#
# 1 0.006947 0.001439 -0.002827 0.000354 0.003441 0.002998
# 2 0.001439 0.029287 -0.005749 0.003081 0.002912 0.009237
# 3 -0.002827 -0.005749 0.008144 -0.003420 -0.000739 -0.000385
# 4 0.000354 0.003081 -0.003420 0.036557 -0.005358 -0.007397
# 5 0.003441 0.002912 -0.000739 -0.005358 0.017696 0.003900
# 6 0.002998 0.009237 -0.000385 -0.007397 0.003900 0.039390
#
#
# Mechanical properties :
#
#
# Convention : Reuss Voigt Hill
#
# Bulk Modulus (GPa) = 33.21973 71.72894 52.47434
# Shear Modulus (GPa) = 30.80149 45.53055 38.16602
#
# Velocity S-wave (km/s) = 3.35214 4.07557 3.73143
# Velocity P-wave (km/s) = 5.20592 6.95089 6.14070
#
# Compressibility (1/GPa) = 0.03010259
#
# Stress axis : x y z
#
# Youngs Moduli (GPa) = 143.94856 34.14470 122.79677
#
# Poissons Ratio (x) = -0.04914 0.34720
# Poissons Ratio (y) = -0.20717 0.70599
# Poissons Ratio (z) = 0.40700 0.19631
#
# Static dielectric constant tensor:
#      x y z
#    x 2.226140 0.007770 -0.003080 
#    y 0.007770 2.318490 0.026440 
#    z -0.003080 0.026440 2.109070 
# 
# From -- ./inp_files/141336.got.cif
#   From: 2010.05.17/outbox.cif.g08.bks.cpg/sg2_71_cif.got.tgz:141336.got - 2010.06.03 11:33:40.
