data_PCOD9013398
_publ_section_title
;
Structure prediction by ZEFSAII (Michael W. Deem and Ramdas Pophale) SiO2 
 PCOD9013398
Probable space group: P -1
;
_chemical_formula_sum "Si O2"
_cell_formula_units_Z 14
_cell_length_a 7.845838
_cell_length_b 10.849916
_cell_length_c 11.618416
_cell_angle_alpha 144.072496
_cell_angle_beta 81.463098
_cell_angle_gamma 98.915691
_cell_volume 572.867293
_symmetry_space_group_name_H-M "P -1"
_symmetry_group_IT_number 2
_symmetry_cell_setting 'triclinic'
loop_
_space_group_symop_operation_xyz
x,y,z
-x,-y,-z
loop_
_atom_site_type_symbol
_atom_site_label
_atom_site_fract_x
_atom_site_fract_y
_atom_site_fract_z
Si Si1 0.649586 0.804880 0.857617
Si Si2 0.024861 0.837632 0.202640
Si Si3 0.140739 0.588696 0.399986
Si Si4 0.114677 0.950818 0.841146
Si Si5 0.488327 0.857928 0.506189
Si Si6 0.623899 0.113096 0.897342
Si Si7 0.859639 0.706693 0.351696
O O1 0.773762 0.622062 0.731209
O O2 0.668839 0.899391 0.800360
O O3 0.700961 0.003257 0.085355
O O4 0.464489 0.749958 0.892225
O O5 0.925705 0.706474 0.212850
O O6 0.204987 0.766119 0.079627
O O7 0.081106 0.061686 0.426408
O O8 0.913138 0.892798 0.144156
O O9 0.089622 0.721417 0.616895
O O10 0.302517 0.731209 0.436432
O O11 0.977744 0.564242 0.312011
O O12 0.000000 0.000000 0.000000
O O13 0.516411 0.026893 0.733686
O O14 0.652091 0.710377 0.380555
O O15 0.500000 0.000000 0.500000
#
# Coordination Sequence:
#
# PCOD9013398 Si02
#       7
#     2   2   2   2   2   2   2
#     4  11  24  42  64  99 131 169 220 268 324 395
#     4   9  17  37  65  88 126 168 209 270 322 377
#     4  11  24  44  68  96 135 170 217 275 322 384
#     4  11  21  41  66  93 129 176 208 262 335 384
#     4  11  21  41  72  94 128 180 217 264 333 383
#     4  10  21  41  64  93 132 169 219 268 327 390
#     4   9  20  38  64  99 123 167 226 263 320 389
#
# _framework density 24.438469999999999
#
# number of rings (size 3 to 8) (size 9 to 14) (size 15 to 20)
#    0.000    1.714    2.857    3.429    0.000    1.143 
#    2.571    3.571    0.000    0.000    0.000    0.000 
#    0.000    0.000    0.000    0.000    0.000    0.000 
#
# Total GULP energy -78213.576918 kJ/mol
# GULP energy per Si atom -5586.684066 kJ/mol
# Density = 2.438285 g / cm^3
# Si number density = 24.438470 Si / 1000 Ang^3
#
#
#
# Elastic Constant Matrix: (Units=GPa)
#
#
# Indices 1 2 3 4 5 6 
#
# 1 102.5628 39.5700 37.8284 -9.1056 -23.3701 -3.3356
# 2 39.5700 132.9697 70.5670 -23.2940 -6.3358 -13.1760
# 3 37.8284 70.5670 97.0886 -19.2039 -21.8891 -3.9558
# 4 -9.1056 -23.2940 -19.2039 51.2539 -1.7069 -3.7861
# 5 -23.3701 -6.3358 -21.8891 -1.7069 53.1129 -5.7028
# 6 -3.3356 -13.1760 -3.9558 -3.7861 -5.7028 47.2025
#
#
#
# Elastic Compliance Matrix: (Units=1/GPa)
#
#
# Indices 1 2 3 4 5 6 
#
# 1 0.012467 -0.002208 -0.002099 0.000623 0.004450 0.000676
# 2 -0.002208 0.013516 -0.008959 0.002507 -0.002676 0.002744
# 3 -0.002099 -0.008959 0.019646 0.003123 0.006204 -0.000003
# 4 0.000623 0.002507 0.003123 0.022260 0.002913 0.003143
# 5 0.004450 -0.002676 0.006204 0.002913 0.023456 0.003155
# 6 0.000676 0.002744 -0.000003 0.003143 0.003155 0.022632
#
#
# Mechanical properties :
#
#
# Convention : Reuss Voigt Hill
#
# Bulk Modulus (GPa) = 52.36348 69.83910 61.10129
# Shear Modulus (GPa) = 34.04278 42.62424 38.33351
#
# Velocity S-wave (km/s) = 3.73634 4.18083 3.96482
# Velocity P-wave (km/s) = 6.33142 7.20731 6.78351
#
# Compressibility (1/GPa) = 0.01909728
#
# Stress axis : x y z
#
# Youngs Moduli (GPa) = 80.20908 73.98783 50.90209
#
# Poissons Ratio (x) = 0.16338 0.10682
# Poissons Ratio (y) = 0.17712 0.45603
# Poissons Ratio (z) = 0.16832 0.66286
#
# Static dielectric constant tensor:
#      x y z
#    x 2.173980 0.111150 -0.063670 
#    y 0.111150 1.952560 0.032570 
#    z -0.063670 0.032570 1.981640 
# 
# From -- ./inp_files/388527.got.cif
#   From: 2010.05.17/outbox.cif.g08.bks.cpg/sg2_195_cif.got.tgz:388527.got - 2010.06.03 11:33:40.
