data_PCOD9013948
_publ_section_title
;
Structure prediction by ZEFSAII (Michael W. Deem and Ramdas Pophale) SiO2 
 PCOD9013948
Probable space group: P -1
;
_chemical_formula_sum "Si O2"
_cell_formula_units_Z 14
_cell_length_a 18.105122
_cell_length_b 8.995023
_cell_length_c 11.413356
_cell_angle_alpha 43.752530
_cell_angle_beta 137.365910
_cell_angle_gamma 103.617740
_cell_volume 674.778199
_symmetry_space_group_name_H-M "P -1"
_symmetry_group_IT_number 2
_symmetry_cell_setting 'triclinic'
loop_
_space_group_symop_operation_xyz
x,y,z
-x,-y,-z
loop_
_atom_site_type_symbol
_atom_site_label
_atom_site_fract_x
_atom_site_fract_y
_atom_site_fract_z
Si Si1 0.177407 0.340561 0.175142
Si Si2 0.341815 0.107854 0.261361
Si Si3 0.105392 0.564274 0.570073
Si Si4 0.369449 0.018701 0.795504
Si Si5 0.446790 0.524723 0.791746
Si Si6 0.201399 0.506561 0.468209
Si Si7 0.002877 0.148828 0.166114
O O1 0.243013 0.295004 0.150338
O O2 0.306443 0.186392 0.505335
O O3 0.107626 0.191754 0.201930
O O4 0.061248 0.655929 0.904944
O O5 0.500000 0.000000 0.500000
O O6 0.367174 0.824438 0.472856
O O7 0.256729 0.290163 0.944880
O O8 0.100436 0.618385 0.395913
O O9 0.000000 0.500000 0.500000
O O10 0.069986 0.832109 0.440783
O O11 0.250661 0.213220 0.642924
O O12 0.500000 0.000000 0.000000
O O13 0.424027 0.713817 0.003434
O O14 0.335511 0.470166 0.691167
O O15 0.500000 0.500000 0.000000
O O16 0.126182 0.714511 0.153444
#
# Coordination Sequence:
#
# PCOD9013948 Si02
#       7
#     2   2   2   2   2   2   2
#     4  10  21  42  67  94 124 164 229 266 312 382
#     4  12  26  38  59 100 136 166 204 263 336 388
#     4  12  25  41  61  94 137 170 208 262 336 389
#     4   9  20  36  67  91 117 156 217 266 304 361
#     4  11  20  39  66  89 122 170 219 257 307 384
#     4  10  21  41  66  92 120 163 224 263 306 377
#     4  10  22  42  71  92 119 174 227 270 305 378
#
# _framework density 20.74756
#
# number of rings (size 3 to 8) (size 9 to 14) (size 15 to 20)
#    0.000    1.429    1.429    3.857    4.000    0.571 
#    2.571    0.714    0.000    0.000    0.000    0.000 
#    0.000    0.000    0.000    0.000    0.000    0.000 
#
# Total GULP energy -78130.524015 kJ/mol
# GULP energy per Si atom -5580.751715 kJ/mol
# Density = 2.070034 g / cm^3
# Si number density = 20.747560 Si / 1000 Ang^3
#
#
#
# Elastic Constant Matrix: (Units=GPa)
#
#
# Indices 1 2 3 4 5 6 
#
# 1 65.5627 26.2641 -7.7731 -19.1462 13.4358 -0.7839
# 2 26.2641 99.7977 38.2006 -20.0985 0.0010 -1.4060
# 3 -7.7731 38.2006 95.5286 -13.4453 -2.5156 2.0359
# 4 -19.1462 -20.0985 -13.4453 53.4059 1.0109 7.8754
# 5 13.4358 0.0010 -2.5156 1.0109 25.5383 1.6747
# 6 -0.7839 -1.4060 2.0359 7.8754 1.6747 22.5937
#
#
#
# Elastic Compliance Matrix: (Units=1/GPa)
#
#
# Indices 1 2 3 4 5 6 
#
# 1 0.023187 -0.006631 0.005345 0.007665 -0.011852 -0.001883
# 2 -0.006631 0.014356 -0.006023 0.001380 0.002806 0.000517
# 3 0.005345 -0.006023 0.013826 0.003535 -0.001422 -0.002562
# 4 0.007665 0.001380 0.003535 0.024151 -0.004111 -0.008080
# 5 -0.011852 0.002806 -0.001422 -0.004111 0.045549 -0.002052
# 6 -0.001883 0.000517 -0.002562 -0.008080 -0.002052 0.047426
#
#
# Mechanical properties :
#
#
# Convention : Reuss Voigt Hill
#
# Bulk Modulus (GPa) = 27.20970 41.58580 34.39775
# Shear Modulus (GPa) = 25.59304 33.92075 29.75690
#
# Velocity S-wave (km/s) = 3.51600 4.04781 3.79124
# Velocity P-wave (km/s) = 5.44299 6.47561 5.98162
#
# Compressibility (1/GPa) = 0.03675160
#
# Stress axis : x y z
#
# Youngs Moduli (GPa) = 43.12674 69.65667 72.32562
#
# Poissons Ratio (x) = 0.46190 -0.38660
# Poissons Ratio (y) = 0.28598 0.43564
# Poissons Ratio (z) = -0.23052 0.41956
#
# Static dielectric constant tensor:
#      x y z
#    x 1.869370 0.006330 0.061110 
#    y 0.006330 1.790480 -0.017880 
#    z 0.061110 -0.017880 1.738720 
# 
# From -- ./inp_files/257262.got.cif
#   From: 2010.05.17/outbox.cif.g08.bks.cpg/sg2_129_cif.got.tgz:257262.got - 2010.06.03 11:33:40.
