data_PCOD9013732
_publ_section_title
;
Structure prediction by ZEFSAII (Michael W. Deem and Ramdas Pophale) SiO2 
 PCOD9013732
Probable space group: P -1
;
_chemical_formula_sum "Si O2"
_cell_formula_units_Z 16
_cell_length_a 15.613340
_cell_length_b 7.678949
_cell_length_c 8.620916
_cell_angle_alpha 75.147833
_cell_angle_beta 131.693841
_cell_angle_gamma 78.540861
_cell_volume 641.045444
_symmetry_space_group_name_H-M "P -1"
_symmetry_group_IT_number 2
_symmetry_cell_setting 'triclinic'
loop_
_space_group_symop_operation_xyz
x,y,z
-x,-y,-z
loop_
_atom_site_type_symbol
_atom_site_label
_atom_site_fract_x
_atom_site_fract_y
_atom_site_fract_z
Si Si1 0.462032 0.231176 0.052598
Si Si2 0.901655 0.087620 0.006173
Si Si3 0.106314 0.328974 0.878725
Si Si4 0.367622 0.719746 0.308187
Si Si5 0.825694 0.658975 0.386254
Si Si6 0.675931 0.937253 0.587531
Si Si7 0.347465 0.674090 0.945005
Si Si8 0.142652 0.020874 0.464358
O O1 0.327409 0.276534 0.796733
O O2 0.418009 0.424454 0.074892
O O3 0.549370 0.013221 0.302607
O O4 0.556739 0.258134 0.039326
O O5 0.986659 0.127395 0.224021
O O6 0.881207 0.896685 0.072773
O O7 0.755173 0.280434 0.752205
O O8 0.000000 0.000000 0.000000
O O9 0.140429 0.394123 0.741975
O O10 0.947700 0.484645 0.678042
O O11 0.221162 0.283611 0.154527
O O12 0.500000 0.500000 0.500000
O O13 0.382651 0.892989 0.381417
O O14 0.320504 0.761444 0.064578
O O15 0.831415 0.862014 0.394066
O O16 0.778775 0.966841 0.594144
O O17 0.212976 0.779827 0.655588
#
# Coordination Sequence:
#
# PCOD9013732 Si02
#       8
#     2   2   2   2   2   2   2   2
#     4  10  22  42  67  96 135 182 218 278 346 406
#     4  11  22  42  72  96 130 177 222 288 339 388
#     4  10  23  43  65  95 136 176 229 288 323 409
#     4  11  21  37  64 102 131 160 222 286 333 392
#     4  11  25  42  65  96 140 182 226 271 343 411
#     4  10  21  41  65  94 135 169 223 280 333 399
#     4  10  22  39  69  99 131 169 231 279 336 401
#     4  11  22  41  68  97 131 176 226 275 338 404
#
# _framework density 24.959229000000001
#
# number of rings (size 3 to 8) (size 9 to 14) (size 15 to 20)
#    0.000    1.500    3.750    2.250    0.000    8.000 
#    0.000    1.250    0.000    0.000    0.000    0.000 
#    0.000    0.000    0.000    0.000    0.000    0.000 
#
# Total GULP energy -89321.186643 kJ/mol
# GULP energy per Si atom -5582.574165 kJ/mol
# Density = 2.490242 g / cm^3
# Si number density = 24.959229 Si / 1000 Ang^3
#
#
#
# Elastic Constant Matrix: (Units=GPa)
#
#
# Indices 1 2 3 4 5 6 
#
# 1 59.2457 5.9671 22.6057 -3.9590 17.4211 -17.2465
# 2 5.9671 36.7270 24.5027 -0.0020 7.6176 -10.1978
# 3 22.6057 24.5027 166.2771 -31.4389 32.3413 -6.6885
# 4 -3.9590 -0.0020 -31.4389 30.8497 -3.6675 3.9047
# 5 17.4211 7.6176 32.3413 -3.6675 51.2234 4.2864
# 6 -17.2465 -10.1978 -6.6885 3.9047 4.2864 29.4882
#
#
#
# Elastic Compliance Matrix: (Units=1/GPa)
#
#
# Indices 1 2 3 4 5 6 
#
# 1 0.024780 0.003850 -0.001775 -0.001908 -0.009443 0.017047
# 2 0.003850 0.035561 -0.005695 -0.007777 -0.004813 0.014987
# 3 -0.001775 -0.005695 0.009506 0.009205 -0.003765 -0.001523
# 4 -0.001908 -0.007777 0.009205 0.042430 -0.000359 -0.007284
# 5 -0.009443 -0.004813 -0.003765 -0.000359 0.026796 -0.011889
# 6 0.017047 0.014987 -0.001523 -0.007284 -0.011889 0.051412
#
#
# Mechanical properties :
#
#
# Convention : Reuss Voigt Hill
#
# Bulk Modulus (GPa) = 15.97278 40.93343 28.45311
# Shear Modulus (GPa) = 22.87356 36.25720 29.56538
#
# Velocity S-wave (km/s) = 3.03055 3.81551 3.44546
# Velocity P-wave (km/s) = 4.31962 5.98720 5.22042
#
# Compressibility (1/GPa) = 0.06260652
#
# Stress axis : x y z
#
# Youngs Moduli (GPa) = 40.35567 28.12058 105.19746
#
# Poissons Ratio (x) = -0.10825 0.18669
# Poissons Ratio (y) = -0.15535 0.59911
# Poissons Ratio (z) = 0.07162 0.16015
#
# Static dielectric constant tensor:
#      x y z
#    x 2.002070 -0.013320 0.054910 
#    y -0.013320 1.964640 -0.046040 
#    z 0.054910 -0.046040 2.165620 
# 
# From -- ./inp_files/297986.got.cif
#   From: 2010.05.17/outbox.cif.g08.bks.cpg/sg2_149_cif.got.tgz:297986.got - 2010.06.03 11:33:40.
