data_PCOD9013788
_publ_section_title
;
Structure prediction by ZEFSAII (Michael W. Deem and Ramdas Pophale) SiO2 
 PCOD9013788
Probable space group: P -1
;
_chemical_formula_sum "Si O2"
_cell_formula_units_Z 16
_cell_length_a 5.567405
_cell_length_b 5.283444
_cell_length_c 28.268290
_cell_angle_alpha 48.424131
_cell_angle_beta 78.780013
_cell_angle_gamma 88.601378
_cell_volume 603.903287
_symmetry_space_group_name_H-M "P -1"
_symmetry_group_IT_number 2
_symmetry_cell_setting 'triclinic'
loop_
_space_group_symop_operation_xyz
x,y,z
-x,-y,-z
loop_
_atom_site_type_symbol
_atom_site_label
_atom_site_fract_x
_atom_site_fract_y
_atom_site_fract_z
Si Si1 0.715753 0.850673 0.541291
Si Si2 0.948296 0.398636 0.899532
Si Si3 0.492585 0.762278 0.424259
Si Si4 0.315984 0.819260 0.778664
Si Si5 0.382522 0.827270 0.147142
Si Si6 0.271035 0.658653 0.274764
Si Si7 0.781125 0.227820 0.021352
Si Si8 0.027347 0.978911 0.682914
O O1 0.677889 0.450773 0.581484
O O2 0.500000 0.000000 0.500000
O O3 0.637256 0.936326 0.586249
O O4 0.000000 0.000000 0.500000
O O5 0.119690 0.749233 0.837315
O O6 0.833752 0.256074 0.872297
O O7 0.133421 0.142754 0.940864
O O8 0.745878 0.362731 0.952991
O O9 0.500000 0.500000 0.500000
O O10 0.766595 0.853865 0.382471
O O11 0.488301 0.520555 0.812404
O O12 0.180991 0.776178 0.738805
O O13 0.464191 0.199563 0.729905
O O14 0.298619 0.881517 0.197100
O O15 0.564025 0.137815 0.078376
O O16 0.173961 0.284732 0.304295
O O17 0.082781 0.765871 0.308163
O O18 0.000000 0.500000 0.000000
#
# Coordination Sequence:
#
# PCOD9013788 Si02
#       8
#     2   2   2   2   2   2   2   2
#     4  10  21  44  74 109 149 197 244 298 375 452
#     4  10  21  41  65  96 141 180 237 298 362 433
#     4  10  23  48  72 107 148 191 243 307 377 446
#     4  11  24  45  69 101 140 186 248 294 368 430
#     4  11  23  43  67 100 140 188 239 297 367 427
#     4  12  25  46  70 106 138 195 239 303 361 431
#     4  10  22  37  63 100 135 184 232 295 363 435
#     4  12  27  48  74 104 149 188 249 299 367 441
#
# _framework density 26.494311
#
# number of rings (size 3 to 8) (size 9 to 14) (size 15 to 20)
#    0.000    1.250    2.500    2.250    1.750    2.500 
#   13.500    0.000    0.000    0.000    0.000    0.000 
#    0.000    0.000    0.000    0.000    0.000    0.000 
#
# Total GULP energy -89546.885282 kJ/mol
# GULP energy per Si atom -5596.680330 kJ/mol
# Density = 2.643401 g / cm^3
# Si number density = 26.494311 Si / 1000 Ang^3
#
#
#
# Elastic Constant Matrix: (Units=GPa)
#
#
# Indices 1 2 3 4 5 6 
#
# 1 55.4678 24.9125 31.5166 -2.4692 25.2261 21.3661
# 2 24.9125 180.6975 43.1593 5.0715 -11.4411 5.3818
# 3 31.5166 43.1593 188.6488 23.4843 -25.4768 20.2974
# 4 -2.4692 5.0715 23.4843 47.9691 22.1079 -1.5509
# 5 25.2261 -11.4411 -25.4768 22.1079 5.2896 -29.2283
# 6 21.3661 5.3818 20.2974 -1.5509 -29.2283 39.1458
#
#
#
# Elastic Compliance Matrix: (Units=1/GPa)
#
#
# Indices 1 2 3 4 5 6 
#
# 1 0.009041 -0.000500 0.000762 -0.006281 0.014308 0.005173
# 2 -0.000500 0.005852 -0.001495 0.000889 -0.001814 -0.001075
# 3 0.000762 -0.001495 0.005895 -0.001487 -0.002997 -0.005563
# 4 -0.006281 0.000889 -0.001487 0.017970 0.007654 0.010504
# 5 0.014308 -0.001814 -0.002997 0.007654 -0.012464 -0.015009
# 6 0.005173 -0.001075 -0.005563 0.010504 -0.015009 0.014964
#
#
# Mechanical properties :
#
#
# Convention : Reuss Voigt Hill
#
# Bulk Modulus (GPa) = 54.58379 69.33234 61.95806
# Shear Modulus (GPa) = 100.33557 40.16261 70.24909
#
# Velocity S-wave (km/s) = 6.16059 3.89767 5.15484
# Velocity P-wave (km/s) = 8.44101 6.81773 7.67242
#
# Compressibility (1/GPa) = 0.01832046
#
# Stress axis : x y z
#
# Youngs Moduli (GPa) = 110.60605 170.86843 169.64334
#
# Poissons Ratio (x) = 0.08548 -0.12920
# Poissons Ratio (y) = 0.05533 0.25366
# Poissons Ratio (z) = -0.08424 0.25549
#
# Static dielectric constant tensor:
#      x y z
#    x 1.853800 -0.017360 -0.145320 
#    y -0.017360 2.123790 0.034710 
#    z -0.145320 0.034710 2.040060 
# 
# From -- ./inp_files/621591.got.cif
#   From: 2010.05.17/outbox.cif.g08.bks.cpg/sg2_311_cif.got.tgz:621591.got - 2010.06.03 11:33:40.
