data_PCOD9013537
_publ_section_title
;
Structure prediction by ZEFSAII (Michael W. Deem and Ramdas Pophale) SiO2 
 PCOD9013537
Probable space group: P -1
;
_chemical_formula_sum "Si O2"
_cell_formula_units_Z 14
_cell_length_a 13.139275
_cell_length_b 17.135517
_cell_length_c 24.048039
_cell_angle_alpha 17.238093
_cell_angle_beta 23.326137
_cell_angle_gamma 20.437914
_cell_volume 545.888798
_symmetry_space_group_name_H-M "P -1"
_symmetry_group_IT_number 2
_symmetry_cell_setting 'triclinic'
loop_
_space_group_symop_operation_xyz
x,y,z
-x,-y,-z
loop_
_atom_site_type_symbol
_atom_site_label
_atom_site_fract_x
_atom_site_fract_y
_atom_site_fract_z
Si Si1 0.016646 0.240600 0.066510
Si Si2 0.794206 0.961794 0.584153
Si Si3 0.271540 0.265259 0.812302
Si Si4 0.805461 0.806115 0.421985
Si Si5 0.073182 0.961863 0.342487
Si Si6 0.764549 0.630220 0.681543
Si Si7 0.611660 0.151347 0.062827
O O1 0.982808 0.963504 0.248183
O O2 0.257336 0.231502 0.909264
O O3 0.710651 0.558786 0.991810
O O4 0.058613 0.182638 0.150409
O O5 0.989245 0.602010 0.714197
O O6 0.488535 0.020775 0.725266
O O7 0.815941 0.131764 0.402678
O O8 0.000000 0.000000 0.500000
O O9 0.778163 0.312040 0.898749
O O10 0.246857 0.038067 0.935828
O O11 0.697686 0.697534 0.603487
O O12 0.000000 0.500000 0.500000
O O13 0.530188 0.082819 0.338838
O O14 0.023407 0.699583 0.518779
O O15 0.394486 0.804663 0.317307
#
# Coordination Sequence:
#
# PCOD9013537 Si02
#       7
#     2   2   2   2   2   2   2
#     4   9  21  37  59  95 120 151 199 252 291 348
#     4  11  24  44  62  83 118 167 203 243 300 358
#     4  11  22  41  65  84 120 163 202 239 302 361
#     4   9  16  34  58  83 125 162 187 229 306 358
#     4  11  22  40  61  92 125 152 202 249 294 349
#     4   9  20  36  56  91 121 150 195 249 289 349
#     4  10  21  41  65  85 122 161 195 239 305 358
#
# _framework density 25.646249000000001
#
# number of rings (size 3 to 8) (size 9 to 14) (size 15 to 20)
#    0.000    2.000    1.429    2.571    0.000    1.143 
#    7.714    0.714    0.000    0.000    0.000    0.000 
#    0.000    0.000    0.000    0.000    0.000    0.000 
#
# Total GULP energy -78239.075993 kJ/mol
# GULP energy per Si atom -5588.505428 kJ/mol
# Density = 2.558788 g / cm^3
# Si number density = 25.646249 Si / 1000 Ang^3
#
#
#
# Elastic Constant Matrix: (Units=GPa)
#
#
# Indices 1 2 3 4 5 6 
#
# 1 80.3932 11.5834 17.2823 -2.7754 -0.4336 13.3797
# 2 11.5834 71.7184 31.8650 -16.5348 -1.2696 38.7203
# 3 17.2823 31.8650 79.5252 5.0317 12.0947 17.3118
# 4 -2.7754 -16.5348 5.0317 55.9601 15.3867 -3.2140
# 5 -0.4336 -1.2696 12.0947 15.3867 54.8888 9.9764
# 6 13.3797 38.7203 17.3118 -3.2140 9.9764 42.5877
#
#
#
# Elastic Compliance Matrix: (Units=1/GPa)
#
#
# Indices 1 2 3 4 5 6 
#
# 1 0.013705 0.002324 -0.003008 0.000888 0.001575 -0.005498
# 2 0.002324 0.036745 -0.009988 0.008347 0.006352 -0.030936
# 3 -0.003008 -0.009988 0.017223 -0.003406 -0.003758 0.003648
# 4 0.000888 0.008347 -0.003406 0.021688 -0.004437 -0.003808
# 5 0.001575 0.006352 -0.003758 -0.004437 0.022323 -0.010307
# 6 -0.005498 -0.030936 0.003648 -0.003808 -0.010307 0.053979
#
#
# Mechanical properties :
#
#
# Convention : Reuss Voigt Hill
#
# Bulk Modulus (GPa) = 21.58519 39.23315 30.40917
# Shear Modulus (GPa) = 24.69716 42.08103 33.38909
#
# Velocity S-wave (km/s) = 3.10658 4.05511 3.61211
# Velocity P-wave (km/s) = 4.61547 6.10379 5.41104
#
# Compressibility (1/GPa) = 0.04632806
#
# Stress axis : x y z
#
# Youngs Moduli (GPa) = 72.96673 27.21438 58.06021
#
# Poissons Ratio (x) = -0.06324 0.17467
# Poissons Ratio (y) = -0.16957 0.57992
# Poissons Ratio (z) = 0.21952 0.27182
#
# Static dielectric constant tensor:
#      x y z
#    x 2.056100 -0.021110 0.061920 
#    y -0.021110 2.107530 0.035080 
#    z 0.061920 0.035080 2.101350 
# 
# From -- ./inp_files/612183.got.cif
#   From: 2010.05.17/outbox.cif.g08.bks.cpg/sg2_307_cif.got.tgz:612183.got - 2010.06.03 11:33:40.
