data_PCOD9013950
_publ_section_title
;
Structure prediction by ZEFSAII (Michael W. Deem and Ramdas Pophale) SiO2 
 PCOD9013950
Probable space group: P -1
;
_chemical_formula_sum "Si O2"
_cell_formula_units_Z 16
_cell_length_a 19.343400
_cell_length_b 12.237096
_cell_length_c 7.676981
_cell_angle_alpha 52.465090
_cell_angle_beta 58.321057
_cell_angle_gamma 24.228532
_cell_volume 588.765559
_symmetry_space_group_name_H-M "P -1"
_symmetry_group_IT_number 2
_symmetry_cell_setting 'triclinic'
loop_
_space_group_symop_operation_xyz
x,y,z
-x,-y,-z
loop_
_atom_site_type_symbol
_atom_site_label
_atom_site_fract_x
_atom_site_fract_y
_atom_site_fract_z
Si Si1 0.881046 0.480521 0.546554
Si Si2 0.222736 0.935599 0.975020
Si Si3 0.936821 0.579153 0.811114
Si Si4 0.568748 0.984755 0.261697
Si Si5 0.886506 0.195999 0.672980
Si Si6 0.529041 0.564582 0.142421
Si Si7 0.259663 0.617836 0.661329
Si Si8 0.684536 0.759844 0.883895
O O1 0.053203 0.299513 0.440015
O O2 0.873362 0.327555 0.712253
O O3 0.782875 0.666553 0.668831
O O4 0.765089 0.692360 0.328297
O O5 0.119686 0.948341 0.112900
O O6 0.343212 0.778684 0.138367
O O7 0.345461 0.722405 0.854719
O O8 0.081414 0.263919 0.840073
O O9 0.749180 0.792754 0.876979
O O10 0.000000 0.500000 0.000000
O O11 0.502814 0.999218 0.167267
O O12 0.500000 0.000000 0.500000
O O13 0.490518 0.254277 0.097038
O O14 0.734026 0.426545 0.509644
O O15 0.070881 0.962466 0.581541
O O16 0.606684 0.487502 0.305358
O O17 0.248487 0.486869 0.899584
#
# Coordination Sequence:
#
# PCOD9013950 Si02
#       8
#     2   2   2   2   2   2   2   2
#     4  11  23  40  67  96 127 167 213 261 317 372
#     4  11  23  42  68  91 127 169 212 265 310 372
#     4  12  25  43  61  96 135 167 207 260 324 377
#     4   9  18  38  63  97 125 153 208 264 312 364
#     4  11  23  40  64  94 129 170 209 259 321 380
#     4  10  22  42  67  94 123 166 218 262 310 372
#     4  10  22  40  64  94 128 165 216 261 314 379
#     4  10  21  41  66  92 123 166 217 257 313 375
#
# _framework density 27.175502999999999
#
# number of rings (size 3 to 8) (size 9 to 14) (size 15 to 20)
#    0.000    1.500    2.500    3.375    3.500    1.500 
#    2.250    1.875    0.000    0.000    0.000    0.000 
#    0.000    0.000    0.000    0.000    0.000    0.000 
#
# Total GULP energy -89386.071918 kJ/mol
# GULP energy per Si atom -5586.629495 kJ/mol
# Density = 2.711365 g / cm^3
# Si number density = 27.175503 Si / 1000 Ang^3
#
#
#
# Elastic Constant Matrix: (Units=GPa)
#
#
# Indices 1 2 3 4 5 6 
#
# 1 153.7565 26.3264 27.3977 -19.0291 -5.9031 -25.6826
# 2 26.3264 78.9509 -8.5453 -17.8954 0.4053 -11.6878
# 3 27.3977 -8.5453 55.6960 -8.0430 11.8903 6.3783
# 4 -19.0291 -17.8954 -8.0430 29.3375 -13.2539 3.7477
# 5 -5.9031 0.4053 11.8903 -13.2539 56.0086 -2.6872
# 6 -25.6826 -11.6878 6.3783 3.7477 -2.6872 47.7869
#
#
#
# Elastic Compliance Matrix: (Units=1/GPa)
#
#
# Indices 1 2 3 4 5 6 
#
# 1 0.009369 -0.002042 -0.005643 0.004178 0.003436 0.005154
# 2 -0.002042 0.016395 0.004568 0.010272 0.001202 0.001565
# 3 -0.005643 0.004568 0.023737 0.004117 -0.004965 -0.005686
# 4 0.004178 0.010272 0.004117 0.049106 0.011160 0.000985
# 5 0.003436 0.001202 -0.004965 0.011160 0.022055 0.003168
# 6 0.005154 0.001565 -0.005686 0.000985 0.003168 0.024939
#
#
# Mechanical properties :
#
#
# Convention : Reuss Voigt Hill
#
# Bulk Modulus (GPa) = 23.11272 42.08456 32.59864
# Shear Modulus (GPa) = 30.07386 42.84157 36.45771
#
# Velocity S-wave (km/s) = 3.33025 3.97480 3.66671
# Velocity P-wave (km/s) = 4.82813 6.04857 5.47248
#
# Compressibility (1/GPa) = 0.04326621
#
# Stress axis : x y z
#
# Youngs Moduli (GPa) = 106.73630 60.99360 42.12877
#
# Poissons Ratio (x) = 0.12457 0.23771
# Poissons Ratio (y) = 0.21799 -0.19243
# Poissons Ratio (z) = 0.60226 -0.27859
#
# Static dielectric constant tensor:
#      x y z
#    x 2.320390 0.023840 0.080930 
#    y 0.023840 2.192270 0.038060 
#    z 0.080930 0.038060 2.110860 
# 
# From -- ./inp_files/331706.got.cif
#   From: 2010.05.17/outbox.cif.g08.bks.cpg/sg2_166_cif.got.tgz:331706.got - 2010.06.03 11:33:40.
