data_PCOD9013015
_publ_section_title
;
Structure prediction by ZEFSAII (Michael W. Deem and Ramdas Pophale) SiO2 
 PCOD9013015
Probable space group: P -1
;
_chemical_formula_sum "Si O2"
_cell_formula_units_Z 16
_cell_length_a 22.901672
_cell_length_b 12.154997
_cell_length_c 5.987728
_cell_angle_alpha 54.724476
_cell_angle_beta 120.549383
_cell_angle_gamma 150.061989
_cell_volume 678.974868
_symmetry_space_group_name_H-M "P -1"
_symmetry_group_IT_number 2
_symmetry_cell_setting 'triclinic'
loop_
_space_group_symop_operation_xyz
x,y,z
-x,-y,-z
loop_
_atom_site_type_symbol
_atom_site_label
_atom_site_fract_x
_atom_site_fract_y
_atom_site_fract_z
Si Si1 0.492251 0.133070 0.938642
Si Si2 0.873361 0.602624 0.988664
Si Si3 0.926813 0.183898 0.136589
Si Si4 0.263964 0.446232 0.918579
Si Si5 0.312145 0.285270 0.879384
Si Si6 0.301541 0.760762 0.310963
Si Si7 0.103873 0.583540 0.372488
Si Si8 0.542511 0.666934 0.588276
O O1 0.419246 0.125855 0.671293
O O2 0.622189 0.402121 0.891834
O O3 0.500000 0.000000 0.000000
O O4 0.429329 0.015678 0.191749
O O5 0.845440 0.687444 0.986499
O O6 0.880060 0.481727 0.302124
O O7 0.763995 0.404130 0.842015
O O8 0.990652 0.794005 0.844888
O O9 0.997071 0.348998 0.294802
O O10 0.794769 0.930536 0.232553
O O11 0.917084 0.291488 0.813361
O O12 0.257119 0.317289 0.878522
O O13 0.299668 0.640385 0.629864
O O14 0.431316 0.510976 0.716808
O O15 0.354587 0.238842 0.187346
O O16 0.219938 0.746954 0.258456
O O17 0.500000 0.500000 0.500000
#
# Coordination Sequence:
#
# PCOD9013015 Si02
#       8
#     2   2   2   2   2   2   2   2
#     4  12  23  41  70  98 127 180 215 266 330 386
#     4  10  21  41  62  96 125 164 220 270 315 388
#     4  10  22  40  65  92 127 173 211 265 333 385
#     4  11  23  42  62  95 138 168 217 273 316 395
#     4  11  26  43  66  93 134 177 210 270 333 386
#     4  10  22  37  66  96 130 165 217 273 324 377
#     4   9  21  40  61  95 130 159 218 278 315 387
#     4  11  26  46  64  99 137 168 223 266 322 404
#
# _framework density 23.564935999999999
#
# number of rings (size 3 to 8) (size 9 to 14) (size 15 to 20)
#    0.000    1.500    2.500    1.500    3.500    1.500 
#    0.000    5.625    0.000    0.000    0.000    0.000 
#    0.000    0.000    0.000    0.000    0.000    0.000 
#
# Total GULP energy -89494.604543 kJ/mol
# GULP energy per Si atom -5593.412784 kJ/mol
# Density = 2.351130 g / cm^3
# Si number density = 23.564936 Si / 1000 Ang^3
#
#
#
# Elastic Constant Matrix: (Units=GPa)
#
#
# Indices 1 2 3 4 5 6 
#
# 1 129.9289 19.7408 -3.9339 -6.6700 5.4837 6.7124
# 2 19.7408 57.2849 -15.8981 6.7933 1.0664 15.0775
# 3 -3.9339 -15.8981 61.6024 6.8025 15.6587 -2.2838
# 4 -6.6700 6.7933 6.8025 21.0053 -1.7614 2.9044
# 5 5.4837 1.0664 15.6587 -1.7614 27.8853 -0.6078
# 6 6.7124 15.0775 -2.2838 2.9044 -0.6078 31.1289
#
#
#
# Elastic Compliance Matrix: (Units=1/GPa)
#
#
# Indices 1 2 3 4 5 6 
#
# 1 0.008467 -0.003347 -0.000526 0.003944 -0.001006 -0.000631
# 2 -0.003347 0.025034 0.008653 -0.011108 -0.006074 -0.009851
# 3 -0.000526 0.008653 0.023198 -0.011434 -0.014011 -0.001582
# 4 0.003944 -0.011108 -0.011434 0.057165 0.009649 -0.001454
# 5 -0.001006 -0.006074 -0.014011 0.009649 0.044814 0.002106
# 6 -0.000631 -0.009851 -0.001582 -0.001454 0.002106 0.037093
#
#
# Mechanical properties :
#
#
# Convention : Reuss Voigt Hill
#
# Bulk Modulus (GPa) = 15.09239 27.62598 21.35919
# Shear Modulus (GPa) = 24.00413 32.59772 28.30092
#
# Velocity S-wave (km/s) = 3.19507 3.72333 3.46927
# Velocity P-wave (km/s) = 4.47547 5.49846 5.01313
#
# Compressibility (1/GPa) = 0.06625854
#
# Stress axis : x y z
#
# Youngs Moduli (GPa) = 118.11134 39.94490 43.10740
#
# Poissons Ratio (x) = 0.13368 0.02268
# Poissons Ratio (y) = 0.39527 -0.37299
# Poissons Ratio (z) = 0.06215 -0.34563
#
# Static dielectric constant tensor:
#      x y z
#    x 1.914090 -0.017040 -0.013900 
#    y -0.017040 1.871590 0.002760 
#    z -0.013900 0.002760 1.886350 
# 
# From -- ./inp_files/99521.got.cif
#   From: 2010.05.17/outbox.cif.g08.bks.cpg/sg2_50_cif.got.tgz:99521.got - 2010.06.03 11:33:40.
