data_PCOD9013932
_publ_section_title
;
Structure prediction by ZEFSAII (Michael W. Deem and Ramdas Pophale) SiO2 
 PCOD9013932
Probable space group: P -1
;
_chemical_formula_sum "Si O2"
_cell_formula_units_Z 14
_cell_length_a 8.982564
_cell_length_b 11.970578
_cell_length_c 8.608323
_cell_angle_alpha 73.312011
_cell_angle_beta 119.799023
_cell_angle_gamma 68.764278
_cell_volume 611.191065
_symmetry_space_group_name_H-M "P -1"
_symmetry_group_IT_number 2
_symmetry_cell_setting 'triclinic'
loop_
_space_group_symop_operation_xyz
x,y,z
-x,-y,-z
loop_
_atom_site_type_symbol
_atom_site_label
_atom_site_fract_x
_atom_site_fract_y
_atom_site_fract_z
Si Si1 0.337308 0.163189 0.910683
Si Si2 0.064839 0.967706 0.224493
Si Si3 0.396494 0.658462 0.641646
Si Si4 0.917970 0.408835 0.435343
Si Si5 0.322026 0.786003 0.899947
Si Si6 0.727307 0.872313 0.747770
Si Si7 0.151476 0.601669 0.958383
O O1 0.121187 0.247617 0.662581
O O2 0.456463 0.239927 0.930240
O O3 0.298763 0.146750 0.077062
O O4 0.500000 0.000000 0.000000
O O5 0.252774 0.795311 0.400325
O O6 0.158685 0.055152 0.266045
O O7 0.865659 0.045476 0.211613
O O8 0.000000 0.000000 0.000000
O O9 0.292327 0.572056 0.616721
O O10 0.344716 0.740499 0.749352
O O11 0.654552 0.550250 0.799738
O O12 0.875055 0.426496 0.222481
O O13 0.000000 0.500000 0.500000
O O14 0.254015 0.690550 0.977819
O O15 0.907724 0.703840 0.854367
O O16 0.500000 0.000000 0.500000
#
# Coordination Sequence:
#
# PCOD9013932 Si02
#       7
#     2   2   2   2   2   2   2
#     4  12  23  40  65  97 126 161 210 266 313 362
#     4  11  23  41  65  94 127 166 211 259 310 369
#     4  11  21  41  66  91 124 172 215 251 310 388
#     4  11  22  39  64  95 127 159 208 267 314 364
#     4  10  21  41  66  91 125 170 212 250 309 387
#     4  11  24  43  64  93 129 166 209 260 315 376
#     4  10  23  43  66  91 125 170 212 255 317 384
#
# _framework density 22.906094
#
# number of rings (size 3 to 8) (size 9 to 14) (size 15 to 20)
#    0.000    1.143    0.000    8.143    0.000    2.286 
#    0.000   17.143    0.000    1.714    0.000    0.000 
#    0.000    0.000    0.000    0.000    0.000    0.000 
#
# Total GULP energy -78092.840303 kJ/mol
# GULP energy per Si atom -5578.060022 kJ/mol
# Density = 2.285396 g / cm^3
# Si number density = 22.906094 Si / 1000 Ang^3
#
#
#
# Elastic Constant Matrix: (Units=GPa)
#
#
# Indices 1 2 3 4 5 6 
#
# 1 80.7232 36.0023 35.4967 -4.3265 27.4936 2.4319
# 2 36.0023 84.2903 41.0858 -23.2646 12.0670 0.0509
# 3 35.4967 41.0858 163.3938 -32.6546 38.7648 -21.7275
# 4 -4.3265 -23.2646 -32.6546 30.2918 2.2222 14.4569
# 5 27.4936 12.0670 38.7648 2.2222 39.9654 2.1303
# 6 2.4319 0.0509 -21.7275 14.4569 2.1303 36.6476
#
#
#
# Elastic Compliance Matrix: (Units=1/GPa)
#
#
# Indices 1 2 3 4 5 6 
#
# 1 0.019221 -0.007198 -0.000308 -0.002389 -0.010624 0.000112
# 2 -0.007198 0.020083 -0.000796 0.016743 -0.000921 -0.006573
# 3 -0.000308 -0.000796 0.011977 0.011585 -0.011983 0.003249
# 4 -0.002389 0.016743 0.011585 0.068337 -0.017439 -0.018941
# 5 -0.010624 -0.000921 -0.011983 -0.017439 0.045316 -0.002153
# 6 0.000112 -0.006573 0.003249 -0.018941 -0.002153 0.036812
#
#
# Mechanical properties :
#
#
# Convention : Reuss Voigt Hill
#
# Bulk Modulus (GPa) = 28.83663 61.50855 45.17259
# Shear Modulus (GPa) = 21.74782 35.76912 28.75847
#
# Velocity S-wave (km/s) = 3.08463 3.95594 3.54714
# Velocity P-wave (km/s) = 5.03021 6.91207 6.04482
#
# Compressibility (1/GPa) = 0.03467811
#
# Stress axis : x y z
#
# Youngs Moduli (GPa) = 52.02744 49.79341 83.49064
#
# Poissons Ratio (x) = 0.35842 0.02568
# Poissons Ratio (y) = 0.37450 0.06644
# Poissons Ratio (z) = 0.01601 0.03962
#
# Static dielectric constant tensor:
#      x y z
#    x 1.970490 -0.114370 0.061460 
#    y -0.114370 2.071560 -0.121880 
#    z 0.061460 -0.121880 1.917210 
# 
# From -- ./inp_files/156751.got.cif
#   From: 2010.05.17/outbox.cif.g08.bks.cpg/sg2_79_cif.got.tgz:156751.got - 2010.06.03 11:33:40.
