data_PCOD9013632
_publ_section_title
;
Structure prediction by ZEFSAII (Michael W. Deem and Ramdas Pophale) SiO2 
 PCOD9013632
Probable space group: P -1
;
_chemical_formula_sum "Si O2"
_cell_formula_units_Z 14
_cell_length_a 13.888740
_cell_length_b 8.747524
_cell_length_c 8.020285
_cell_angle_alpha 77.780455
_cell_angle_beta 42.057208
_cell_angle_gamma 87.209688
_cell_volume 629.119424
_symmetry_space_group_name_H-M "P -1"
_symmetry_group_IT_number 2
_symmetry_cell_setting 'triclinic'
loop_
_space_group_symop_operation_xyz
x,y,z
-x,-y,-z
loop_
_atom_site_type_symbol
_atom_site_label
_atom_site_fract_x
_atom_site_fract_y
_atom_site_fract_z
Si Si1 0.085121 0.038661 0.705205
Si Si2 0.181027 0.753203 0.448508
Si Si3 0.166238 0.809126 0.086488
Si Si4 0.476447 0.865669 0.204370
Si Si5 0.378263 0.346188 0.715736
Si Si6 0.649297 0.923699 0.437324
Si Si7 0.081856 0.485795 0.074022
O O1 0.246036 0.113516 0.537918
O O2 0.996207 0.150328 0.692597
O O3 0.101952 0.884105 0.612953
O O4 0.000000 0.000000 0.000000
O O5 0.232593 0.796963 0.185349
O O6 0.323931 0.751465 0.378862
O O7 0.055612 0.601754 0.624305
O O8 0.149729 0.653498 0.029296
O O9 0.254509 0.957084 0.841341
O O10 0.592133 0.754296 0.133771
O O11 0.456150 0.970219 0.368828
O O12 0.500000 0.000000 0.000000
O O13 0.500000 0.500000 0.500000
O O14 0.403653 0.236709 0.551902
O O15 0.215383 0.387713 0.911171
O O16 0.000000 0.500000 0.000000
#
# Coordination Sequence:
#
# PCOD9013632 Si02
#       7
#     2   2   2   2   2   2   2
#     4   9  18  35  62  91 120 162 214 268 324 384
#     4  11  23  40  63  95 130 169 222 282 331 391
#     4  11  21  38  64  96 131 173 221 276 334 397
#     4  11  25  45  69  98 134 177 224 276 334 403
#     4  12  25  43  68  99 133 178 223 274 338 401
#     4  10  21  41  65  91 127 175 223 273 332 404
#     4  12  24  42  65  96 135 178 223 277 335 400
#
# _framework density 22.253326000000001
#
# number of rings (size 3 to 8) (size 9 to 14) (size 15 to 20)
#    0.000    1.143    0.000    9.000    0.000    3.429 
#    0.000    4.286    0.000    0.000    0.000    0.000 
#    0.000    0.000    0.000    0.000    0.000    0.000 
#
# Total GULP energy -78214.441887 kJ/mol
# GULP energy per Si atom -5586.745849 kJ/mol
# Density = 2.220268 g / cm^3
# Si number density = 22.253326 Si / 1000 Ang^3
#
#
#
# Elastic Constant Matrix: (Units=GPa)
#
#
# Indices 1 2 3 4 5 6 
#
# 1 128.1674 62.1364 32.4123 10.4710 -19.3763 0.4455
# 2 62.1364 97.3579 17.6022 -2.7467 -14.1526 16.9617
# 3 32.4123 17.6022 59.7626 -6.3440 -13.5009 -7.2059
# 4 10.4710 -2.7467 -6.3440 38.2859 -6.3967 -9.2192
# 5 -19.3763 -14.1526 -13.5009 -6.3967 42.8301 9.3565
# 6 0.4455 16.9617 -7.2059 -9.2192 9.3565 53.9556
#
#
#
# Elastic Compliance Matrix: (Units=1/GPa)
#
#
# Indices 1 2 3 4 5 6 
#
# 1 0.013390 -0.007701 -0.005190 -0.004751 0.001030 0.000627
# 2 -0.007701 0.016781 -0.000359 0.002528 0.003513 -0.005437
# 3 -0.005190 -0.000359 0.021815 0.006603 0.004655 0.003390
# 4 -0.004751 0.002528 0.006603 0.030522 0.004322 0.004592
# 5 0.001030 0.003513 0.004655 0.004322 0.028098 -0.004625
# 6 0.000627 -0.005437 0.003390 0.004592 -0.004625 0.022277
#
#
# Mechanical properties :
#
#
# Convention : Reuss Voigt Hill
#
# Bulk Modulus (GPa) = 39.23907 56.62107 47.93007
# Shear Modulus (GPa) = 29.78342 38.55679 34.17010
#
# Velocity S-wave (km/s) = 3.66236 4.16700 3.92280
# Velocity P-wave (km/s) = 5.96280 6.97503 6.48868
#
# Compressibility (1/GPa) = 0.02548481
#
# Stress axis : x y z
#
# Youngs Moduli (GPa) = 74.68224 59.59285 45.84040
#
# Poissons Ratio (x) = 0.45892 0.23791
# Poissons Ratio (y) = 0.57513 0.01647
# Poissons Ratio (z) = 0.38760 0.02142
#
# Static dielectric constant tensor:
#      x y z
#    x 1.881040 -0.057310 -0.007640 
#    y -0.057310 1.824600 -0.030170 
#    z -0.007640 -0.030170 2.020950 
# 
# From -- ./inp_files/243273.got.cif
#   From: 2010.05.17/outbox.cif.g08.bks.cpg/sg2_122_cif.got.tgz:243273.got - 2010.06.03 11:33:40.
