data_PCOD9013101
_publ_section_title
;
Structure prediction by ZEFSAII (Michael W. Deem and Ramdas Pophale) SiO2 
 PCOD9013101
Probable space group: P -1
;
_chemical_formula_sum "Si O2"
_cell_formula_units_Z 16
_cell_length_a 30.473183
_cell_length_b 15.291887
_cell_length_c 12.380369
_cell_angle_alpha 25.379515
_cell_angle_beta 152.578940
_cell_angle_gamma 161.355345
_cell_volume 769.255665
_symmetry_space_group_name_H-M "P -1"
_symmetry_group_IT_number 2
_symmetry_cell_setting 'triclinic'
loop_
_space_group_symop_operation_xyz
x,y,z
-x,-y,-z
loop_
_atom_site_type_symbol
_atom_site_label
_atom_site_fract_x
_atom_site_fract_y
_atom_site_fract_z
Si Si1 0.869174 0.701462 0.483466
Si Si2 0.419717 0.164858 0.731529
Si Si3 0.946394 0.651310 0.473827
Si Si4 0.894222 0.345881 0.040497
Si Si5 0.672185 0.299744 0.131122
Si Si6 0.239210 0.207782 0.390472
Si Si7 0.433790 0.672713 0.732255
Si Si8 0.630062 0.650336 0.265017
O O1 0.920689 0.718035 0.458944
O O2 0.726463 0.600384 0.272268
O O3 0.820000 0.440326 0.747611
O O4 0.000000 0.000000 0.500000
O O5 0.500000 0.500000 0.500000
O O6 0.534834 0.191703 0.005874
O O7 0.288134 0.055690 0.630610
O O8 0.371784 0.958540 0.753063
O O9 0.010609 0.531781 0.781995
O O10 0.797732 0.424258 0.343110
O O11 0.075582 0.952302 0.353248
O O12 0.781905 0.987647 0.191300
O O13 0.000000 0.500000 0.000000
O O14 0.732632 0.576607 0.877896
O O15 0.340064 0.409173 0.489548
O O16 0.429161 0.579209 0.704270
O O17 0.500000 0.000000 0.500000
O O18 0.526809 0.680489 0.006145
#
# Coordination Sequence:
#
# PCOD9013101 Si02
#       8
#     2   2   2   2   2   2   2   2
#     4  11  22  41  62  91 129 168 209 260 322 376
#     4   9  21  42  63  86 124 163 204 260 313 363
#     4  10  22  39  63  92 121 164 211 254 310 377
#     4   9  18  38  58  83 126 159 199 257 311 363
#     4  10  21  42  64  93 123 161 210 258 307 377
#     4  10  21  41  63  89 131 161 201 261 312 371
#     4  11  22  39  63  94 125 165 217 260 310 384
#     4  10  22  39  61  94 128 165 207 262 313 369
#
# _framework density 20.799327999999999
#
# number of rings (size 3 to 8) (size 9 to 14) (size 15 to 20)
#    0.000    2.000    1.250    2.625    1.750    1.500 
#   13.500    0.000    0.000    0.000    0.000    0.000 
#    0.000    0.000    0.000    0.000    0.000    0.000 
#
# Total GULP energy -89149.789493 kJ/mol
# GULP energy per Si atom -5571.861843 kJ/mol
# Density = 2.075199 g / cm^3
# Si number density = 20.799328 Si / 1000 Ang^3
#
#
#
# Elastic Constant Matrix: (Units=GPa)
#
#
# Indices 1 2 3 4 5 6 
#
# 1 70.5168 32.8806 17.5322 7.1998 11.6300 0.9504
# 2 32.8806 108.2935 43.2589 29.6411 7.9806 -6.1107
# 3 17.5322 43.2589 69.1582 21.1072 2.2254 -5.4374
# 4 7.1998 29.6411 21.1072 43.0629 0.9505 2.0196
# 5 11.6300 7.9806 2.2254 0.9505 26.9398 3.0614
# 6 0.9504 -6.1107 -5.4374 2.0196 3.0614 33.2497
#
#
#
# Elastic Compliance Matrix: (Units=1/GPa)
#
#
# Indices 1 2 3 4 5 6 
#
# 1 0.017670 -0.004587 -0.001916 0.001331 -0.006023 -0.001188
# 2 -0.004587 0.015181 -0.005984 -0.006824 -0.002072 0.002548
# 3 -0.001916 -0.005984 0.020644 -0.005820 0.000803 0.002611
# 4 0.001331 -0.006824 -0.005820 0.030718 0.001325 -0.004232
# 5 -0.006023 -0.002072 0.000803 0.001325 0.040664 -0.003902
# 6 -0.001188 0.002548 0.002611 -0.004232 -0.003902 0.031621
#
#
# Mechanical properties :
#
#
# Convention : Reuss Voigt Hill
#
# Bulk Modulus (GPa) = 35.06132 48.36800 41.71466
# Shear Modulus (GPa) = 26.18111 30.93693 28.55902
#
# Velocity S-wave (km/s) = 3.55173 3.86087 3.70952
# Velocity P-wave (km/s) = 5.80631 6.57116 6.20054
#
# Compressibility (1/GPa) = 0.02852146
#
# Stress axis : x y z
#
# Youngs Moduli (GPa) = 56.59413 65.87088 48.44103
#
# Poissons Ratio (x) = 0.30215 0.09281
# Poissons Ratio (y) = 0.25960 0.28985
# Poissons Ratio (z) = 0.10843 0.39414
#
# Static dielectric constant tensor:
#      x y z
#    x 1.805340 0.044840 0.044500 
#    y 0.044840 1.765130 0.006530 
#    z 0.044500 0.006530 1.831400 
# 
# From -- ./inp_files/477672.got.cif
#   From: 2010.05.17/outbox.cif.g08.bks.cpg/sg2_239_cif.got.tgz:477672.got - 2010.06.03 11:33:40.
