data_PCOD9013642
_publ_section_title
;
Structure prediction by ZEFSAII (Michael W. Deem and Ramdas Pophale) SiO2 
 PCOD9013642
Probable space group: P -1
;
_chemical_formula_sum "Si O2"
_cell_formula_units_Z 12
_cell_length_a 12.057395
_cell_length_b 9.547522
_cell_length_c 9.368849
_cell_angle_alpha 42.019154
_cell_angle_beta 105.315062
_cell_angle_gamma 128.083985
_cell_volume 528.271867
_symmetry_space_group_name_H-M "P -1"
_symmetry_group_IT_number 2
_symmetry_cell_setting 'triclinic'
loop_
_space_group_symop_operation_xyz
x,y,z
-x,-y,-z
loop_
_atom_site_type_symbol
_atom_site_label
_atom_site_fract_x
_atom_site_fract_y
_atom_site_fract_z
Si Si1 0.967365 0.729974 0.746884
Si Si2 0.400800 0.186088 0.257939
Si Si3 0.208876 0.264070 0.750506
Si Si4 0.772029 0.150212 0.067312
Si Si5 0.483121 0.866197 0.365758
Si Si6 0.136474 0.153975 0.130331
O O1 0.122121 0.813864 0.794575
O O2 0.860017 0.647533 0.910503
O O3 0.873819 0.466369 0.812807
O O4 0.000000 0.000000 0.500000
O O5 0.447081 0.167378 0.445676
O O6 0.429162 0.027675 0.280441
O O7 0.229742 0.069092 0.285119
O O8 0.500000 0.500000 0.000000
O O9 0.338950 0.557794 0.503730
O O10 0.039872 0.106278 0.756775
O O11 0.239840 0.055658 0.889878
O O12 0.204759 0.298954 0.891732
O O13 0.610004 0.022893 0.168757
#
# Coordination Sequence:
#
# PCOD9013642 Si02
#       6
#     2   2   2   2   2   2
#     4  10  21  41  65  92 119 168 211 255 309 371
#     4  11  22  39  63  94 124 166 214 255 303 373
#     4  10  22  42  63  95 129 165 203 261 320 363
#     4  10  22  40  63  90 130 160 207 261 309 371
#     4  11  23  39  66  93 127 168 207 257 316 368
#     4  10  21  42  65  89 129 161 212 257 303 377
#
# _framework density 22.715575999999999
#
# number of rings (size 3 to 8) (size 9 to 14) (size 15 to 20)
#    0.000    1.667    1.667    2.500    2.333    0.667 
#   12.000    0.833    0.000    0.000    0.000    0.000 
#    0.000    0.000    0.000    0.000    0.000    0.000 
#
# Total GULP energy -67135.026605 kJ/mol
# GULP energy per Si atom -5594.585550 kJ/mol
# Density = 2.266387 g / cm^3
# Si number density = 22.715576 Si / 1000 Ang^3
#
#
#
# Elastic Constant Matrix: (Units=GPa)
#
#
# Indices 1 2 3 4 5 6 
#
# 1 131.5653 20.8467 8.8429 -8.4239 7.7292 6.5057
# 2 20.8467 46.9578 15.0161 -19.1864 4.2413 -9.4779
# 3 8.8429 15.0161 71.9040 -28.0871 9.0812 -2.4031
# 4 -8.4239 -19.1864 -28.0871 39.8895 0.7862 4.3067
# 5 7.7292 4.2413 9.0812 0.7862 38.6519 0.2425
# 6 6.5057 -9.4779 -2.4031 4.3067 0.2425 40.3915
#
#
#
# Elastic Compliance Matrix: (Units=1/GPa)
#
#
# Indices 1 2 3 4 5 6 
#
# 1 0.008438 -0.004059 -0.000104 0.000030 -0.001204 -0.002314
# 2 -0.004059 0.029892 -0.000211 0.012744 -0.002718 0.006313
# 3 -0.000104 -0.000211 0.020118 0.014174 -0.004969 -0.000317
# 4 0.000030 0.012744 0.014174 0.041355 -0.005572 -0.000547
# 5 -0.001204 -0.002718 -0.004969 -0.005572 0.027694 -0.000312
# 6 -0.002314 0.006313 -0.000317 -0.000547 -0.000312 0.026653
#
#
# Mechanical properties :
#
#
# Convention : Reuss Voigt Hill
#
# Bulk Modulus (GPa) = 20.12035 37.75981 28.94008
# Shear Modulus (GPa) = 27.86095 37.50136 32.68115
#
# Velocity S-wave (km/s) = 3.50596 4.06755 3.79715
# Velocity P-wave (km/s) = 5.02650 6.22245 5.65617
#
# Compressibility (1/GPa) = 0.04970091
#
# Stress axis : x y z
#
# Youngs Moduli (GPa) = 118.51258 33.45408 49.70667
#
# Poissons Ratio (x) = 0.13578 0.00515
# Poissons Ratio (y) = 0.48101 0.01049
# Poissons Ratio (z) = 0.01227 0.00706
#
# Static dielectric constant tensor:
#      x y z
#    x 1.829020 0.012240 -0.014620 
#    y 0.012240 1.856620 0.030000 
#    z -0.014620 0.030000 1.867780 
# 
# From -- ./inp_files/65760.got.cif
#   From: 2010.05.17/outbox.cif.g08.bks.cpg/sg2_33_cif.got.tgz:65760.got - 2010.06.03 11:33:40.
