data_PCOD9013388
_publ_section_title
;
Structure prediction by ZEFSAII (Michael W. Deem and Ramdas Pophale) SiO2 
 PCOD9013388
Probable space group: P -1
;
_chemical_formula_sum "Si O2"
_cell_formula_units_Z 16
_cell_length_a 7.834010
_cell_length_b 9.221512
_cell_length_c 11.652872
_cell_angle_alpha 80.529567
_cell_angle_beta 97.450484
_cell_angle_gamma 61.274050
_cell_volume 706.631521
_symmetry_space_group_name_H-M "P -1"
_symmetry_group_IT_number 2
_symmetry_cell_setting 'triclinic'
loop_
_space_group_symop_operation_xyz
x,y,z
-x,-y,-z
loop_
_atom_site_type_symbol
_atom_site_label
_atom_site_fract_x
_atom_site_fract_y
_atom_site_fract_z
Si Si1 0.735186 0.453769 0.541065
Si Si2 0.679048 0.910253 0.115071
Si Si3 0.700727 0.612738 0.291032
Si Si4 0.107655 0.108799 0.509641
Si Si5 0.977757 0.184740 0.003773
Si Si6 0.346301 0.840132 0.738860
Si Si7 0.348173 0.536230 0.210612
Si Si8 0.012628 0.735720 0.743984
O O1 0.500000 0.500000 0.500000
O O2 0.738870 0.588530 0.434601
O O3 0.765658 0.441945 0.681621
O O4 0.927754 0.277861 0.534131
O O5 0.649834 0.794630 0.218335
O O6 0.873262 0.798836 0.071329
O O7 0.696045 0.056581 0.161985
O O8 0.500000 0.000000 0.000000
O O9 0.517815 0.582564 0.251017
O O10 0.887018 0.463258 0.254575
O O11 0.151020 0.158642 0.382121
O O12 0.300691 0.978737 0.617728
O O13 0.000000 0.000000 0.500000
O O14 0.765849 0.342641 0.922859
O O15 0.032518 0.207822 0.135325
O O16 0.000000 0.000000 0.000000
O O17 0.555913 0.664299 0.781755
O O18 0.187442 0.777564 0.724955
#
# Coordination Sequence:
#
# PCOD9013388 Si02
#       8
#     2   2   2   2   2   2   2   2
#     4   9  17  35  61  94 122 160 212 257 311 370
#     4  12  26  43  61  91 135 169 205 261 327 376
#     4   9  21  40  63  93 129 166 201 265 324 362
#     4   9  17  34  63  95 124 155 209 272 308 360
#     4  12  24  41  66  95 121 169 222 257 306 388
#     4  10  21  41  64  93 128 167 210 261 322 368
#     4  10  22  40  69  95 122 165 219 262 301 387
#     4   9  20  38  66  95 121 165 215 259 308 374
#
# _framework density 22.642634000000001
#
# number of rings (size 3 to 8) (size 9 to 14) (size 15 to 20)
#    0.000    2.000    1.250    3.750    3.500    1.500 
#    2.250    6.250    0.000    0.000    0.000    0.000 
#    0.000    0.000    0.000    0.000    0.000    0.000 
#
# Total GULP energy -89218.043819 kJ/mol
# GULP energy per Si atom -5576.127739 kJ/mol
# Density = 2.259110 g / cm^3
# Si number density = 22.642634 Si / 1000 Ang^3
#
#
#
# Elastic Constant Matrix: (Units=GPa)
#
#
# Indices 1 2 3 4 5 6 
#
# 1 33.7698 12.3857 8.7991 -5.9716 -4.0112 2.2901
# 2 12.3857 96.8713 59.6688 -18.2793 -12.1788 -6.4908
# 3 8.7991 59.6688 131.6683 -10.3921 -15.7052 -10.6189
# 4 -5.9716 -18.2793 -10.3921 44.5213 -4.9695 -1.3698
# 5 -4.0112 -12.1788 -15.7052 -4.9695 28.9858 -3.8327
# 6 2.2901 -6.4908 -10.6189 -1.3698 -3.8327 15.4312
#
#
#
# Elastic Compliance Matrix: (Units=1/GPa)
#
#
# Indices 1 2 3 4 5 6 
#
# 1 0.032165 -0.003250 -0.000601 0.002946 0.002516 -0.005668
# 2 -0.003250 0.016285 -0.005717 0.005625 0.004937 0.005124
# 3 -0.000601 -0.005717 0.011422 0.000981 0.004773 0.006817
# 4 0.002946 0.005625 0.000981 0.026598 0.008808 0.007153
# 5 0.002516 0.004937 0.004773 0.008808 0.043200 0.016500
# 6 -0.005668 0.005124 0.006817 0.007153 0.016500 0.077225
#
#
# Mechanical properties :
#
#
# Convention : Reuss Voigt Hill
#
# Bulk Modulus (GPa) = 24.54787 47.11294 35.83040
# Shear Modulus (GPa) = 20.86724 29.88472 25.37598
#
# Velocity S-wave (km/s) = 3.03906 3.63691 3.35134
# Velocity P-wave (km/s) = 4.81451 6.20391 5.55284
#
# Compressibility (1/GPa) = 0.04073674
#
# Stress axis : x y z
#
# Youngs Moduli (GPa) = 31.08972 61.40545 87.54773
#
# Poissons Ratio (x) = 0.19955 0.05265
# Poissons Ratio (y) = 0.10103 0.50049
# Poissons Ratio (z) = 0.01870 0.35104
#
# Static dielectric constant tensor:
#      x y z
#    x 2.074580 -0.125040 0.183270 
#    y -0.125040 1.896130 -0.087900 
#    z 0.183270 -0.087900 2.006330 
# 
# From -- ./inp_files/381980.got.cif
#   From: 2010.05.17/outbox.cif.g08.bks.cpg/sg2_191_cif.got.tgz:381980.got - 2010.06.03 11:33:40.
