data_PCOD9013657
_publ_section_title
;
Structure prediction by ZEFSAII (Michael W. Deem and Ramdas Pophale) SiO2 
 PCOD9013657
Probable space group: P -1
;
_chemical_formula_sum "Si O2"
_cell_formula_units_Z 16
_cell_length_a 8.551342
_cell_length_b 8.820417
_cell_length_c 14.420395
_cell_angle_alpha 113.841066
_cell_angle_beta 80.447920
_cell_angle_gamma 51.769507
_cell_volume 637.125822
_symmetry_space_group_name_H-M "P -1"
_symmetry_group_IT_number 2
_symmetry_cell_setting 'triclinic'
loop_
_space_group_symop_operation_xyz
x,y,z
-x,-y,-z
loop_
_atom_site_type_symbol
_atom_site_label
_atom_site_fract_x
_atom_site_fract_y
_atom_site_fract_z
Si Si1 0.194654 0.000512 0.804837
Si Si2 0.520817 0.280861 0.727393
Si Si3 0.910877 0.547568 0.737489
Si Si4 0.065049 0.194422 0.075219
Si Si5 0.668633 0.450925 0.630396
Si Si6 0.393553 0.028353 0.632180
Si Si7 0.866473 0.457455 0.446540
Si Si8 0.719910 0.203687 0.881582
O O1 0.305743 0.066200 0.755088
O O2 0.945990 0.140526 0.816791
O O3 0.383813 0.700234 0.696056
O O4 0.143432 0.082836 0.936748
O O5 0.677143 0.286268 0.653856
O O6 0.525711 0.098871 0.634398
O O7 0.628925 0.178154 0.794181
O O8 0.233081 0.564158 0.831100
O O9 0.849047 0.688686 0.874085
O O10 0.719895 0.578484 0.716200
O O11 0.149362 0.243534 0.651074
O O12 0.990807 0.640161 0.687707
O O13 0.190889 0.966846 0.078400
O O14 0.833054 0.335788 0.493305
O O15 0.588832 0.732251 0.518483
O O16 0.000000 0.500000 0.500000
O O17 0.500000 0.500000 0.000000
#
# Coordination Sequence:
#
# PCOD9013657 Si02
#       8
#     2   2   2   2   2   2   2   2
#     4  11  22  42  62  92 132 170 211 258 319 381
#     4  11  23  41  62  98 130 163 215 266 312 375
#     4  10  22  41  66  92 126 170 213 262 322 375
#     4  11  24  41  62  96 131 164 216 264 311 381
#     4  10  21  41  65  92 129 169 210 264 321 373
#     4  10  23  40  66  94 127 165 219 264 307 388
#     4   9  20  40  67  88 126 170 208 263 324 372
#     4  12  23  39  67  90 130 176 206 255 327 375
#
# _framework density 25.112780000000001
#
# number of rings (size 3 to 8) (size 9 to 14) (size 15 to 20)
#    0.000    1.500    2.500    2.250    5.250    2.500 
#    2.250    5.000    2.750    0.000    0.000    0.000 
#    0.000    0.000    0.000    0.000    0.000    0.000 
#
# Total GULP energy -89537.172145 kJ/mol
# GULP energy per Si atom -5596.073259 kJ/mol
# Density = 2.505562 g / cm^3
# Si number density = 25.112780 Si / 1000 Ang^3
#
#
#
# Elastic Constant Matrix: (Units=GPa)
#
#
# Indices 1 2 3 4 5 6 
#
# 1 72.0444 22.5060 5.0252 -3.9764 -15.1507 -4.7904
# 2 22.5060 149.2579 31.7737 -1.7216 -17.0152 -6.5551
# 3 5.0252 31.7737 59.3358 -6.1769 -6.1688 5.3922
# 4 -3.9764 -1.7216 -6.1769 43.2549 0.9917 -6.6687
# 5 -15.1507 -17.0152 -6.1688 0.9917 24.4779 -12.8014
# 6 -4.7904 -6.5551 5.3922 -6.6687 -12.8014 39.9906
#
#
#
# Elastic Compliance Matrix: (Units=1/GPa)
#
#
# Indices 1 2 3 4 5 6 
#
# 1 0.017606 -0.000745 -0.000031 0.002317 0.013837 0.006807
# 2 -0.000745 0.008642 -0.004232 0.000141 0.006580 0.004028
# 3 -0.000031 -0.004232 0.019651 0.002186 0.000413 -0.002850
# 4 0.002317 0.000141 0.002186 0.024380 0.003873 0.005311
# 5 0.013837 0.006580 0.000413 0.003873 0.066874 0.024733
# 6 0.006807 0.004028 -0.002850 0.005311 0.024733 0.035669
#
#
# Mechanical properties :
#
#
# Convention : Reuss Voigt Hill
#
# Bulk Modulus (GPa) = 27.86797 44.36088 36.11442
# Shear Modulus (GPa) = 25.66775 36.30024 30.98400
#
# Velocity S-wave (km/s) = 3.20050 3.80608 3.51635
# Velocity P-wave (km/s) = 4.97783 6.08425 5.55863
#
# Compressibility (1/GPa) = 0.03588349
#
# Stress axis : x y z
#
# Youngs Moduli (GPa) = 56.80002 115.71914 50.88718
#
# Poissons Ratio (x) = 0.08621 0.00157
# Poissons Ratio (y) = 0.04232 0.21533
# Poissons Ratio (z) = 0.00176 0.48968
#
# Static dielectric constant tensor:
#      x y z
#    x 1.983530 0.009720 -0.001490 
#    y 0.009720 2.001320 -0.022180 
#    z -0.001490 -0.022180 2.010000 
# 
# From -- ./inp_files/313845.got.cif
#   From: 2010.05.17/outbox.cif.g08.bks.cpg/sg2_157_cif.got.tgz:313845.got - 2010.06.03 11:33:40.
