data_PCOD9013171
_publ_section_title
;
Structure prediction by ZEFSAII (Michael W. Deem and Ramdas Pophale) SiO2 
 PCOD9013171
Probable space group: P -1
;
_chemical_formula_sum "Si O2"
_cell_formula_units_Z 16
_cell_length_a 9.391687
_cell_length_b 18.935902
_cell_length_c 11.821410
_cell_angle_alpha 152.182608
_cell_angle_beta 41.656813
_cell_angle_gamma 135.331723
_cell_volume 643.415196
_symmetry_space_group_name_H-M "P -1"
_symmetry_group_IT_number 2
_symmetry_cell_setting 'triclinic'
loop_
_space_group_symop_operation_xyz
x,y,z
-x,-y,-z
loop_
_atom_site_type_symbol
_atom_site_label
_atom_site_fract_x
_atom_site_fract_y
_atom_site_fract_z
Si Si1 0.104092 0.351265 0.855038
Si Si2 0.097436 0.116410 0.703531
Si Si3 0.420455 0.666346 0.549914
Si Si4 0.386898 0.171676 0.130269
Si Si5 0.108759 0.851654 0.887802
Si Si6 0.349703 0.318268 0.146125
Si Si7 0.472422 0.856208 0.396345
Si Si8 0.965529 0.300984 0.625779
O O1 0.066238 0.278000 0.896616
O O2 0.350880 0.337381 0.653577
O O3 0.959923 0.270256 0.721217
O O4 0.066265 0.525044 0.124445
O O5 0.352750 0.111215 0.562361
O O6 0.000000 0.000000 0.500000
O O7 0.980896 0.092523 0.859739
O O8 0.455246 0.795352 0.810421
O O9 0.245119 0.716367 0.640694
O O10 0.352277 0.498785 0.408014
O O11 0.480737 0.244446 0.060728
O O12 0.201992 0.275507 0.413234
O O13 0.264326 0.998226 0.952465
O O14 0.890697 0.780752 0.851793
O O15 0.452610 0.283968 0.916534
O O16 0.216585 0.805817 0.489503
O O17 0.500000 0.000000 0.500000
#
# Coordination Sequence:
#
# PCOD9013171 Si02
#       8
#     2   2   2   2   2   2   2   2
#     4  10  22  40  66  90 131 167 210 266 320 381
#     4  11  24  42  64  96 128 169 220 263 328 384
#     4  11  23  43  65  98 131 167 215 268 323 387
#     4  11  24  42  68  95 129 173 219 261 323 387
#     4  11  25  44  65  94 134 169 216 270 320 389
#     4  11  24  43  64  97 130 170 216 265 325 382
#     4  11  23  41  65  93 131 167 216 268 318 390
#     4  10  21  41  63  94 127 164 214 264 316 380
#
# _framework density 24.8673
#
# number of rings (size 3 to 8) (size 9 to 14) (size 15 to 20)
#    0.000    1.250    1.250    5.250    1.750    4.500 
#    0.000    0.000    0.000    0.000    0.000    0.000 
#    0.000    0.000    0.000    0.000    0.000    0.000 
#
# Total GULP energy -89644.493603 kJ/mol
# GULP energy per Si atom -5602.780850 kJ/mol
# Density = 2.481070 g / cm^3
# Si number density = 24.867300 Si / 1000 Ang^3
#
#
#
# Elastic Constant Matrix: (Units=GPa)
#
#
# Indices 1 2 3 4 5 6 
#
# 1 99.6955 8.1289 10.3741 -1.8424 -1.9283 -1.0658
# 2 8.1289 60.0653 24.5101 9.1467 -2.3555 -2.4941
# 3 10.3741 24.5101 52.2740 6.6977 -1.4884 4.5265
# 4 -1.8424 9.1467 6.6977 43.0137 1.0266 -10.8176
# 5 -1.9283 -2.3555 -1.4884 1.0266 41.3976 6.0070
# 6 -1.0658 -2.4941 4.5265 -10.8176 6.0070 35.7283
#
#
#
# Elastic Compliance Matrix: (Units=1/GPa)
#
#
# Indices 1 2 3 4 5 6 
#
# 1 0.010322 -0.000746 -0.001900 0.001089 0.000229 0.000788
# 2 -0.000746 0.021150 -0.009570 -0.002609 0.000632 0.001770
# 3 -0.001900 -0.009570 0.024871 -0.003209 0.001070 -0.005027
# 4 0.001089 -0.002609 -0.003209 0.026579 -0.002129 0.008662
# 5 0.000229 0.000632 0.001070 -0.002129 0.025010 -0.004934
# 6 0.000788 0.001770 -0.005027 0.008662 -0.004934 0.032225
#
#
# Mechanical properties :
#
#
# Convention : Reuss Voigt Hill
#
# Bulk Modulus (GPa) = 31.33627 33.11792 32.22709
# Shear Modulus (GPa) = 28.53459 35.29604 31.91532
#
# Velocity S-wave (km/s) = 3.39111 3.77155 3.58638
# Velocity P-wave (km/s) = 5.28788 5.68444 5.48974
#
# Compressibility (1/GPa) = 0.03191190
#
# Stress axis : x y z
#
# Youngs Moduli (GPa) = 96.88002 47.28097 40.20737
#
# Poissons Ratio (x) = 0.03526 0.07640
# Poissons Ratio (y) = 0.07225 0.38478
# Poissons Ratio (z) = 0.18408 0.45247
#
# Static dielectric constant tensor:
#      x y z
#    x 1.953100 -0.023850 0.035230 
#    y -0.023850 2.009310 -0.052350 
#    z 0.035230 -0.052350 1.966020 
# 
# From -- ./inp_files/274769.got.cif
#   From: 2010.05.17/outbox.cif.g08.bks.cpg/sg2_138_cif.got.tgz:274769.got - 2010.06.03 11:33:40.
