data_PCOD9013058
_publ_section_title
;
Structure prediction by ZEFSAII (Michael W. Deem and Ramdas Pophale) SiO2 
 PCOD9013058
Probable space group: P -1
;
_chemical_formula_sum "Si O2"
_cell_formula_units_Z 16
_cell_length_a 14.580736
_cell_length_b 9.988863
_cell_length_c 13.264972
_cell_angle_alpha 84.434589
_cell_angle_beta 29.625439
_cell_angle_gamma 103.880878
_cell_volume 714.963791
_symmetry_space_group_name_H-M "P -1"
_symmetry_group_IT_number 2
_symmetry_cell_setting 'triclinic'
loop_
_space_group_symop_operation_xyz
x,y,z
-x,-y,-z
loop_
_atom_site_type_symbol
_atom_site_label
_atom_site_fract_x
_atom_site_fract_y
_atom_site_fract_z
Si Si1 0.725080 0.485112 0.339919
Si Si2 0.097949 0.459842 0.066353
Si Si3 0.066087 0.846786 0.613742
Si Si4 0.206993 0.329645 0.416967
Si Si5 0.411259 0.203482 0.357745
Si Si6 0.177535 0.715396 0.325411
Si Si7 0.608622 0.738147 0.954540
Si Si8 0.746428 0.808432 0.281886
O O1 0.807004 0.510419 0.141755
O O2 0.759409 0.658751 0.315813
O O3 0.445107 0.297967 0.619413
O O4 0.882287 0.465329 0.262640
O O5 0.306784 0.617632 0.929524
O O6 0.021970 0.281090 0.197003
O O7 0.107435 0.762299 0.489943
O O8 0.854154 0.850814 0.780110
O O9 0.317095 0.039022 0.391079
O O10 0.246707 0.251297 0.477503
O O11 0.400721 0.545860 0.220877
O O12 0.929064 0.244098 0.666295
O O13 0.304584 0.292172 0.229275
O O14 0.363756 0.156250 0.524258
O O15 0.458909 0.800234 0.061303
O O16 0.000000 0.500000 0.500000
O O17 0.000000 0.000000 0.000000
#
# Coordination Sequence:
#
# PCOD9013058 Si02
#       8
#     2   2   2   2   2   2   2   2
#     4   9  21  40  65  89 115 171 201 238 317 373
#     4  10  21  41  63  86 124 158 206 254 302 368
#     4  11  22  39  60  91 125 162 204 257 309 356
#     4   9  18  37  60  85 122 158 207 249 300 364
#     4  11  23  38  61  92 122 159 203 255 309 361
#     4   9  20  36  62  88 115 168 209 240 311 365
#     4   9  18  37  62  82 121 168 195 252 308 355
#     4  10  21  41  63  92 128 156 200 255 304 367
#
# _framework density 22.378754000000001
#
# number of rings (size 3 to 8) (size 9 to 14) (size 15 to 20)
#    0.000    2.250    1.250    1.500    0.000    5.000 
#    6.750    5.000    0.000    0.000    0.000    0.000 
#    0.000    0.000    0.000    0.000    0.000    0.000 
#
# Total GULP energy -89335.562885 kJ/mol
# GULP energy per Si atom -5583.472680 kJ/mol
# Density = 2.232782 g / cm^3
# Si number density = 22.378754 Si / 1000 Ang^3
#
#
#
# Elastic Constant Matrix: (Units=GPa)
#
#
# Indices 1 2 3 4 5 6 
#
# 1 91.0710 40.6136 22.5108 -6.5486 -36.1268 -9.2170
# 2 40.6136 82.3290 44.4448 -6.9710 -30.1079 8.8351
# 3 22.5108 44.4448 52.3091 -12.0969 -22.8047 -6.5791
# 4 -6.5486 -6.9710 -12.0969 36.5967 -6.8438 -12.1051
# 5 -36.1268 -30.1079 -22.8047 -6.8438 35.5424 11.8082
# 6 -9.2170 8.8351 -6.5791 -12.1051 11.8082 30.7268
#
#
#
# Elastic Compliance Matrix: (Units=1/GPa)
#
#
# Indices 1 2 3 4 5 6 
#
# 1 0.023275 -0.009470 0.012535 0.013802 0.023401 0.008833
# 2 -0.009470 0.041057 -0.032205 -0.012531 0.012466 -0.031269
# 3 0.012535 -0.032205 0.060473 0.029765 0.020026 0.029999
# 4 0.013802 -0.012531 0.029765 0.049846 0.023955 0.024548
# 5 0.023401 0.012466 0.020026 0.023955 0.085108 -0.015546
# 6 0.008833 -0.031269 0.029999 0.024548 -0.015546 0.066254
#
#
# Mechanical properties :
#
#
# Convention : Reuss Voigt Hill
#
# Bulk Modulus (GPa) = 15.03204 48.98306 32.00755
# Shear Modulus (GPa) = 12.30108 28.44916 20.37512
#
# Velocity S-wave (km/s) = 2.34706 3.56934 3.02067
# Velocity P-wave (km/s) = 3.75188 6.23880 5.14778
#
# Compressibility (1/GPa) = 0.06652459
#
# Stress axis : x y z
#
# Youngs Moduli (GPa) = 42.96531 24.35628 16.53627
#
# Poissons Ratio (x) = 0.23065 -0.20728
# Poissons Ratio (y) = 0.40687 0.53255
# Poissons Ratio (z) = -0.53856 0.78440
#
# Static dielectric constant tensor:
#      x y z
#    x 1.831000 0.002210 -0.017390 
#    y 0.002210 1.848720 0.013160 
#    z -0.017390 0.013160 1.843900 
# 
# From -- ./inp_files/529609.got.cif
#   From: 2010.05.17/outbox.cif.g08.bks.cpg/sg2_265_cif.got.tgz:529609.got - 2010.06.03 11:33:40.
