data_PCOD9013878
_publ_section_title
;
Structure prediction by ZEFSAII (Michael W. Deem and Ramdas Pophale) SiO2 
 PCOD9013878
Probable space group: P -1
;
_chemical_formula_sum "Si O2"
_cell_formula_units_Z 16
_cell_length_a 9.314760
_cell_length_b 11.507849
_cell_length_c 12.558543
_cell_angle_alpha 96.250884
_cell_angle_beta 58.382502
_cell_angle_gamma 55.194800
_cell_volume 764.308158
_symmetry_space_group_name_H-M "P -1"
_symmetry_group_IT_number 2
_symmetry_cell_setting 'triclinic'
loop_
_space_group_symop_operation_xyz
x,y,z
-x,-y,-z
loop_
_atom_site_type_symbol
_atom_site_label
_atom_site_fract_x
_atom_site_fract_y
_atom_site_fract_z
Si Si1 0.359673 0.109878 0.292653
Si Si2 0.573294 0.426825 0.303325
Si Si3 0.094774 0.655506 0.651379
Si Si4 0.258055 0.486268 0.915395
Si Si5 0.729611 0.756625 0.234451
Si Si6 0.708085 0.139294 0.103986
Si Si7 0.436789 0.402507 0.055845
Si Si8 0.902051 0.628875 0.383110
O O1 0.577438 0.081378 0.158580
O O2 0.197740 0.268097 0.457363
O O3 0.170149 0.170547 0.278375
O O4 0.493744 0.938040 0.288918
O O5 0.320668 0.583030 0.480552
O O6 0.817449 0.340559 0.268080
O O7 0.583234 0.492922 0.196769
O O8 0.582238 0.286675 0.257329
O O9 0.096000 0.513271 0.635487
O O10 0.244861 0.391767 0.823955
O O11 0.372155 0.372415 0.966601
O O12 0.988157 0.674820 0.075958
O O13 0.738607 0.758066 0.358656
O O14 0.647874 0.228104 0.022524
O O15 0.000000 0.000000 0.000000
O O16 0.185088 0.525451 0.237242
O O17 0.500000 0.500000 0.000000
#
# Coordination Sequence:
#
# PCOD9013878 Si02
#       8
#     2   2   2   2   2   2   2   2
#     4  12  24  41  65  95 128 164 211 268 316 370
#     4  11  22  42  66  92 125 169 212 257 316 379
#     4  11  23  40  68  93 124 169 212 259 316 377
#     4  10  21  41  66  86 123 169 210 254 313 382
#     4  10  23  40  63  92 124 164 211 259 316 372
#     4  12  25  41  62  97 130 159 208 271 319 366
#     4  11  23  39  66  92 120 168 216 253 310 383
#     4  11  21  42  65  92 123 172 215 253 312 386
#
# _framework density 20.933964
#
# number of rings (size 3 to 8) (size 9 to 14) (size 15 to 20)
#    0.000    1.000    5.000    2.250    1.750    1.000 
#    0.000    2.500    0.000    0.000    0.000    0.000 
#    0.000    0.000    0.000    0.000    0.000    0.000 
#
# Total GULP energy -89389.967157 kJ/mol
# GULP energy per Si atom -5586.872947 kJ/mol
# Density = 2.088632 g / cm^3
# Si number density = 20.933964 Si / 1000 Ang^3
#
#
#
# Elastic Constant Matrix: (Units=GPa)
#
#
# Indices 1 2 3 4 5 6 
#
# 1 72.5533 20.5700 10.3290 -3.9578 -11.9302 -29.8518
# 2 20.5700 109.0478 12.1841 -6.8365 -13.7599 -42.5926
# 3 10.3290 12.1841 55.1342 -18.5074 -13.7052 -13.6638
# 4 -3.9578 -6.8365 -18.5074 21.6690 1.4321 -5.0490
# 5 -11.9302 -13.7599 -13.7052 1.4321 36.4615 -1.5688
# 6 -29.8518 -42.5926 -13.6638 -5.0490 -1.5688 44.4768
#
#
#
# Elastic Compliance Matrix: (Units=1/GPa)
#
#
# Indices 1 2 3 4 5 6 
#
# 1 0.034099 0.017878 0.024228 0.043161 0.027610 0.053324
# 2 0.017878 0.031557 0.026729 0.047412 0.028388 0.056814
# 3 0.024228 0.026729 0.062825 0.080491 0.041555 0.071761
# 4 0.043161 0.047412 0.080491 0.161568 0.061070 0.119595
# 5 0.027610 0.028388 0.041555 0.061070 0.063305 0.067648
# 6 0.053324 0.056814 0.071761 0.119595 0.067648 0.150689
#
#
# Mechanical properties :
#
#
# Convention : Reuss Voigt Hill
#
# Bulk Modulus (GPa) = 3.75727 35.87794 19.81761
# Shear Modulus (GPa) = 10.98683 33.43160 22.20922
#
# Velocity S-wave (km/s) = 2.29341 4.00059 3.26071
# Velocity P-wave (km/s) = 2.96845 6.20608 4.86452
#
# Compressibility (1/GPa) = 0.26615066
#
# Stress axis : x y z
#
# Youngs Moduli (GPa) = 29.32595 31.68895 15.91723
#
# Poissons Ratio (x) = -0.56654 -0.38564
# Poissons Ratio (y) = -0.52429 -0.42545
# Poissons Ratio (z) = -0.71050 -0.84701
#
# Static dielectric constant tensor:
#      x y z
#    x 1.819350 -0.023000 -0.001830 
#    y -0.023000 1.736470 -0.000870 
#    z -0.001830 -0.000870 1.741460 
# 
# From -- ./inp_files/262187.got.cif
#   From: 2010.05.17/outbox.cif.g08.bks.cpg/sg2_132_cif.got.tgz:262187.got - 2010.06.03 11:33:40.
