data_PCOD9013909
_publ_section_title
;
Structure prediction by ZEFSAII (Michael W. Deem and Ramdas Pophale) SiO2 
 PCOD9013909
Probable space group: P -1
;
_chemical_formula_sum "Si O2"
_cell_formula_units_Z 14
_cell_length_a 11.818647
_cell_length_b 8.846224
_cell_length_c 20.621781
_cell_angle_alpha 139.495080
_cell_angle_beta 149.984328
_cell_angle_gamma 36.449473
_cell_volume 625.802208
_symmetry_space_group_name_H-M "P -1"
_symmetry_group_IT_number 2
_symmetry_cell_setting 'triclinic'
loop_
_space_group_symop_operation_xyz
x,y,z
-x,-y,-z
loop_
_atom_site_type_symbol
_atom_site_label
_atom_site_fract_x
_atom_site_fract_y
_atom_site_fract_z
Si Si1 0.127852 0.900149 0.196759
Si Si2 0.475462 0.910123 0.595459
Si Si3 0.703379 0.956148 0.304766
Si Si4 0.232497 0.563617 0.499036
Si Si5 0.938499 0.787522 0.611835
Si Si6 0.513500 0.638948 0.854081
Si Si7 0.459432 0.864513 0.033241
O O1 0.263156 0.599728 0.148045
O O2 0.300990 0.016743 0.288482
O O3 0.123128 0.963422 0.291210
O O4 0.839103 0.041530 0.077033
O O5 0.559798 0.632111 0.511763
O O6 0.437403 0.946819 0.664916
O O7 0.214927 0.107323 0.495739
O O8 0.588178 0.829183 0.155233
O O9 0.984716 0.741054 0.391696
O O10 0.699920 0.223566 0.364059
O O11 0.168725 0.387762 0.460521
O O12 0.241320 0.641684 0.710757
O O13 0.501197 0.901992 0.904409
O O14 0.558150 0.639766 0.954286
#
# Coordination Sequence:
#
# PCOD9013909 Si02
#       7
#     2   2   2   2   2   2   2
#     4  10  21  41  66  90 123 165 211 259 305 364
#     4  11  24  41  65  99 124 163 209 258 316 368
#     4  11  25  40  63  93 133 167 199 256 321 371
#     4  10  23  43  60  97 130 163 206 255 313 376
#     4  10  23  40  69  96 123 159 216 260 303 373
#     4  10  22  42  65  91 123 166 215 257 305 365
#     4  10  24  41  59  94 126 165 213 252 307 375
#
# _framework density 22.371285
#
# number of rings (size 3 to 8) (size 9 to 14) (size 15 to 20)
#    0.000    1.714    0.000    3.429    8.000    2.857 
#    0.000   10.000    0.000    0.000    0.000    0.000 
#    0.000    0.000    0.000    0.000    0.000    0.000 
#
# Total GULP energy -78324.843126 kJ/mol
# GULP energy per Si atom -5594.631652 kJ/mol
# Density = 2.232037 g / cm^3
# Si number density = 22.371285 Si / 1000 Ang^3
#
#
#
# Elastic Constant Matrix: (Units=GPa)
#
#
# Indices 1 2 3 4 5 6 
#
# 1 614.9351 -128.2108 -73.4216 -81.9416 169.5080 30.3076
# 2 -128.2108 88.2483 34.0378 28.7908 -72.5643 -33.0053
# 3 -73.4216 34.0378 144.5990 1.2351 -64.9284 -12.5426
# 4 -81.9416 28.7908 1.2351 30.2612 -28.6592 -8.8761
# 5 169.5080 -72.5643 -64.9284 -28.6592 107.3198 23.2827
# 6 30.3076 -33.0053 -12.5426 -8.8761 23.2827 36.5769
#
#
#
# Elastic Compliance Matrix: (Units=1/GPa)
#
#
# Indices 1 2 3 4 5 6 
#
# 1 0.003529 0.000501 -0.000091 0.005626 -0.004108 0.001477
# 2 0.000501 0.037407 0.001316 -0.011525 0.017978 0.019550
# 3 -0.000091 0.001316 0.010706 0.007021 0.009218 0.000770
# 4 0.005626 -0.011525 0.007021 0.063137 0.004469 -0.000176
# 5 -0.004108 0.017978 0.009218 0.004469 0.034289 0.002046
# 6 0.001477 0.019550 0.000770 -0.000176 0.002046 0.042675
#
#
# Mechanical properties :
#
#
# Convention : Reuss Voigt Hill
#
# Bulk Modulus (GPa) = 18.15030 56.95479 37.55255
# Shear Modulus (GPa) = 24.19482 102.52338 63.35910
#
# Velocity S-wave (km/s) = 3.29220 6.77699 5.32758
# Velocity P-wave (km/s) = 4.75208 9.31402 7.39369
#
# Compressibility (1/GPa) = 0.05509550
#
# Stress axis : x y z
#
# Youngs Moduli (GPa) = 283.35469 26.73277 93.40775
#
# Poissons Ratio (x) = -0.01340 0.00847
# Poissons Ratio (y) = -0.14205 -0.12293
# Poissons Ratio (z) = 0.02570 -0.03518
#
# Static dielectric constant tensor:
#      x y z
#    x 1.853460 0.001210 -0.019030 
#    y 0.001210 1.843650 0.046830 
#    z -0.019030 0.046830 1.832490 
# 
# From -- ./inp_files/270038.got.cif
#   From: 2010.05.17/outbox.cif.g08.bks.cpg/sg2_136_cif.got.tgz:270038.got - 2010.06.03 11:33:40.
