data_PCOD9013912
_publ_section_title
;
Structure prediction by ZEFSAII (Michael W. Deem and Ramdas Pophale) SiO2 
 PCOD9013912
Probable space group: P -1
;
_chemical_formula_sum "Si O2"
_cell_formula_units_Z 12
_cell_length_a 11.831613
_cell_length_b 15.596277
_cell_length_c 8.491893
_cell_angle_alpha 50.532354
_cell_angle_beta 116.767430
_cell_angle_gamma 154.487677
_cell_volume 483.879960
_symmetry_space_group_name_H-M "P -1"
_symmetry_group_IT_number 2
_symmetry_cell_setting 'triclinic'
loop_
_space_group_symop_operation_xyz
x,y,z
-x,-y,-z
loop_
_atom_site_type_symbol
_atom_site_label
_atom_site_fract_x
_atom_site_fract_y
_atom_site_fract_z
Si Si1 0.624851 0.350460 0.858416
Si Si2 0.129302 0.752801 0.936562
Si Si3 0.606609 0.058137 0.672303
Si Si4 0.258940 0.654451 0.382170
Si Si5 0.692644 0.720842 0.084147
Si Si6 0.323416 0.515443 0.815550
O O1 0.595209 0.309468 0.703992
O O2 0.515305 0.385423 0.797219
O O3 0.938627 0.585709 0.857297
O O4 0.456448 0.117112 0.112772
O O5 0.452550 0.016923 0.761099
O O6 0.959072 0.706524 0.990677
O O7 0.163547 0.674752 0.160725
O O8 0.924133 0.345872 0.554911
O O9 0.500000 0.000000 0.500000
O O10 0.361257 0.666378 0.594446
O O11 0.694200 0.591574 0.203880
O O12 0.583902 0.688960 0.889362
O O13 0.000000 0.000000 0.000000
#
# Coordination Sequence:
#
# PCOD9013912 Si02
#       6
#     2   2   2   2   2   2
#     4  11  21  41  62  95 126 161 211 250 306 374
#     4   9  22  39  64  89 126 161 199 258 304 366
#     4  10  21  41  66  90 126 164 200 258 316 363
#     4  10  23  38  64  94 125 159 205 253 311 366
#     4  10  22  39  68  88 126 167 207 256 299 366
#     4  10  21  44  62  93 126 163 206 253 310 362
#
# _framework density 24.799538999999999
#
# number of rings (size 3 to 8) (size 9 to 14) (size 15 to 20)
#    1.000    1.000    0.000    4.000    0.000    2.000 
#    3.000   13.333    0.000    0.000    0.000    0.000 
#    0.000    0.000    0.000    0.000    0.000    0.000 
#
# Total GULP energy -66988.925274 kJ/mol
# GULP energy per Si atom -5582.410439 kJ/mol
# Density = 2.474309 g / cm^3
# Si number density = 24.799539 Si / 1000 Ang^3
#
#
#
# Elastic Constant Matrix: (Units=GPa)
#
#
# Indices 1 2 3 4 5 6 
#
# 1 152.7883 18.9499 32.3049 -8.7247 0.0338 -20.3563
# 2 18.9499 118.3843 13.2791 1.9102 -5.8312 -2.2739
# 3 32.3049 13.2791 124.8196 -16.1933 -8.8269 10.6342
# 4 -8.7247 1.9102 -16.1933 43.3957 -2.2305 -5.3114
# 5 0.0338 -5.8312 -8.8269 -2.2305 39.3459 7.3189
# 6 -20.3563 -2.2739 10.6342 -5.3114 7.3189 47.8704
#
#
#
# Elastic Compliance Matrix: (Units=1/GPa)
#
#
# Indices 1 2 3 4 5 6 
#
# 1 0.007742 -0.001002 -0.002180 0.001216 -0.001332 0.004067
# 2 -0.001002 0.008750 -0.000686 -0.000799 0.001120 -0.000118
# 3 -0.002180 -0.000686 0.009491 0.002888 0.002783 -0.003173
# 4 0.001216 -0.000799 0.002888 0.024767 0.001494 0.002357
# 5 -0.001332 0.001120 0.002783 0.001494 0.027246 -0.005131
# 6 0.004067 -0.000118 -0.003173 0.002357 -0.005131 0.024365
#
#
# Mechanical properties :
#
#
# Convention : Reuss Voigt Hill
#
# Bulk Modulus (GPa) = 54.80384 58.34001 56.57192
# Shear Modulus (GPa) = 43.03731 48.21963 45.62847
#
# Velocity S-wave (km/s) = 4.17034 4.41429 4.29405
# Velocity P-wave (km/s) = 6.73318 7.03967 6.88813
#
# Compressibility (1/GPa) = 0.01824690
#
# Stress axis : x y z
#
# Youngs Moduli (GPa) = 129.16802 114.28307 105.36750
#
# Poissons Ratio (x) = 0.11449 0.22970
# Poissons Ratio (y) = 0.12940 0.07229
# Poissons Ratio (z) = 0.28159 0.07840
#
# Static dielectric constant tensor:
#      x y z
#    x 2.248280 -0.027400 -0.049780 
#    y -0.027400 2.029110 -0.077460 
#    z -0.049780 -0.077460 1.912170 
# 
# From -- ./inp_files/271883.got.cif
#   From: 2010.05.17/outbox.cif.g08.bks.cpg/sg2_136_cif.got.tgz:271883.got - 2010.06.03 11:33:40.
