data_PCOD9013348
_publ_section_title
;
Structure prediction by ZEFSAII (Michael W. Deem and Ramdas Pophale) SiO2 
 PCOD9013348
Probable space group: P -1
;
_chemical_formula_sum "Si O2"
_cell_formula_units_Z 16
_cell_length_a 11.129149
_cell_length_b 8.755980
_cell_length_c 11.197457
_cell_angle_alpha 92.954003
_cell_angle_beta 113.463826
_cell_angle_gamma 51.326460
_cell_volume 751.211545
_symmetry_space_group_name_H-M "P -1"
_symmetry_group_IT_number 2
_symmetry_cell_setting 'triclinic'
loop_
_space_group_symop_operation_xyz
x,y,z
-x,-y,-z
loop_
_atom_site_type_symbol
_atom_site_label
_atom_site_fract_x
_atom_site_fract_y
_atom_site_fract_z
Si Si1 0.350241 0.741834 0.584574
Si Si2 0.787742 0.341230 0.178135
Si Si3 0.530282 0.276974 0.008650
Si Si4 0.921063 0.132614 0.727863
Si Si5 0.624108 0.288026 0.775130
Si Si6 0.818041 0.577622 0.388504
Si Si7 0.760672 0.928761 0.245278
Si Si8 0.521803 0.809549 0.465422
O O1 0.204100 0.797091 0.434431
O O2 0.463093 0.518020 0.676964
O O3 0.491625 0.727575 0.563782
O O4 0.265167 0.928209 0.650799
O O5 0.677880 0.540242 0.056519
O O6 0.827487 0.413780 0.311721
O O7 0.636800 0.328013 0.122488
O O8 0.958225 0.110639 0.210588
O O9 0.593292 0.253680 0.895871
O O10 0.607844 0.070614 0.094488
O O11 0.798772 0.241384 0.801050
O O12 0.056788 0.163205 0.749456
O O13 0.619141 0.140888 0.684518
O O14 0.747535 0.769191 0.285575
O O15 0.701477 0.649676 0.461863
O O16 0.000000 0.500000 0.500000
O O17 0.500000 0.000000 0.500000
#
# Coordination Sequence:
#
# PCOD9013348 Si02
#       8
#     2   2   2   2   2   2   2   2
#     4  11  22  40  65  95 125 168 214 268 319 372
#     4  10  21  41  64  92 123 169 213 263 306 376
#     4  10  22  44  67  88 125 171 230 255 302 376
#     4  10  22  38  64  94 128 159 218 270 315 366
#     4  11  23  41  69  93 126 174 210 270 313 371
#     4  12  26  40  66  96 135 167 200 264 337 378
#     4  11  24  39  63  95 127 169 211 260 316 381
#     4  11  23  42  60  95 129 167 207 258 325 383
#
# _framework density 21.298926000000002
#
# number of rings (size 3 to 8) (size 9 to 14) (size 15 to 20)
#    0.000    1.250    2.500    4.875    5.250    2.500 
#    0.000    0.000    0.000    1.500    0.000    0.000 
#    0.000    0.000    0.000    0.000    0.000    0.000 
#
# Total GULP energy -89246.881935 kJ/mol
# GULP energy per Si atom -5577.930121 kJ/mol
# Density = 2.125045 g / cm^3
# Si number density = 21.298926 Si / 1000 Ang^3
#
#
#
# Elastic Constant Matrix: (Units=GPa)
#
#
# Indices 1 2 3 4 5 6 
#
# 1 94.3993 16.1128 19.7047 -8.3288 -6.5007 -9.2956
# 2 16.1128 76.3163 30.3750 -8.6647 -1.6227 1.6050
# 3 19.7047 30.3750 84.8519 -16.7441 -9.0249 5.1882
# 4 -8.3288 -8.6647 -16.7441 45.1234 5.8840 10.5810
# 5 -6.5007 -1.6227 -9.0249 5.8840 38.3892 -5.4999
# 6 -9.2956 1.6050 5.1882 10.5810 -5.4999 33.3562
#
#
#
# Elastic Compliance Matrix: (Units=1/GPa)
#
#
# Indices 1 2 3 4 5 6 
#
# 1 0.011877 -0.001686 -0.002229 -0.000194 0.002038 0.004135
# 2 -0.001686 0.015587 -0.005009 0.001208 -0.001134 -0.001011
# 3 -0.002229 -0.005009 0.015545 0.005150 0.001681 -0.004155
# 4 -0.000194 0.001208 0.005150 0.027258 -0.004423 -0.010289
# 5 0.002038 -0.001134 0.001681 -0.004423 0.028341 0.006437
# 6 0.004135 -0.001011 -0.004155 -0.010289 0.006437 0.036152
#
#
# Mechanical properties :
#
#
# Convention : Reuss Voigt Hill
#
# Bulk Modulus (GPa) = 39.74310 43.10584 41.42447
# Shear Modulus (GPa) = 31.05686 35.99875 33.52781
#
# Velocity S-wave (km/s) = 3.82271 4.11562 3.97187
# Velocity P-wave (km/s) = 6.17934 6.54728 6.36597
#
# Compressibility (1/GPa) = 0.02516160
#
# Stress axis : x y z
#
# Youngs Moduli (GPa) = 84.19794 64.15514 64.32975
#
# Poissons Ratio (x) = 0.10817 0.14338
# Poissons Ratio (y) = 0.14197 0.32221
# Poissons Ratio (z) = 0.18767 0.32133
#
# Static dielectric constant tensor:
#      x y z
#    x 1.865350 0.007720 -0.007300 
#    y 0.007720 1.851140 -0.025800 
#    z -0.007300 -0.025800 1.829180 
# 
# From -- ./inp_files/417626.got.cif
#   From: 2010.05.17/outbox.cif.g08.bks.cpg/sg2_209_cif.got.tgz:417626.got - 2010.06.03 11:33:40.
