data_PCOD9013907
_publ_section_title
;
Structure prediction by ZEFSAII (Michael W. Deem and Ramdas Pophale) SiO2 
 PCOD9013907
Probable space group: P -1
;
_chemical_formula_sum "Si O2"
_cell_formula_units_Z 16
_cell_length_a 24.288032
_cell_length_b 7.861659
_cell_length_c 6.557371
_cell_angle_alpha 90.750173
_cell_angle_beta 113.088284
_cell_angle_gamma 45.694601
_cell_volume 756.808640
_symmetry_space_group_name_H-M "P -1"
_symmetry_group_IT_number 2
_symmetry_cell_setting 'triclinic'
loop_
_space_group_symop_operation_xyz
x,y,z
-x,-y,-z
loop_
_atom_site_type_symbol
_atom_site_label
_atom_site_fract_x
_atom_site_fract_y
_atom_site_fract_z
Si Si1 0.802526 0.572694 0.035570
Si Si2 0.337685 0.830248 0.254808
Si Si3 0.979543 0.239855 0.020010
Si Si4 0.271684 0.618185 0.992662
Si Si5 0.519646 0.403781 0.252832
Si Si6 0.074623 0.551009 0.492244
Si Si7 0.896896 0.902232 0.474927
Si Si8 0.480533 0.101039 0.220744
O O1 0.840493 0.513861 0.320736
O O2 0.892948 0.429242 0.044355
O O3 0.770886 0.449029 0.948554
O O4 0.725576 0.873550 0.874473
O O5 0.286936 0.763148 0.133704
O O6 0.429102 0.653368 0.248015
O O7 0.384770 0.721709 0.541438
O O8 0.946890 0.400920 0.773734
O O9 0.066785 0.141140 0.246846
O O10 0.000000 0.000000 0.000000
O O11 0.371420 0.346373 0.064334
O O12 0.200332 0.813171 0.713505
O O13 0.525750 0.189174 0.288402
O O14 0.500000 0.500000 0.000000
O O15 0.100493 0.302277 0.582585
O O16 0.978068 0.811169 0.456337
O O17 0.500000 0.000000 0.500000
O O18 0.500000 0.000000 0.000000
#
# Coordination Sequence:
#
# PCOD9013907 Si02
#       8
#     2   2   2   2   2   2   2   2
#     4  11  23  42  68  95 135 179 227 286 348 420
#     4  10  23  45  64 100 134 173 240 287 367 427
#     4  11  23  40  60  97 134 178 230 281 350 416
#     4  11  23  44  72  99 134 181 235 292 350 440
#     4  10  24  44  74  96 137 187 230 305 367 439
#     4  10  21  41  66  89 137 176 226 281 349 410
#     4  10  21  42  64  96 129 183 224 286 342 418
#     4  11  27  50  75 109 150 192 244 305 377 444
#
# _framework density 21.141407000000001
#
# number of rings (size 3 to 8) (size 9 to 14) (size 15 to 20)
#    0.000    1.500    1.250    2.625    7.000    3.000 
#   11.250    0.000    0.000    0.000    0.000    0.000 
#    0.000    0.000    0.000    0.000    0.000    0.000 
#
# Total GULP energy -89082.955192 kJ/mol
# GULP energy per Si atom -5567.684699 kJ/mol
# Density = 2.109329 g / cm^3
# Si number density = 21.141407 Si / 1000 Ang^3
#
#
#
# Elastic Constant Matrix: (Units=GPa)
#
#
# Indices 1 2 3 4 5 6 
#
# 1 62.6612 7.2749 49.2698 -17.5704 4.1657 12.3193
# 2 7.2749 81.0471 50.1843 -24.1169 4.1560 5.7582
# 3 49.2698 50.1843 173.3849 -25.2192 7.7253 -2.8838
# 4 -17.5704 -24.1169 -25.2192 26.5268 -5.8330 -0.5323
# 5 4.1657 4.1560 7.7253 -5.8330 32.7649 -2.0314
# 6 12.3193 5.7582 -2.8838 -0.5323 -2.0314 18.0388
#
#
#
# Elastic Compliance Matrix: (Units=1/GPa)
#
#
# Indices 1 2 3 4 5 6 
#
# 1 0.035558 0.012791 -0.010736 0.024131 -0.001145 -0.029500
# 2 0.012791 0.023762 -0.007507 0.022626 0.000114 -0.016840
# 3 -0.010736 -0.007507 0.010661 -0.003604 -0.000137 0.011311
# 4 0.024131 0.022626 -0.003604 0.071795 0.006364 -0.021443
# 5 -0.001145 0.000114 -0.000137 0.006364 0.032097 0.004526
# 6 -0.029500 -0.016840 0.011311 -0.021443 0.004526 0.082643
#
#
# Mechanical properties :
#
#
# Convention : Reuss Voigt Hill
#
# Bulk Modulus (GPa) = 16.92679 58.95012 37.93846
# Shear Modulus (GPa) = 17.41476 29.49039 23.45257
#
# Velocity S-wave (km/s) = 2.87318 3.73890 3.33426
# Velocity P-wave (km/s) = 4.36242 6.82521 5.72775
#
# Compressibility (1/GPa) = 0.05907794
#
# Stress axis : x y z
#
# Youngs Moduli (GPa) = 28.12305 42.08422 93.79789
#
# Poissons Ratio (x) = -0.53832 1.00706
# Poissons Ratio (y) = -0.35973 0.70410
# Poissons Ratio (z) = 0.30194 0.31591
#
# Static dielectric constant tensor:
#      x y z
#    x 1.534660 -0.029460 -0.026070 
#    y -0.029460 1.773840 0.078740 
#    z -0.026070 0.078740 1.879410 
# 
# From -- ./inp_files/38741.got.cif
#   From: 2010.05.17/outbox.cif.g08.bks.cpg/sg2_20_cif.got.tgz:38741.got - 2010.06.03 11:33:40.
