data_PCOD9013380
_publ_section_title
;
Structure prediction by ZEFSAII (Michael W. Deem and Ramdas Pophale) SiO2 
 PCOD9013380
Probable space group: P -1
;
_chemical_formula_sum "Si O2"
_cell_formula_units_Z 13
_cell_length_a 7.451610
_cell_length_b 13.846536
_cell_length_c 9.018433
_cell_angle_alpha 44.381078
_cell_angle_beta 50.519620
_cell_angle_gamma 70.542355
_cell_volume 489.488366
_symmetry_space_group_name_H-M "P -1"
_symmetry_group_IT_number 2
_symmetry_cell_setting 'triclinic'
loop_
_space_group_symop_operation_xyz
x,y,z
-x,-y,-z
loop_
_atom_site_type_symbol
_atom_site_label
_atom_site_fract_x
_atom_site_fract_y
_atom_site_fract_z
Si Si1 0.780760 0.178279 0.180196
Si Si2 0.118910 0.502738 0.231559
Si Si3 0.706736 0.903057 0.328817
Si Si4 0.000000 0.000000 0.500000
Si Si5 0.800753 0.066330 0.826719
Si Si6 0.589031 0.318868 0.685871
Si Si7 0.556852 0.493411 0.221091
O O1 0.711821 0.063172 0.211561
O O2 0.534991 0.189362 0.378804
O O3 0.932537 0.104486 0.291138
O O4 0.900565 0.336562 0.899896
O O5 0.319031 0.468364 0.273678
O O6 0.857762 0.405507 0.485247
O O7 0.223323 0.497207 0.016266
O O8 0.737151 0.924600 0.114799
O O9 0.935889 0.861008 0.325866
O O10 0.160122 0.938433 0.362029
O O11 0.606716 0.157964 0.856825
O O12 0.535962 0.378038 0.488930
O O13 0.424320 0.360536 0.855811
#
# Coordination Sequence:
#
# PCOD9013380 Si02
#       7
#     2   2   2   1   2   2   2
#     4  10  21  42  61  95 126 165 214 260 321 385
#     4  11  23  42  67  96 133 172 212 274 323 389
#     4   9  21  40  66  88 125 172 210 256 321 392
#     4  10  22  40  62  94 124 162 216 256 322 380
#     4  10  21  41  64  93 125 165 212 264 325 381
#     4  11  23  44  65  98 133 169 216 276 322 392
#     4  10  24  40  62 101 127 176 218 249 346 376
#
# _framework density 26.558343000000001
#
# number of rings (size 3 to 8) (size 9 to 14) (size 15 to 20)
#    0.000    1.846    0.000    2.769    4.308    0.615 
#   19.385    0.000    0.000    0.000    0.000    0.000 
#    0.000    0.000    0.000    0.000    0.000    0.000 
#
# Total GULP energy -72692.108913 kJ/mol
# GULP energy per Si atom -5591.700686 kJ/mol
# Density = 2.649790 g / cm^3
# Si number density = 26.558343 Si / 1000 Ang^3
#
#
#
# Elastic Constant Matrix: (Units=GPa)
#
#
# Indices 1 2 3 4 5 6 
#
# 1 91.0495 -3.9477 27.4994 -5.3595 17.6460 -6.9414
# 2 -3.9477 112.1166 29.1370 16.1768 20.3514 5.1122
# 3 27.4994 29.1370 67.5874 27.1483 18.2066 22.7743
# 4 -5.3595 16.1768 27.1483 42.0825 11.6637 14.6282
# 5 17.6460 20.3514 18.2066 11.6637 44.0951 0.8479
# 6 -6.9414 5.1122 22.7743 14.6282 0.8479 37.3703
#
#
#
# Elastic Compliance Matrix: (Units=1/GPa)
#
#
# Indices 1 2 3 4 5 6 
#
# 1 0.017009 0.003372 -0.012592 0.007920 -0.005401 0.007394
# 2 0.003372 0.011219 -0.006157 0.000237 -0.004103 0.002844
# 3 -0.012592 -0.006157 0.034978 -0.015380 -0.002171 -0.016743
# 4 0.007920 0.000237 -0.015380 0.037842 -0.006864 -0.003845
# 5 -0.005401 -0.004103 -0.002171 -0.006864 0.029389 0.002901
# 6 0.007394 0.002844 -0.016743 -0.003845 0.002901 0.039387
#
#
# Mechanical properties :
#
#
# Convention : Reuss Voigt Hill
#
# Bulk Modulus (GPa) = 30.81526 41.79233 36.30380
# Shear Modulus (GPa) = 23.65240 39.24723 31.44981
#
# Velocity S-wave (km/s) = 2.98750 3.84835 3.44492
# Velocity P-wave (km/s) = 4.85059 5.95958 5.43346
#
# Compressibility (1/GPa) = 0.03245145
#
# Stress axis : x y z
#
# Youngs Moduli (GPa) = 58.79220 89.13589 28.58951
#
# Poissons Ratio (x) = -0.30055 0.36000
# Poissons Ratio (y) = -0.19824 0.17602
# Poissons Ratio (z) = 0.74032 0.54879
#
# Static dielectric constant tensor:
#      x y z
#    x 2.080170 0.049610 -0.056050 
#    y 0.049610 2.130510 -0.007050 
#    z -0.056050 -0.007050 1.947750 
# 
# From -- ./inp_files/198879.got.cif
#   From: 2010.05.17/outbox.cif.g08.bks.cpg/sg2_100_cif.got.tgz:198879.got - 2010.06.03 11:33:40.
