data_PCOD9013872
_publ_section_title
;
Structure prediction by ZEFSAII (Michael W. Deem and Ramdas Pophale) SiO2 
 PCOD9013872
Probable space group: P -1
;
_chemical_formula_sum "Si O2"
_cell_formula_units_Z 16
_cell_length_a 11.246630
_cell_length_b 5.171842
_cell_length_c 19.655687
_cell_angle_alpha 93.788153
_cell_angle_beta 139.789840
_cell_angle_gamma 104.680131
_cell_volume 649.393904
_symmetry_space_group_name_H-M "P -1"
_symmetry_group_IT_number 2
_symmetry_cell_setting 'triclinic'
loop_
_space_group_symop_operation_xyz
x,y,z
-x,-y,-z
loop_
_atom_site_type_symbol
_atom_site_label
_atom_site_fract_x
_atom_site_fract_y
_atom_site_fract_z
Si Si1 0.646849 0.462798 0.751698
Si Si2 0.925016 0.881011 0.195733
Si Si3 0.237744 0.075427 0.087843
Si Si4 0.271039 0.881757 0.531125
Si Si5 0.086114 0.637355 0.892098
Si Si6 0.810624 0.749250 0.292542
Si Si7 0.400133 0.231074 0.398548
Si Si8 0.346022 0.828213 0.701360
O O1 0.663737 0.589858 0.836702
O O2 0.652227 0.686088 0.697680
O O3 0.858487 0.451403 0.824374
O O4 0.423261 0.196052 0.634638
O O5 0.847358 0.607453 0.104330
O O6 0.792436 0.769801 0.204162
O O7 0.924346 0.176268 0.173770
O O8 0.172045 0.983720 0.318282
O O9 0.402881 0.000545 0.197959
O O10 0.217735 0.901440 0.006482
O O11 0.000000 0.000000 0.000000
O O12 0.414751 0.848400 0.536056
O O13 0.240916 0.681205 0.581028
O O14 0.054079 0.852147 0.413816
O O15 0.693890 0.420616 0.264779
O O16 0.745556 0.969199 0.305098
O O17 0.500000 0.500000 0.500000
#
# Coordination Sequence:
#
# PCOD9013872 Si02
#       8
#     2   2   2   2   2   2   2   2
#     4  10  21  41  66 110 145 176 236 301 361 422
#     4  11  24  47  68 108 149 189 243 294 357 431
#     4  10  23  47  79 105 139 184 241 318 372 410
#     4  12  25  43  75 106 149 197 239 296 361 428
#     4  10  23  43  72 107 140 182 240 311 364 413
#     4  12  29  46  73 100 156 204 236 283 357 443
#     4  11  24  39  70 109 149 186 240 297 358 424
#     4  12  27  50  69 109 145 190 251 294 350 445
#
# _framework density 24.638359000000001
#
# number of rings (size 3 to 8) (size 9 to 14) (size 15 to 20)
#    0.000    1.000    2.500    3.000    7.000    3.000 
#    0.000    9.375    0.000    0.000    0.000    0.000 
#    0.000    0.000    0.000    0.000    0.000    0.000 
#
# Total GULP energy -89322.822285 kJ/mol
# GULP energy per Si atom -5582.676393 kJ/mol
# Density = 2.458228 g / cm^3
# Si number density = 24.638359 Si / 1000 Ang^3
#
#
#
# Elastic Constant Matrix: (Units=GPa)
#
#
# Indices 1 2 3 4 5 6 
#
# 1 116.3791 30.0001 8.2127 9.9862 -10.4714 -12.3695
# 2 30.0001 81.1708 -5.6389 24.0347 3.7928 -3.8160
# 3 8.2127 -5.6389 65.9021 18.7366 1.1007 -8.7750
# 4 9.9862 24.0347 18.7366 36.6065 -19.5983 -4.6880
# 5 -10.4714 3.7928 1.1007 -19.5983 32.3206 -3.1968
# 6 -12.3695 -3.8160 -8.7750 -4.6880 -3.1968 52.9766
#
#
#
# Elastic Compliance Matrix: (Units=1/GPa)
#
#
# Indices 1 2 3 4 5 6 
#
# 1 0.011828 -0.009378 -0.006016 0.013815 0.013825 0.003146
# 2 -0.009378 0.033205 0.018161 -0.049160 -0.037700 -0.003415
# 3 -0.006016 0.018161 0.029861 -0.042092 -0.030693 -0.000727
# 4 0.013815 -0.049160 -0.042092 0.126303 0.089182 0.009271
# 5 0.013825 -0.037700 -0.030693 0.089182 0.095867 0.009105
# 6 0.003146 -0.003415 -0.000727 0.009271 0.009105 0.020614
#
#
# Mechanical properties :
#
#
# Convention : Reuss Voigt Hill
#
# Bulk Modulus (GPa) = 12.43350 36.51109 24.47230
# Shear Modulus (GPa) = 14.75139 39.77261 27.26200
#
# Velocity S-wave (km/s) = 2.44952 4.02214 3.33000
# Velocity P-wave (km/s) = 3.61353 6.03499 4.97387
#
# Compressibility (1/GPa) = 0.08042785
#
# Stress axis : x y z
#
# Youngs Moduli (GPa) = 84.54854 30.11637 33.48885
#
# Poissons Ratio (x) = 0.28243 0.20147
# Poissons Ratio (y) = 0.79288 -0.60820
# Poissons Ratio (z) = 0.50864 -0.54695
#
# Static dielectric constant tensor:
#      x y z
#    x 1.996630 0.074390 -0.010680 
#    y 0.074390 2.118520 -0.056960 
#    z -0.010680 -0.056960 1.962240 
# 
# From -- ./inp_files/592793.got.cif
#   From: 2010.05.17/outbox.cif.g08.bks.cpg/sg2_297_cif.got.tgz:592793.got - 2010.06.03 11:33:40.
