data_PCOD9013837
_publ_section_title
;
Structure prediction by ZEFSAII (Michael W. Deem and Ramdas Pophale) SiO2 
 PCOD9013837
Probable space group: P -1
;
_chemical_formula_sum "Si O2"
_cell_formula_units_Z 14
_cell_length_a 10.506627
_cell_length_b 4.894913
_cell_length_c 18.952763
_cell_angle_alpha 76.091485
_cell_angle_beta 144.207017
_cell_angle_gamma 101.077538
_cell_volume 553.353311
_symmetry_space_group_name_H-M "P -1"
_symmetry_group_IT_number 2
_symmetry_cell_setting 'triclinic'
loop_
_space_group_symop_operation_xyz
x,y,z
-x,-y,-z
loop_
_atom_site_type_symbol
_atom_site_label
_atom_site_fract_x
_atom_site_fract_y
_atom_site_fract_z
Si Si1 0.966524 0.391053 0.090201
Si Si2 0.528518 0.592114 0.825036
Si Si3 0.753305 0.106881 0.819417
Si Si4 0.234165 0.991986 0.423898
Si Si5 0.707600 0.367862 0.412726
Si Si6 0.762336 0.431326 0.673917
Si Si7 0.075513 0.761783 0.618950
O O1 0.083228 0.106251 0.136119
O O2 0.027891 0.450490 0.195895
O O3 0.712897 0.420543 0.958317
O O4 0.091112 0.655088 0.092096
O O5 0.625431 0.896811 0.826319
O O6 0.453431 0.467421 0.722368
O O7 0.297545 0.621784 0.758272
O O8 0.638483 0.282540 0.692825
O O9 0.325467 0.291096 0.422194
O O10 0.024607 0.052128 0.375587
O O11 0.389695 0.824229 0.558695
O O12 0.185205 0.796406 0.347871
O O13 0.822515 0.163883 0.417578
O O14 0.886873 0.551194 0.521377
#
# Coordination Sequence:
#
# PCOD9013837 Si02
#       7
#     2   2   2   2   2   2   2
#     4  10  21  43  63  96 125 165 208 257 315 367
#     4  10  21  41  66 100 124 160 211 268 311 367
#     4  10  21  43  63  96 125 165 208 257 315 367
#     4  12  19  44  66  85 130 170 204 256 308 375
#     4   9  21  41  64  98 124 163 210 258 319 357
#     4  10  22  37  69  86 122 180 200 246 318 370
#     4   9  21  41  64  98 124 163 210 258 319 357
#
# _framework density 25.300293
#
# number of rings (size 3 to 8) (size 9 to 14) (size 15 to 20)
#    1.714    0.286    2.857    1.286    0.000    0.000 
#   10.286    2.857    0.000    0.000    0.000    0.000 
#    0.000    0.000    0.000    0.000    0.000    0.000 
#
# Total GULP energy -78134.273731 kJ/mol
# GULP energy per Si atom -5581.019552 kJ/mol
# Density = 2.524271 g / cm^3
# Si number density = 25.300293 Si / 1000 Ang^3
#
#
#
# Elastic Constant Matrix: (Units=GPa)
#
#
# Indices 1 2 3 4 5 6 
#
# 1 87.1252 21.1867 24.9234 7.8575 -4.0670 -23.9423
# 2 21.1867 146.8323 30.7711 -1.4911 -0.2959 -10.7221
# 3 24.9234 30.7711 120.2759 3.8667 15.4876 1.9105
# 4 7.8575 -1.4911 3.8667 35.6876 6.2667 -10.5788
# 5 -4.0670 -0.2959 15.4876 6.2667 40.5850 0.2300
# 6 -23.9423 -10.7221 1.9105 -10.5788 0.2300 46.6274
#
#
#
# Elastic Compliance Matrix: (Units=1/GPa)
#
#
# Indices 1 2 3 4 5 6 
#
# 1 0.014896 -0.000937 -0.003294 -0.001322 0.002906 0.007254
# 2 -0.000937 0.007456 -0.001835 0.001092 0.000483 0.001554
# 3 -0.003294 -0.001835 0.010050 -0.000499 -0.004087 -0.002618
# 4 -0.001322 0.001092 -0.000499 0.031241 -0.004796 0.006705
# 5 0.002906 0.000483 -0.004087 -0.004796 0.027231 0.000548
# 6 0.007254 0.001554 -0.002618 0.006705 0.000548 0.027155
#
#
# Mechanical properties :
#
#
# Convention : Reuss Voigt Hill
#
# Bulk Modulus (GPa) = 49.33474 56.44397 52.88936
# Shear Modulus (GPa) = 36.51799 43.07014 39.79407
#
# Velocity S-wave (km/s) = 3.80331 4.13044 3.97024
# Velocity P-wave (km/s) = 6.23128 6.71606 6.47821
#
# Compressibility (1/GPa) = 0.02026969
#
# Stress axis : x y z
#
# Youngs Moduli (GPa) = 67.13119 134.12252 99.50016
#
# Poissons Ratio (x) = 0.12566 0.32775
# Poissons Ratio (y) = 0.06290 0.18262
# Poissons Ratio (z) = 0.22113 0.24617
#
# Static dielectric constant tensor:
#      x y z
#    x 2.012490 -0.029320 0.031070 
#    y -0.029320 2.086840 -0.092590 
#    z 0.031070 -0.092590 2.163360 
# 
# From -- ./inp_files/592320.got.cif
#   From: 2010.05.17/outbox.cif.g08.bks.cpg/sg2_297_cif.got.tgz:592320.got - 2010.06.03 11:33:40.
