data_PCOD9013737
_publ_section_title
;
Structure prediction by ZEFSAII (Michael W. Deem and Ramdas Pophale) SiO2 
 PCOD9013737
Probable space group: P -1
;
_chemical_formula_sum "Si O2"
_cell_formula_units_Z 16
_cell_length_a 14.219487
_cell_length_b 13.687171
_cell_length_c 14.290415
_cell_angle_alpha 43.444749
_cell_angle_beta 138.239801
_cell_angle_gamma 158.428976
_cell_volume 675.062366
_symmetry_space_group_name_H-M "P -1"
_symmetry_group_IT_number 2
_symmetry_cell_setting 'triclinic'
loop_
_space_group_symop_operation_xyz
x,y,z
-x,-y,-z
loop_
_atom_site_type_symbol
_atom_site_label
_atom_site_fract_x
_atom_site_fract_y
_atom_site_fract_z
Si Si1 0.219912 0.900718 0.892947
Si Si2 0.024471 0.264307 0.541651
Si Si3 0.423449 0.542753 0.496710
Si Si4 0.705771 0.322571 0.821917
Si Si5 0.344049 0.162062 0.147310
Si Si6 0.893031 0.865777 0.764400
Si Si7 0.801255 0.648647 0.041302
Si Si8 0.502961 0.859690 0.540113
O O1 0.992637 0.636542 0.841080
O O2 0.097627 0.942594 0.806953
O O3 0.499718 0.162872 0.866683
O O4 0.257658 0.815419 0.061795
O O5 0.130508 0.288428 0.505178
O O6 0.224787 0.564191 0.500625
O O7 0.044687 0.142287 0.709143
O O8 0.729082 0.064569 0.486094
O O9 0.500000 0.500000 0.500000
O O10 0.424572 0.699322 0.342344
O O11 0.641237 0.696980 0.631349
O O12 0.585577 0.353961 0.121292
O O13 0.423025 0.194053 0.288881
O O14 0.256879 0.252482 0.016684
O O15 0.096144 0.856201 0.145154
O O16 0.797653 0.690139 0.902216
O O17 0.500000 0.000000 0.500000
#
# Coordination Sequence:
#
# PCOD9013737 Si02
#       8
#     2   2   2   2   2   2   2   2
#     4  10  23  43  67  93 138 184 237 294 358 411
#     4  12  26  45  71 108 144 183 244 309 354 432
#     4  12  25  44  75 107 148 196 248 293 361 424
#     4  10  23  44  65  94 136 193 237 286 353 428
#     4  10  21  41  65  95 124 176 220 280 358 429
#     4  12  25  42  70 108 145 183 248 306 353 419
#     4  10  22  36  67  94 133 163 222 293 348 405
#     4  12  26  50  74 100 145 192 235 298 378 439
#
# _framework density 23.701514
#
# number of rings (size 3 to 8) (size 9 to 14) (size 15 to 20)
#    0.000    1.000    3.750    1.875    7.000    1.000 
#    4.500    0.000    0.000    0.000    0.000    0.000 
#    0.000    0.000    0.000    0.000    0.000    0.000 
#
# Total GULP energy -89376.149295 kJ/mol
# GULP energy per Si atom -5586.009331 kJ/mol
# Density = 2.364757 g / cm^3
# Si number density = 23.701514 Si / 1000 Ang^3
#
#
#
# Elastic Constant Matrix: (Units=GPa)
#
#
# Indices 1 2 3 4 5 6 
#
# 1 89.4445 37.1603 2.5135 -9.7511 -0.9577 12.0484
# 2 37.1603 127.0737 12.5560 -5.6094 -8.7977 21.7947
# 3 2.5135 12.5560 72.2508 2.4917 -12.4307 2.8964
# 4 -9.7511 -5.6094 2.4917 30.9010 -0.9882 -6.8952
# 5 -0.9577 -8.7977 -12.4307 -0.9882 39.6625 -4.6867
# 6 12.0484 21.7947 2.8964 -6.8952 -4.6867 32.1717
#
#
#
# Elastic Compliance Matrix: (Units=1/GPa)
#
#
# Indices 1 2 3 4 5 6 
#
# 1 0.013204 -0.003415 0.000007 0.003067 -0.000604 -0.002063
# 2 -0.003415 0.009952 -0.001196 -0.000312 0.001121 -0.005259
# 3 0.000007 -0.001196 0.014846 -0.001313 0.004334 -0.000179
# 4 0.003067 -0.000312 -0.001313 0.034949 0.001274 0.006857
# 5 -0.000604 0.001121 0.004334 0.001274 0.027229 0.003316
# 6 -0.002063 -0.005259 -0.000179 0.006857 0.003316 0.037388
#
#
# Mechanical properties :
#
#
# Convention : Reuss Voigt Hill
#
# Bulk Modulus (GPa) = 34.72793 43.69205 39.20999
# Shear Modulus (GPa) = 31.97456 36.31633 34.14545
#
# Velocity S-wave (km/s) = 3.67693 3.91863 3.79970
# Velocity P-wave (km/s) = 5.71930 6.24087 5.98577
#
# Compressibility (1/GPa) = 0.02879526
#
# Stress axis : x y z
#
# Youngs Moduli (GPa) = 75.73277 100.48201 67.35615
#
# Poissons Ratio (x) = 0.34311 -0.00048
# Poissons Ratio (y) = 0.25860 0.08058
# Poissons Ratio (z) = -0.00054 0.12020
#
# Static dielectric constant tensor:
#      x y z
#    x 1.923110 -0.009810 -0.002300 
#    y -0.009810 1.943460 0.006120 
#    z -0.002300 0.006120 1.889030 
# 
# From -- ./inp_files/534271.got.cif
#   From: 2010.05.17/outbox.cif.g08.bks.cpg/sg2_268_cif.got.tgz:534271.got - 2010.06.03 11:33:40.
