data_PCOD9013281
_publ_section_title
;
Structure prediction by ZEFSAII (Michael W. Deem and Ramdas Pophale) SiO2 
 PCOD9013281
Probable space group: P -1
;
_chemical_formula_sum "Si O2"
_cell_formula_units_Z 16
_cell_length_a 11.928566
_cell_length_b 12.059552
_cell_length_c 12.465520
_cell_angle_alpha 33.711680
_cell_angle_beta 32.994305
_cell_angle_gamma 45.492147
_cell_volume 541.938269
_symmetry_space_group_name_H-M "P -1"
_symmetry_group_IT_number 2
_symmetry_cell_setting 'triclinic'
loop_
_space_group_symop_operation_xyz
x,y,z
-x,-y,-z
loop_
_atom_site_type_symbol
_atom_site_label
_atom_site_fract_x
_atom_site_fract_y
_atom_site_fract_z
Si Si1 0.781699 0.681559 0.358438
Si Si2 0.236872 0.329557 0.924168
Si Si3 0.795840 0.264803 0.281851
Si Si4 0.314549 0.862401 0.980586
Si Si5 0.737308 0.228733 0.131044
Si Si6 0.119926 0.175965 0.374784
Si Si7 0.653951 0.263753 0.711118
Si Si8 0.168398 0.231210 0.524017
O O1 0.704368 0.498747 0.496864
O O2 0.751736 0.641869 0.542360
O O3 0.688586 0.897980 0.227182
O O4 0.028320 0.707364 0.130927
O O5 0.043171 0.276585 0.050085
O O6 0.163800 0.274013 0.147946
O O7 0.253758 0.568179 0.725713
O O8 0.460809 0.232955 0.812738
O O9 0.679605 0.315602 0.223612
O O10 0.778498 0.041636 0.517039
O O11 0.380028 0.760807 0.896546
O O12 0.414299 0.802777 0.060674
O O13 0.076959 0.798956 0.239895
O O14 0.746537 0.992106 0.342492
O O15 0.870184 0.157097 0.596585
O O16 0.187854 0.290731 0.336337
#
# Coordination Sequence:
#
# PCOD9013281 Si02
#       8
#     2   2   2   2   2   2   2   2
#     4   9  16  31  53  86 125 152 185 238 291 347
#     4  11  25  42  60  88 120 153 202 248 286 347
#     4  10  22  43  62  82 119 160 198 243 293 346
#     4   8  16  31  54  88 120 148 190 239 289 349
#     4   8  14  31  59  82 111 157 195 232 289 348
#     4  10  21  41  64  86 117 157 196 244 298 340
#     4  11  23  36  61  96 118 150 199 238 292 357
#     4   7  14  29  55  85 115 154 193 229 287 357
#
# _framework density 29.523658999999999
#
# number of rings (size 3 to 8) (size 9 to 14) (size 15 to 20)
#    0.000    2.750    0.000    3.375    0.000    7.000 
#    0.000    8.125    0.000    4.500    0.000    0.000 
#    0.000    0.000    0.000    0.000    0.000    0.000 
#
# Total GULP energy -89798.925191 kJ/mol
# GULP energy per Si atom -5612.432824 kJ/mol
# Density = 2.945646 g / cm^3
# Si number density = 29.523659 Si / 1000 Ang^3
#
#
#
# Elastic Constant Matrix: (Units=GPa)
#
#
# Indices 1 2 3 4 5 6 
#
# 1 163.7678 34.8699 47.8259 20.0632 6.9566 -8.2547
# 2 34.8699 94.6241 29.7014 -14.0630 -2.9074 -1.7349
# 3 47.8259 29.7014 127.6039 4.9089 14.9542 -4.2439
# 4 20.0632 -14.0630 4.9089 46.5367 -5.8522 -2.9888
# 5 6.9566 -2.9074 14.9542 -5.8522 54.1669 14.2988
# 6 -8.2547 -1.7349 -4.2439 -2.9888 14.2988 56.7086
#
#
#
# Elastic Compliance Matrix: (Units=1/GPa)
#
#
# Indices 1 2 3 4 5 6 
#
# 1 0.007927 -0.002968 -0.001922 -0.004218 -0.001378 0.001045
# 2 -0.002968 0.013410 -0.002558 0.005892 0.002590 -0.000556
# 3 -0.001922 -0.002558 0.009580 -0.001259 -0.002945 0.001035
# 4 -0.004218 0.005892 -0.001259 0.025715 0.004034 -0.000190
# 5 -0.001378 0.002590 -0.002945 0.004034 0.021491 -0.005548
# 6 0.001045 -0.000556 0.001035 -0.000190 -0.005548 0.019235
#
#
# Mechanical properties :
#
#
# Convention : Reuss Voigt Hill
#
# Bulk Modulus (GPa) = 62.41245 67.86558 65.13901
# Shear Modulus (GPa) = 42.51894 49.72235 46.12064
#
# Velocity S-wave (km/s) = 3.79907 4.10830 3.95670
# Velocity P-wave (km/s) = 6.35843 6.74840 6.55631
#
# Compressibility (1/GPa) = 0.01602244
#
# Stress axis : x y z
#
# Youngs Moduli (GPa) = 126.14480 74.57255 104.38145
#
# Poissons Ratio (x) = 0.22135 0.20059
# Poissons Ratio (y) = 0.37442 0.26696
# Poissons Ratio (z) = 0.24242 0.19072
#
# Static dielectric constant tensor:
#      x y z
#    x 2.265940 0.020690 -0.009260 
#    y 0.020690 2.276400 0.055550 
#    z -0.009260 0.055550 2.278990 
# 
# From -- ./inp_files/533577.got.cif
#   From: 2010.05.17/outbox.cif.g08.bks.cpg/sg2_267_cif.got.tgz:533577.got - 2010.06.03 11:33:40.
