data_PCOD9013868
_publ_section_title
;
Structure prediction by ZEFSAII (Michael W. Deem and Ramdas Pophale) SiO2 
 PCOD9013868
Probable space group: P -1
;
_chemical_formula_sum "Si O2"
_cell_formula_units_Z 10
_cell_length_a 7.507916
_cell_length_b 15.053719
_cell_length_c 7.136634
_cell_angle_alpha 57.406287
_cell_angle_beta 79.339314
_cell_angle_gamma 38.395259
_cell_volume 376.215044
_symmetry_space_group_name_H-M "P -1"
_symmetry_group_IT_number 2
_symmetry_cell_setting 'triclinic'
loop_
_space_group_symop_operation_xyz
x,y,z
-x,-y,-z
loop_
_atom_site_type_symbol
_atom_site_label
_atom_site_fract_x
_atom_site_fract_y
_atom_site_fract_z
Si Si1 0.821895 0.155120 0.100128
Si Si2 0.745035 0.298559 0.583717
Si Si3 0.224960 0.561815 0.884739
Si Si4 0.205028 0.421133 0.362137
Si Si5 0.630978 0.050321 0.481521
O O1 0.450057 0.370328 0.950500
O O2 0.779467 0.054486 0.285283
O O3 0.076633 0.088589 0.265919
O O4 0.081309 0.847445 0.118315
O O5 0.500000 0.500000 0.500000
O O6 0.529006 0.318964 0.492015
O O7 0.084776 0.708803 0.591959
O O8 0.054544 0.578668 0.065696
O O9 0.500000 0.500000 0.000000
O O10 0.338825 0.257121 0.405174
O O11 0.000000 0.500000 0.500000
O O12 0.500000 0.000000 0.500000
#
# Coordination Sequence:
#
# PCOD9013868 Si02
#       5
#     2   2   2   2   2
#     4   9  19  40  68  96 136 178 244 281 340 422
#     4   9  18  39  68 101 130 180 229 283 348 405
#     4   8  16  36  68  96 129 181 226 271 347 405
#     4  10  21  41  66 106 142 171 231 288 343 417
#     4  10  22  44  67  99 140 187 228 289 351 406
#
# _framework density 26.580542999999999
#
# number of rings (size 3 to 8) (size 9 to 14) (size 15 to 20)
#    0.000    2.800    0.000    0.000    0.000    0.800 
#   28.800    6.000    0.000    1.200    0.000    0.000 
#    0.000    0.000    0.000    0.000    0.000    0.000 
#
# Total GULP energy -55893.186370 kJ/mol
# GULP energy per Si atom -5589.318637 kJ/mol
# Density = 2.652004 g / cm^3
# Si number density = 26.580543 Si / 1000 Ang^3
#
#
#
# Elastic Constant Matrix: (Units=GPa)
#
#
# Indices 1 2 3 4 5 6 
#
# 1 170.9575 74.9968 98.6153 20.6510 -50.4781 9.6680
# 2 74.9968 174.8960 113.0620 41.9806 -32.9447 -11.9933
# 3 98.6153 113.0620 280.9153 56.1748 -26.8096 9.5082
# 4 20.6510 41.9806 56.1748 73.9143 3.9130 -9.0679
# 5 -50.4781 -32.9447 -26.8096 3.9130 41.0014 -9.1707
# 6 9.6680 -11.9933 9.5082 -9.0679 -9.1707 66.3538
#
#
#
# Elastic Compliance Matrix: (Units=1/GPa)
#
#
# Indices 1 2 3 4 5 6 
#
# 1 0.011107 -0.000759 -0.002126 -0.001688 0.011824 -0.000047
# 2 -0.000759 0.009859 -0.002491 -0.003503 0.006283 0.002639
# 3 -0.002126 -0.002491 0.005769 -0.002503 -0.000929 -0.001438
# 4 -0.001688 -0.003503 -0.002503 0.018487 -0.007982 0.001395
# 5 0.011824 0.006283 -0.000929 -0.007982 0.045201 0.004702
# 6 -0.000047 0.002639 -0.001438 0.001395 0.004702 0.016601
#
#
# Mechanical properties :
#
#
# Convention : Reuss Voigt Hill
#
# Bulk Modulus (GPa) = 62.56529 133.34634 97.95582
# Shear Modulus (GPa) = 40.61686 58.92690 49.77188
#
# Velocity S-wave (km/s) = 3.91329 4.71352 4.33193
# Velocity P-wave (km/s) = 6.63382 8.93862 7.87104
#
# Compressibility (1/GPa) = 0.01598330
#
# Stress axis : x y z
#
# Youngs Moduli (GPa) = 90.03687 101.43477 173.33991
#
# Poissons Ratio (x) = 0.07700 0.36849
# Poissons Ratio (y) = 0.06835 0.43170
# Poissons Ratio (z) = 0.19140 0.25262
#
# Static dielectric constant tensor:
#      x y z
#    x 2.110360 -0.002140 0.061940 
#    y -0.002140 2.230780 -0.117660 
#    z 0.061940 -0.117660 2.158810 
# 
# From -- ./inp_files/384042.got.cif
#   From: 2010.05.17/outbox.cif.g08.bks.cpg/sg2_193_cif.got.tgz:384042.got - 2010.06.03 11:33:40.
