data_PCOD9013024
_publ_section_title
;
Structure prediction by ZEFSAII (Michael W. Deem and Ramdas Pophale) SiO2 
 PCOD9013024
Probable space group: P -1
;
_chemical_formula_sum "Si O2"
_cell_formula_units_Z 16
_cell_length_a 19.976010
_cell_length_b 9.786466
_cell_length_c 7.926835
_cell_angle_alpha 96.495320
_cell_angle_beta 32.234894
_cell_angle_gamma 98.057970
_cell_volume 818.367275
_symmetry_space_group_name_H-M "P -1"
_symmetry_group_IT_number 2
_symmetry_cell_setting 'triclinic'
loop_
_space_group_symop_operation_xyz
x,y,z
-x,-y,-z
loop_
_atom_site_type_symbol
_atom_site_label
_atom_site_fract_x
_atom_site_fract_y
_atom_site_fract_z
Si Si1 0.470654 0.382939 0.414554
Si Si2 0.111548 0.908586 0.933360
Si Si3 0.209849 0.449833 0.813157
Si Si4 0.375845 0.902207 0.224059
Si Si5 0.384419 0.589141 0.204977
Si Si6 0.423146 0.871475 0.731654
Si Si7 0.830913 0.265076 0.889092
Si Si8 0.996403 0.199553 0.204125
O O1 0.500000 0.500000 0.500000
O O2 0.338932 0.399935 0.607933
O O3 0.472612 0.234262 0.468990
O O4 0.595117 0.403601 0.035588
O O5 0.254867 0.953916 0.579282
O O6 0.058961 0.818819 0.870637
O O7 0.111718 0.818436 0.090235
O O8 0.040748 0.046997 0.126464
O O9 0.257333 0.520065 0.545045
O O10 0.166861 0.574393 0.038197
O O11 0.109104 0.320905 0.985500
O O12 0.395488 0.752259 0.243408
O O13 0.362158 0.898504 0.048984
O O14 0.500000 0.000000 0.000000
O O15 0.500000 0.500000 0.000000
O O16 0.500000 0.000000 0.500000
O O17 0.313040 0.797915 0.840923
O O18 0.902328 0.240386 0.558180
#
# Coordination Sequence:
#
# PCOD9013024 Si02
#       8
#     2   2   2   2   2   2   2   2
#     4  10  21  41  62  97 136 164 207 273 337 392
#     4  11  25  47  68  94 138 173 225 287 327 401
#     4  11  23  43  69  94 135 178 220 276 331 407
#     4  11  22  40  69  96 132 174 212 274 342 391
#     4   9  21  38  62  95 127 166 209 267 326 399
#     4  11  24  39  65 101 135 167 217 273 338 403
#     4  12  23  46  70  95 133 177 229 279 331 398
#     4  11  27  47  65  97 131 181 233 274 335 390
#
# _framework density 19.551123
#
# number of rings (size 3 to 8) (size 9 to 14) (size 15 to 20)
#    0.000    1.250    3.750    1.500    7.000    0.500 
#    2.250    0.000    0.000    0.000    0.000    0.000 
#    0.000    0.000    0.000    0.000    0.000    0.000 
#
# Total GULP energy -89238.588183 kJ/mol
# GULP energy per Si atom -5577.411761 kJ/mol
# Density = 1.950662 g / cm^3
# Si number density = 19.551123 Si / 1000 Ang^3
#
#
#
# Elastic Constant Matrix: (Units=GPa)
#
#
# Indices 1 2 3 4 5 6 
#
# 1 96.4052 50.4768 30.7196 -11.5783 2.8906 6.3266
# 2 50.4768 111.2356 52.8506 -12.1853 10.8005 -3.2403
# 3 30.7196 52.8506 102.3441 -4.9744 7.6017 11.9767
# 4 -11.5783 -12.1853 -4.9744 39.0190 6.0644 -3.2253
# 5 2.8906 10.8005 7.6017 6.0644 26.2905 -2.2746
# 6 6.3266 -3.2403 11.9767 -3.2253 -2.2746 38.4996
#
#
#
# Elastic Compliance Matrix: (Units=1/GPa)
#
#
# Indices 1 2 3 4 5 6 
#
# 1 0.014109 -0.005894 -0.000854 0.001971 0.000458 -0.002357
# 2 -0.005894 0.015557 -0.006279 0.003333 -0.004328 0.004255
# 3 -0.000854 -0.006279 0.013933 -0.000585 -0.001641 -0.004869
# 4 0.001971 0.003333 -0.000585 0.028567 -0.007827 0.002069
# 5 0.000458 -0.004328 -0.001641 -0.007827 0.042210 0.001909
# 6 -0.002357 0.004255 -0.004869 0.002069 0.001909 0.028520
#
#
# Mechanical properties :
#
#
# Convention : Reuss Voigt Hill
#
# Bulk Modulus (GPa) = 56.99481 64.23099 60.61290
# Shear Modulus (GPa) = 28.60454 32.49102 30.54778
#
# Velocity S-wave (km/s) = 3.82915 4.08100 3.95708
# Velocity P-wave (km/s) = 6.98318 7.42497 7.20746
#
# Compressibility (1/GPa) = 0.01754546
#
# Stress axis : x y z
#
# Youngs Moduli (GPa) = 70.87919 64.27921 71.77256
#
# Poissons Ratio (x) = 0.37885 0.06127
# Poissons Ratio (y) = 0.41775 0.45066
# Poissons Ratio (z) = 0.06051 0.40361
#
# Static dielectric constant tensor:
#      x y z
#    x 1.725510 -0.011010 -0.003950 
#    y -0.011010 1.746410 0.019590 
#    z -0.003950 0.019590 1.880080 
# 
# From -- ./inp_files/343609.got.cif
#   From: 2010.05.17/outbox.cif.g08.bks.cpg/sg2_172_cif.got.tgz:343609.got - 2010.06.03 11:33:40.
