data_PCOD9013091
_publ_section_title
;
Structure prediction by ZEFSAII (Michael W. Deem and Ramdas Pophale) SiO2 
 PCOD9013091
Probable space group: P -1
;
_chemical_formula_sum "Si O2"
_cell_formula_units_Z 14
_cell_length_a 11.960435
_cell_length_b 9.766197
_cell_length_c 8.622888
_cell_angle_alpha 134.652671
_cell_angle_beta 86.054657
_cell_angle_gamma 97.734738
_cell_volume 709.523696
_symmetry_space_group_name_H-M "P -1"
_symmetry_group_IT_number 2
_symmetry_cell_setting 'triclinic'
loop_
_space_group_symop_operation_xyz
x,y,z
-x,-y,-z
loop_
_atom_site_type_symbol
_atom_site_label
_atom_site_fract_x
_atom_site_fract_y
_atom_site_fract_z
Si Si1 0.117877 0.966304 0.041743
Si Si2 0.329178 0.571159 0.524955
Si Si3 0.906084 0.484089 0.361385
Si Si4 0.241970 0.960508 0.734709
Si Si5 0.558641 0.818320 0.285994
Si Si6 0.008049 0.135902 0.461084
Si Si7 0.480675 0.558424 0.800592
O O1 0.118159 0.735287 0.870034
O O2 0.216381 0.041823 0.972733
O O3 0.104013 0.062328 0.283608
O O4 0.000000 0.000000 0.000000
O O5 0.207616 0.468808 0.506923
O O6 0.306625 0.774003 0.610975
O O7 0.399784 0.603021 0.703157
O O8 0.399776 0.460598 0.308747
O O9 0.000000 0.500000 0.500000
O O10 0.951625 0.636187 0.346694
O O11 0.117222 0.891287 0.624218
O O12 0.317031 0.103406 0.727449
O O13 0.558831 0.649663 0.280379
O O14 0.500000 0.000000 0.500000
O O15 0.492925 0.716886 0.062132
O O16 0.000000 0.000000 0.500000
#
# Coordination Sequence:
#
# PCOD9013091 Si02
#       7
#     2   2   2   2   2   2   2
#     4   9  19  38  60  87 119 159 211 238 304 378
#     4  10  21  42  63  96 121 167 216 253 312 377
#     4  11  20  38  66  90 124 163 202 257 305 374
#     4  10  21  41  63  89 125 164 210 253 307 377
#     4  11  23  43  62  92 124 165 206 267 315 362
#     4  11  24  40  60  97 128 160 206 257 317 376
#     4  10  24  42  63  90 128 164 214 259 312 371
#
# _framework density 19.731548
#
# number of rings (size 3 to 8) (size 9 to 14) (size 15 to 20)
#    0.000    1.714    5.714    0.000    4.000    1.143 
#    5.143    0.000    0.000    0.000    0.000    0.000 
#    0.000    0.000    0.000    0.000    0.000    0.000 
#
# Total GULP energy -78083.477599 kJ/mol
# GULP energy per Si atom -5577.391257 kJ/mol
# Density = 1.968664 g / cm^3
# Si number density = 19.731548 Si / 1000 Ang^3
#
#
#
# Elastic Constant Matrix: (Units=GPa)
#
#
# Indices 1 2 3 4 5 6 
#
# 1 97.2613 43.9425 31.1225 0.7459 -18.7217 13.4151
# 2 43.9425 137.5474 35.6928 7.5293 -3.3246 14.3114
# 3 31.1225 35.6928 91.6206 4.1370 -17.1274 -1.6483
# 4 0.7459 7.5293 4.1370 25.7780 3.9341 3.5528
# 5 -18.7217 -3.3246 -17.1274 3.9341 20.9476 -3.8250
# 6 13.4151 14.3114 -1.6483 3.5528 -3.8250 42.1512
#
#
#
# Elastic Compliance Matrix: (Units=1/GPa)
#
#
# Indices 1 2 3 4 5 6 
#
# 1 0.015006 -0.003844 -0.001537 -0.000428 0.011172 -0.002481
# 2 -0.003844 0.009564 -0.003335 -0.001053 -0.004905 -0.002511
# 3 -0.001537 -0.003335 0.015189 -0.003729 0.011875 0.003607
# 4 -0.000428 -0.001053 -0.003729 0.042186 -0.012311 -0.004325
# 5 0.011172 -0.004905 0.011875 -0.012311 0.070056 0.005969
# 6 -0.002481 -0.002511 0.003607 -0.004325 0.005969 0.026413
#
#
# Mechanical properties :
#
#
# Convention : Reuss Voigt Hill
#
# Bulk Modulus (GPa) = 44.78583 60.88276 52.83430
# Shear Modulus (GPa) = 24.59579 32.15345 28.37462
#
# Velocity S-wave (km/s) = 3.53444 4.04114 3.79625
# Velocity P-wave (km/s) = 6.27720 7.25927 6.78602
#
# Compressibility (1/GPa) = 0.02232849
#
# Stress axis : x y z
#
# Youngs Moduli (GPa) = 66.64071 104.56165 65.83778
#
# Poissons Ratio (x) = 0.40189 0.10118
# Poissons Ratio (y) = 0.25614 0.21955
# Poissons Ratio (z) = 0.10241 0.34868
#
# Static dielectric constant tensor:
#      x y z
#    x 1.690900 0.009220 0.004120 
#    y 0.009220 1.704430 0.009110 
#    z 0.004120 0.009110 1.718400 
# 
# From -- ./inp_files/204567.got.cif
#   From: 2010.05.17/outbox.cif.g08.bks.cpg/sg2_103_cif.got.tgz:204567.got - 2010.06.03 11:33:40.
