data_PCOD9013540
_publ_section_title
;
Structure prediction by ZEFSAII (Michael W. Deem and Ramdas Pophale) SiO2 
 PCOD9013540
Probable space group: P -1
;
_chemical_formula_sum "Si O2"
_cell_formula_units_Z 14
_cell_length_a 14.831710
_cell_length_b 12.435892
_cell_length_c 8.703838
_cell_angle_alpha 125.457425
_cell_angle_beta 56.812492
_cell_angle_gamma 150.733712
_cell_volume 635.822705
_symmetry_space_group_name_H-M "P -1"
_symmetry_group_IT_number 2
_symmetry_cell_setting 'triclinic'
loop_
_space_group_symop_operation_xyz
x,y,z
-x,-y,-z
loop_
_atom_site_type_symbol
_atom_site_label
_atom_site_fract_x
_atom_site_fract_y
_atom_site_fract_z
Si Si1 0.997185 0.569026 0.225895
Si Si2 0.476379 0.642970 0.438011
Si Si3 0.296013 0.672387 0.121302
Si Si4 0.865064 0.909615 0.264218
Si Si5 0.776607 0.630823 0.833818
Si Si6 0.594115 0.122685 0.348808
Si Si7 0.156633 0.340297 0.707554
O O1 0.815535 0.345601 0.307550
O O2 0.974527 0.700268 0.310574
O O3 0.174566 0.684584 0.239579
O O4 0.000000 0.500000 0.000000
O O5 0.682301 0.799199 0.402456
O O6 0.393273 0.517518 0.246336
O O7 0.466897 0.791802 0.570587
O O8 0.325038 0.448699 0.542690
O O9 0.245259 0.531231 0.197117
O O10 0.507422 0.928763 0.153064
O O11 0.248279 0.534112 0.905004
O O12 0.935721 0.869043 0.283834
O O13 0.795677 0.759480 0.054364
O O14 0.031634 0.168773 0.271786
O O15 0.500000 0.000000 0.500000
#
# Coordination Sequence:
#
# PCOD9013540 Si02
#       7
#     2   2   2   2   2   2   2
#     4   9  21  39  60  88 123 161 200 244 302 363
#     4  11  22  38  60  90 122 152 203 252 301 355
#     4  10  21  41  65  86 127 161 194 252 312 353
#     4  10  22  41  62  83 120 164 198 245 309 348
#     4  10  22  39  61  91 117 154 207 250 293 369
#     4  11  23  38  61  95 124 155 206 251 303 369
#     4   9  21  41  60  90 121 158 207 245 289 378
#
# _framework density 22.018716000000001
#
# number of rings (size 3 to 8) (size 9 to 14) (size 15 to 20)
#    0.000    2.000    1.429    0.857    2.000    8.571 
#    0.000    4.286    0.000    0.000    0.000    0.000 
#    0.000    0.000    0.000    0.000    0.000    0.000 
#
# Total GULP energy -78217.445261 kJ/mol
# GULP energy per Si atom -5586.960376 kJ/mol
# Density = 2.196860 g / cm^3
# Si number density = 22.018716 Si / 1000 Ang^3
#
#
#
# Elastic Constant Matrix: (Units=GPa)
#
#
# Indices 1 2 3 4 5 6 
#
# 1 65.9868 23.0986 3.4360 -10.2586 5.2351 6.0752
# 2 23.0986 58.3489 6.2504 -3.1910 13.4502 -3.4339
# 3 3.4360 6.2504 64.1290 -8.4240 6.4616 -1.0626
# 4 -10.2586 -3.1910 -8.4240 37.1768 5.9153 1.4176
# 5 5.2351 13.4502 6.4616 5.9153 25.4217 -9.0898
# 6 6.0752 -3.4339 -1.0626 1.4176 -9.0898 28.8575
#
#
#
# Elastic Compliance Matrix: (Units=1/GPa)
#
#
# Indices 1 2 3 4 5 6 
#
# 1 0.019344 -0.006821 0.000714 0.005834 -0.004229 -0.006476
# 2 -0.006821 0.022428 -0.000555 0.001547 -0.010421 0.000726
# 3 0.000714 -0.000555 0.016827 0.004964 -0.005892 -0.001696
# 4 0.005834 0.001547 0.004964 0.032100 -0.013098 -0.006564
# 5 -0.004229 -0.010421 -0.005892 -0.013098 0.056677 0.017929
# 6 -0.006476 0.000726 -0.001696 -0.006564 0.017929 0.042010
#
#
# Mechanical properties :
#
#
# Convention : Reuss Voigt Hill
#
# Bulk Modulus (GPa) = 22.08841 28.22606 25.15723
# Shear Modulus (GPa) = 22.95650 28.66986 25.81318
#
# Velocity S-wave (km/s) = 3.23242 3.61233 3.42764
# Velocity P-wave (km/s) = 4.89743 5.49959 5.20722
#
# Compressibility (1/GPa) = 0.04527262
#
# Stress axis : x y z
#
# Youngs Moduli (GPa) = 51.69582 44.58794 59.42785
#
# Poissons Ratio (x) = 0.30415 -0.04240
# Poissons Ratio (y) = 0.35264 0.03299
# Poissons Ratio (z) = -0.03689 0.02475
#
# Static dielectric constant tensor:
#      x y z
#    x 1.784120 -0.016850 0.032830 
#    y -0.016850 1.779420 0.004920 
#    z 0.032830 0.004920 1.865160 
# 
# From -- ./inp_files/68166.got.cif
#   From: 2010.05.17/outbox.cif.g08.bks.cpg/sg2_35_cif.got.tgz:68166.got - 2010.06.03 11:33:40.
