data_PCOD9013625
_publ_section_title
;
Structure prediction by ZEFSAII (Michael W. Deem and Ramdas Pophale) SiO2 
 PCOD9013625
Probable space group: P -1
;
_chemical_formula_sum "Si O2"
_cell_formula_units_Z 15
_cell_length_a 11.678769
_cell_length_b 12.275484
_cell_length_c 7.606205
_cell_angle_alpha 60.824990
_cell_angle_beta 139.537361
_cell_angle_gamma 106.929492
_cell_volume 611.729019
_symmetry_space_group_name_H-M "P -1"
_symmetry_group_IT_number 2
_symmetry_cell_setting 'triclinic'
loop_
_space_group_symop_operation_xyz
x,y,z
-x,-y,-z
loop_
_atom_site_type_symbol
_atom_site_label
_atom_site_fract_x
_atom_site_fract_y
_atom_site_fract_z
Si Si1 0.848373 0.617909 0.240332
Si Si2 0.536548 0.908868 0.947471
Si Si3 0.098380 0.124682 0.800906
Si Si4 0.822404 0.954864 0.645842
Si Si5 0.117527 0.316380 0.165326
Si Si6 0.565432 0.363179 0.912943
Si Si7 0.264287 0.554728 0.308382
Si Si8 0.500000 0.500000 0.000000
O O1 0.924110 0.724751 0.360664
O O2 0.000000 0.500000 0.500000
O O3 0.814305 0.660054 0.967016
O O4 0.656123 0.597841 0.099165
O O5 0.365791 0.965616 0.588941
O O6 0.716507 0.920248 0.045046
O O7 0.511802 0.766706 0.084497
O O8 0.500000 0.000000 0.000000
O O9 0.104494 0.098806 0.038527
O O10 0.940175 0.050186 0.616645
O O11 0.826308 0.831790 0.622519
O O12 0.196646 0.420581 0.293622
O O13 0.903591 0.353762 0.889440
O O14 0.437289 0.506904 0.670979
O O15 0.666352 0.386432 0.833736
O O16 0.652852 0.380681 0.187160
#
# Coordination Sequence:
#
# PCOD9013625 Si02
#       8
#     2   2   2   2   2   2   2   1
#     4  11  23  39  66 100 127 166 214 276 329 381
#     4  12  26  44  66 100 136 175 219 273 329 394
#     4  10  24  45  67  96 131 176 227 264 330 389
#     4  10  24  46  66  94 130 180 223 265 320 399
#     4  10  21  41  65  91 125 175 214 265 326 387
#     4  11  24  42  64  99 126 173 214 271 333 387
#     4  10  22  42  65  92 131 165 217 268 329 396
#     4  12  22  42  62  98 130 158 220 266 332 374
#
# _framework density 24.520662999999999
#
# number of rings (size 3 to 8) (size 9 to 14) (size 15 to 20)
#    0.000    1.333    2.667    2.000    3.733    0.533 
#    4.800    0.000    0.000    0.000    0.000    0.000 
#    0.000    0.000    0.000    0.000    0.000    0.000 
#
# Total GULP energy -83649.756655 kJ/mol
# GULP energy per Si atom -5576.650444 kJ/mol
# Density = 2.446485 g / cm^3
# Si number density = 24.520663 Si / 1000 Ang^3
#
#
#
# Elastic Constant Matrix: (Units=GPa)
#
#
# Indices 1 2 3 4 5 6 
#
# 1 135.6819 57.9976 2.1964 -7.0765 19.3668 11.7259
# 2 57.9976 156.5054 29.9350 -6.4055 6.8006 -3.3813
# 3 2.1964 29.9350 51.4186 -10.4201 18.4511 3.3462
# 4 -7.0765 -6.4055 -10.4201 27.0439 -6.9041 7.0644
# 5 19.3668 6.8006 18.4511 -6.9041 33.6980 -3.5246
# 6 11.7259 -3.3813 3.3462 7.0644 -3.5246 32.1291
#
#
#
# Elastic Compliance Matrix: (Units=1/GPa)
#
#
# Indices 1 2 3 4 5 6 
#
# 1 0.011819 -0.005379 0.007471 0.004211 -0.009736 -0.007651
# 2 -0.005379 0.009730 -0.008236 -0.002105 0.005722 0.004935
# 3 0.007471 -0.008236 0.034243 0.011095 -0.020346 -0.011831
# 4 0.004211 -0.002105 0.011095 0.045175 -0.000160 -0.012864
# 5 -0.009736 0.005722 -0.020346 -0.000160 0.046416 0.011401
# 6 -0.007651 0.004935 -0.011831 -0.012864 0.011401 0.039748
#
#
# Mechanical properties :
#
#
# Convention : Reuss Voigt Hill
#
# Bulk Modulus (GPa) = 22.98578 58.20711 40.59644
# Shear Modulus (GPa) = 23.37341 35.47265 29.42303
#
# Velocity S-wave (km/s) = 3.09076 3.80760 3.46776
# Velocity P-wave (km/s) = 4.70441 6.56658 5.71189
#
# Compressibility (1/GPa) = 0.04350516
#
# Stress axis : x y z
#
# Youngs Moduli (GPa) = 84.61008 102.77513 29.20302
#
# Poissons Ratio (x) = 0.55281 -0.21819
# Poissons Ratio (y) = 0.45510 0.24051
# Poissons Ratio (z) = -0.63215 0.84645
#
# Static dielectric constant tensor:
#      x y z
#    x 2.246170 -0.101830 -0.274790 
#    y -0.101830 2.103200 0.149940 
#    z -0.274790 0.149940 2.342390 
# 
# From -- ./inp_files/257238.got.cif
#   From: 2010.05.17/outbox.cif.g08.bks.cpg/sg2_129_cif.got.tgz:257238.got - 2010.06.03 11:33:40.
