data_PCOD9013510
_publ_section_title
;
Structure prediction by ZEFSAII (Michael W. Deem and Ramdas Pophale) SiO2 
 PCOD9013510
Probable space group: P -1
;
_chemical_formula_sum "Si O2"
_cell_formula_units_Z 16
_cell_length_a 11.534431
_cell_length_b 11.508010
_cell_length_c 10.033413
_cell_angle_alpha 113.744057
_cell_angle_beta 85.314895
_cell_angle_gamma 46.025389
_cell_volume 733.614827
_symmetry_space_group_name_H-M "P -1"
_symmetry_group_IT_number 2
_symmetry_cell_setting 'triclinic'
loop_
_space_group_symop_operation_xyz
x,y,z
-x,-y,-z
loop_
_atom_site_type_symbol
_atom_site_label
_atom_site_fract_x
_atom_site_fract_y
_atom_site_fract_z
Si Si1 0.999446 0.569579 0.887623
Si Si2 0.562992 0.835160 0.315947
Si Si3 0.663037 0.258295 0.365837
Si Si4 0.815023 0.298066 0.769853
Si Si5 0.721066 0.018836 0.021154
Si Si6 0.065477 0.970257 0.131991
Si Si7 0.346449 0.281068 0.044950
Si Si8 0.748289 0.088315 0.544813
O O1 0.225015 0.392878 0.755451
O O2 0.856648 0.601400 0.832129
O O3 0.000000 0.500000 0.000000
O O4 0.883421 0.801633 0.987921
O O5 0.603099 0.828268 0.152560
O O6 0.386983 0.888959 0.352456
O O7 0.500000 0.000000 0.500000
O O8 0.500000 0.500000 0.500000
O O9 0.653114 0.192619 0.199948
O O10 0.653498 0.168775 0.445006
O O11 0.865562 0.155276 0.314121
O O12 0.834031 0.231649 0.890801
O O13 0.736084 0.241646 0.675663
O O14 0.694901 0.532052 0.885191
O O15 0.026694 0.138610 0.609817
O O16 0.814606 0.005350 0.877200
O O17 0.531955 0.107846 0.040295
O O18 0.000000 0.000000 0.000000
#
# Coordination Sequence:
#
# PCOD9013510 Si02
#       8
#     2   2   2   2   2   2   2   2
#     4  10  25  43  68  91 125 179 218 269 322 383
#     4  11  25  41  66  96 125 171 221 270 323 390
#     4  10  22  36  61  94 136 170 202 264 327 391
#     4  10  21  41  65 100 131 177 204 276 325 393
#     4  11  23  42  65  97 129 170 224 266 317 394
#     4   9  21  35  60  92 134 162 216 260 321 382
#     4  11  24  42  70  92 132 169 227 263 328 383
#     4  10  22  38  65  95 136 165 216 260 330 388
#
# _framework density 21.809811
#
# number of rings (size 3 to 8) (size 9 to 14) (size 15 to 20)
#    0.000    1.750    0.000    2.625   15.750    3.000 
#    0.000    1.875    0.000    0.000    0.000    0.000 
#    0.000    0.000    0.000    0.000    0.000    0.000 
#
# Total GULP energy -89195.009505 kJ/mol
# GULP energy per Si atom -5574.688094 kJ/mol
# Density = 2.176017 g / cm^3
# Si number density = 21.809811 Si / 1000 Ang^3
#
#
#
# Elastic Constant Matrix: (Units=GPa)
#
#
# Indices 1 2 3 4 5 6 
#
# 1 113.6110 18.4699 26.4031 5.2375 -6.9206 -6.8640
# 2 18.4699 64.0752 34.5618 15.9006 -9.7496 -6.8297
# 3 26.4031 34.5618 86.3020 16.0148 14.1652 -0.0981
# 4 5.2375 15.9006 16.0148 36.1092 3.7632 1.2382
# 5 -6.9206 -9.7496 14.1652 3.7632 31.0371 -0.7269
# 6 -6.8640 -6.8297 -0.0981 1.2382 -0.7269 36.6360
#
#
#
# Elastic Compliance Matrix: (Units=1/GPa)
#
#
# Indices 1 2 3 4 5 6 
#
# 1 0.010029 -0.000036 -0.003648 -0.000302 0.003972 0.001952
# 2 -0.000036 0.026806 -0.011598 -0.008393 0.014853 0.005538
# 3 -0.003648 -0.011598 0.019851 -0.001670 -0.013385 -0.003001
# 4 -0.000302 -0.008393 -0.001670 0.032897 -0.005997 -0.002856
# 5 0.003972 0.014853 -0.013385 -0.005997 0.044714 0.004567
# 6 0.001952 0.005538 -0.003001 -0.002856 0.004567 0.028873
#
#
# Mechanical properties :
#
#
# Convention : Reuss Voigt Hill
#
# Bulk Modulus (GPa) = 38.28101 46.98420 42.63260
# Shear Modulus (GPa) = 24.69841 33.06001 28.87921
#
# Velocity S-wave (km/s) = 3.36883 3.89759 3.64282
# Velocity P-wave (km/s) = 5.72034 6.46873 6.10601
#
# Compressibility (1/GPa) = 0.02612262
#
# Stress axis : x y z
#
# Youngs Moduli (GPa) = 99.70770 37.30474 50.37423
#
# Poissons Ratio (x) = 0.00135 0.18374
# Poissons Ratio (y) = 0.00361 0.58426
# Poissons Ratio (z) = 0.36369 0.43268
#
# Static dielectric constant tensor:
#      x y z
#    x 1.901800 0.023770 -0.066490 
#    y 0.023770 1.874910 -0.031210 
#    z -0.066490 -0.031210 1.826170 
# 
# From -- ./inp_files/428725.got.cif
#   From: 2010.05.17/outbox.cif.g08.bks.cpg/sg2_215_cif.got.tgz:428725.got - 2010.06.03 11:33:40.
