data_PCOD9013067
_publ_section_title
;
Structure prediction by ZEFSAII (Michael W. Deem and Ramdas Pophale) SiO2 
 PCOD9013067
Probable space group: P -1
;
_chemical_formula_sum "Si O2"
_cell_formula_units_Z 14
_cell_length_a 5.628918
_cell_length_b 18.701131
_cell_length_c 7.935718
_cell_angle_alpha 134.926507
_cell_angle_beta 92.924578
_cell_angle_gamma 79.801602
_cell_volume 578.815425
_symmetry_space_group_name_H-M "P -1"
_symmetry_group_IT_number 2
_symmetry_cell_setting 'triclinic'
loop_
_space_group_symop_operation_xyz
x,y,z
-x,-y,-z
loop_
_atom_site_type_symbol
_atom_site_label
_atom_site_fract_x
_atom_site_fract_y
_atom_site_fract_z
Si Si1 0.069421 0.090349 0.264141
Si Si2 0.925418 0.614962 0.620772
Si Si3 0.595730 0.378582 0.783577
Si Si4 0.123375 0.314511 0.641445
Si Si5 0.224760 0.955690 0.552900
Si Si6 0.449925 0.918042 0.160742
Si Si7 0.381875 0.702065 0.732293
O O1 0.132556 0.196743 0.384957
O O2 0.845759 0.118150 0.433030
O O3 0.295067 0.025679 0.267767
O O4 0.000000 0.000000 0.000000
O O5 0.651445 0.662364 0.752537
O O6 0.000000 0.500000 0.500000
O O7 0.903549 0.619115 0.422126
O O8 0.145839 0.674536 0.768007
O O9 0.878512 0.349205 0.800006
O O10 0.614852 0.346469 0.533657
O O11 0.375938 0.326575 0.756118
O O12 0.500000 0.500000 0.000000
O O13 0.419226 0.904432 0.337146
O O14 0.285257 0.058053 0.813085
O O15 0.000000 0.000000 0.500000
O O16 0.366707 0.823796 0.913841
#
# Coordination Sequence:
#
# PCOD9013067 Si02
#       7
#     2   2   2   2   2   2   2
#     4  11  23  38  67 104 143 175 220 276 342 420
#     4  10  21  41  63  90 128 165 228 279 327 388
#     4  10  21  41  63  87 131 170 220 280 334 387
#     4  10  23  39  64  97 129 176 217 267 347 401
#     4   9  22  41  64  89 141 176 227 270 334 390
#     4  10  22  42  68  96 139 180 223 276 332 421
#     4  10  22  38  70  96 121 173 224 270 342 397
#
# _framework density 24.187332000000001
#
# number of rings (size 3 to 8) (size 9 to 14) (size 15 to 20)
#    0.000    2.000    0.000    2.571   10.000    0.571 
#    0.000    8.571    0.000    0.000    0.000    0.000 
#    0.000    0.000    0.000    0.000    0.000    0.000 
#
# Total GULP energy -78089.911911 kJ/mol
# GULP energy per Si atom -5577.850851 kJ/mol
# Density = 2.413228 g / cm^3
# Si number density = 24.187332 Si / 1000 Ang^3
#
#
#
# Elastic Constant Matrix: (Units=GPa)
#
#
# Indices 1 2 3 4 5 6 
#
# 1 183.4097 10.8503 12.4700 15.3667 18.0603 8.3799
# 2 10.8503 68.8994 13.3919 20.6702 0.1882 7.0610
# 3 12.4700 13.3919 100.9474 20.0059 11.6046 3.3127
# 4 15.3667 20.6702 20.0059 34.4371 1.3914 -0.7848
# 5 18.0603 0.1882 11.6046 1.3914 33.7697 13.7793
# 6 8.3799 7.0610 3.3127 -0.7848 13.7793 25.5472
#
#
#
# Elastic Compliance Matrix: (Units=1/GPa)
#
#
# Indices 1 2 3 4 5 6 
#
# 1 0.005976 -0.000155 0.000142 -0.002546 -0.002971 -0.000412
# 2 -0.000155 0.018737 -0.000407 -0.011254 0.003582 -0.007353
# 3 0.000142 -0.000407 0.011661 -0.006418 -0.004033 0.000532
# 4 -0.002546 -0.011254 -0.006418 0.040830 -0.000659 0.006387
# 5 -0.002971 0.003582 -0.004033 -0.000659 0.041537 -0.021917
# 6 -0.000412 -0.007353 0.000532 0.006387 -0.021917 0.053259
#
#
# Mechanical properties :
#
#
# Convention : Reuss Voigt Hill
#
# Bulk Modulus (GPa) = 28.14124 47.40899 37.77511
# Shear Modulus (GPa) = 27.07308 39.85375 33.46342
#
# Velocity S-wave (km/s) = 3.34924 4.06361 3.72359
# Velocity P-wave (km/s) = 5.15911 6.45449 5.84281
#
# Compressibility (1/GPa) = 0.03553504
#
# Stress axis : x y z
#
# Youngs Moduli (GPa) = 167.32309 53.36952 85.75757
#
# Poissons Ratio (x) = 0.00826 -0.01216
# Poissons Ratio (y) = 0.02589 0.03489
# Poissons Ratio (z) = -0.02373 0.02171
#
# Static dielectric constant tensor:
#      x y z
#    x 2.219810 -0.001250 -0.030860 
#    y -0.001250 1.981060 0.006570 
#    z -0.030860 0.006570 1.973650 
# 
# From -- ./inp_files/65451.got.cif
#   From: 2010.05.17/outbox.cif.g08.bks.cpg/sg2_33_cif.got.tgz:65451.got - 2010.06.03 11:33:40.
