data_PCOD9013318
_publ_section_title
;
Structure prediction by ZEFSAII (Michael W. Deem and Ramdas Pophale) SiO2 
 PCOD9013318
Probable space group: P -1
;
_chemical_formula_sum "Si O2"
_cell_formula_units_Z 13
_cell_length_a 15.961983
_cell_length_b 15.167672
_cell_length_c 5.974428
_cell_angle_alpha 126.304779
_cell_angle_beta 131.932068
_cell_angle_gamma 27.110354
_cell_volume 490.353070
_symmetry_space_group_name_H-M "P -1"
_symmetry_group_IT_number 2
_symmetry_cell_setting 'triclinic'
loop_
_space_group_symop_operation_xyz
x,y,z
-x,-y,-z
loop_
_atom_site_type_symbol
_atom_site_label
_atom_site_fract_x
_atom_site_fract_y
_atom_site_fract_z
Si Si1 0.233349 0.960979 0.388524
Si Si2 0.113837 0.213069 0.160699
Si Si3 0.485986 0.886506 0.094094
Si Si4 0.600969 0.622098 0.281217
Si Si5 0.500000 0.500000 0.000000
Si Si6 0.083300 0.829236 0.523662
Si Si7 0.163809 0.419782 0.010903
O O1 0.365277 0.906900 0.737994
O O2 0.389239 0.755451 0.229574
O O3 0.037700 0.069343 0.306785
O O4 0.174676 0.106191 0.336189
O O5 0.010456 0.200147 0.813234
O O6 0.950318 0.436775 0.188569
O O7 0.314755 0.095536 0.219120
O O8 0.663611 0.790538 0.113697
O O9 0.560688 0.744682 0.208133
O O10 0.733690 0.572275 0.632238
O O11 0.643787 0.467465 0.041545
O O12 0.318856 0.632634 0.681589
O O13 0.000000 0.000000 0.500000
O O14 0.000000 0.500000 0.000000
#
# Coordination Sequence:
#
# PCOD9013318 Si02
#       7
#     2   2   2   2   1   2   2
#     4   9  20  41  63  86 130 167 213 263 319 390
#     4  10  21  41  64  90 129 167 211 269 324 379
#     4   9  21  41  65  92 129 166 215 268 322 385
#     4  10  22  43  61  93 127 165 217 266 317 390
#     4  12  22  36  66  92 128 168 212 262 326 388
#     4  11  23  40  60  95 132 174 216 265 328 389
#     4  11  24  42  66  96 126 168 220 265 322 390
#
# _framework density 26.511507000000002
#
# number of rings (size 3 to 8) (size 9 to 14) (size 15 to 20)
#    0.000    1.846    1.538    2.769    2.154    3.692 
#    0.000   10.000    0.000    0.000    0.000    0.000 
#    0.000    0.000    0.000    0.000    0.000    0.000 
#
# Total GULP energy -72498.386974 kJ/mol
# GULP energy per Si atom -5576.798998 kJ/mol
# Density = 2.645117 g / cm^3
# Si number density = 26.511507 Si / 1000 Ang^3
#
#
#
# Elastic Constant Matrix: (Units=GPa)
#
#
# Indices 1 2 3 4 5 6 
#
# 1 116.6716 61.1208 47.6414 -11.4871 5.8461 -29.3208
# 2 61.1208 109.7891 39.0741 -41.9960 -2.9249 -21.4082
# 3 47.6414 39.0741 123.5917 -20.0841 14.8048 6.7880
# 4 -11.4871 -41.9960 -20.0841 45.0795 9.6212 -6.8526
# 5 5.8461 -2.9249 14.8048 9.6212 48.4872 -5.1239
# 6 -29.3208 -21.4082 6.7880 -6.8526 -5.1239 45.0726
#
#
#
# Elastic Compliance Matrix: (Units=1/GPa)
#
#
# Indices 1 2 3 4 5 6 
#
# 1 0.015602 -0.007007 -0.004887 -0.003803 0.000689 0.007058
# 2 -0.007007 0.023720 -0.001904 0.021062 -0.000248 0.010169
# 3 -0.004887 -0.001904 0.011767 0.002206 -0.004190 -0.005997
# 4 -0.003803 0.021062 0.002206 0.045234 -0.006511 0.013335
# 5 0.000689 -0.000248 -0.004190 -0.006511 0.023375 0.002629
# 6 0.007058 0.010169 -0.005997 0.013335 0.002629 0.034837
#
#
# Mechanical properties :
#
#
# Convention : Reuss Voigt Hill
#
# Bulk Modulus (GPa) = 42.56792 71.74721 57.15756
# Shear Modulus (GPa) = 26.32109 41.20893 33.76501
#
# Velocity S-wave (km/s) = 3.15432 3.94684 3.57262
# Velocity P-wave (km/s) = 5.41826 6.92037 6.21486
#
# Compressibility (1/GPa) = 0.02349187
#
# Stress axis : x y z
#
# Youngs Moduli (GPa) = 64.09465 42.15911 84.98524
#
# Poissons Ratio (x) = 0.29540 0.41533
# Poissons Ratio (y) = 0.44909 0.16185
# Poissons Ratio (z) = 0.31324 0.08029
#
# Static dielectric constant tensor:
#      x y z
#    x 2.099740 -0.055280 -0.043800 
#    y -0.055280 1.895430 -0.122840 
#    z -0.043800 -0.122840 1.967810 
# 
# From -- ./inp_files/23896.got.cif
#   From: 2010.05.17/outbox.cif.g08.bks.cpg/sg2_12_cif.got.tgz:23896.got - 2010.06.03 11:33:40.
