data_PCOD9013495
_publ_section_title
;
Structure prediction by ZEFSAII (Michael W. Deem and Ramdas Pophale) SiO2 
 PCOD9013495
Probable space group: P -1
;
_chemical_formula_sum "Si O2"
_cell_formula_units_Z 16
_cell_length_a 8.949556
_cell_length_b 9.320941
_cell_length_c 16.244819
_cell_angle_alpha 136.530758
_cell_angle_beta 46.798957
_cell_angle_gamma 132.450342
_cell_volume 635.267641
_symmetry_space_group_name_H-M "P -1"
_symmetry_group_IT_number 2
_symmetry_cell_setting 'triclinic'
loop_
_space_group_symop_operation_xyz
x,y,z
-x,-y,-z
loop_
_atom_site_type_symbol
_atom_site_label
_atom_site_fract_x
_atom_site_fract_y
_atom_site_fract_z
Si Si1 0.461556 0.637720 0.494532
Si Si2 0.301900 0.663018 0.918289
Si Si3 0.752502 0.688027 0.702315
Si Si4 0.872161 0.563954 0.780698
Si Si5 0.948443 0.834424 0.166983
Si Si6 0.272395 0.976175 0.793289
Si Si7 0.640851 0.263081 0.881695
Si Si8 0.046611 0.208066 0.628718
O O1 0.500000 0.500000 0.500000
O O2 0.290687 0.478522 0.427689
O O3 0.385646 0.832726 0.638206
O O4 0.709335 0.739864 0.407331
O O5 0.525650 0.736593 0.814534
O O6 0.361443 0.679063 0.999055
O O7 0.151407 0.406252 0.851414
O O8 0.150906 0.811433 0.028496
O O9 0.775641 0.562965 0.725981
O O10 0.957121 0.922144 0.723763
O O11 0.702169 0.466133 0.877634
O O12 0.032727 0.812360 0.840399
O O13 0.024045 0.412396 0.668615
O O14 0.760005 0.844436 0.181237
O O15 0.420376 0.080353 0.857827
O O16 0.840385 0.170554 0.751558
O O17 0.000000 0.000000 0.500000
#
# Coordination Sequence:
#
# PCOD9013495 Si02
#       8
#     2   2   2   2   2   2   2   2
#     4  12  24  44  71  99 137 176 226 282 345 411
#     4  11  25  47  70  98 141 184 228 280 331 409
#     4  11  26  46  71 100 137 181 225 287 340 401
#     4   9  22  42  63 103 136 169 227 276 331 403
#     4  10  26  44  67 103 137 177 232 276 340 397
#     4  11  22  45  69 104 134 180 226 280 348 397
#     4  10  23  42  69  99 139 179 223 279 336 397
#     4  10  21  41  64  98 138 175 225 272 334 400
#
# _framework density 25.186236000000001
#
# number of rings (size 3 to 8) (size 9 to 14) (size 15 to 20)
#    0.750    0.750    2.500    1.125    5.250    5.000 
#    2.250    5.625    0.000    0.000    0.000    0.000 
#    0.000    0.000    0.000    0.000    0.000    0.000 
#
# Total GULP energy -89577.040484 kJ/mol
# GULP energy per Si atom -5598.565030 kJ/mol
# Density = 2.512891 g / cm^3
# Si number density = 25.186236 Si / 1000 Ang^3
#
#
#
# Elastic Constant Matrix: (Units=GPa)
#
#
# Indices 1 2 3 4 5 6 
#
# 1 131.4783 15.5057 40.2191 9.4408 10.5182 9.7103
# 2 15.5057 63.1676 19.2292 2.2832 16.5589 16.1297
# 3 40.2191 19.2292 113.0347 9.9717 12.3240 5.1652
# 4 9.4408 2.2832 9.9717 36.2439 2.2238 1.5796
# 5 10.5182 16.5589 12.3240 2.2238 54.4964 13.2146
# 6 9.7103 16.1297 5.1652 1.5796 13.2146 41.2719
#
#
#
# Elastic Compliance Matrix: (Units=1/GPa)
#
#
# Indices 1 2 3 4 5 6 
#
# 1 0.008771 -0.000839 -0.002750 -0.001395 -0.000471 -0.001187
# 2 -0.000839 0.019203 -0.002305 0.000127 -0.003744 -0.005825
# 3 -0.002750 -0.002305 0.010494 -0.001981 -0.001232 0.000705
# 4 -0.001395 0.000127 -0.001981 0.028534 -0.000378 -0.000444
# 5 -0.000471 -0.003744 -0.001232 -0.000378 0.021087 -0.005009
# 6 -0.001187 -0.005825 0.000705 -0.000444 -0.005009 0.028318
#
#
# Mechanical properties :
#
#
# Convention : Reuss Voigt Hill
#
# Bulk Modulus (GPa) = 37.47913 50.84317 44.16115
# Shear Modulus (GPa) = 36.47290 41.91756 39.19523
#
# Velocity S-wave (km/s) = 3.80956 4.08401 3.94917
# Velocity P-wave (km/s) = 5.85349 6.51687 6.19407
#
# Compressibility (1/GPa) = 0.02668152
#
# Stress axis : x y z
#
# Youngs Moduli (GPa) = 114.00688 52.07557 95.29092
#
# Poissons Ratio (x) = 0.04369 0.26201
# Poissons Ratio (y) = 0.09564 0.21965
# Poissons Ratio (z) = 0.31347 0.12003
#
# Static dielectric constant tensor:
#      x y z
#    x 1.999330 -0.039150 -0.025360 
#    y -0.039150 2.058490 -0.030600 
#    z -0.025360 -0.030600 1.965660 
# 
# From -- ./inp_files/589196.got.cif
#   From: 2010.05.17/outbox.cif.g08.bks.cpg/sg2_295_cif.got.tgz:589196.got - 2010.06.03 11:33:40.
