data_PCOD9013008
_publ_section_title
;
Structure prediction by ZEFSAII (Michael W. Deem and Ramdas Pophale) SiO2 
 PCOD9013008
Probable space group: P -1
;
_chemical_formula_sum "Si O2"
_cell_formula_units_Z 16
_cell_length_a 12.191382
_cell_length_b 12.814408
_cell_length_c 9.109824
_cell_angle_alpha 105.721319
_cell_angle_beta 140.507070
_cell_angle_gamma 98.985368
_cell_volume 699.170326
_symmetry_space_group_name_H-M "P -1"
_symmetry_group_IT_number 2
_symmetry_cell_setting 'triclinic'
loop_
_space_group_symop_operation_xyz
x,y,z
-x,-y,-z
loop_
_atom_site_type_symbol
_atom_site_label
_atom_site_fract_x
_atom_site_fract_y
_atom_site_fract_z
Si Si1 0.154730 0.932261 0.207503
Si Si2 0.519568 0.911278 0.175106
Si Si3 0.097008 0.660123 0.112261
Si Si4 0.857985 0.340756 0.173419
Si Si5 0.485136 0.833520 0.790710
Si Si6 0.280151 0.469766 0.826362
Si Si7 0.350260 0.517796 0.249398
Si Si8 0.312959 0.166451 0.266090
O O1 0.155120 0.805060 0.181996
O O2 0.249670 0.020486 0.487542
O O3 0.300876 0.041540 0.274756
O O4 0.904680 0.865043 0.909432
O O5 0.501447 0.032039 0.168832
O O6 0.338481 0.814008 0.067904
O O7 0.487210 0.827123 0.964615
O O8 0.273488 0.709417 0.442277
O O9 0.131692 0.444728 0.088596
O O10 0.087223 0.607804 0.917554
O O11 0.763048 0.415798 0.176356
O O12 0.063417 0.359632 0.470136
O O13 0.672250 0.843521 0.897417
O O14 0.500000 0.500000 0.000000
O O15 0.290926 0.446483 0.002155
O O16 0.500000 0.500000 0.500000
O O17 0.492601 0.680472 0.431580
#
# Coordination Sequence:
#
# PCOD9013008 Si02
#       8
#     2   2   2   2   2   2   2   2
#     4  10  22  41  65  91 131 168 221 270 324 396
#     4  10  21  41  62  95 128 171 215 269 334 396
#     4  11  22  42  69  97 128 172 217 273 332 398
#     4  11  24  45  70  97 133 182 223 277 338 398
#     4  10  22  38  64  94 131 164 217 272 329 399
#     4  11  26  44  65  98 138 176 225 275 335 402
#     4  12  24  42  67 101 135 176 222 281 335 396
#     4  11  23  40  64  95 124 174 222 270 325 393
#
# _framework density 22.884267000000001
#
# number of rings (size 3 to 8) (size 9 to 14) (size 15 to 20)
#    0.000    1.250    1.250    4.500    0.000    7.500 
#    2.250    0.000    0.000    0.000    0.000    0.000 
#    0.000    0.000    0.000    0.000    0.000    0.000 
#
# Total GULP energy -89221.877088 kJ/mol
# GULP energy per Si atom -5576.367318 kJ/mol
# Density = 2.283218 g / cm^3
# Si number density = 22.884267 Si / 1000 Ang^3
#
#
#
# Elastic Constant Matrix: (Units=GPa)
#
#
# Indices 1 2 3 4 5 6 
#
# 1 144.8523 24.4897 50.0748 9.4291 -4.7903 20.4662
# 2 24.4897 76.8076 26.2634 11.4378 3.5469 26.5218
# 3 50.0748 26.2634 111.4632 5.2172 9.3024 9.1106
# 4 9.4291 11.4378 5.2172 31.4174 4.3443 4.1538
# 5 -4.7903 3.5469 9.3024 4.3443 39.4683 0.7012
# 6 20.4662 26.5218 9.1106 4.1538 0.7012 37.4841
#
#
#
# Elastic Compliance Matrix: (Units=1/GPa)
#
#
# Indices 1 2 3 4 5 6 
#
# 1 0.008955 -0.000097 -0.003797 -0.001840 0.002260 -0.003736
# 2 -0.000097 0.019049 -0.003214 -0.004739 -0.000229 -0.012114
# 3 -0.003797 -0.003214 0.011530 0.000605 -0.002983 0.001533
# 4 -0.001840 -0.004739 0.000605 0.034463 -0.003742 0.000462
# 5 0.002260 -0.000229 -0.002983 -0.003742 0.026754 -0.000432
# 6 -0.003736 -0.012114 0.001533 0.000462 -0.000432 0.036874
#
#
# Mechanical properties :
#
#
# Convention : Reuss Voigt Hill
#
# Bulk Modulus (GPa) = 39.49758 59.41989 49.45873
# Shear Modulus (GPa) = 31.19543 37.16030 34.17786
#
# Velocity S-wave (km/s) = 3.69614 4.03406 3.86879
# Velocity P-wave (km/s) = 5.95923 6.90796 6.45106
#
# Compressibility (1/GPa) = 0.02531801
#
# Stress axis : x y z
#
# Youngs Moduli (GPa) = 111.66842 52.49699 86.73006
#
# Poissons Ratio (x) = 0.00510 0.32934
# Poissons Ratio (y) = 0.01084 0.27872
# Poissons Ratio (z) = 0.42403 0.16870
#
# Static dielectric constant tensor:
#      x y z
#    x 1.888390 -0.066850 -0.022470 
#    y -0.066850 1.927380 -0.018290 
#    z -0.022470 -0.018290 1.882610 
# 
# From -- ./inp_files/273944.got.cif
#   From: 2010.05.17/outbox.cif.g08.bks.cpg/sg2_137_cif.got.tgz:273944.got - 2010.06.03 11:33:40.
