data_PCOD9013412
_publ_section_title
;
Structure prediction by ZEFSAII (Michael W. Deem and Ramdas Pophale) SiO2 
 PCOD9013412
Probable space group: P -1
;
_chemical_formula_sum "Si O2"
_cell_formula_units_Z 14
_cell_length_a 19.457970
_cell_length_b 22.586810
_cell_length_c 9.193217
_cell_angle_alpha 32.472841
_cell_angle_beta 32.486961
_cell_angle_gamma 17.787522
_cell_volume 642.474905
_symmetry_space_group_name_H-M "P -1"
_symmetry_group_IT_number 2
_symmetry_cell_setting 'triclinic'
loop_
_space_group_symop_operation_xyz
x,y,z
-x,-y,-z
loop_
_atom_site_type_symbol
_atom_site_label
_atom_site_fract_x
_atom_site_fract_y
_atom_site_fract_z
Si Si1 0.152485 0.009347 0.940980
Si Si2 0.573119 0.678240 0.671479
Si Si3 0.332879 0.696408 0.485969
Si Si4 0.214879 0.287314 0.978972
Si Si5 0.718627 0.936868 0.898488
Si Si6 0.328785 0.767253 0.666549
Si Si7 0.983360 0.269916 0.935011
O O1 0.270837 0.846156 0.190065
O O2 0.330590 0.884200 0.750837
O O3 0.904869 0.132447 0.089849
O O4 0.105934 0.159090 0.791882
O O5 0.692762 0.694417 0.346018
O O6 0.512610 0.631791 0.750695
O O7 0.752141 0.504143 0.830800
O O8 0.500000 0.500000 0.500000
O O9 0.420864 0.663869 0.557828
O O10 0.106342 0.785205 0.736223
O O11 0.444372 0.106249 0.042838
O O12 0.169098 0.207410 0.139866
O O13 0.000000 0.500000 0.000000
O O14 0.849390 0.807012 0.080013
O O15 0.731814 0.059133 0.600496
#
# Coordination Sequence:
#
# PCOD9013412 Si02
#       7
#     2   2   2   2   2   2   2
#     4  11  21  40  62  97 133 165 209 253 311 386
#     4  11  25  40  61  99 128 162 212 269 312 364
#     4  11  20  37  65  96 132 174 209 242 312 394
#     4  10  25  46  66  91 123 166 221 262 317 374
#     4  10  21  43  70  89 121 173 212 254 314 380
#     4  10  21  41  64  94 132 171 208 251 316 379
#     4  11  22  38  65  95 132 164 205 258 319 372
#
# _framework density 21.790734
#
# number of rings (size 3 to 8) (size 9 to 14) (size 15 to 20)
#    0.000    1.429    4.286    1.286    0.000    9.714 
#    2.571    1.429    0.000    0.000    0.000    0.000 
#    0.000    0.000    0.000    0.000    0.000    0.000 
#
# Total GULP energy -78247.017273 kJ/mol
# GULP energy per Si atom -5589.072662 kJ/mol
# Density = 2.174114 g / cm^3
# Si number density = 21.790734 Si / 1000 Ang^3
#
#
#
# Elastic Constant Matrix: (Units=GPa)
#
#
# Indices 1 2 3 4 5 6 
#
# 1 151.7546 70.0513 14.4225 -0.4654 1.2867 -1.1417
# 2 70.0513 129.6611 16.3300 4.0683 3.1771 23.1681
# 3 14.4225 16.3300 54.8721 12.1322 7.6942 4.4513
# 4 -0.4654 4.0683 12.1322 23.8403 4.3484 15.6696
# 5 1.2867 3.1771 7.6942 4.3484 20.7584 -7.4382
# 6 -1.1417 23.1681 4.4513 15.6696 -7.4382 49.3974
#
#
#
# Elastic Compliance Matrix: (Units=1/GPa)
#
#
# Indices 1 2 3 4 5 6 
#
# 1 0.009247 -0.005506 -0.001160 -0.001026 0.002189 0.003556
# 2 -0.005506 0.012329 -0.002002 0.004922 -0.004701 -0.007999
# 3 -0.001160 -0.002002 0.022143 -0.011207 -0.004858 0.001741
# 4 -0.001026 0.004922 -0.011207 0.067255 -0.019811 -0.025640
# 5 0.002189 -0.004701 -0.004858 -0.019811 0.061228 0.018197
# 6 0.003556 -0.007999 0.001741 -0.025640 0.018197 0.034794
#
#
# Mechanical properties :
#
#
# Convention : Reuss Voigt Hill
#
# Bulk Modulus (GPa) = 37.90554 59.76616 48.83585
# Shear Modulus (GPa) = 21.44746 34.49815 27.97281
#
# Velocity S-wave (km/s) = 3.14067 3.98321 3.58677
# Velocity P-wave (km/s) = 5.53035 6.97434 6.29390
#
# Compressibility (1/GPa) = 0.02638137
#
# Stress axis : x y z
#
# Youngs Moduli (GPa) = 108.14714 81.10687 45.16118
#
# Poissons Ratio (x) = 0.44660 0.05240
# Poissons Ratio (y) = 0.59549 0.09042
# Poissons Ratio (z) = 0.12548 0.16240
#
# Static dielectric constant tensor:
#      x y z
#    x 1.843370 0.027980 0.007860 
#    y 0.027980 1.854150 -0.041930 
#    z 0.007860 -0.041930 1.831250 
# 
# From -- ./inp_files/199960.got.cif
#   From: 2010.05.17/outbox.cif.g08.bks.cpg/sg2_100_cif.got.tgz:199960.got - 2010.06.03 11:33:40.
