data_PCOD9013077
_publ_section_title
;
Structure prediction by ZEFSAII (Michael W. Deem and Ramdas Pophale) SiO2 
 PCOD9013077
Probable space group: P -1
;
_chemical_formula_sum "Si O2"
_cell_formula_units_Z 16
_cell_length_a 19.724503
_cell_length_b 8.489410
_cell_length_c 5.787657
_cell_angle_alpha 55.146848
_cell_angle_beta 113.036666
_cell_angle_gamma 130.136160
_cell_volume 607.607881
_symmetry_space_group_name_H-M "P -1"
_symmetry_group_IT_number 2
_symmetry_cell_setting 'triclinic'
loop_
_space_group_symop_operation_xyz
x,y,z
-x,-y,-z
loop_
_atom_site_type_symbol
_atom_site_label
_atom_site_fract_x
_atom_site_fract_y
_atom_site_fract_z
Si Si1 0.785844 0.481651 0.884442
Si Si2 0.396972 0.811607 0.099165
Si Si3 0.122489 0.129168 0.930154
Si Si4 0.598232 0.850789 0.879068
Si Si5 0.100796 0.775734 0.507476
Si Si6 0.435000 0.475227 0.239501
Si Si7 0.752020 0.825321 0.312263
Si Si8 0.918404 0.557095 0.626051
O O1 0.698894 0.249758 0.065554
O O2 0.749981 0.594926 0.563877
O O3 0.852388 0.448475 0.848437
O O4 0.835199 0.672010 0.987366
O O5 0.384172 0.574346 0.202749
O O6 0.392872 0.910853 0.260948
O O7 0.500000 0.000000 0.000000
O O8 0.195719 0.106592 0.917543
O O9 0.080760 0.212557 0.619467
O O10 0.064621 0.888801 0.187649
O O11 0.613453 0.780727 0.709511
O O12 0.495485 0.658603 0.966702
O O13 0.661660 0.811289 0.158579
O O14 0.116458 0.616583 0.496038
O O15 0.020796 0.640923 0.696870
O O16 0.186830 0.983890 0.574550
O O17 0.500000 0.500000 0.500000
#
# Coordination Sequence:
#
# PCOD9013077 Si02
#       8
#     2   2   2   2   2   2   2   2
#     4  10  22  41  63  92 129 166 219 267 330 390
#     4  10  22  40  64  96 124 166 213 264 325 393
#     4  10  22  38  65  92 128 175 214 272 333 383
#     4  10  22  38  62  90 124 161 211 259 322 383
#     4  10  23  41  62  94 132 168 226 265 330 391
#     4  10  21  41  63  88 124 162 205 264 320 384
#     4  10  22  40  63  94 125 173 213 271 322 394
#     4  10  23  41  62  94 129 174 218 276 321 398
#
# _framework density 26.332771000000001
#
# number of rings (size 3 to 8) (size 9 to 14) (size 15 to 20)
#    0.000    2.000    0.000    1.875    3.500    7.000 
#    0.000    5.000    0.000    0.000    0.000    0.000 
#    0.000    0.000    0.000    0.000    0.000    0.000 
#
# Total GULP energy -89233.046977 kJ/mol
# GULP energy per Si atom -5577.065436 kJ/mol
# Density = 2.627284 g / cm^3
# Si number density = 26.332771 Si / 1000 Ang^3
#
#
#
# Elastic Constant Matrix: (Units=GPa)
#
#
# Indices 1 2 3 4 5 6 
#
# 1 198.8533 63.6284 26.2988 -0.1660 -13.2620 -15.5448
# 2 63.6284 128.2585 12.6381 15.1536 -5.8401 -39.4421
# 3 26.2988 12.6381 54.1222 -9.2708 7.7966 -4.1292
# 4 -0.1660 15.1536 -9.2708 33.6092 -1.0853 -6.1794
# 5 -13.2620 -5.8401 7.7966 -1.0853 31.6924 -3.9375
# 6 -15.5448 -39.4421 -4.1292 -6.1794 -3.9375 61.4452
#
#
#
# Elastic Compliance Matrix: (Units=1/GPa)
#
#
# Indices 1 2 3 4 5 6 
#
# 1 0.006525 -0.002968 -0.002793 0.000657 0.002869 -0.000192
# 2 -0.002968 0.012150 -0.002021 -0.004773 0.002147 0.006570
# 3 -0.002793 -0.002021 0.022443 0.006821 -0.006860 -0.000249
# 4 0.000657 -0.004773 0.006821 0.033925 -0.001008 0.000908
# 5 0.002869 0.002147 -0.006860 -0.001008 0.035275 0.003802
# 6 -0.000192 0.006570 -0.000249 0.000908 0.003802 0.020762
#
#
# Mechanical properties :
#
#
# Convention : Reuss Voigt Hill
#
# Bulk Modulus (GPa) = 39.13045 65.15162 52.14104
# Shear Modulus (GPa) = 32.22454 43.92727 38.07590
#
# Velocity S-wave (km/s) = 3.50200 4.08874 3.80669
# Velocity P-wave (km/s) = 5.58965 6.86191 6.25820
#
# Compressibility (1/GPa) = 0.02555554
#
# Stress axis : x y z
#
# Youngs Moduli (GPa) = 153.26416 82.30191 44.55698
#
# Poissons Ratio (x) = 0.24425 0.12444
# Poissons Ratio (y) = 0.45485 0.09004
# Poissons Ratio (z) = 0.42804 0.16631
#
# Static dielectric constant tensor:
#      x y z
#    x 2.118430 0.046700 -0.017980 
#    y 0.046700 2.063720 -0.038140 
#    z -0.017980 -0.038140 2.102410 
# 
# From -- ./inp_files/116692.got.cif
#   From: 2010.05.17/outbox.cif.g08.bks.cpg/sg2_59_cif.got.tgz:116692.got - 2010.06.03 11:33:40.
