data_PCOD9013561
_publ_section_title
;
Structure prediction by ZEFSAII (Michael W. Deem and Ramdas Pophale) SiO2 
 PCOD9013561
Probable space group: P -1
;
_chemical_formula_sum "Si O2"
_cell_formula_units_Z 16
_cell_length_a 13.306995
_cell_length_b 9.339613
_cell_length_c 18.842627
_cell_angle_alpha 43.628221
_cell_angle_beta 35.329333
_cell_angle_gamma 29.956252
_cell_volume 675.037464
_symmetry_space_group_name_H-M "P -1"
_symmetry_group_IT_number 2
_symmetry_cell_setting 'triclinic'
loop_
_space_group_symop_operation_xyz
x,y,z
-x,-y,-z
loop_
_atom_site_type_symbol
_atom_site_label
_atom_site_fract_x
_atom_site_fract_y
_atom_site_fract_z
Si Si1 0.589249 0.940948 0.253792
Si Si2 0.028895 0.042578 0.802223
Si Si3 0.679179 0.468268 0.460503
Si Si4 0.429369 0.544175 0.162325
Si Si5 0.866682 0.627761 0.456438
Si Si6 0.903206 0.373742 0.900542
Si Si7 0.169140 0.179078 0.314068
Si Si8 0.464663 0.455161 0.325715
O O1 0.626348 0.754262 0.367026
O O2 0.863124 0.768513 0.136007
O O3 0.464017 0.267429 0.225654
O O4 0.430158 0.954546 0.281551
O O5 0.767622 0.199792 0.868996
O O6 0.001924 0.155131 0.856126
O O7 0.115378 0.153618 0.658852
O O8 0.258793 0.708635 0.784459
O O9 0.500000 0.500000 0.500000
O O10 0.611207 0.446779 0.585694
O O11 0.968643 0.194075 0.387130
O O12 0.344997 0.646999 0.255097
O O13 0.683899 0.439226 0.039200
O O14 0.610898 0.725490 0.574883
O O15 0.000000 0.500000 0.500000
O O16 0.011273 0.383883 0.399707
O O17 0.807667 0.659640 0.815270
#
# Coordination Sequence:
#
# PCOD9013561 Si02
#       8
#     2   2   2   2   2   2   2   2
#     4  11  20  35  60  83 112 154 184 220 281 335
#     4  11  21  30  50  80 119 156 174 213 266 343
#     4  10  25  43  57  79 109 144 199 245 273 321
#     4  12  22  33  53  91 125 147 177 217 275 349
#     4  10  17  30  46  75 117 139 172 212 269 339
#     4  10  21  34  51  85 129 149 177 214 266 347
#     4   9  20  35  57  81 106 153 180 223 281 327
#     4  11  23  32  55  80 111 153 180 225 288 327
#
# _framework density 23.702386000000001
#
# number of rings (size 3 to 8) (size 9 to 14) (size 15 to 20)
#    0.000    1.500    5.000    1.875    3.500    0.500 
#    0.000    0.000    0.000    3.000    0.000    5.250 
#    0.000    0.000    0.000    0.000    0.000    0.000 
#
# Total GULP energy -89249.439970 kJ/mol
# GULP energy per Si atom -5578.089998 kJ/mol
# Density = 2.364844 g / cm^3
# Si number density = 23.702386 Si / 1000 Ang^3
#
#
#
# Elastic Constant Matrix: (Units=GPa)
#
#
# Indices 1 2 3 4 5 6 
#
# 1 128.4924 39.4728 51.4845 12.8152 -19.9288 -43.7344
# 2 39.4728 62.2786 25.5266 12.0273 -17.9679 -35.5731
# 3 51.4845 25.5266 111.6246 16.5165 -10.5136 -10.9301
# 4 12.8152 12.0273 16.5165 26.2252 -15.2230 -10.9312
# 5 -19.9288 -17.9679 -10.5136 -15.2230 30.7987 8.5448
# 6 -43.7344 -35.5731 -10.9301 -10.9312 8.5448 42.6409
#
#
#
# Elastic Compliance Matrix: (Units=1/GPa)
#
#
# Indices 1 2 3 4 5 6 
#
# 1 0.016218 0.004399 -0.006907 0.007545 0.009269 0.018610
# 2 0.004399 0.039238 -0.007315 0.009353 0.018408 0.034080
# 3 -0.006907 -0.007315 0.013644 -0.009894 -0.005906 -0.011042
# 4 0.007545 0.009353 -0.009894 0.064985 0.032668 0.023118
# 5 0.009269 0.018408 -0.005906 0.032668 0.057745 0.020153
# 6 0.018610 0.034080 -0.011042 0.023118 0.020153 0.070027
#
#
# Mechanical properties :
#
#
# Convention : Reuss Voigt Hill
#
# Bulk Modulus (GPa) = 20.22128 59.48481 39.85305
# Shear Modulus (GPa) = 16.77919 32.32706 24.55312
#
# Velocity S-wave (km/s) = 2.66355 3.69707 3.22202
# Velocity P-wave (km/s) = 4.24372 6.58601 5.54007
#
# Compressibility (1/GPa) = 0.04945285
#
# Stress axis : x y z
#
# Youngs Moduli (GPa) = 61.65914 25.48566 73.29412
#
# Poissons Ratio (x) = -0.11211 0.50627
# Poissons Ratio (y) = -0.27124 0.53614
# Poissons Ratio (z) = 0.42590 0.18643
#
# Static dielectric constant tensor:
#      x y z
#    x 1.981520 0.043590 -0.052320 
#    y 0.043590 2.038450 -0.030900 
#    z -0.052320 -0.030900 1.910490 
# 
# From -- ./inp_files/433218.got.cif
#   From: 2010.05.17/outbox.cif.g08.bks.cpg/sg2_217_cif.got.tgz:433218.got - 2010.06.03 11:33:40.
