data_PCOD9013186
_publ_section_title
;
Structure prediction by ZEFSAII (Michael W. Deem and Ramdas Pophale) SiO2 
 PCOD9013186
Probable space group: P -1
;
_chemical_formula_sum "Si O2"
_cell_formula_units_Z 16
_cell_length_a 12.531257
_cell_length_b 12.954789
_cell_length_c 11.789791
_cell_angle_alpha 130.796344
_cell_angle_beta 145.424826
_cell_angle_gamma 33.162737
_cell_volume 590.154797
_symmetry_space_group_name_H-M "P -1"
_symmetry_group_IT_number 2
_symmetry_cell_setting 'triclinic'
loop_
_space_group_symop_operation_xyz
x,y,z
-x,-y,-z
loop_
_atom_site_type_symbol
_atom_site_label
_atom_site_fract_x
_atom_site_fract_y
_atom_site_fract_z
Si Si1 0.139165 0.837372 0.123757
Si Si2 0.401314 0.504818 0.295179
Si Si3 0.582173 0.612336 0.183966
Si Si4 0.971626 0.588555 0.379346
Si Si5 0.259090 0.186178 0.249270
Si Si6 0.847089 0.777875 0.072656
Si Si7 0.809542 0.966397 0.524797
Si Si8 0.346134 0.876523 0.743611
O O1 0.322905 0.653990 0.239240
O O2 0.330749 0.793132 0.161710
O O3 0.034406 0.011121 0.238360
O O4 0.937057 0.829861 0.888425
O O5 0.500000 0.500000 0.500000
O O6 0.616880 0.288598 0.287360
O O7 0.126960 0.574475 0.143847
O O8 0.697088 0.652126 0.215350
O O9 0.832111 0.487436 0.397271
O O10 0.500000 0.500000 0.000000
O O11 0.125468 0.401996 0.302480
O O12 0.921032 0.769398 0.430407
O O13 0.562053 0.045107 0.444180
O O14 0.271063 0.139059 0.094804
O O15 0.870739 0.914072 0.246806
O O16 0.626352 0.806140 0.964627
O O17 0.699152 0.103831 0.417334
#
# Coordination Sequence:
#
# PCOD9013186 Si02
#       8
#     2   2   2   2   2   2   2   2
#     4  11  23  44  67  99 140 174 226 276 336 395
#     4  11  22  39  63  93 133 180 215 267 327 393
#     4  11  24  48  73 101 131 174 224 279 337 405
#     4  11  25  45  75  98 132 175 223 276 342 398
#     4  10  22  44  67  96 137 176 221 276 331 401
#     4   9  22  38  62  93 129 174 227 272 319 388
#     4  11  24  43  68 103 134 177 224 276 333 398
#     4  10  21  41  63  94 135 173 224 269 326 389
#
# _framework density 27.111533000000001
#
# number of rings (size 3 to 8) (size 9 to 14) (size 15 to 20)
#    0.000    1.500    3.750    0.375    0.000   11.000 
#    4.500    1.250    0.000    0.000    0.000    0.000 
#    0.000    0.000    0.000    0.000    0.000    0.000 
#
# Total GULP energy -89476.545147 kJ/mol
# GULP energy per Si atom -5592.284072 kJ/mol
# Density = 2.704983 g / cm^3
# Si number density = 27.111533 Si / 1000 Ang^3
#
#
#
# Elastic Constant Matrix: (Units=GPa)
#
#
# Indices 1 2 3 4 5 6 
#
# 1 78.8898 26.2096 25.0156 4.1819 20.6234 -4.1109
# 2 26.2096 143.6847 23.3098 39.0923 1.4235 12.1423
# 3 25.0156 23.3098 111.5195 7.5806 19.8439 -10.1358
# 4 4.1819 39.0923 7.5806 37.6297 -9.3667 -4.9581
# 5 20.6234 1.4235 19.8439 -9.3667 50.6250 -4.1772
# 6 -4.1109 12.1423 -10.1358 -4.9581 -4.1772 35.8727
#
#
#
# Elastic Compliance Matrix: (Units=1/GPa)
#
#
# Indices 1 2 3 4 5 6 
#
# 1 0.015642 -0.002729 -0.001860 0.000348 -0.005369 0.001614
# 2 -0.002729 0.011766 -0.001274 -0.012952 -0.001664 -0.006639
# 3 -0.001860 -0.001274 0.010557 -0.001073 -0.003323 0.002666
# 4 0.000348 -0.012952 -0.001073 0.044129 0.009744 0.011355
# 5 -0.005369 -0.001664 -0.003323 0.009744 0.025366 0.003309
# 6 0.001614 -0.006639 0.002666 0.011355 0.003309 0.033016
#
#
# Mechanical properties :
#
#
# Convention : Reuss Voigt Hill
#
# Bulk Modulus (GPa) = 38.11294 53.68488 45.89891
# Shear Modulus (GPa) = 31.06606 42.12941 36.59773
#
# Velocity S-wave (km/s) = 3.38873 3.94627 3.67808
# Velocity P-wave (km/s) = 5.42215 6.37248 5.91643
#
# Compressibility (1/GPa) = 0.02623781
#
# Stress axis : x y z
#
# Youngs Moduli (GPa) = 63.93225 84.99396 94.72365
#
# Poissons Ratio (x) = 0.23198 0.17617
# Poissons Ratio (y) = 0.17449 0.12067
# Poissons Ratio (z) = 0.11890 0.10828
#
# Static dielectric constant tensor:
#      x y z
#    x 2.139940 0.024200 0.089400 
#    y 0.024200 2.113970 -0.038600 
#    z 0.089400 -0.038600 2.235160 
# 
# From -- ./inp_files/533856.got.cif
#   From: 2010.05.17/outbox.cif.g08.bks.cpg/sg2_267_cif.got.tgz:533856.got - 2010.06.03 11:33:40.
