data_PCOD9013088
_publ_section_title
;
Structure prediction by ZEFSAII (Michael W. Deem and Ramdas Pophale) SiO2 
 PCOD9013088
Probable space group: P -1
;
_chemical_formula_sum "Si O2"
_cell_formula_units_Z 14
_cell_length_a 6.569565
_cell_length_b 4.921273
_cell_length_c 21.945293
_cell_angle_alpha 87.672138
_cell_angle_beta 63.925715
_cell_angle_gamma 83.381400
_cell_volume 633.007654
_symmetry_space_group_name_H-M "P -1"
_symmetry_group_IT_number 2
_symmetry_cell_setting 'triclinic'
loop_
_space_group_symop_operation_xyz
x,y,z
-x,-y,-z
loop_
_atom_site_type_symbol
_atom_site_label
_atom_site_fract_x
_atom_site_fract_y
_atom_site_fract_z
Si Si1 0.877961 0.934582 0.148148
Si Si2 0.271357 0.085026 0.566757
Si Si3 0.977378 0.392802 0.435471
Si Si4 0.571154 0.486612 0.156932
Si Si5 0.319707 0.946048 0.702416
Si Si6 0.396983 0.757258 0.050733
Si Si7 0.397702 0.584325 0.304111
O O1 0.703869 0.179799 0.138450
O O2 0.871420 0.989322 0.221214
O O3 0.765172 0.659436 0.154962
O O4 0.130195 0.871616 0.089260
O O5 0.075946 0.917790 0.563617
O O6 0.270613 0.017323 0.638697
O O7 0.500000 0.000000 0.500000
O O8 0.234364 0.411228 0.564395
O O9 0.000000 0.500000 0.500000
O O10 0.187752 0.487674 0.369190
O O11 0.473533 0.644182 0.108629
O O12 0.382021 0.517593 0.234989
O O13 0.390172 0.623919 0.699643
O O14 0.531399 0.113775 0.694666
O O15 0.500000 0.500000 0.000000
O O16 0.500000 0.000000 0.000000
#
# Coordination Sequence:
#
# PCOD9013088 Si02
#       7
#     2   2   2   2   2   2   2
#     4  10  23  43  66  94 131 173 214 269 331 387
#     4  12  24  39  61  91 125 168 209 261 315 375
#     4  12  24  39  61  91 125 168 209 261 315 375
#     4  10  23  43  66  94 131 173 214 269 331 387
#     4  10  21  41  63  89 123 163 211 265 318 380
#     4  12  26  42  66 100 130 170 220 270 320 400
#     4  10  21  41  63  89 123 163 211 265 318 380
#
# _framework density 22.116634000000001
#
# number of rings (size 3 to 8) (size 9 to 14) (size 15 to 20)
#    0.000    1.143    0.000    6.000    2.000    3.429 
#    2.571    0.000    0.000    0.000    0.000    0.000 
#    0.000    0.000    0.000    0.000    0.000    0.000 
#
# Total GULP energy -78121.296646 kJ/mol
# GULP energy per Si atom -5580.092618 kJ/mol
# Density = 2.206630 g / cm^3
# Si number density = 22.116634 Si / 1000 Ang^3
#
#
#
# Elastic Constant Matrix: (Units=GPa)
#
#
# Indices 1 2 3 4 5 6 
#
# 1 32.2108 4.4144 34.9121 2.3969 -21.1474 5.2139
# 2 4.4144 115.6130 16.9065 -7.5885 -8.3262 -1.7546
# 3 34.9121 16.9065 141.3330 -12.3176 -9.3324 3.2651
# 4 2.3969 -7.5885 -12.3176 35.8212 -7.4473 1.9653
# 5 -21.1474 -8.3262 -9.3324 -7.4473 57.2271 -11.0486
# 6 5.2139 -1.7546 3.2651 1.9653 -11.0486 29.5949
#
#
#
# Elastic Compliance Matrix: (Units=1/GPa)
#
#
# Indices 1 2 3 4 5 6 
#
# 1 0.058620 0.000791 -0.013700 -0.004502 0.018667 -0.001501
# 2 0.000791 0.009042 -0.001016 0.001847 0.001894 0.001093
# 3 -0.013700 -0.001016 0.010716 0.003771 -0.003012 -0.000204
# 4 -0.004502 0.001847 0.003771 0.030576 0.003126 -0.000377
# 5 0.018667 0.001894 -0.003012 0.003126 0.025837 0.006594
# 6 -0.001501 0.001093 -0.000204 -0.000377 0.006594 0.036628
#
#
# Mechanical properties :
#
#
# Convention : Reuss Voigt Hill
#
# Bulk Modulus (GPa) = 19.79128 44.62477 32.20802
# Shear Modulus (GPa) = 23.13622 40.05688 31.59655
#
# Velocity S-wave (km/s) = 3.23786 4.26040 3.78383
# Velocity P-wave (km/s) = 4.79023 6.66499 5.80381
#
# Compressibility (1/GPa) = 0.05052731
#
# Stress axis : x y z
#
# Youngs Moduli (GPa) = 17.05912 110.59331 93.32044
#
# Poissons Ratio (x) = -0.08750 1.27849
# Poissons Ratio (y) = -0.01350 0.09485
# Poissons Ratio (z) = 0.23371 0.11240
#
# Static dielectric constant tensor:
#      x y z
#    x 1.819450 -0.026840 0.020150 
#    y -0.026840 1.767330 0.014850 
#    z 0.020150 0.014850 2.088930 
# 
# From -- ./inp_files/122741.got.cif
#   From: 2010.05.17/outbox.cif.g08.bks.cpg/sg2_62_cif.got.tgz:122741.got - 2010.06.03 11:33:40.
