data_PCOD9013707
_publ_section_title
;
Structure prediction by ZEFSAII (Michael W. Deem and Ramdas Pophale) SiO2 
 PCOD9013707
Probable space group: P -1
;
_chemical_formula_sum "Si O2"
_cell_formula_units_Z 16
_cell_length_a 15.954925
_cell_length_b 16.633010
_cell_length_c 15.776117
_cell_angle_alpha 38.062303
_cell_angle_beta 161.232270
_cell_angle_gamma 142.194612
_cell_volume 809.153287
_symmetry_space_group_name_H-M "P -1"
_symmetry_group_IT_number 2
_symmetry_cell_setting 'triclinic'
loop_
_space_group_symop_operation_xyz
x,y,z
-x,-y,-z
loop_
_atom_site_type_symbol
_atom_site_label
_atom_site_fract_x
_atom_site_fract_y
_atom_site_fract_z
Si Si1 0.161686 0.780781 0.095259
Si Si2 0.067974 0.666660 0.747366
Si Si3 0.628065 0.436150 0.597376
Si Si4 0.509699 0.575445 0.035160
Si Si5 0.749968 0.047224 0.259009
Si Si6 0.728756 0.958967 0.506297
Si Si7 0.947599 0.257825 0.516726
Si Si8 0.313464 0.437584 0.125663
O O1 0.965913 0.879031 0.804954
O O2 0.976850 0.664766 0.073410
O O3 0.244397 0.695083 0.166076
O O4 0.437044 0.867745 0.326389
O O5 0.182788 0.793872 0.806423
O O6 0.962812 0.713267 0.519778
O O7 0.854868 0.559908 0.681809
O O8 0.288641 0.587233 0.999189
O O9 0.500000 0.500000 0.500000
O O10 0.440465 0.397078 0.367333
O O11 0.470026 0.463065 0.166030
O O12 0.789129 0.682662 0.226587
O O13 0.500000 0.500000 0.000000
O O14 0.272102 0.655660 0.746069
O O15 0.697209 0.996846 0.346449
O O16 0.000000 0.000000 0.500000
O O17 0.500000 0.000000 0.000000
O O18 0.818715 0.098806 0.527649
#
# Coordination Sequence:
#
# PCOD9013707 Si02
#       8
#     2   2   2   2   2   2   2   2
#     4  11  23  41  60  90 120 172 214 253 304 375
#     4   9  22  38  59  84 120 163 203 260 310 358
#     4  11  23  37  62  86 124 168 211 260 305 357
#     4  11  22  40  72 102 123 151 203 263 320 378
#     4  11  25  37  56  83 117 160 210 269 306 350
#     4  11  23  40  63  85 125 169 214 248 309 386
#     4  10  21  41  65  94 127 160 200 253 321 368
#     4  10  22  41  63  89 126 160 204 259 315 364
#
# _framework density 19.773755999999999
#
# number of rings (size 3 to 8) (size 9 to 14) (size 15 to 20)
#    0.000    1.500    2.500    1.875    3.500    6.000 
#    0.000    0.000    0.000    4.500    0.000    0.000 
#    0.000    0.000    0.000    0.000    0.000    0.000 
#
# Total GULP energy -89245.618145 kJ/mol
# GULP energy per Si atom -5577.851134 kJ/mol
# Density = 1.972875 g / cm^3
# Si number density = 19.773756 Si / 1000 Ang^3
#
#
#
# Elastic Constant Matrix: (Units=GPa)
#
#
# Indices 1 2 3 4 5 6 
#
# 1 88.7580 52.4596 36.7043 11.2994 5.9598 -20.5620
# 2 52.4596 153.1972 55.4300 17.8270 9.4204 -17.3533
# 3 36.7043 55.4300 109.9680 18.8774 11.2804 -10.7933
# 4 11.2994 17.8270 18.8774 39.3854 0.1699 -3.2203
# 5 5.9598 9.4204 11.2804 0.1699 19.9773 3.1687
# 6 -20.5620 -17.3533 -10.7933 -3.2203 3.1687 21.6017
#
#
#
# Elastic Compliance Matrix: (Units=1/GPa)
#
#
# Indices 1 2 3 4 5 6 
#
# 1 0.017782 -0.003290 -0.002217 -0.001414 -0.004654 0.013647
# 2 -0.003290 0.009350 -0.002783 -0.001692 -0.002330 0.003078
# 3 -0.002217 -0.002783 0.012705 -0.003989 -0.005518 0.002216
# 4 -0.001414 -0.001692 -0.003989 0.028380 0.003384 -0.000964
# 5 -0.004654 -0.002330 -0.005518 0.003384 0.058345 -0.017113
# 6 0.013647 0.003078 0.002216 -0.000964 -0.017113 0.065230
#
#
# Mechanical properties :
#
#
# Convention : Reuss Voigt Hill
#
# Bulk Modulus (GPa) = 43.00017 71.23456 57.11736
# Shear Modulus (GPa) = 23.13476 30.01483 26.57479
#
# Velocity S-wave (km/s) = 3.42420 3.90027 3.66996
# Velocity P-wave (km/s) = 6.11774 7.50905 6.84882
#
# Compressibility (1/GPa) = 0.02325572
#
# Stress axis : x y z
#
# Youngs Moduli (GPa) = 56.23582 106.95017 78.71145
#
# Poissons Ratio (x) = 0.35191 0.17451
# Poissons Ratio (y) = 0.18504 0.21906
# Poissons Ratio (z) = 0.12468 0.29765
#
# Static dielectric constant tensor:
#      x y z
#    x 1.707290 0.017720 -0.040120 
#    y 0.017720 1.676240 -0.087560 
#    z -0.040120 -0.087560 1.659610 
# 
# From -- ./inp_files/484510.got.cif
#   From: 2010.05.17/outbox.cif.g08.bks.cpg/sg2_243_cif.got.tgz:484510.got - 2010.06.03 11:33:40.
