data_PCOD9013102
_publ_section_title
;
Structure prediction by ZEFSAII (Michael W. Deem and Ramdas Pophale) SiO2 
 PCOD9013102
Probable space group: P -1
;
_chemical_formula_sum "Si O2"
_cell_formula_units_Z 16
_cell_length_a 14.371163
_cell_length_b 12.563080
_cell_length_c 12.444068
_cell_angle_alpha 58.304854
_cell_angle_beta 154.588409
_cell_angle_gamma 131.147656
_cell_volume 709.276370
_symmetry_space_group_name_H-M "P -1"
_symmetry_group_IT_number 2
_symmetry_cell_setting 'triclinic'
loop_
_space_group_symop_operation_xyz
x,y,z
-x,-y,-z
loop_
_atom_site_type_symbol
_atom_site_label
_atom_site_fract_x
_atom_site_fract_y
_atom_site_fract_z
Si Si1 0.483397 0.854208 0.517428
Si Si2 0.472128 0.345182 0.789645
Si Si3 0.407985 0.929053 0.175772
Si Si4 0.758788 0.626063 0.251361
Si Si5 0.077842 0.337980 0.239126
Si Si6 0.695468 0.846432 0.949380
Si Si7 0.020085 0.420144 0.898071
Si Si8 0.697263 0.232214 0.246262
O O1 0.517460 0.873729 0.414460
O O2 0.670787 0.835086 0.801696
O O3 0.206217 0.719890 0.317397
O O4 0.500000 0.000000 0.500000
O O5 0.312147 0.361062 0.708600
O O6 0.292094 0.305835 0.520129
O O7 0.552275 0.239851 0.986037
O O8 0.730173 0.490811 0.956934
O O9 0.249179 0.996921 0.033294
O O10 0.626225 0.064728 0.268940
O O11 0.202289 0.796388 0.963716
O O12 0.023091 0.634464 0.532725
O O13 0.500000 0.500000 0.000000
O O14 0.839444 0.771647 0.188263
O O15 0.087896 0.475082 0.235834
O O16 0.093620 0.371653 0.111213
O O17 0.428290 0.753496 0.782036
#
# Coordination Sequence:
#
# PCOD9013102 Si02
#       8
#     2   2   2   2   2   2   2   2
#     4   9  17  35  66  84 115 157 189 242 307 347
#     4  11  23  38  60  88 121 159 200 241 301 345
#     4   8  18  40  61  83 122 156 194 250 295 349
#     4  11  24  37  58  88 124 157 201 246 291 363
#     4  10  21  41  63  90 117 157 202 247 293 350
#     4   8  19  36  59  84 117 154 194 244 300 349
#     4  10  22  38  64  91 120 152 199 249 294 354
#     4   9  21  39  56  88 115 158 196 241 297 349
#
# _framework density 22.558202999999999
#
# number of rings (size 3 to 8) (size 9 to 14) (size 15 to 20)
#    0.750    1.750    0.000    1.125    5.250    1.500 
#    2.250    1.875    8.250    0.000    0.000    0.000 
#    0.000    0.000    0.000    0.000    0.000    0.000 
#
# Total GULP energy -89122.819062 kJ/mol
# GULP energy per Si atom -5570.176191 kJ/mol
# Density = 2.250686 g / cm^3
# Si number density = 22.558203 Si / 1000 Ang^3
#
#
#
# Elastic Constant Matrix: (Units=GPa)
#
#
# Indices 1 2 3 4 5 6 
#
# 1 20.7781 26.3160 20.4161 -3.8653 -8.1321 13.4008
# 2 26.3160 80.7360 36.7000 17.9619 -10.8646 21.7480
# 3 20.4161 36.7000 75.6027 3.4731 -15.4878 15.7734
# 4 -3.8653 17.9619 3.4731 36.1855 10.0764 -8.5997
# 5 -8.1321 -10.8646 -15.4878 10.0764 25.9157 0.3741
# 6 13.4008 21.7480 15.7734 -8.5997 0.3741 26.0055
#
#
#
# Elastic Compliance Matrix: (Units=1/GPa)
#
#
# Indices 1 2 3 4 5 6 
#
# 1 0.123024 -0.032902 -0.012122 0.023183 0.008855 -0.020989
# 2 -0.032902 0.044665 0.001968 -0.041698 0.026306 -0.035759
# 3 -0.012122 0.001968 0.021665 -0.011384 0.014576 -0.012514
# 4 0.023183 -0.041698 -0.011384 0.078857 -0.048488 0.056605
# 5 0.008855 0.026306 0.014576 -0.048488 0.080716 -0.052598
# 6 -0.020989 -0.035759 -0.012514 0.056605 -0.052598 0.106239
#
#
# Mechanical properties :
#
#
# Convention : Reuss Voigt Hill
#
# Bulk Modulus (GPa) = 9.68594 38.22012 23.95303
# Shear Modulus (GPa) = 8.68519 23.86700 16.27609
#
# Velocity S-wave (km/s) = 1.96430 3.25625 2.68902
# Velocity P-wave (km/s) = 3.07371 5.57828 4.50361
#
# Compressibility (1/GPa) = 0.10324246
#
# Stress axis : x y z
#
# Youngs Moduli (GPa) = 8.12849 22.38886 46.15738
#
# Poissons Ratio (x) = 0.73663 0.55954
# Poissons Ratio (y) = 0.26744 -0.09085
# Poissons Ratio (z) = 0.09854 -0.04407
#
# Static dielectric constant tensor:
#      x y z
#    x 1.851620 -0.018080 -0.011780 
#    y -0.018080 1.907580 -0.054090 
#    z -0.011780 -0.054090 1.868250 
# 
# From -- ./inp_files/538818.got.cif
#   From: 2010.05.17/outbox.cif.g08.bks.cpg/sg2_270_cif.got.tgz:538818.got - 2010.06.03 11:33:40.
