data_PCOD9013577
_publ_section_title
;
Structure prediction by ZEFSAII (Michael W. Deem and Ramdas Pophale) SiO2 
 PCOD9013577
Probable space group: P -1
;
_chemical_formula_sum "Si O2"
_cell_formula_units_Z 12
_cell_length_a 6.901881
_cell_length_b 20.270174
_cell_length_c 9.182964
_cell_angle_alpha 145.906699
_cell_angle_beta 137.095878
_cell_angle_gamma 50.930708
_cell_volume 489.307926
_symmetry_space_group_name_H-M "P -1"
_symmetry_group_IT_number 2
_symmetry_cell_setting 'triclinic'
loop_
_space_group_symop_operation_xyz
x,y,z
-x,-y,-z
loop_
_atom_site_type_symbol
_atom_site_label
_atom_site_fract_x
_atom_site_fract_y
_atom_site_fract_z
Si Si1 0.015920 0.836462 0.479108
Si Si2 0.656429 0.009256 0.445734
Si Si3 0.736140 0.812903 0.570920
Si Si4 0.279465 0.356019 0.206717
Si Si5 0.069209 0.570998 0.313457
Si Si6 0.640412 0.821188 0.842869
O O1 0.335493 0.784365 0.550020
O O2 0.960773 0.946612 0.542120
O O3 0.945358 0.862541 0.656036
O O4 0.382217 0.624330 0.571776
O O5 0.500000 0.000000 0.500000
O O6 0.570563 0.138807 0.573905
O O7 0.570478 0.921919 0.108818
O O8 0.823973 0.674823 0.380121
O O9 0.786475 0.859078 0.844906
O O10 0.207585 0.289846 0.194708
O O11 0.106676 0.477495 0.294515
O O12 0.199149 0.261419 0.867168
O O13 0.000000 0.500000 0.000000
#
# Coordination Sequence:
#
# PCOD9013577 Si02
#       6
#     2   2   2   2   2   2
#     4  10  21  44  61  91 130 163 204 255 309 369
#     4   9  22  41  63  94 125 165 206 249 315 370
#     4  11  22  40  64  94 123 166 208 253 312 361
#     4  10  21  41  65  89 126 165 208 256 308 367
#     4  11  21  41  68  88 125 166 209 256 308 368
#     4  11  22  41  65  93 129 157 206 261 306 372
#
# _framework density 24.524433999999999
#
# number of rings (size 3 to 8) (size 9 to 14) (size 15 to 20)
#    0.000    1.667    3.333    0.500    0.000    4.000 
#    9.000    3.333    0.000    0.000    0.000    0.000 
#    0.000    0.000    0.000    0.000    0.000    0.000 
#
# Total GULP energy -67000.863801 kJ/mol
# GULP energy per Si atom -5583.405317 kJ/mol
# Density = 2.446862 g / cm^3
# Si number density = 24.524434 Si / 1000 Ang^3
#
#
#
# Elastic Constant Matrix: (Units=GPa)
#
#
# Indices 1 2 3 4 5 6 
#
# 1 63.5431 36.6144 46.9903 -10.3656 -15.0771 13.1974
# 2 36.6144 276.1806 38.4266 -13.1863 -18.6133 12.9263
# 3 46.9903 38.4266 146.0032 4.6359 -3.0319 5.5776
# 4 -10.3656 -13.1863 4.6359 29.4321 7.8653 -16.3673
# 5 -15.0771 -18.6133 -3.0319 7.8653 38.8242 -6.8116
# 6 13.1974 12.9263 5.5776 -16.3673 -6.8116 34.8994
#
#
#
# Elastic Compliance Matrix: (Units=1/GPa)
#
#
# Indices 1 2 3 4 5 6 
#
# 1 0.025658 -0.001405 -0.007771 0.005584 0.006853 -0.003984
# 2 -0.001405 0.004022 -0.000609 0.001014 0.001100 -0.000171
# 3 -0.007771 -0.000609 0.009649 -0.004523 -0.001789 -0.000848
# 4 0.005584 0.001014 -0.004523 0.049764 -0.004137 0.020767
# 5 0.006853 0.001100 -0.001789 -0.004137 0.029850 0.001173
# 6 -0.003984 -0.000171 -0.000848 0.020767 0.001173 0.040327
#
#
# Mechanical properties :
#
#
# Convention : Reuss Voigt Hill
#
# Bulk Modulus (GPa) = 50.60970 81.08774 65.84872
# Shear Modulus (GPa) = 26.96457 44.87751 35.92104
#
# Velocity S-wave (km/s) = 3.31947 4.28239 3.83130
# Velocity P-wave (km/s) = 5.94752 7.58865 6.81765
#
# Compressibility (1/GPa) = 0.01975906
#
# Stress axis : x y z
#
# Youngs Moduli (GPa) = 38.97398 248.60568 103.63354
#
# Poissons Ratio (x) = 0.34941 0.80532
# Poissons Ratio (y) = 0.05478 0.06313
# Poissons Ratio (z) = 0.30286 0.15144
#
# Static dielectric constant tensor:
#      x y z
#    x 2.007830 -0.012660 -0.008300 
#    y -0.012660 1.964210 -0.001890 
#    z -0.008300 -0.001890 1.939660 
# 
# From -- ./inp_files/55869.got.cif
#   From: 2010.05.17/outbox.cif.g08.bks.cpg/sg2_28_cif.got.tgz:55869.got - 2010.06.03 11:33:40.
