data_PCOD9013949
_publ_section_title
;
Structure prediction by ZEFSAII (Michael W. Deem and Ramdas Pophale) SiO2 
 PCOD9013949
Probable space group: P -1
;
_chemical_formula_sum "Si O2"
_cell_formula_units_Z 16
_cell_length_a 5.550058
_cell_length_b 15.387401
_cell_length_c 11.917924
_cell_angle_alpha 52.428726
_cell_angle_beta 60.585592
_cell_angle_gamma 79.598507
_cell_volume 692.211621
_symmetry_space_group_name_H-M "P -1"
_symmetry_group_IT_number 2
_symmetry_cell_setting 'triclinic'
loop_
_space_group_symop_operation_xyz
x,y,z
-x,-y,-z
loop_
_atom_site_type_symbol
_atom_site_label
_atom_site_fract_x
_atom_site_fract_y
_atom_site_fract_z
Si Si1 0.554522 0.999839 0.619449
Si Si2 0.889095 0.179912 0.041396
Si Si3 0.700387 0.682555 0.316351
Si Si4 0.717704 0.692102 0.573566
Si Si5 0.123315 0.545024 0.554457
Si Si6 0.666425 0.484537 0.089799
Si Si7 0.944193 0.829740 0.604126
Si Si8 0.328326 0.286289 0.046461
O O1 0.278536 0.943943 0.794106
O O2 0.781572 0.915958 0.640139
O O3 0.500000 0.000000 0.500000
O O4 0.728198 0.119771 0.516947
O O5 0.626434 0.244327 0.026284
O O6 0.094238 0.222021 0.065954
O O7 0.106895 0.210921 0.865435
O O8 0.720456 0.694015 0.437495
O O9 0.370214 0.650328 0.393937
O O10 0.789491 0.569258 0.333243
O O11 0.428621 0.635969 0.738363
O O12 0.833982 0.804513 0.523732
O O13 0.910087 0.599497 0.633691
O O14 0.000000 0.500000 0.500000
O O15 0.500000 0.500000 0.000000
O O16 0.600651 0.584922 0.104305
O O17 0.000000 0.500000 0.000000
O O18 0.833170 0.723246 0.789362
#
# Coordination Sequence:
#
# PCOD9013949 Si02
#       8
#     2   2   2   2   2   2   2   2
#     4  10  21  41  66  92 121 161 215 274 330 387
#     4  11  24  40  69  92 125 167 219 270 319 383
#     4  10  23  39  62  92 126 175 218 257 313 378
#     4  11  24  40  62  92 135 171 209 264 316 387
#     4   9  21  40  59  87 125 176 217 250 303 374
#     4  12  26  39  58  94 135 170 207 252 316 386
#     4  10  22  41  63  95 124 168 208 268 336 383
#     4  11  23  40  63  95 129 168 213 263 319 387
#
# _framework density 23.114315999999999
#
# number of rings (size 3 to 8) (size 9 to 14) (size 15 to 20)
#    0.000    1.500    2.500    1.500   12.250    1.000 
#    0.000    0.625    0.000    1.500    0.000    0.000 
#    0.000    0.000    0.000    0.000    0.000    0.000 
#
# Total GULP energy -89214.953588 kJ/mol
# GULP energy per Si atom -5575.934599 kJ/mol
# Density = 2.306171 g / cm^3
# Si number density = 23.114316 Si / 1000 Ang^3
#
#
#
# Elastic Constant Matrix: (Units=GPa)
#
#
# Indices 1 2 3 4 5 6 
#
# 1 117.0241 22.0659 43.3369 4.8676 -14.6813 31.8753
# 2 22.0659 45.7554 25.6392 2.5638 -6.5643 27.0190
# 3 43.3369 25.6392 173.7264 -6.4973 -24.7632 43.5250
# 4 4.8676 2.5638 -6.4973 31.9456 11.4240 -3.0461
# 5 -14.6813 -6.5643 -24.7632 11.4240 42.1377 -8.0865
# 6 31.8753 27.0190 43.5250 -3.0461 -8.0865 42.4084
#
#
#
# Elastic Compliance Matrix: (Units=1/GPa)
#
#
# Indices 1 2 3 4 5 6 
#
# 1 0.011394 -0.000006 -0.000633 -0.003713 0.003150 -0.007577
# 2 -0.000006 0.036232 0.000841 -0.006163 0.003246 -0.023766
# 3 -0.000633 0.000841 0.008228 -0.000228 0.003293 -0.007893
# 4 -0.003713 -0.006163 -0.000228 0.036955 -0.010964 0.007515
# 5 0.003150 0.003246 0.003293 -0.010964 0.029678 -0.002944
# 6 -0.007577 -0.023766 -0.007893 0.007515 -0.002944 0.052496
#
#
# Mechanical properties :
#
#
# Convention : Reuss Voigt Hill
#
# Bulk Modulus (GPa) = 17.77532 57.62109 37.69821
# Shear Modulus (GPa) = 25.86206 39.66259 32.76232
#
# Velocity S-wave (km/s) = 3.34859 4.14687 3.76893
# Velocity P-wave (km/s) = 4.76000 6.92182 5.94009
#
# Compressibility (1/GPa) = 0.05625776
#
# Stress axis : x y z
#
# Youngs Moduli (GPa) = 87.76411 27.59969 121.52894
#
# Poissons Ratio (x) = 0.00017 0.07695
# Poissons Ratio (y) = 0.00055 -0.10218
# Poissons Ratio (z) = 0.05557 -0.02320
#
# Static dielectric constant tensor:
#      x y z
#    x 1.975170 -0.048340 -0.004910 
#    y -0.048340 1.901810 -0.062910 
#    z -0.004910 -0.062910 2.045900 
# 
# From -- ./inp_files/82870.got.cif
#   From: 2010.05.17/outbox.cif.g08.bks.cpg/sg2_42_cif.got.tgz:82870.got - 2010.06.03 11:33:40.
