data_PCOD9013700
_publ_section_title
;
Structure prediction by ZEFSAII (Michael W. Deem and Ramdas Pophale) SiO2 
 PCOD9013700
Probable space group: P -1
;
_chemical_formula_sum "Si O2"
_cell_formula_units_Z 14
_cell_length_a 9.393293
_cell_length_b 10.211357
_cell_length_c 9.180768
_cell_angle_alpha 105.931749
_cell_angle_beta 68.752486
_cell_angle_gamma 133.519186
_cell_volume 594.751249
_symmetry_space_group_name_H-M "P -1"
_symmetry_group_IT_number 2
_symmetry_cell_setting 'triclinic'
loop_
_space_group_symop_operation_xyz
x,y,z
-x,-y,-z
loop_
_atom_site_type_symbol
_atom_site_label
_atom_site_fract_x
_atom_site_fract_y
_atom_site_fract_z
Si Si1 0.820194 0.484229 0.993445
Si Si2 0.521481 0.080031 0.860766
Si Si3 0.397831 0.384295 0.801675
Si Si4 0.014625 0.094262 0.671656
Si Si5 0.858065 0.240544 0.597802
Si Si6 0.860440 0.571975 0.699813
Si Si7 0.785106 0.897655 0.981946
O O1 0.667675 0.289183 0.916982
O O2 0.904383 0.620622 0.868239
O O3 0.682212 0.507070 0.143949
O O4 0.000000 0.500000 0.000000
O O5 0.627591 0.072244 0.681189
O O6 0.307650 0.020033 0.891225
O O7 0.500000 0.000000 0.000000
O O8 0.634282 0.491949 0.716135
O O9 0.235039 0.213498 0.703401
O O10 0.355831 0.301494 0.955604
O O11 0.977111 0.230300 0.679055
O O12 0.836053 0.946659 0.806856
O O13 0.000000 0.000000 0.500000
O O14 0.868226 0.410989 0.635005
O O15 0.969086 0.262187 0.415281
O O16 0.000000 0.000000 0.000000
#
# Coordination Sequence:
#
# PCOD9013700 Si02
#       7
#     2   2   2   2   2   2   2
#     4  11  24  40  71 105 134 179 226 277 341 401
#     4  11  21  42  69  96 131 179 220 271 333 411
#     4  11  22  43  69  97 134 179 234 277 330 409
#     4  11  25  42  64  98 138 181 223 282 347 395
#     4  10  21  41  65  93 138 172 218 279 339 391
#     4  10  22  40  69  97 136 175 222 282 339 397
#     4  10  22  39  70  95 130 175 228 276 333 396
#
# _framework density 23.539251
#
# number of rings (size 3 to 8) (size 9 to 14) (size 15 to 20)
#    0.000    1.429    4.286    2.143    4.000    0.571 
#    0.000    5.000    0.000    0.000    0.000    0.000 
#    0.000    0.000    0.000    0.000    0.000    0.000 
#
# Total GULP energy -77996.826082 kJ/mol
# GULP energy per Si atom -5571.201863 kJ/mol
# Density = 2.348567 g / cm^3
# Si number density = 23.539251 Si / 1000 Ang^3
#
#
#
# Elastic Constant Matrix: (Units=GPa)
#
#
# Indices 1 2 3 4 5 6 
#
# 1 193.0470 28.9089 57.1469 -13.9334 -14.2191 16.9148
# 2 28.9089 69.4820 45.8538 -16.6772 -6.0774 11.2753
# 3 57.1469 45.8538 145.0361 -42.9291 -9.3596 7.8375
# 4 -13.9334 -16.6772 -42.9291 43.2359 0.8334 4.6742
# 5 -14.2191 -6.0774 -9.3596 0.8334 31.1924 -4.9048
# 6 16.9148 11.2753 7.8375 4.6742 -4.9048 32.7392
#
#
#
# Elastic Compliance Matrix: (Units=1/GPa)
#
#
# Indices 1 2 3 4 5 6 
#
# 1 0.006199 -0.000778 -0.001988 -0.000073 0.001736 -0.002189
# 2 -0.000778 0.019485 -0.004473 0.003402 0.001135 -0.005553
# 3 -0.001988 -0.004473 0.012189 0.009878 0.001371 -0.001555
# 4 -0.000073 0.003402 0.009878 0.035097 0.001349 -0.008307
# 5 0.001736 0.001135 0.001371 0.001349 0.033962 0.003279
# 6 -0.002189 -0.005553 -0.001555 -0.008307 0.003279 0.035637
#
#
# Mechanical properties :
#
#
# Convention : Reuss Voigt Hill
#
# Bulk Modulus (GPa) = 42.74540 74.59823 58.67181
# Shear Modulus (GPa) = 30.33106 39.81054 35.07080
#
# Velocity S-wave (km/s) = 3.59351 4.11693 3.86409
# Velocity P-wave (km/s) = 5.95116 7.37283 6.69981
#
# Compressibility (1/GPa) = 0.02339433
#
# Stress axis : x y z
#
# Youngs Moduli (GPa) = 161.30467 51.32114 82.04348
#
# Poissons Ratio (x) = 0.03992 0.16311
# Poissons Ratio (y) = 0.12548 0.36702
# Poissons Ratio (z) = 0.32069 0.22958
#
# Static dielectric constant tensor:
#      x y z
#    x 1.964440 -0.074400 -0.016930 
#    y -0.074400 2.051320 -0.158880 
#    z -0.016930 -0.158880 2.225910 
# 
# From -- ./inp_files/180115.got.cif
#   From: 2010.05.17/outbox.cif.g08.bks.cpg/sg2_91_cif.got.tgz:180115.got - 2010.06.03 11:33:40.
