data_PCOD9013923
_publ_section_title
;
Structure prediction by ZEFSAII (Michael W. Deem and Ramdas Pophale) SiO2 
 PCOD9013923
Probable space group: P -1
;
_chemical_formula_sum "Si O2"
_cell_formula_units_Z 16
_cell_length_a 17.450072
_cell_length_b 4.920894
_cell_length_c 7.635285
_cell_angle_alpha 96.447228
_cell_angle_beta 75.883868
_cell_angle_gamma 83.903872
_cell_volume 625.722444
_symmetry_space_group_name_H-M "P -1"
_symmetry_group_IT_number 2
_symmetry_cell_setting 'triclinic'
loop_
_space_group_symop_operation_xyz
x,y,z
-x,-y,-z
loop_
_atom_site_type_symbol
_atom_site_label
_atom_site_fract_x
_atom_site_fract_y
_atom_site_fract_z
Si Si1 0.987021 0.231510 0.667412
Si Si2 0.471461 0.281314 0.743305
Si Si3 0.866730 0.491662 0.520792
Si Si4 0.819347 0.306038 0.183289
Si Si5 0.725919 0.891558 0.752365
Si Si6 0.572460 0.733718 0.636702
Si Si7 0.072604 0.235217 0.929177
Si Si8 0.311033 0.544629 0.999675
O O1 0.051667 0.438565 0.609087
O O2 0.020872 0.075975 0.810235
O O3 0.898422 0.378204 0.686387
O O4 0.000000 0.000000 0.500000
O O5 0.546596 0.445050 0.688155
O O6 0.432881 0.257014 0.570350
O O7 0.404564 0.451293 0.911631
O O8 0.504481 0.974070 0.762226
O O9 0.825606 0.302716 0.393056
O O10 0.808825 0.772802 0.607240
O O11 0.857684 0.581459 0.138704
O O12 0.732322 0.351642 0.149387
O O13 0.871280 0.037419 0.047515
O O14 0.656056 0.798390 0.665439
O O15 0.721519 0.722387 0.922994
O O16 0.710317 0.211571 0.830522
O O17 0.000000 0.500000 0.000000
#
# Coordination Sequence:
#
# PCOD9013923 Si02
#       8
#     2   2   2   2   2   2   2   2
#     4  10  21  41  66  91 119 169 218 269 322 377
#     4  10  22  44  70  98 132 172 215 259 314 393
#     4  10  24  42  64  90 127 167 221 266 317 388
#     4  11  24  44  61  89 125 169 213 255 323 382
#     4  12  27  42  65 100 131 172 212 271 322 376
#     4  10  22  43  72  98 128 174 218 257 314 382
#     4  11  24  39  64  92 122 164 206 269 326 381
#     4  12  27  42  64  98 135 172 209 268 329 374
#
# _framework density 25.570442
#
# number of rings (size 3 to 8) (size 9 to 14) (size 15 to 20)
#    0.000    1.250    1.250    3.375    5.250    3.000 
#    0.000    6.250    0.000    0.000    0.000    0.000 
#    0.000    0.000    0.000    0.000    0.000    0.000 
#
# Total GULP energy -89318.070537 kJ/mol
# GULP energy per Si atom -5582.379409 kJ/mol
# Density = 2.551224 g / cm^3
# Si number density = 25.570442 Si / 1000 Ang^3
#
#
#
# Elastic Constant Matrix: (Units=GPa)
#
#
# Indices 1 2 3 4 5 6 
#
# 1 95.2636 7.5190 23.6164 6.5357 17.6604 -24.0649
# 2 7.5190 102.7645 4.7474 16.0602 -1.8407 -10.7771
# 3 23.6164 4.7474 53.1231 10.9849 5.4749 -15.6242
# 4 6.5357 16.0602 10.9849 42.0682 -7.3717 -1.3208
# 5 17.6604 -1.8407 5.4749 -7.3717 43.9957 5.3704
# 6 -24.0649 -10.7771 -15.6242 -1.3208 5.3704 38.7372
#
#
#
# Elastic Compliance Matrix: (Units=1/GPa)
#
#
# Indices 1 2 3 4 5 6 
#
# 1 0.015003 0.000291 -0.002665 -0.002729 -0.007264 0.009240
# 2 0.000291 0.010713 0.000972 -0.004447 -0.000966 0.003536
# 3 -0.002665 0.000972 0.024321 -0.006754 -0.004118 0.008765
# 4 -0.002729 -0.004447 -0.006754 0.028750 0.007261 -0.005683
# 5 -0.007264 -0.000966 -0.004118 0.007261 0.028573 -0.010156
# 6 0.009240 0.003536 0.008765 -0.005683 -0.010156 0.037288
#
#
# Mechanical properties :
#
#
# Convention : Reuss Voigt Hill
#
# Bulk Modulus (GPa) = 21.17147 35.87964 28.52555
# Shear Modulus (GPa) = 30.63766 39.31146 34.97456
#
# Velocity S-wave (km/s) = 3.46521 3.92520 3.70235
# Velocity P-wave (km/s) = 4.93030 5.88260 5.42738
#
# Compressibility (1/GPa) = 0.04723337
#
# Stress axis : x y z
#
# Youngs Moduli (GPa) = 66.65361 93.34168 41.11662
#
# Poissons Ratio (x) = -0.02714 0.10958
# Poissons Ratio (y) = -0.01938 -0.03998
# Poissons Ratio (z) = 0.17765 -0.09077
#
# Static dielectric constant tensor:
#      x y z
#    x 1.940960 -0.212710 -0.002550 
#    y -0.212710 1.728210 -0.472440 
#    z -0.002550 -0.472440 2.384430 
# 
# From -- ./inp_files/289181.got.cif
#   From: 2010.05.17/outbox.cif.g08.bks.cpg/sg2_145_cif.got.tgz:289181.got - 2010.06.03 11:33:40.
