data_PCOD9013801
_publ_section_title
;
Structure prediction by ZEFSAII (Michael W. Deem and Ramdas Pophale) SiO2 
 PCOD9013801
Probable space group: P -1
;
_chemical_formula_sum "Si O2"
_cell_formula_units_Z 16
_cell_length_a 8.884096
_cell_length_b 14.830444
_cell_length_c 8.950889
_cell_angle_alpha 40.672763
_cell_angle_beta 70.975200
_cell_angle_gamma 70.099843
_cell_volume 718.276116
_symmetry_space_group_name_H-M "P -1"
_symmetry_group_IT_number 2
_symmetry_cell_setting 'triclinic'
loop_
_space_group_symop_operation_xyz
x,y,z
-x,-y,-z
loop_
_atom_site_type_symbol
_atom_site_label
_atom_site_fract_x
_atom_site_fract_y
_atom_site_fract_z
Si Si1 0.151367 0.127396 0.154296
Si Si2 0.179880 0.811606 0.654393
Si Si3 0.135642 0.638592 0.593244
Si Si4 0.614573 0.854656 0.186104
Si Si5 0.588945 0.286145 0.792781
Si Si6 0.349660 0.931761 0.694586
Si Si7 0.226506 0.219647 0.464383
Si Si8 0.693821 0.645208 0.020137
O O1 0.276475 0.208292 0.100220
O O2 0.978425 0.194829 0.186172
O O3 0.168839 0.964593 0.390768
O O4 0.209771 0.142149 0.948393
O O5 0.189454 0.705332 0.647728
O O6 0.315867 0.817842 0.726727
O O7 0.251952 0.667746 0.383913
O O8 0.952753 0.705404 0.535576
O O9 0.164657 0.473658 0.823360
O O10 0.522311 0.741808 0.276534
O O11 0.651750 0.819540 0.389398
O O12 0.500000 0.000000 0.000000
O O13 0.632468 0.145957 0.054967
O O14 0.473327 0.386889 0.815931
O O15 0.500000 0.000000 0.500000
O O16 0.212380 0.067919 0.584490
O O17 0.297606 0.322149 0.197209
#
# Coordination Sequence:
#
# PCOD9013801 Si02
#       8
#     2   2   2   2   2   2   2   2
#     4  10  21  41  65  97 138 178 224 289 342 401
#     4  11  22  40  67 102 136 176 237 288 341 398
#     4  12  27  44  71 105 145 180 234 288 340 418
#     4  11  23  40  68 101 141 174 233 288 351 404
#     4  11  25  43  69 102 141 184 232 291 343 408
#     4  12  23  42  71 101 140 182 235 287 353 404
#     4  12  24  42  72 104 134 185 232 281 351 413
#     4  11  23  49  70  97 146 191 222 277 358 424
#
# _framework density 22.275555000000001
#
# number of rings (size 3 to 8) (size 9 to 14) (size 15 to 20)
#    0.000    0.750    5.000    3.000    3.500    0.500 
#    0.000    7.500    0.000    0.000    0.000    0.000 
#    0.000    0.000    0.000    0.000    0.000    0.000 
#
# Total GULP energy -89369.034696 kJ/mol
# GULP energy per Si atom -5585.564668 kJ/mol
# Density = 2.222485 g / cm^3
# Si number density = 22.275555 Si / 1000 Ang^3
#
#
#
# Elastic Constant Matrix: (Units=GPa)
#
#
# Indices 1 2 3 4 5 6 
#
# 1 82.0979 23.3551 42.8629 16.8437 4.8395 -13.5294
# 2 23.3551 48.8264 41.4141 12.1031 -1.5480 -17.3320
# 3 42.8629 41.4141 113.8995 16.9763 11.7929 -9.5864
# 4 16.8437 12.1031 16.9763 41.3470 -7.7067 3.8531
# 5 4.8395 -1.5480 11.7929 -7.7067 36.5073 4.5756
# 6 -13.5294 -17.3320 -9.5864 3.8531 4.5756 42.5903
#
#
#
# Elastic Compliance Matrix: (Units=1/GPa)
#
#
# Indices 1 2 3 4 5 6 
#
# 1 0.016930 -0.001489 -0.004331 -0.005608 -0.002667 0.004591
# 2 -0.001489 0.036475 -0.011001 -0.006233 0.002453 0.012195
# 3 -0.004331 -0.011001 0.015067 -0.001962 -0.004954 -0.001751
# 4 -0.005608 -0.006233 -0.001962 0.031547 0.008846 -0.008564
# 5 -0.002667 0.002453 -0.004954 0.008846 0.031969 -0.005199
# 6 0.004591 0.012195 -0.001751 -0.008564 -0.005199 0.030840
#
#
# Mechanical properties :
#
#
# Convention : Reuss Voigt Hill
#
# Bulk Modulus (GPa) = 28.71073 51.12088 39.91581
# Shear Modulus (GPa) = 24.02922 33.23505 28.63213
#
# Velocity S-wave (km/s) = 3.28796 3.86683 3.58908
# Velocity P-wave (km/s) = 5.22792 6.55253 5.92734
#
# Compressibility (1/GPa) = 0.03483018
#
# Stress axis : x y z
#
# Youngs Moduli (GPa) = 59.06738 27.41582 66.36816
#
# Poissons Ratio (x) = 0.04083 0.28745
# Poissons Ratio (y) = 0.08797 0.73010
# Poissons Ratio (z) = 0.25583 0.30159
#
# Static dielectric constant tensor:
#      x y z
#    x 1.869880 -0.018280 -0.005410 
#    y -0.018280 1.893940 0.029820 
#    z -0.005410 0.029820 1.816570 
# 
# From -- ./inp_files/205033.got.cif
#   From: 2010.05.17/outbox.cif.g08.bks.cpg/sg2_103_cif.got.tgz:205033.got - 2010.06.03 11:33:40.
