data_PCOD9013038
_publ_section_title
;
Structure prediction by ZEFSAII (Michael W. Deem and Ramdas Pophale) SiO2 
 PCOD9013038
Probable space group: P -1
;
_chemical_formula_sum "Si O2"
_cell_formula_units_Z 12
_cell_length_a 16.002734
_cell_length_b 5.887020
_cell_length_c 9.409998
_cell_angle_alpha 132.990359
_cell_angle_beta 118.990487
_cell_angle_gamma 47.774536
_cell_volume 479.608143
_symmetry_space_group_name_H-M "P -1"
_symmetry_group_IT_number 2
_symmetry_cell_setting 'triclinic'
loop_
_space_group_symop_operation_xyz
x,y,z
-x,-y,-z
loop_
_atom_site_type_symbol
_atom_site_label
_atom_site_fract_x
_atom_site_fract_y
_atom_site_fract_z
Si Si1 0.951285 0.233262 0.239296
Si Si2 0.799643 0.454014 0.768042
Si Si3 0.617481 0.291471 0.420724
Si Si4 0.484967 0.394603 0.101090
Si Si5 0.268208 0.484957 0.955430
Si Si6 0.070235 0.564772 0.383679
O O1 0.850754 0.212840 0.081773
O O2 0.901097 0.483892 0.446372
O O3 0.981178 0.444886 0.239657
O O4 0.073196 0.878527 0.224216
O O5 0.709934 0.356840 0.593387
O O6 0.830466 0.597309 0.715315
O O7 0.749430 0.647889 0.961159
O O8 0.500000 0.500000 0.500000
O O9 0.567739 0.452642 0.291754
O O10 0.675979 0.855426 0.254655
O O11 0.500000 0.500000 0.000000
O O12 0.350632 0.630601 0.112096
O O13 0.500000 0.000000 0.000000
O O14 0.000000 0.000000 0.500000
#
# Coordination Sequence:
#
# PCOD9013038 Si02
#       6
#     2   2   2   2   2   2
#     4  10  21  41  63 101 136 178 229 289 359 425
#     4  11  23  42  67 100 135 181 235 288 365 422
#     4  11  23  45  70  97 141 185 239 299 358 432
#     4  10  24  48  72 106 142 189 246 301 364 433
#     4  11  23  43  69  99 140 178 237 299 354 433
#     4   9  19  37  63  93 134 175 225 277 348 427
#
# _framework density 25.020429
#
# number of rings (size 3 to 8) (size 9 to 14) (size 15 to 20)
#    0.000    1.667    1.667    3.500    2.333    0.667 
#    9.000    3.333    0.000    0.000    0.000    0.000 
#    0.000    0.000    0.000    0.000    0.000    0.000 
#
# Total GULP energy -66855.642808 kJ/mol
# GULP energy per Si atom -5571.303567 kJ/mol
# Density = 2.496348 g / cm^3
# Si number density = 25.020429 Si / 1000 Ang^3
#
#
#
# Elastic Constant Matrix: (Units=GPa)
#
#
# Indices 1 2 3 4 5 6 
#
# 1 160.1261 62.3987 56.1235 -12.6612 -13.2064 -14.5387
# 2 62.3987 101.7922 50.0783 -6.5384 1.3161 -28.9119
# 3 56.1235 50.0783 122.2972 -18.5384 -3.3335 -20.9558
# 4 -12.6612 -6.5384 -18.5384 47.0790 -12.9588 2.4644
# 5 -13.2064 1.3161 -3.3335 -12.9588 64.8978 -23.4085
# 6 -14.5387 -28.9119 -20.9558 2.4644 -23.4085 40.8491
#
#
#
# Elastic Compliance Matrix: (Units=1/GPa)
#
#
# Indices 1 2 3 4 5 6 
#
# 1 0.008983 -0.004385 -0.001973 0.001632 0.002237 0.000265
# 2 -0.004385 0.016874 -0.003105 0.000033 0.002247 0.010075
# 3 -0.001973 -0.003105 0.011834 0.004214 0.002727 0.004480
# 4 0.001632 0.000033 0.004214 0.025139 0.007586 0.005596
# 5 0.002237 0.002247 0.002727 0.007586 0.023539 0.016816
# 6 0.000265 0.010075 0.004480 0.005596 0.016816 0.043302
#
#
# Mechanical properties :
#
#
# Convention : Reuss Voigt Hill
#
# Bulk Modulus (GPa) = 53.28831 80.15739 66.72285
# Shear Modulus (GPa) = 32.28891 44.93949 38.61420
#
# Velocity S-wave (km/s) = 3.59625 4.24265 3.93276
# Velocity P-wave (km/s) = 6.21194 7.49043 6.88094
#
# Compressibility (1/GPa) = 0.01876584
#
# Stress axis : x y z
#
# Youngs Moduli (GPa) = 111.32304 59.26352 84.49958
#
# Poissons Ratio (x) = 0.25985 0.16673
# Poissons Ratio (y) = 0.48811 0.26235
# Poissons Ratio (z) = 0.21966 0.18400
#
# Static dielectric constant tensor:
#      x y z
#    x 2.007070 -0.000200 -0.019330 
#    y -0.000200 2.116850 -0.015360 
#    z -0.019330 -0.015360 2.071760 
# 
# From -- ./inp_files/286614.got.cif
#   From: 2010.05.17/outbox.cif.g08.bks.cpg/sg2_144_cif.got.tgz:286614.got - 2010.06.03 11:33:40.
