data_PCOD9013802
_publ_section_title
;
Structure prediction by ZEFSAII (Michael W. Deem and Ramdas Pophale) SiO2 
 PCOD9013802
Probable space group: P -1
;
_chemical_formula_sum "Si O2"
_cell_formula_units_Z 16
_cell_length_a 6.277950
_cell_length_b 6.030315
_cell_length_c 23.628270
_cell_angle_alpha 120.936756
_cell_angle_beta 122.403593
_cell_angle_gamma 76.556352
_cell_volume 646.650909
_symmetry_space_group_name_H-M "P -1"
_symmetry_group_IT_number 2
_symmetry_cell_setting 'triclinic'
loop_
_space_group_symop_operation_xyz
x,y,z
-x,-y,-z
loop_
_atom_site_type_symbol
_atom_site_label
_atom_site_fract_x
_atom_site_fract_y
_atom_site_fract_z
Si Si1 0.311990 0.750830 0.388315
Si Si2 0.723151 0.326855 0.382345
Si Si3 0.419770 0.381392 0.157141
Si Si4 0.914260 0.311374 0.287364
Si Si5 0.739195 0.059807 0.764638
Si Si6 0.371698 0.770125 0.525572
Si Si7 0.069984 0.936329 0.082883
Si Si8 0.618954 0.564129 0.964815
O O1 0.552039 0.572576 0.395259
O O2 0.264242 0.835184 0.457542
O O3 0.075604 0.555053 0.313991
O O4 0.406759 0.007213 0.402364
O O5 0.907972 0.361778 0.360455
O O6 0.807362 0.259434 0.449074
O O7 0.527145 0.091967 0.305085
O O8 0.638703 0.294367 0.218063
O O9 0.309906 0.639144 0.201039
O O10 0.527376 0.426317 0.114683
O O11 0.182194 0.171853 0.092047
O O12 0.052634 0.050236 0.261144
O O13 0.843404 0.990049 0.831948
O O14 0.500000 0.500000 0.500000
O O15 0.210776 0.679716 0.053299
O O16 0.779194 0.838091 0.028913
O O17 0.500000 0.500000 0.000000
#
# Coordination Sequence:
#
# PCOD9013802 Si02
#       8
#     2   2   2   2   2   2   2   2
#     4   9  21  43  65  95 139 175 227 278 336 404
#     4  10  21  41  65  97 139 169 228 281 327 405
#     4  11  24  47  72  99 138 181 221 282 344 398
#     4  11  24  45  69 105 134 179 229 276 342 410
#     4  10  24  44  65 101 144 172 220 286 331 405
#     4   9  19  41  67  93 136 182 217 287 336 387
#     4  10  22  46  67  96 138 175 224 282 334 399
#     4  10  24  45  69  99 135 178 230 278 333 409
#
# _framework density 24.742871000000001
#
# number of rings (size 3 to 8) (size 9 to 14) (size 15 to 20)
#    0.000    2.000    1.250    0.375    3.500    1.000 
#   18.000    5.625    0.000    0.000    0.000    0.000 
#    0.000    0.000    0.000    0.000    0.000    0.000 
#
# Total GULP energy -89486.365740 kJ/mol
# GULP energy per Si atom -5592.897859 kJ/mol
# Density = 2.468656 g / cm^3
# Si number density = 24.742871 Si / 1000 Ang^3
#
#
#
# Elastic Constant Matrix: (Units=GPa)
#
#
# Indices 1 2 3 4 5 6 
#
# 1 89.8448 34.7043 41.7331 -3.3229 -16.7910 17.2339
# 2 34.7043 92.3999 36.5483 17.6949 -1.7827 17.3191
# 3 41.7331 36.5483 97.1985 5.8207 -18.3353 8.1983
# 4 -3.3229 17.6949 5.8207 49.2682 15.2314 -0.3098
# 5 -16.7910 -1.7827 -18.3353 15.2314 40.6843 -5.5950
# 6 17.2339 17.3191 8.1983 -0.3098 -5.5950 31.2286
#
#
#
# Elastic Compliance Matrix: (Units=1/GPa)
#
#
# Indices 1 2 3 4 5 6 
#
# 1 0.016384 -0.003604 -0.004800 0.002016 0.002967 -0.005232
# 2 -0.003604 0.015770 -0.003849 -0.005033 -0.001480 -0.006062
# 3 -0.004800 -0.003849 0.014865 -0.002457 0.005729 0.001883
# 4 0.002016 -0.005033 -0.002457 0.025621 -0.009979 0.000790
# 5 0.002967 -0.001480 0.005729 -0.009979 0.032525 0.003408
# 6 -0.005232 -0.006062 0.001883 0.000790 0.003408 0.038395
#
#
# Mechanical properties :
#
#
# Convention : Reuss Voigt Hill
#
# Bulk Modulus (GPa) = 44.41505 56.15717 50.28611
# Shear Modulus (GPa) = 28.47867 35.33337 31.90602
#
# Velocity S-wave (km/s) = 3.39630 3.78302 3.59486
# Velocity P-wave (km/s) = 5.77663 6.46740 6.13175
#
# Compressibility (1/GPa) = 0.02251489
#
# Stress axis : x y z
#
# Youngs Moduli (GPa) = 61.03434 63.41207 67.27112
#
# Poissons Ratio (x) = 0.22851 0.32287
# Poissons Ratio (y) = 0.21994 0.25894
# Poissons Ratio (z) = 0.29294 0.24408
#
# Static dielectric constant tensor:
#      x y z
#    x 1.974810 0.042790 0.016620 
#    y 0.042790 1.952960 -0.039560 
#    z 0.016620 -0.039560 1.989960 
# 
# From -- ./inp_files/125819.got.cif
#   From: 2010.05.17/outbox.cif.g08.bks.cpg/sg2_63_cif.got.tgz:125819.got - 2010.06.03 11:33:40.
