data_PCOD9013188
_publ_section_title
;
Structure prediction by ZEFSAII (Michael W. Deem and Ramdas Pophale) SiO2 
 PCOD9013188
Probable space group: P -1
;
_chemical_formula_sum "Si O2"
_cell_formula_units_Z 14
_cell_length_a 29.799955
_cell_length_b 11.662748
_cell_length_c 5.181145
_cell_angle_alpha 125.465380
_cell_angle_beta 124.547905
_cell_angle_gamma 20.833637
_cell_volume 519.690775
_symmetry_space_group_name_H-M "P -1"
_symmetry_group_IT_number 2
_symmetry_cell_setting 'triclinic'
loop_
_space_group_symop_operation_xyz
x,y,z
-x,-y,-z
loop_
_atom_site_type_symbol
_atom_site_label
_atom_site_fract_x
_atom_site_fract_y
_atom_site_fract_z
Si Si1 0.298803 0.531497 0.109592
Si Si2 0.730785 0.719738 0.286831
Si Si3 0.111582 0.644250 0.150520
Si Si4 0.452291 0.393756 0.211015
Si Si5 0.884446 0.813659 0.350163
Si Si6 0.629103 0.293765 0.158642
Si Si7 0.086263 0.012332 0.679362
O O1 0.430522 0.298248 0.167222
O O2 0.208907 0.848095 0.387888
O O3 0.296695 0.379265 0.010223
O O4 0.231118 0.680336 0.805178
O O5 0.790264 0.585163 0.588221
O O6 0.595504 0.106917 0.342615
O O7 0.823152 0.561898 0.163094
O O8 0.993825 0.833010 0.122197
O O9 0.069647 0.906393 0.326987
O O10 0.363961 0.695315 0.496954
O O11 0.414645 0.488470 0.914921
O O12 0.943579 0.768235 0.252022
O O13 0.000000 0.500000 0.500000
O O14 0.780378 0.932655 0.107294
O O15 0.500000 0.500000 0.000000
#
# Coordination Sequence:
#
# PCOD9013188 Si02
#       7
#     2   2   2   2   2   2   2
#     4  10  22  41  66  95 140 173 225 284 350 409
#     4  11  22  40  65 107 136 176 218 284 349 424
#     4  10  23  37  67  97 143 176 222 272 354 412
#     4  11  23  43  71 100 131 182 229 279 353 420
#     4  11  24  44  69 101 134 190 240 288 344 417
#     4  11  25  48  70  98 139 183 236 294 345 405
#     4  10  21  41  63  94 135 186 220 282 344 413
#
# _framework density 26.939098000000001
#
# number of rings (size 3 to 8) (size 9 to 14) (size 15 to 20)
#    0.000    1.429    2.857    1.714    2.000    3.429 
#    2.571    4.286    0.000    0.000    0.000    0.000 
#    0.000    0.000    0.000    0.000    0.000    0.000 
#
# Total GULP energy -78205.981471 kJ/mol
# GULP energy per Si atom -5586.141534 kJ/mol
# Density = 2.687778 g / cm^3
# Si number density = 26.939098 Si / 1000 Ang^3
#
#
#
# Elastic Constant Matrix: (Units=GPa)
#
#
# Indices 1 2 3 4 5 6 
#
# 1 183.4593 39.3683 21.2256 5.6037 -3.3353 -15.6132
# 2 39.3683 102.0682 9.7430 -11.9607 -19.1157 -24.1287
# 3 21.2256 9.7430 69.8221 -3.1613 -7.4777 4.0818
# 4 5.6037 -11.9607 -3.1613 42.3467 0.0204 9.4881
# 5 -3.3353 -19.1157 -7.4777 0.0204 42.0118 -7.9121
# 6 -15.6132 -24.1287 4.0818 9.4881 -7.9121 42.0367
#
#
#
# Elastic Compliance Matrix: (Units=1/GPa)
#
#
# Indices 1 2 3 4 5 6 
#
# 1 0.006327 -0.002214 -0.001854 -0.001959 -0.000533 0.001601
# 2 -0.002214 0.014511 -0.000898 0.002409 0.007872 0.008532
# 3 -0.001854 -0.000898 0.015432 0.001768 0.001665 -0.002788
# 4 -0.001959 0.002409 0.001768 0.025876 0.000242 -0.005312
# 5 -0.000533 0.007872 0.001665 0.000242 0.029456 0.009649
# 6 0.001601 0.008532 -0.002788 -0.005312 0.009649 0.032566
#
#
# Mechanical properties :
#
#
# Convention : Reuss Voigt Hill
#
# Bulk Modulus (GPa) = 37.96884 55.11370 46.54127
# Shear Modulus (GPa) = 34.99439 44.27989 39.63714
#
# Velocity S-wave (km/s) = 3.60810 4.05866 3.83999
# Velocity P-wave (km/s) = 5.61095 6.51665 6.08068
#
# Compressibility (1/GPa) = 0.02633738
#
# Stress axis : x y z
#
# Youngs Moduli (GPa) = 158.05678 68.91433 64.79910
#
# Poissons Ratio (x) = 0.15260 0.12012
# Poissons Ratio (y) = 0.34998 0.05821
# Poissons Ratio (z) = 0.29299 0.06190
#
# Static dielectric constant tensor:
#      x y z
#    x 2.127310 -0.004230 0.085430 
#    y -0.004230 2.073180 0.073570 
#    z 0.085430 0.073570 2.218710 
# 
# From -- ./inp_files/101315.got.cif
#   From: 2010.05.17/outbox.cif.g08.bks.cpg/sg2_51_cif.got.tgz:101315.got - 2010.06.03 11:33:40.
