data_PCOD9013233
_publ_section_title
;
Structure prediction by ZEFSAII (Michael W. Deem and Ramdas Pophale) SiO2 
 PCOD9013233
Probable space group: P -1
;
_chemical_formula_sum "Si O2"
_cell_formula_units_Z 16
_cell_length_a 5.495763
_cell_length_b 9.619349
_cell_length_c 14.190767
_cell_angle_alpha 115.218722
_cell_angle_beta 93.624888
_cell_angle_gamma 69.327670
_cell_volume 631.624436
_symmetry_space_group_name_H-M "P -1"
_symmetry_group_IT_number 2
_symmetry_cell_setting 'triclinic'
loop_
_space_group_symop_operation_xyz
x,y,z
-x,-y,-z
loop_
_atom_site_type_symbol
_atom_site_label
_atom_site_fract_x
_atom_site_fract_y
_atom_site_fract_z
Si Si1 0.671537 0.171196 0.975517
Si Si2 0.074036 0.095203 0.816414
Si Si3 0.291910 0.437281 0.527330
Si Si4 0.901575 0.206835 0.670222
Si Si5 0.054957 0.525484 0.746634
Si Si6 0.463308 0.155027 0.167474
Si Si7 0.757860 0.597805 0.088825
Si Si8 0.374873 0.903557 0.534466
O O1 0.498367 0.334417 0.961811
O O2 0.962898 0.127892 0.930477
O O3 0.607082 0.008072 0.899837
O O4 0.590355 0.199706 0.090023
O O5 0.198313 0.232041 0.836405
O O6 0.819675 0.160497 0.758013
O O7 0.293692 0.912304 0.772804
O O8 0.500000 0.500000 0.500000
O O9 0.400404 0.242587 0.453888
O O10 0.000000 0.500000 0.500000
O O11 0.251148 0.484115 0.650766
O O12 0.936710 0.379564 0.709073
O O13 0.758573 0.184625 0.566485
O O14 0.166485 0.045052 0.628301
O O15 0.808222 0.695017 0.776075
O O16 0.211223 0.504520 0.843301
O O17 0.000000 0.500000 0.000000
O O18 0.500000 0.000000 0.500000
#
# Coordination Sequence:
#
# PCOD9013233 Si02
#       8
#     2   2   2   2   2   2   2   2
#     4  10  21  41  63  97 138 191 235 288 357 429
#     4  10  23  39  66  99 136 184 244 284 358 443
#     4  12  29  50  75 111 153 197 250 317 390 454
#     4  10  24  44  70 103 135 187 248 304 368 449
#     4  11  23  47  69 103 143 187 246 306 367 446
#     4  10  22  41  65  95 147 183 232 294 363 428
#     4  10  21  42  66  99 138 185 236 299 354 430
#     4  11  24  48  75  97 140 187 242 309 379 450
#
# _framework density 25.331510000000002
#
# number of rings (size 3 to 8) (size 9 to 14) (size 15 to 20)
#    0.000    1.500    2.500    1.125    5.250    2.500 
#    2.250    0.000    0.000    0.000    0.000    0.000 
#    0.000    0.000    0.000    0.000    0.000    0.000 
#
# Total GULP energy -89417.230575 kJ/mol
# GULP energy per Si atom -5588.576911 kJ/mol
# Density = 2.527385 g / cm^3
# Si number density = 25.331510 Si / 1000 Ang^3
#
#
#
# Elastic Constant Matrix: (Units=GPa)
#
#
# Indices 1 2 3 4 5 6 
#
# 1 66.2014 56.8008 14.9036 -0.4776 -16.5593 -13.0975
# 2 56.8008 181.7271 42.8613 11.8140 -16.8054 -26.1452
# 3 14.9036 42.8613 110.9239 -13.3231 -21.0193 -11.5380
# 4 -0.4776 11.8140 -13.3231 41.0780 3.4172 -8.7542
# 5 -16.5593 -16.8054 -21.0193 3.4172 45.4337 4.2271
# 6 -13.0975 -26.1452 -11.5380 -8.7542 4.2271 55.7417
#
#
#
# Elastic Compliance Matrix: (Units=1/GPa)
#
#
# Indices 1 2 3 4 5 6 
#
# 1 0.022441 -0.006574 0.001197 0.002560 0.005886 0.002393
# 2 -0.006574 0.008574 -0.002722 -0.003082 -0.000388 0.001459
# 3 0.001197 -0.002722 0.011432 0.004530 0.004214 0.001763
# 4 0.002560 -0.003082 0.004530 0.027739 -0.000616 0.004497
# 5 0.005886 -0.000388 0.004214 -0.000616 0.026007 0.000004
# 6 0.002393 0.001459 0.001763 0.004497 0.000004 0.020257
#
#
# Mechanical properties :
#
#
# Convention : Reuss Voigt Hill
#
# Bulk Modulus (GPa) = 38.09713 65.33152 51.71432
# Shear Modulus (GPa) = 35.36142 44.73647 40.04894
#
# Velocity S-wave (km/s) = 3.74029 4.20699 3.98048
# Velocity P-wave (km/s) = 5.80733 7.03171 6.44864
#
# Compressibility (1/GPa) = 0.02624870
#
# Stress axis : x y z
#
# Youngs Moduli (GPa) = 44.56158 116.63314 87.47484
#
# Poissons Ratio (x) = 0.76678 -0.10470
# Poissons Ratio (y) = 0.29296 0.23807
# Poissons Ratio (z) = -0.05334 0.31742
#
# Static dielectric constant tensor:
#      x y z
#    x 2.075440 -0.013200 0.090410 
#    y -0.013200 1.963350 -0.084260 
#    z 0.090410 -0.084260 1.772290 
# 
# From -- ./inp_files/106489.got.cif
#   From: 2010.05.17/outbox.cif.g08.bks.cpg/sg2_54_cif.got.tgz:106489.got - 2010.06.03 11:33:40.
