data_PCOD9013739
_publ_section_title
;
Structure prediction by ZEFSAII (Michael W. Deem and Ramdas Pophale) SiO2 
 PCOD9013739
Probable space group: P -1
;
_chemical_formula_sum "Si O2"
_cell_formula_units_Z 14
_cell_length_a 10.710778
_cell_length_b 8.865005
_cell_length_c 10.452802
_cell_angle_alpha 114.389812
_cell_angle_beta 68.428713
_cell_angle_gamma 68.438228
_cell_volume 664.056419
_symmetry_space_group_name_H-M "P -1"
_symmetry_group_IT_number 2
_symmetry_cell_setting 'triclinic'
loop_
_space_group_symop_operation_xyz
x,y,z
-x,-y,-z
loop_
_atom_site_type_symbol
_atom_site_label
_atom_site_fract_x
_atom_site_fract_y
_atom_site_fract_z
Si Si1 0.733991 0.949300 0.303068
Si Si2 0.866622 0.956690 0.992351
Si Si3 0.272931 0.751069 0.267177
Si Si4 0.051330 0.532132 0.629681
Si Si5 0.364627 0.614240 0.895078
Si Si6 0.939142 0.828115 0.414317
Si Si7 0.354015 0.326690 0.613598
O O1 0.878143 0.922551 0.328657
O O2 0.689519 0.807570 0.337406
O O3 0.554329 0.180068 0.457422
O O4 0.808612 0.893265 0.114088
O O5 0.950043 0.770872 0.792870
O O6 0.700062 0.171383 0.073141
O O7 0.000000 0.000000 0.000000
O O8 0.436444 0.572366 0.221862
O O9 0.104948 0.788585 0.393939
O O10 0.224682 0.982895 0.376773
O O11 0.293068 0.677121 0.088061
O O12 0.016583 0.397919 0.683651
O O13 0.247854 0.415566 0.552936
O O14 0.000000 0.500000 0.500000
O O15 0.301438 0.514311 0.793308
#
# Coordination Sequence:
#
# PCOD9013739 Si02
#       7
#     2   2   2   2   2   2   2
#     4  10  23  41  69  95 128 170 225 268 327 390
#     4  12  25  43  65 103 134 173 217 277 328 392
#     4  10  22  39  66  94 131 169 220 270 321 395
#     4  11  25  43  65  94 135 173 220 272 330 387
#     4  11  22  41  64  95 132 172 216 270 329 386
#     4  10  21  41  65  95 125 176 218 268 325 387
#     4  10  22  44  67  94 129 179 219 270 321 398
#
# _framework density 21.082547000000002
#
# number of rings (size 3 to 8) (size 9 to 14) (size 15 to 20)
#    0.000    1.429    2.857    1.714    2.000    4.000 
#    0.000    1.429    0.000    0.000    0.000    0.000 
#    0.000    0.000    0.000    0.000    0.000    0.000 
#
# Total GULP energy -78047.190222 kJ/mol
# GULP energy per Si atom -5574.799302 kJ/mol
# Density = 2.103456 g / cm^3
# Si number density = 21.082547 Si / 1000 Ang^3
#
#
#
# Elastic Constant Matrix: (Units=GPa)
#
#
# Indices 1 2 3 4 5 6 
#
# 1 80.7565 41.6134 37.7101 6.3273 17.9416 -22.2923
# 2 41.6134 82.5825 45.4900 17.9044 7.0914 -26.6809
# 3 37.7101 45.4900 97.2032 16.5639 23.2271 -13.5128
# 4 6.3273 17.9044 16.5639 36.3531 1.7309 12.4231
# 5 17.9416 7.0914 23.2271 1.7309 39.4342 -1.7651
# 6 -22.2923 -26.6809 -13.5128 12.4231 -1.7651 30.0546
#
#
#
# Elastic Compliance Matrix: (Units=1/GPa)
#
#
# Indices 1 2 3 4 5 6 
#
# 1 0.020590 -0.003212 -0.002159 -0.005214 -0.006698 0.013212
# 2 -0.003212 0.034003 -0.005509 -0.026113 0.001358 0.036200
# 3 -0.002159 -0.005509 0.016756 -0.005113 -0.007551 0.002711
# 4 -0.005214 -0.026113 -0.005113 0.062071 0.004906 -0.054717
# 5 -0.006698 0.001358 -0.007551 0.004906 0.032067 -0.007302
# 6 0.013212 0.036200 0.002711 -0.054717 -0.007302 0.098617
#
#
# Mechanical properties :
#
#
# Convention : Reuss Voigt Hill
#
# Bulk Modulus (GPa) = 20.16587 56.68548 38.42568
# Shear Modulus (GPa) = 16.53476 30.21697 23.37586
#
# Velocity S-wave (km/s) = 2.80355 3.78996 3.33344
# Velocity P-wave (km/s) = 4.47949 6.78951 5.75167
#
# Compressibility (1/GPa) = 0.04958873
#
# Stress axis : x y z
#
# Youngs Moduli (GPa) = 48.56757 29.40935 59.68045
#
# Poissons Ratio (x) = 0.09446 0.12885
# Poissons Ratio (y) = 0.15599 0.32879
# Poissons Ratio (z) = 0.10486 0.16202
#
# Static dielectric constant tensor:
#      x y z
#    x 1.809250 0.008600 0.018410 
#    y 0.008600 1.781150 0.009560 
#    z 0.018410 0.009560 1.757630 
# 
# From -- ./inp_files/158612.got.cif
#   From: 2010.05.17/outbox.cif.g08.bks.cpg/sg2_80_cif.got.tgz:158612.got - 2010.06.03 11:33:40.
