data_PCOD9013189
_publ_section_title
;
Structure prediction by ZEFSAII (Michael W. Deem and Ramdas Pophale) SiO2 
 PCOD9013189
Probable space group: P -1
;
_chemical_formula_sum "Si O2"
_cell_formula_units_Z 15
_cell_length_a 11.719067
_cell_length_b 16.396251
_cell_length_c 8.101230
_cell_angle_alpha 56.886898
_cell_angle_beta 93.673323
_cell_angle_gamma 46.908521
_cell_volume 665.767420
_symmetry_space_group_name_H-M "P -1"
_symmetry_group_IT_number 2
_symmetry_cell_setting 'triclinic'
loop_
_space_group_symop_operation_xyz
x,y,z
-x,-y,-z
loop_
_atom_site_type_symbol
_atom_site_label
_atom_site_fract_x
_atom_site_fract_y
_atom_site_fract_z
Si Si1 0.304789 0.000165 0.019940
Si Si2 0.535934 0.938880 0.821559
Si Si3 0.379782 0.739086 0.248253
Si Si4 0.963445 0.231935 0.167531
Si Si5 0.858765 0.691204 0.843424
Si Si6 0.238181 0.870594 0.717295
Si Si7 0.500000 0.500000 0.000000
Si Si8 0.836087 0.301189 0.705593
O O1 0.041700 0.188939 0.742639
O O2 0.464100 0.916396 0.979540
O O3 0.342938 0.054813 0.098081
O O4 0.365861 0.844504 0.241984
O O5 0.704559 0.770483 0.892974
O O6 0.313322 0.141973 0.491871
O O7 0.627846 0.524685 0.460330
O O8 0.261705 0.731085 0.327893
O O9 0.265663 0.846496 0.943946
O O10 0.740846 0.364894 0.099654
O O11 0.991605 0.327030 0.067619
O O12 0.928350 0.221715 0.987588
O O13 0.192198 0.015042 0.496128
O O14 0.000000 0.500000 0.000000
O O15 0.426734 0.665260 0.878616
O O16 0.000000 0.000000 0.500000
#
# Coordination Sequence:
#
# PCOD9013189 Si02
#       8
#     2   2   2   2   2   2   1   2
#     4  11  24  45  73  92 143 180 223 288 344 406
#     4  10  25  46  68 105 125 181 239 281 343 406
#     4  11  24  42  65 101 136 180 223 276 341 425
#     4  11  23  44  67  99 137 177 225 287 338 410
#     4  11  25  46  73  98 136 177 237 290 344 397
#     4  10  21  41  63  94 136 177 225 269 330 407
#     4  10  22  38  68  98 132 178 220 274 338 402
#     4  11  24  43  64 103 138 174 228 271 349 415
#
# _framework density 22.530391000000002
#
# number of rings (size 3 to 8) (size 9 to 14) (size 15 to 20)
#    0.000    1.333    4.000    1.200    1.867    8.533 
#    0.000    2.667    0.000    0.000    0.000    0.000 
#    0.000    0.000    0.000    0.000    0.000    0.000 
#
# Total GULP energy -83624.939084 kJ/mol
# GULP energy per Si atom -5574.995939 kJ/mol
# Density = 2.247911 g / cm^3
# Si number density = 22.530391 Si / 1000 Ang^3
#
#
#
# Elastic Constant Matrix: (Units=GPa)
#
#
# Indices 1 2 3 4 5 6 
#
# 1 109.2152 25.9455 11.3626 -32.9392 7.2506 13.6515
# 2 25.9455 73.2364 32.3470 -46.3960 -15.4038 11.4310
# 3 11.3626 32.3470 44.0188 -16.4286 7.1509 -5.1682
# 4 -32.9392 -46.3960 -16.4286 33.9183 0.6616 -3.1382
# 5 7.2506 -15.4038 7.1509 0.6616 13.5927 -7.2686
# 6 13.6515 11.4310 -5.1682 -3.1382 -7.2686 27.1182
#
#
#
# Elastic Compliance Matrix: (Units=1/GPa)
#
#
# Indices 1 2 3 4 5 6 
#
# 1 0.015623 -0.006247 0.007061 0.009661 -0.024604 -0.009363
# 2 -0.006247 -0.061106 0.032943 -0.071611 -0.076318 0.006437
# 3 0.007061 0.032943 0.014696 0.058424 0.021920 -0.002004
# 4 0.009661 -0.071611 0.058424 -0.028327 -0.114304 0.002541
# 5 -0.024604 -0.076318 0.021920 -0.114304 0.015437 0.039643
# 6 -0.009363 0.006437 -0.002004 0.002541 0.039643 0.049413
#
#
# Mechanical properties :
#
#
# Convention : Reuss Voigt Hill
#
# Bulk Modulus (GPa) = 27.22736 40.64232 33.93484
# Shear Modulus (GPa) = -100.93899 25.38019 -37.77940
#
# Velocity S-wave (km/s) = -6.70064 3.35996 -4.09934
# Velocity P-wave (km/s) = 6.91041 5.75591 2.70400
#
# Compressibility (1/GPa) = 0.03672777
#
# Stress axis : x y z
#
# Youngs Moduli (GPa) = 64.00755 -16.36508 68.04703
#
# Poissons Ratio (x) = -0.10223 -0.48047
# Poissons Ratio (y) = 0.39983 -2.24167
# Poissons Ratio (z) = -0.45195 0.53911
#
# Static dielectric constant tensor:
#      x y z
#    x 1.910020 0.022080 -0.013110 
#    y 0.022080 1.835920 0.039700 
#    z -0.013110 0.039700 1.880480 
# 
# From -- ./inp_files/269819.got.cif
#   From: 2010.05.17/outbox.cif.g08.bks.cpg/sg2_135_cif.got.tgz:269819.got - 2010.06.03 11:33:40.
