data_PCOD9013587
_publ_section_title
;
Structure prediction by ZEFSAII (Michael W. Deem and Ramdas Pophale) SiO2 
 PCOD9013587
Probable space group: P -1
;
_chemical_formula_sum "Si O2"
_cell_formula_units_Z 14
_cell_length_a 7.214602
_cell_length_b 15.730810
_cell_length_c 5.038366
_cell_angle_alpha 116.412889
_cell_angle_beta 83.489419
_cell_angle_gamma 93.190307
_cell_volume 508.809980
_symmetry_space_group_name_H-M "P -1"
_symmetry_group_IT_number 2
_symmetry_cell_setting 'triclinic'
loop_
_space_group_symop_operation_xyz
x,y,z
-x,-y,-z
loop_
_atom_site_type_symbol
_atom_site_label
_atom_site_fract_x
_atom_site_fract_y
_atom_site_fract_z
Si Si1 0.790766 0.926024 0.153816
Si Si2 0.496634 0.586743 0.828316
Si Si3 0.041347 0.658594 0.687683
Si Si4 0.234232 0.953724 0.176708
Si Si5 0.593847 0.239249 0.297253
Si Si6 0.828854 0.512348 0.229166
Si Si7 0.736629 0.733449 0.180649
O O1 0.714751 0.824780 0.118210
O O2 0.016217 0.924519 0.145088
O O3 0.728350 0.007284 0.482312
O O4 0.744457 0.959995 0.914353
O O5 0.500000 0.500000 0.500000
O O6 0.449078 0.684788 0.822593
O O7 0.336336 0.544494 0.976179
O O8 0.673991 0.623412 0.005273
O O9 0.197543 0.720904 0.594717
O O10 0.139433 0.562946 0.639403
O O11 0.862777 0.619534 0.488838
O O12 0.957222 0.714622 0.035784
O O13 0.359494 0.865595 0.955162
O O14 0.416845 0.241335 0.528025
O O15 0.000000 0.500000 0.000000
#
# Coordination Sequence:
#
# PCOD9013587 Si02
#       7
#     2   2   2   2   2   2   2
#     4  10  24  46  78 105 144 191 240 305 368 428
#     4  11  25  43  62 104 141 176 239 291 352 429
#     4  10  22  43  63  96 135 177 244 280 355 428
#     4  10  23  49  74 108 144 187 246 302 362 441
#     4  11  26  43  69 102 141 184 238 295 357 439
#     4  10  21  41  65  89 131 189 225 295 351 417
#     4  12  25  42  70 101 137 189 230 297 364 426
#
# _framework density 27.515181999999999
#
# number of rings (size 3 to 8) (size 9 to 14) (size 15 to 20)
#    0.000    1.429    2.857    0.857    6.000    1.714 
#    0.000    0.000    0.000    0.000    0.000    0.000 
#    0.000    0.000    0.000    0.000    0.000    0.000 
#
# Total GULP energy -78086.894509 kJ/mol
# GULP energy per Si atom -5577.635322 kJ/mol
# Density = 2.745256 g / cm^3
# Si number density = 27.515182 Si / 1000 Ang^3
#
#
#
# Elastic Constant Matrix: (Units=GPa)
#
#
# Indices 1 2 3 4 5 6 
#
# 1 108.0088 35.1267 30.1277 3.8247 -26.1706 22.7724
# 2 35.1267 173.1153 18.7879 4.0443 -17.5417 37.6760
# 3 30.1277 18.7879 138.7381 2.4152 -46.8610 13.0171
# 4 3.8247 4.0443 2.4152 51.8024 -1.2616 -6.3372
# 5 -26.1706 -17.5417 -46.8610 -1.2616 49.5183 6.0404
# 6 22.7724 37.6760 13.0171 -6.3372 6.0404 43.7271
#
#
#
# Elastic Compliance Matrix: (Units=1/GPa)
#
#
# Indices 1 2 3 4 5 6 
#
# 1 0.012975 0.000068 0.000991 -0.001846 0.008821 -0.008597
# 2 0.000068 0.007976 0.001479 -0.001585 0.005233 -0.008300
# 3 0.000991 0.001479 0.011986 -0.001328 0.013257 -0.007383
# 4 -0.001846 -0.001585 -0.001328 0.020296 -0.003018 0.006081
# 5 0.008821 0.005233 0.013257 -0.003018 0.041524 -0.019223
# 6 -0.008597 -0.008300 -0.007383 0.006081 -0.019223 0.040232
#
#
# Mechanical properties :
#
#
# Convention : Reuss Voigt Hill
#
# Bulk Modulus (GPa) = 26.30642 65.32743 45.81692
# Shear Modulus (GPa) = 35.06677 51.39756 43.23217
#
# Velocity S-wave (km/s) = 3.57382 4.32669 3.96815
# Velocity P-wave (km/s) = 5.15859 6.98242 6.13862
#
# Compressibility (1/GPa) = 0.03801353
#
# Stress axis : x y z
#
# Youngs Moduli (GPa) = 77.06939 125.37658 83.43125
#
# Poissons Ratio (x) = -0.00847 -0.08272
# Poissons Ratio (y) = -0.00521 -0.12341
# Poissons Ratio (z) = -0.07641 -0.18545
#
# Static dielectric constant tensor:
#      x y z
#    x 1.998180 -0.074220 0.206780 
#    y -0.074220 2.050980 -0.052780 
#    z 0.206780 -0.052780 2.263580 
# 
# From -- ./inp_files/38328.got.cif
#   From: 2010.05.17/outbox.cif.g08.bks.cpg/sg2_20_cif.got.tgz:38328.got - 2010.06.03 11:33:40.
