data_PCOD9013809
_publ_section_title
;
Structure prediction by ZEFSAII (Michael W. Deem and Ramdas Pophale) SiO2 
 PCOD9013809
Probable space group: P -1
;
_chemical_formula_sum "Si O2"
_cell_formula_units_Z 16
_cell_length_a 8.125816
_cell_length_b 13.443087
_cell_length_c 14.786094
_cell_angle_alpha 138.607361
_cell_angle_beta 121.801099
_cell_angle_gamma 43.475242
_cell_volume 734.273893
_symmetry_space_group_name_H-M "P -1"
_symmetry_group_IT_number 2
_symmetry_cell_setting 'triclinic'
loop_
_space_group_symop_operation_xyz
x,y,z
-x,-y,-z
loop_
_atom_site_type_symbol
_atom_site_label
_atom_site_fract_x
_atom_site_fract_y
_atom_site_fract_z
Si Si1 0.287973 0.205429 0.544842
Si Si2 0.950433 0.332769 0.703741
Si Si3 0.531916 0.710366 0.924411
Si Si4 0.909227 0.210783 0.098111
Si Si5 0.737892 0.986849 0.079691
Si Si6 0.321006 0.054301 0.771266
Si Si7 0.479663 0.696310 0.467437
Si Si8 0.053870 0.651381 0.611925
O O1 0.417922 0.288292 0.589290
O O2 0.104858 0.317686 0.651650
O O3 0.118043 0.208333 0.420100
O O4 0.500000 0.000000 0.500000
O O5 0.779875 0.536741 0.839058
O O6 0.774894 0.271471 0.589500
O O7 0.136486 0.192477 0.737094
O O8 0.377475 0.661710 0.903751
O O9 0.354653 0.818777 0.861146
O O10 0.556015 0.850459 0.087383
O O11 0.993456 0.263736 0.244906
O O12 0.000000 0.000000 0.000000
O O13 0.046158 0.187487 0.030732
O O14 0.792658 0.967973 0.187379
O O15 0.500000 0.000000 0.000000
O O16 0.471211 0.851667 0.631044
O O17 0.662538 0.489358 0.419412
O O18 0.000000 0.500000 0.500000
#
# Coordination Sequence:
#
# PCOD9013809 Si02
#       8
#     2   2   2   2   2   2   2   2
#     4  11  26  44  71 103 139 184 219 278 357 404
#     4  12  25  47  70  99 144 174 234 285 338 411
#     4  10  23  44  67  96 136 176 234 282 333 412
#     4  10  21  41  65  98 131 172 229 278 330 403
#     4   9  22  38  68  94 132 177 229 274 341 401
#     4  11  24  43  66  96 140 182 218 285 351 396
#     4  11  25  47  67 102 139 177 232 286 333 413
#     4  10  24  41  71  98 134 174 230 283 336 396
#
# _framework density 21.790236
#
# number of rings (size 3 to 8) (size 9 to 14) (size 15 to 20)
#    0.000    1.500    2.500    0.750   12.250    5.500 
#    2.250    0.625    0.000    0.000    0.000    0.000 
#    0.000    0.000    0.000    0.000    0.000    0.000 
#
# Total GULP energy -89181.256572 kJ/mol
# GULP energy per Si atom -5573.828536 kJ/mol
# Density = 2.174064 g / cm^3
# Si number density = 21.790236 Si / 1000 Ang^3
#
#
#
# Elastic Constant Matrix: (Units=GPa)
#
#
# Indices 1 2 3 4 5 6 
#
# 1 111.9731 17.4311 59.8399 -1.8059 -25.7607 -17.3095
# 2 17.4311 91.9110 41.8402 -8.8265 -19.2729 -1.2503
# 3 59.8399 41.8402 171.3564 5.3116 -11.6023 -5.1379
# 4 -1.8059 -8.8265 5.3116 33.9499 -1.2333 -3.8787
# 5 -25.7607 -19.2729 -11.6023 -1.2333 46.4533 4.4010
# 6 -17.3095 -1.2503 -5.1379 -3.8787 4.4010 17.9821
#
#
#
# Elastic Compliance Matrix: (Units=1/GPa)
#
#
# Indices 1 2 3 4 5 6 
#
# 1 0.014653 0.001207 -0.004725 0.003438 0.006400 0.012014
# 2 0.001207 0.013884 -0.003551 0.004515 0.005595 0.000717
# 3 -0.004725 -0.003551 0.008236 -0.002827 -0.001866 -0.002595
# 4 0.003438 0.004515 -0.002827 0.032400 0.003076 0.009051
# 5 0.006400 0.005595 -0.001866 0.003076 0.027006 0.000070
# 6 0.012014 0.000717 -0.002595 0.009051 0.000070 0.068419
#
#
# Mechanical properties :
#
#
# Convention : Reuss Voigt Hill
#
# Bulk Modulus (GPa) = 44.17767 68.16256 56.17012
# Shear Modulus (GPa) = 26.84120 36.75237 31.79679
#
# Velocity S-wave (km/s) = 3.51351 4.11133 3.82412
# Velocity P-wave (km/s) = 6.06446 7.34075 6.73291
#
# Compressibility (1/GPa) = 0.02263587
#
# Stress axis : x y z
#
# Youngs Moduli (GPa) = 68.24728 72.02370 121.41231
#
# Poissons Ratio (x) = -0.08696 0.57364
# Poissons Ratio (y) = -0.08240 0.43118
# Poissons Ratio (z) = 0.32245 0.25578
#
# Static dielectric constant tensor:
#      x y z
#    x 2.103930 0.028520 0.019040 
#    y 0.028520 1.838020 0.019770 
#    z 0.019040 0.019770 1.819320 
# 
# From -- ./inp_files/504496.got.cif
#   From: 2010.05.17/outbox.cif.g08.bks.cpg/sg2_253_cif.got.tgz:504496.got - 2010.06.03 11:33:40.
