data_PCOD9013891
_publ_section_title
;
Structure prediction by ZEFSAII (Michael W. Deem and Ramdas Pophale) SiO2 
 PCOD9013891
Probable space group: P -1
;
_chemical_formula_sum "Si O2"
_cell_formula_units_Z 14
_cell_length_a 11.108788
_cell_length_b 11.509253
_cell_length_c 8.105636
_cell_angle_alpha 39.078574
_cell_angle_beta 120.410708
_cell_angle_gamma 103.140505
_cell_volume 536.634004
_symmetry_space_group_name_H-M "P -1"
_symmetry_group_IT_number 2
_symmetry_cell_setting 'triclinic'
loop_
_space_group_symop_operation_xyz
x,y,z
-x,-y,-z
loop_
_atom_site_type_symbol
_atom_site_label
_atom_site_fract_x
_atom_site_fract_y
_atom_site_fract_z
Si Si1 0.461305 0.154300 0.098228
Si Si2 0.014896 0.192372 0.506722
Si Si3 0.483912 0.308648 0.619589
Si Si4 0.196498 0.041044 0.470141
Si Si5 0.011697 0.408855 0.788195
Si Si6 0.458968 0.746018 0.630036
Si Si7 0.210651 0.817783 0.178807
O O1 0.466232 0.300347 0.089386
O O2 0.886721 0.865089 0.525246
O O3 0.632035 0.048892 0.298492
O O4 0.400910 0.230635 0.791496
O O5 0.128840 0.871268 0.559050
O O6 0.991948 0.412933 0.292641
O O7 0.102515 0.034750 0.877643
O O8 0.500000 0.500000 0.500000
O O9 0.435365 0.333782 0.366737
O O10 0.652701 0.182032 0.843386
O O11 0.408864 0.980782 0.321056
O O12 0.151715 0.221691 0.114637
O O13 0.877725 0.316605 0.812728
O O14 0.000000 0.500000 0.500000
O O15 0.301057 0.717697 0.513816
#
# Coordination Sequence:
#
# PCOD9013891 Si02
#       7
#     2   2   2   2   2   2   2
#     4  11  21  42  67  89 127 168 207 259 321 372
#     4  10  21  41  66  88 124 163 214 258 313 378
#     4  10  22  41  63  92 126 165 207 258 314 372
#     4  10  22  41  64  91 124 165 207 264 313 369
#     4  11  25  38  62  97 122 168 208 257 319 372
#     4   9  23  40  63  95 120 167 214 251 315 381
#     4   9  22  43  61  91 127 165 209 262 312 374
#
# _framework density 26.088545
#
# number of rings (size 3 to 8) (size 9 to 14) (size 15 to 20)
#    0.857    1.143    1.429    0.857    4.000    4.000 
#    5.143    0.000    0.000    0.000    0.000    0.000 
#    0.000    0.000    0.000    0.000    0.000    0.000 
#
# Total GULP energy -78208.286260 kJ/mol
# GULP energy per Si atom -5586.306161 kJ/mol
# Density = 2.602917 g / cm^3
# Si number density = 26.088545 Si / 1000 Ang^3
#
#
#
# Elastic Constant Matrix: (Units=GPa)
#
#
# Indices 1 2 3 4 5 6 
#
# 1 37.8588 19.0242 20.9290 -2.5545 -3.7538 8.2163
# 2 19.0242 169.7880 27.7577 -4.1657 -8.9060 -2.1376
# 3 20.9290 27.7577 64.7319 -10.5635 -21.9806 1.7451
# 4 -2.5545 -4.1657 -10.5635 33.4258 -1.8171 -18.7713
# 5 -3.7538 -8.9060 -21.9806 -1.8171 32.3381 8.3284
# 6 8.2163 -2.1376 1.7451 -18.7713 8.3284 50.2026
#
#
#
# Elastic Compliance Matrix: (Units=1/GPa)
#
#
# Indices 1 2 3 4 5 6 
#
# 1 0.035148 -0.002340 -0.012237 -0.005554 -0.003407 -0.006938
# 2 -0.002340 0.006499 -0.001983 0.000525 -0.000040 0.000932
# 3 -0.012237 -0.001983 0.027428 0.009338 0.016770 0.001674
# 4 -0.005554 0.000525 0.009338 0.041374 0.004211 0.015379
# 5 -0.003407 -0.000040 0.016770 0.004211 0.043617 -0.005688
# 6 -0.006938 0.000932 0.001674 0.015379 -0.005688 0.027730
#
#
# Mechanical properties :
#
#
# Convention : Reuss Voigt Hill
#
# Bulk Modulus (GPa) = 27.81278 45.31118 36.56198
# Shear Modulus (GPa) = 22.03601 36.83780 29.43690
#
# Velocity S-wave (km/s) = 2.90946 3.76177 3.36273
# Velocity P-wave (km/s) = 4.68729 6.02278 5.39651
#
# Compressibility (1/GPa) = 0.03595469
#
# Stress axis : x y z
#
# Youngs Moduli (GPa) = 28.45137 153.87895 36.45856
#
# Poissons Ratio (x) = 0.36008 0.44614
# Poissons Ratio (y) = 0.06658 0.07230
# Poissons Ratio (z) = 0.34815 0.30517
#
# Static dielectric constant tensor:
#      x y z
#    x 2.043870 -0.012350 -0.085680 
#    y -0.012350 2.174470 0.107710 
#    z -0.085680 0.107710 2.128440 
# 
# From -- ./inp_files/302372.got.cif
#   From: 2010.05.17/outbox.cif.g08.bks.cpg/sg2_152_cif.got.tgz:302372.got - 2010.06.03 11:33:40.
