data_PCOD9013321
_publ_section_title
;
Structure prediction by ZEFSAII (Michael W. Deem and Ramdas Pophale) SiO2 
 PCOD9013321
Probable space group: P -1
;
_chemical_formula_sum "Si O2"
_cell_formula_units_Z 16
_cell_length_a 12.644050
_cell_length_b 9.283298
_cell_length_c 11.734381
_cell_angle_alpha 126.232498
_cell_angle_beta 129.581525
_cell_angle_gamma 77.542121
_cell_volume 827.109134
_symmetry_space_group_name_H-M "P -1"
_symmetry_group_IT_number 2
_symmetry_cell_setting 'triclinic'
loop_
_space_group_symop_operation_xyz
x,y,z
-x,-y,-z
loop_
_atom_site_type_symbol
_atom_site_label
_atom_site_fract_x
_atom_site_fract_y
_atom_site_fract_z
Si Si1 0.943436 0.994337 0.330200
Si Si2 0.246055 0.905366 0.060821
Si Si3 0.051691 0.720922 0.122856
Si Si4 0.147988 0.270838 0.203707
Si Si5 0.630976 0.182133 0.673564
Si Si6 0.022737 0.321614 0.368872
Si Si7 0.602286 0.537228 0.695594
Si Si8 0.622512 0.923008 0.993600
O O1 0.972222 0.816938 0.204403
O O2 0.775208 0.981899 0.191854
O O3 0.000000 0.000000 0.500000
O O4 0.031504 0.170890 0.400227
O O5 0.313226 0.799580 0.150423
O O6 0.199309 0.083788 0.160935
O O7 0.356674 0.993291 0.079724
O O8 0.117934 0.774256 0.843164
O O9 0.221463 0.808337 0.288765
O O10 0.000000 0.500000 0.000000
O O11 0.001037 0.769045 0.985333
O O12 0.139495 0.352738 0.362053
O O13 0.247995 0.398402 0.238350
O O14 0.583279 0.354075 0.670667
O O15 0.500000 0.000000 0.500000
O O16 0.000000 0.500000 0.500000
O O17 0.500000 0.500000 0.500000
O O18 0.585761 0.703417 0.842971
O O19 0.500000 0.000000 0.000000
#
# Coordination Sequence:
#
# PCOD9013321 Si02
#       8
#     2   2   2   2   2   2   2   2
#     4  11  25  41  62 100 137 173 229 285 339 405
#     4  10  21  41  64  90 131 171 221 278 332 400
#     4  12  22  42  74  97 127 181 228 280 331 398
#     4  11  20  43  68  91 127 176 232 272 327 398
#     4  12  24  38  66 106 134 166 225 283 341 400
#     4  11  23  36  61  97 131 172 218 279 336 392
#     4  11  24  42  66  96 131 173 229 275 332 410
#     4  10  22  45  66  88 129 185 223 275 347 402
#
# _framework density 19.344484000000001
#
# number of rings (size 3 to 8) (size 9 to 14) (size 15 to 20)
#    0.000    1.000    6.250    2.625    1.750    5.000 
#    0.000    0.625    0.000    0.000    0.000    0.000 
#    0.000    0.000    0.000    0.000    0.000    0.000 
#
# Total GULP energy -89246.646399 kJ/mol
# GULP energy per Si atom -5577.915400 kJ/mol
# Density = 1.930045 g / cm^3
# Si number density = 19.344484 Si / 1000 Ang^3
#
#
#
# Elastic Constant Matrix: (Units=GPa)
#
#
# Indices 1 2 3 4 5 6 
#
# 1 125.8761 68.0883 45.8181 16.9169 -15.5993 -13.2929
# 2 68.0883 155.8823 52.4492 -2.0019 -17.3884 18.4677
# 3 45.8181 52.4492 72.7658 -3.5587 -15.6432 3.7945
# 4 16.9169 -2.0019 -3.5587 43.4586 2.3860 -2.2455
# 5 -15.5993 -17.3884 -15.6432 2.3860 45.3850 -0.1275
# 6 -13.2929 18.4677 3.7945 -2.2455 -0.1275 33.9704
#
#
#
# Elastic Compliance Matrix: (Units=1/GPa)
#
#
# Indices 1 2 3 4 5 6 
#
# 1 0.015148 -0.005631 -0.005978 -0.006242 0.001343 0.009249
# 2 -0.005631 0.011210 -0.003840 0.001944 0.000912 -0.007737
# 3 -0.005978 -0.003840 0.021357 0.003576 0.003641 -0.002387
# 4 -0.006242 0.001944 0.003576 0.025793 -0.001530 -0.002200
# 5 0.001343 0.000912 0.003641 -0.001530 0.024179 -0.000387
# 6 0.009249 -0.007737 -0.002387 -0.002200 -0.000387 0.037383
#
#
# Mechanical properties :
#
#
# Convention : Reuss Voigt Hill
#
# Bulk Modulus (GPa) = 59.46545 76.35948 67.91247
# Shear Modulus (GPa) = 29.14197 37.10736 33.12466
#
# Velocity S-wave (km/s) = 3.88554 4.38452 4.14255
# Velocity P-wave (km/s) = 7.13701 8.07411 7.61998
#
# Compressibility (1/GPa) = 0.01681649
#
# Stress axis : x y z
#
# Youngs Moduli (GPa) = 66.01325 89.20521 46.82373
#
# Poissons Ratio (x) = 0.50235 0.27993
# Poissons Ratio (y) = 0.37175 0.17979
# Poissons Ratio (z) = 0.39465 0.34252
#
# Static dielectric constant tensor:
#      x y z
#    x 1.751430 -0.000370 0.051240 
#    y -0.000370 1.686880 -0.008330 
#    z 0.051240 -0.008330 1.667850 
# 
# From -- ./inp_files/223424.got.cif
#   From: 2010.05.17/outbox.cif.g08.bks.cpg/sg2_112_cif.got.tgz:223424.got - 2010.06.03 11:33:40.
