data_PCOD9013416
_publ_section_title
;
Structure prediction by ZEFSAII (Michael W. Deem and Ramdas Pophale) SiO2 
 PCOD9013416
Probable space group: P -1
;
_chemical_formula_sum "Si O2"
_cell_formula_units_Z 16
_cell_length_a 18.923340
_cell_length_b 8.620949
_cell_length_c 8.788271
_cell_angle_alpha 48.500723
_cell_angle_beta 135.706179
_cell_angle_gamma 105.515695
_cell_volume 688.778040
_symmetry_space_group_name_H-M "P -1"
_symmetry_group_IT_number 2
_symmetry_cell_setting 'triclinic'
loop_
_space_group_symop_operation_xyz
x,y,z
-x,-y,-z
loop_
_atom_site_type_symbol
_atom_site_label
_atom_site_fract_x
_atom_site_fract_y
_atom_site_fract_z
Si Si1 0.323566 0.708856 0.563959
Si Si2 0.661724 0.718001 0.273893
Si Si3 0.840771 0.188065 0.223524
Si Si4 0.896963 0.550586 0.917671
Si Si5 0.597769 0.579628 0.569405
Si Si6 0.398758 0.061115 0.419044
Si Si7 0.723577 0.002984 0.974901
Si Si8 0.889006 0.999430 0.757811
O O1 0.348199 0.447708 0.765716
O O2 0.210850 0.845090 0.389781
O O3 0.402484 0.832849 0.656381
O O4 0.319337 0.766080 0.338588
O O5 0.786045 0.621870 0.598049
O O6 0.589840 0.706000 0.313813
O O7 0.652091 0.950562 0.029966
O O8 0.875486 0.099973 0.502007
O O9 0.834666 0.992886 0.229731
O O10 0.906225 0.325836 0.165177
O O11 0.713334 0.365886 0.911062
O O12 0.887162 0.752622 0.886966
O O13 0.000000 0.500000 0.000000
O O14 0.500000 0.500000 0.500000
O O15 0.601066 0.755035 0.585512
O O16 0.500000 0.000000 0.500000
O O17 0.286660 0.145007 0.088324
O O18 0.000000 0.000000 0.000000
#
# Coordination Sequence:
#
# PCOD9013416 Si02
#       8
#     2   2   2   2   2   2   2   2
#     4  10  22  41  63  92 135 163 214 274 321 380
#     4  11  21  41  66  95 128 171 216 265 326 388
#     4  11  24  45  67  96 133 173 219 271 330 387
#     4  11  23  42  68  95 128 173 221 270 325 390
#     4  11  22  43  69  98 136 173 217 269 324 395
#     4  10  21  41  64  94 134 168 213 273 320 381
#     4  10  22  39  67  91 128 168 214 261 328 376
#     4  12  27  42  66  99 133 172 221 270 329 390
#
# _framework density 23.229541999999999
#
# number of rings (size 3 to 8) (size 9 to 14) (size 15 to 20)
#    0.750    0.500    3.750    3.750    1.750    2.000 
#    2.250    2.500    0.000    0.000    0.000    0.000 
#    0.000    0.000    0.000    0.000    0.000    0.000 
#
# Total GULP energy -89292.984603 kJ/mol
# GULP energy per Si atom -5580.811538 kJ/mol
# Density = 2.317667 g / cm^3
# Si number density = 23.229542 Si / 1000 Ang^3
#
#
#
# Elastic Constant Matrix: (Units=GPa)
#
#
# Indices 1 2 3 4 5 6 
#
# 1 137.8485 66.8673 39.0927 -2.7159 -7.7745 25.6995
# 2 66.8673 204.9369 41.2673 12.0041 -3.1723 7.1928
# 3 39.0927 41.2673 87.9084 17.4348 -14.9212 11.3136
# 4 -2.7159 12.0041 17.4348 27.9717 7.9056 -8.0402
# 5 -7.7745 -3.1723 -14.9212 7.9056 46.2300 -6.7613
# 6 25.6995 7.1928 11.3136 -8.0402 -6.7613 46.3528
#
#
#
# Elastic Compliance Matrix: (Units=1/GPa)
#
#
# Indices 1 2 3 4 5 6 
#
# 1 0.010378 -0.002730 -0.003673 0.003568 -0.000813 -0.003934
# 2 -0.002730 0.006137 -0.001389 -0.001845 -0.000088 0.000567
# 3 -0.003673 -0.001389 0.018097 -0.014050 0.007007 -0.003580
# 4 0.003568 -0.001845 -0.014050 0.051494 -0.011553 0.008984
# 5 -0.000813 -0.000088 0.007007 -0.011553 0.025801 0.000513
# 6 -0.003934 0.000567 -0.003580 0.008984 0.000513 0.026174
#
#
# Mechanical properties :
#
#
# Convention : Reuss Voigt Hill
#
# Bulk Modulus (GPa) = 52.55118 80.57205 66.56162
# Shear Modulus (GPa) = 31.24867 43.00868 37.12867
#
# Velocity S-wave (km/s) = 3.67169 4.30753 4.00226
# Velocity P-wave (km/s) = 6.37548 7.71364 7.07626
#
# Compressibility (1/GPa) = 0.01902907
#
# Stress axis : x y z
#
# Youngs Moduli (GPa) = 96.35755 162.95193 55.25649
#
# Poissons Ratio (x) = 0.44487 0.20294
# Poissons Ratio (y) = 0.26306 0.07674
# Poissons Ratio (z) = 0.35390 0.22629
#
# Static dielectric constant tensor:
#      x y z
#    x 1.882160 -0.023190 0.005720 
#    y -0.023190 1.955030 -0.017050 
#    z 0.005720 -0.017050 1.918570 
# 
# From -- ./inp_files/328514.got.cif
#   From: 2010.05.17/outbox.cif.g08.bks.cpg/sg2_165_cif.got.tgz:328514.got - 2010.06.03 11:33:40.
