data_PCOD9013327
_publ_section_title
;
Structure prediction by ZEFSAII (Michael W. Deem and Ramdas Pophale) SiO2 
 PCOD9013327
Probable space group: P -1
;
_chemical_formula_sum "Si O2"
_cell_formula_units_Z 16
_cell_length_a 10.206219
_cell_length_b 8.456469
_cell_length_c 11.395715
_cell_angle_alpha 53.277237
_cell_angle_beta 71.534382
_cell_angle_gamma 62.412265
_cell_volume 697.619074
_symmetry_space_group_name_H-M "P -1"
_symmetry_group_IT_number 2
_symmetry_cell_setting 'triclinic'
loop_
_space_group_symop_operation_xyz
x,y,z
-x,-y,-z
loop_
_atom_site_type_symbol
_atom_site_label
_atom_site_fract_x
_atom_site_fract_y
_atom_site_fract_z
Si Si1 0.326033 0.519251 0.665121
Si Si2 0.569064 0.154592 0.611249
Si Si3 0.087169 0.423625 0.193346
Si Si4 0.875150 0.899175 0.063815
Si Si5 0.353120 0.446671 0.953850
Si Si6 0.143448 0.020400 0.226086
Si Si7 0.588709 0.140342 0.172849
Si Si8 0.023338 0.787484 0.512905
O O1 0.445143 0.325789 0.649699
O O2 0.388171 0.712622 0.560844
O O3 0.304523 0.449436 0.832500
O O4 0.176239 0.612711 0.591052
O O5 0.714915 0.056369 0.694466
O O6 0.502080 0.977193 0.677936
O O7 0.051960 0.261388 0.185435
O O8 0.962544 0.650469 0.142231
O O9 0.100179 0.303876 0.368966
O O10 0.228993 0.454319 0.081805
O O11 0.748504 0.978142 0.161562
O O12 0.807327 0.978897 0.920185
O O13 0.000000 0.000000 0.000000
O O14 0.394197 0.654942 0.864862
O O15 0.491451 0.238081 0.040686
O O16 0.049351 0.868184 0.342049
O O17 0.000000 0.000000 0.500000
#
# Coordination Sequence:
#
# PCOD9013327 Si02
#       8
#     2   2   2   2   2   2   2   2
#     4  10  22  38  62  94 122 157 209 254 303 362
#     4  10  21  41  64  91 124 160 205 255 302 362
#     4  11  22  39  62  92 119 162 205 251 300 362
#     4  12  25  40  61  92 129 159 200 255 306 364
#     4  11  24  39  62  91 123 162 207 253 302 362
#     4  10  22  40  64  91 118 162 207 249 306 363
#     4  11  24  41  60  88 128 163 201 254 307 357
#     4   9  21  36  60  89 121 155 203 253 297 359
#
# _framework density 22.935154000000001
#
# number of rings (size 3 to 8) (size 9 to 14) (size 15 to 20)
#    0.000    1.500    2.500    1.875    7.000    1.500 
#    0.000    0.625    5.500    0.000    0.000    0.000 
#    0.000    0.000    0.000    0.000    0.000    0.000 
#
# Total GULP energy -89391.606100 kJ/mol
# GULP energy per Si atom -5586.975381 kJ/mol
# Density = 2.288295 g / cm^3
# Si number density = 22.935154 Si / 1000 Ang^3
#
#
#
# Elastic Constant Matrix: (Units=GPa)
#
#
# Indices 1 2 3 4 5 6 
#
# 1 70.3324 23.8490 31.8122 -12.3556 -26.6789 -10.0103
# 2 23.8490 59.7889 16.0398 -20.4445 4.2092 -28.4435
# 3 31.8122 16.0398 94.9180 -24.2738 -40.3976 12.3306
# 4 -12.3556 -20.4445 -24.2738 20.9516 2.0422 -2.1059
# 5 -26.6789 4.2092 -40.3976 2.0422 46.3897 -10.8336
# 6 -10.0103 -28.4435 12.3306 -2.1059 -10.8336 35.1192
#
#
#
# Elastic Compliance Matrix: (Units=1/GPa)
#
#
# Indices 1 2 3 4 5 6 
#
# 1 0.025166 0.000461 0.002062 0.017231 0.018647 0.013608
# 2 0.000461 0.077489 0.003359 0.085926 0.008612 0.069521
# 3 0.002062 0.003359 0.028527 0.035430 0.024886 0.003094
# 4 0.017231 0.085926 0.035430 0.187153 0.045091 0.087196
# 5 0.018647 0.008612 0.024886 0.045091 0.056734 0.023758
# 6 0.013608 0.069521 0.003094 0.087196 0.023758 0.100130
#
#
# Mechanical properties :
#
#
# Convention : Reuss Voigt Hill
#
# Bulk Modulus (GPa) = 6.99557 40.93793 23.96675
# Shear Modulus (GPa) = 9.78315 30.71464 20.24890
#
# Velocity S-wave (km/s) = 2.06757 3.66347 2.97455
# Velocity P-wave (km/s) = 2.95915 5.98188 4.71908
#
# Compressibility (1/GPa) = 0.14294760
#
# Stress axis : x y z
#
# Youngs Moduli (GPa) = 39.73637 12.90503 35.05460
#
# Poissons Ratio (x) = -0.00595 -0.07229
# Poissons Ratio (y) = -0.01834 -0.11775
# Poissons Ratio (z) = -0.08195 -0.04335
#
# Static dielectric constant tensor:
#      x y z
#    x 1.907130 0.003040 -0.051720 
#    y 0.003040 1.837410 -0.008070 
#    z -0.051720 -0.008070 1.907440 
# 
# From -- ./inp_files/416291.got.cif
#   From: 2010.05.17/outbox.cif.g08.bks.cpg/sg2_209_cif.got.tgz:416291.got - 2010.06.03 11:33:40.
