data_PCOD9013108
_publ_section_title
;
Structure prediction by ZEFSAII (Michael W. Deem and Ramdas Pophale) SiO2 
 PCOD9013108
Probable space group: P -1
;
_chemical_formula_sum "Si O2"
_cell_formula_units_Z 16
_cell_length_a 10.630265
_cell_length_b 14.844626
_cell_length_c 8.660089
_cell_angle_alpha 117.425544
_cell_angle_beta 82.383219
_cell_angle_gamma 138.125940
_cell_volume 756.883327
_symmetry_space_group_name_H-M "P -1"
_symmetry_group_IT_number 2
_symmetry_cell_setting 'triclinic'
loop_
_space_group_symop_operation_xyz
x,y,z
-x,-y,-z
loop_
_atom_site_type_symbol
_atom_site_label
_atom_site_fract_x
_atom_site_fract_y
_atom_site_fract_z
Si Si1 0.797646 0.809483 0.388693
Si Si2 0.104064 0.410667 0.321023
Si Si3 0.698847 0.238743 0.123331
Si Si4 0.087680 0.273943 0.925404
Si Si5 0.675072 0.556680 0.417322
Si Si6 0.620816 0.987619 0.762496
Si Si7 0.560667 0.258641 0.631147
Si Si8 0.712892 0.428119 0.059222
O O1 0.781746 0.734767 0.174333
O O2 0.801234 0.726070 0.453546
O O3 0.607148 0.762744 0.406084
O O4 0.000000 0.000000 0.500000
O O5 0.182940 0.423899 0.482730
O O6 0.237611 0.585143 0.369519
O O7 0.872011 0.297122 0.247961
O O8 0.140668 0.339916 0.140991
O O9 0.512059 0.151296 0.194327
O O10 0.787201 0.385902 0.126764
O O11 0.623918 0.105948 0.911116
O O12 0.124473 0.398860 0.916006
O O13 0.853592 0.099792 0.814796
O O14 0.500000 0.500000 0.500000
O O15 0.597697 0.436132 0.195835
O O16 0.521915 0.898490 0.544698
O O17 0.595265 0.298751 0.838235
#
# Coordination Sequence:
#
# PCOD9013108 Si02
#       8
#     2   2   2   2   2   2   2   2
#     4  11  22  40  62  91 131 163 198 262 315 371
#     4  10  22  41  67  92 121 171 211 252 309 364
#     4  10  23  44  65  90 130 164 209 262 302 368
#     4   9  21  40  64  91 130 161 210 252 310 374
#     4  11  23  40  66  93 122 161 214 258 305 371
#     4  10  21  41  63  90 127 167 204 261 308 362
#     4  11  22  38  65  95 125 168 208 252 315 368
#     4  10  24  40  64  95 124 164 214 253 305 373
#
# _framework density 21.139322
#
# number of rings (size 3 to 8) (size 9 to 14) (size 15 to 20)
#    0.000    1.750    2.500    0.750    1.750    8.500 
#    6.750    3.125    0.000    0.000    0.000    0.000 
#    0.000    0.000    0.000    0.000    0.000    0.000 
#
# Total GULP energy -89313.197574 kJ/mol
# GULP energy per Si atom -5582.074848 kJ/mol
# Density = 2.109121 g / cm^3
# Si number density = 21.139322 Si / 1000 Ang^3
#
#
#
# Elastic Constant Matrix: (Units=GPa)
#
#
# Indices 1 2 3 4 5 6 
#
# 1 52.7922 24.0382 32.6432 -4.7195 2.7972 -6.4808
# 2 24.0382 57.8838 40.9608 -2.8674 4.5949 -0.0386
# 3 32.6432 40.9608 157.1174 -0.9799 -7.1581 2.3351
# 4 -4.7195 -2.8674 -0.9799 28.2397 1.7290 4.3086
# 5 2.7972 4.5949 -7.1581 1.7290 28.9412 -6.4862
# 6 -6.4808 -0.0386 2.3351 4.3086 -6.4862 27.9777
#
#
#
# Elastic Compliance Matrix: (Units=1/GPa)
#
#
# Indices 1 2 3 4 5 6 
#
# 1 0.025650 -0.008095 -0.003328 0.002550 -0.000913 0.005604
# 2 -0.008095 0.024599 -0.004909 0.001725 -0.005085 -0.002876
# 3 -0.003328 -0.004909 0.008482 -0.000854 0.003108 -0.000634
# 4 0.002550 0.001725 -0.000854 0.037171 -0.004310 -0.006059
# 5 -0.000913 -0.005085 0.003108 -0.004310 0.038518 0.009115
# 6 0.005604 -0.002876 -0.000634 -0.006059 0.009115 0.040136
#
#
# Mechanical properties :
#
#
# Convention : Reuss Voigt Hill
#
# Bulk Modulus (GPa) = 38.36286 51.45309 44.90798
# Shear Modulus (GPa) = 23.15804 28.37512 25.76658
#
# Velocity S-wave (km/s) = 3.31342 3.66770 3.49505
# Velocity P-wave (km/s) = 5.72934 6.50607 6.13002
#
# Compressibility (1/GPa) = 0.02606688
#
# Stress axis : x y z
#
# Youngs Moduli (GPa) = 38.98641 40.65248 117.90180
#
# Poissons Ratio (x) = 0.32906 0.39236
# Poissons Ratio (y) = 0.31558 0.57882
# Poissons Ratio (z) = 0.12974 0.19958
#
# Static dielectric constant tensor:
#      x y z
#    x 1.727400 0.001850 -0.031520 
#    y 0.001850 1.754330 -0.012680 
#    z -0.031520 -0.012680 1.803230 
# 
# From -- ./inp_files/214358.got.cif
#   From: 2010.05.17/outbox.cif.g08.bks.cpg/sg2_108_cif.got.tgz:214358.got - 2010.06.03 11:33:40.
