data_PCOD9013107
_publ_section_title
;
Structure prediction by ZEFSAII (Michael W. Deem and Ramdas Pophale) SiO2 
 PCOD9013107
Probable space group: P -1
;
_chemical_formula_sum "Si O2"
_cell_formula_units_Z 14
_cell_length_a 12.999151
_cell_length_b 9.138410
_cell_length_c 16.777265
_cell_angle_alpha 60.041449
_cell_angle_beta 45.772909
_cell_angle_gamma 30.569678
_cell_volume 697.777253
_symmetry_space_group_name_H-M "P -1"
_symmetry_group_IT_number 2
_symmetry_cell_setting 'triclinic'
loop_
_space_group_symop_operation_xyz
x,y,z
-x,-y,-z
loop_
_atom_site_type_symbol
_atom_site_label
_atom_site_fract_x
_atom_site_fract_y
_atom_site_fract_z
Si Si1 0.283641 0.772676 0.484586
Si Si2 0.584023 0.224860 0.033267
Si Si3 0.053598 0.532924 0.225409
Si Si4 0.704560 0.262591 0.695978
Si Si5 0.393142 0.866432 0.779516
Si Si6 0.816690 0.733586 0.605842
Si Si7 0.291156 0.058747 0.114700
O O1 0.500000 0.500000 0.500000
O O2 0.351935 0.655358 0.389063
O O3 0.251110 0.005555 0.435320
O O4 0.012149 0.967485 0.609474
O O5 0.320621 0.374458 0.129274
O O6 0.709911 0.073326 0.092564
O O7 0.500000 0.500000 0.000000
O O8 0.749908 0.002295 0.928814
O O9 0.042728 0.444874 0.338478
O O10 0.065171 0.384289 0.188500
O O11 0.827704 0.879942 0.232983
O O12 0.574042 0.538316 0.741903
O O13 0.622230 0.164252 0.806046
O O14 0.566340 0.863232 0.697401
O O15 0.000000 0.500000 0.500000
O O16 0.500000 0.000000 0.000000
#
# Coordination Sequence:
#
# PCOD9013107 Si02
#       7
#     2   2   2   2   2   2   2
#     4  11  26  42  66  95 126 170 212 255 319 380
#     4  10  21  41  63  90 127 161 210 266 306 369
#     4  10  24  41  62  91 126 168 207 255 325 376
#     4  11  23  44  63  94 133 163 207 267 313 373
#     4  11  24  39  65  93 124 168 208 257 322 377
#     4  11  23  42  61  91 129 160 209 265 308 374
#     4  10  21  43  65  86 132 168 202 266 313 365
#
# _framework density 20.06371
#
# number of rings (size 3 to 8) (size 9 to 14) (size 15 to 20)
#    0.000    1.429    4.286    0.000    4.000    1.714 
#    0.000    0.000    0.000    0.000    0.000    0.000 
#    0.000    0.000    0.000    0.000    0.000    0.000 
#
# Total GULP energy -78161.265072 kJ/mol
# GULP energy per Si atom -5582.947505 kJ/mol
# Density = 2.001804 g / cm^3
# Si number density = 20.063710 Si / 1000 Ang^3
#
#
#
# Elastic Constant Matrix: (Units=GPa)
#
#
# Indices 1 2 3 4 5 6 
#
# 1 71.4894 34.6781 36.0378 -5.3052 23.3107 10.4407
# 2 34.6781 76.6593 47.4435 -25.6602 16.0703 -18.8476
# 3 36.0378 47.4435 101.3494 -15.6833 25.1381 1.6699
# 4 -5.3052 -25.6602 -15.6833 25.9660 11.5763 5.9085
# 5 23.3107 16.0703 25.1381 11.5763 38.9110 -2.9219
# 6 10.4407 -18.8476 1.6699 5.9085 -2.9219 41.1069
#
#
#
# Elastic Compliance Matrix: (Units=1/GPa)
#
#
# Indices 1 2 3 4 5 6 
#
# 1 0.025590 -0.011265 -0.000238 0.002305 -0.012176 -0.012852
# 2 -0.011265 0.043545 -0.005213 0.042702 -0.019406 0.015521
# 3 -0.000238 -0.005213 0.017848 0.012949 -0.013529 -0.005878
# 4 0.002305 0.042702 0.012949 0.117553 -0.062571 -0.002877
# 5 -0.012176 -0.019406 -0.013529 -0.062571 0.069013 0.008643
# 6 -0.012852 0.015521 -0.005878 -0.002877 0.008643 0.035974
#
#
# Mechanical properties :
#
#
# Convention : Reuss Voigt Hill
#
# Bulk Modulus (GPa) = 18.67351 53.97965 36.32658
# Shear Modulus (GPa) = 13.85791 29.95268 21.90530
#
# Velocity S-wave (km/s) = 2.63096 3.86797 3.30780
# Velocity P-wave (km/s) = 4.30773 6.84915 5.72134
#
# Compressibility (1/GPa) = 0.05355180
#
# Stress axis : x y z
#
# Youngs Moduli (GPa) = 39.07706 22.96501 56.02910
#
# Poissons Ratio (x) = 0.25870 0.01332
# Poissons Ratio (y) = 0.44020 0.29207
# Poissons Ratio (z) = 0.00929 0.11971
#
# Static dielectric constant tensor:
#      x y z
#    x 1.714340 0.019190 0.036220 
#    y 0.019190 1.686300 0.007610 
#    z 0.036220 0.007610 1.724340 
# 
# From -- ./inp_files/24532.got.cif
#   From: 2010.05.17/outbox.cif.g08.bks.cpg/sg2_13_cif.got.tgz:24532.got - 2010.06.03 11:33:40.
