data_PCOD9013597
_publ_section_title
;
Structure prediction by ZEFSAII (Michael W. Deem and Ramdas Pophale) SiO2 
 PCOD9013597
Probable space group: P -1
;
_chemical_formula_sum "Si O2"
_cell_formula_units_Z 12
_cell_length_a 21.825559
_cell_length_b 9.403446
_cell_length_c 10.807501
_cell_angle_alpha 43.758501
_cell_angle_beta 145.310317
_cell_angle_gamma 153.262330
_cell_volume 567.321874
_symmetry_space_group_name_H-M "P -1"
_symmetry_group_IT_number 2
_symmetry_cell_setting 'triclinic'
loop_
_space_group_symop_operation_xyz
x,y,z
-x,-y,-z
loop_
_atom_site_type_symbol
_atom_site_label
_atom_site_fract_x
_atom_site_fract_y
_atom_site_fract_z
Si Si1 0.828424 0.324249 0.384009
Si Si2 0.416771 0.841667 0.328781
Si Si3 0.550347 0.580767 0.390080
Si Si4 0.215011 0.275353 0.932388
Si Si5 0.238918 0.550015 0.572775
Si Si6 0.911995 0.572161 0.861957
O O1 0.777563 0.480701 0.155920
O O2 0.838049 0.379209 0.514480
O O3 0.000000 0.500000 0.500000
O O4 0.687161 0.952149 0.359354
O O5 0.386618 0.554956 0.449609
O O6 0.238569 0.690559 0.129348
O O7 0.500000 0.000000 0.500000
O O8 0.562078 0.123549 0.300765
O O9 0.500000 0.500000 0.500000
O O10 0.380323 0.389058 0.159212
O O11 0.199069 0.290073 0.749032
O O12 0.052402 0.923166 0.929222
O O13 0.170612 0.447291 0.386041
O O14 0.000000 0.500000 0.000000
#
# Coordination Sequence:
#
# PCOD9013597 Si02
#       6
#     2   2   2   2   2   2
#     4  10  22  40  62  90 125 161 206 255 307 364
#     4  10  21  41  65  90 124 164 206 253 305 363
#     4  12  22  42  65  89 127 164 205 256 304 370
#     4  10  22  40  62  89 125 159 205 252 306 364
#     4   9  21  41  61  88 126 159 204 249 308 359
#     4  11  22  41  64  93 123 160 209 257 304 366
#
# _framework density 21.152014000000001
#
# number of rings (size 3 to 8) (size 9 to 14) (size 15 to 20)
#    1.000    0.667    1.667    4.000    0.000    0.000 
#    6.000    5.833    0.000    0.000    0.000    0.000 
#    0.000    0.000    0.000    0.000    0.000    0.000 
#
# Total GULP energy -66934.408696 kJ/mol
# GULP energy per Si atom -5577.867391 kJ/mol
# Density = 2.110387 g / cm^3
# Si number density = 21.152014 Si / 1000 Ang^3
#
#
#
# Elastic Constant Matrix: (Units=GPa)
#
#
# Indices 1 2 3 4 5 6 
#
# 1 77.5635 16.0645 0.9630 7.9715 27.4219 14.5988
# 2 16.0645 133.2784 1.8334 12.9619 25.3554 19.7891
# 3 0.9630 1.8334 49.8067 8.9896 17.6719 12.9123
# 4 7.9715 12.9619 8.9896 29.1216 0.4289 13.1182
# 5 27.4219 25.3554 17.6719 0.4289 38.3472 7.0721
# 6 14.5988 19.7891 12.9123 13.1182 7.0721 40.8463
#
#
#
# Elastic Compliance Matrix: (Units=1/GPa)
#
#
# Indices 1 2 3 4 5 6 
#
# 1 0.021185 0.002726 0.009463 -0.006841 -0.020091 -0.006208
# 2 0.002726 0.010134 0.005147 -0.004802 -0.010193 -0.004204
# 3 0.009463 0.005147 0.032094 -0.010572 -0.023256 -0.008599
# 4 -0.006841 -0.004802 -0.010572 0.045418 0.014074 -0.008910
# 5 -0.020091 -0.010193 -0.023256 0.014074 0.056801 0.005116
# 6 -0.006208 -0.004204 -0.008599 -0.008910 0.005116 0.033432
#
#
# Mechanical properties :
#
#
# Convention : Reuss Voigt Hill
#
# Bulk Modulus (GPa) = 10.19528 33.15228 21.67378
# Shear Modulus (GPa) = 25.36936 37.78221 31.57578
#
# Velocity S-wave (km/s) = 3.46697 4.23096 3.86787
# Velocity P-wave (km/s) = 4.56694 6.29090 5.49692
#
# Compressibility (1/GPa) = 0.09808465
#
# Stress axis : x y z
#
# Youngs Moduli (GPa) = 47.20285 98.67658 31.15819
#
# Poissons Ratio (x) = -0.26895 -0.29484
# Poissons Ratio (y) = -0.12865 -0.16038
# Poissons Ratio (z) = -0.44666 -0.50792
#
# Static dielectric constant tensor:
#      x y z
#    x 1.808640 -0.005220 -0.012460 
#    y -0.005220 1.764960 0.001150 
#    z -0.012460 0.001150 1.736560 
# 
# From -- ./inp_files/60492.got.cif
#   From: 2010.05.17/outbox.cif.g08.bks.cpg/sg2_31_cif.got.tgz:60492.got - 2010.06.03 11:33:40.
