data_PCOD9013826
_publ_section_title
;
Structure prediction by ZEFSAII (Michael W. Deem and Ramdas Pophale) SiO2 
 PCOD9013826
Probable space group: P -1
;
_chemical_formula_sum "Si O2"
_cell_formula_units_Z 16
_cell_length_a 5.404979
_cell_length_b 17.730094
_cell_length_c 7.877847
_cell_angle_alpha 68.696605
_cell_angle_beta 108.220239
_cell_angle_gamma 92.433734
_cell_volume 665.928279
_symmetry_space_group_name_H-M "P -1"
_symmetry_group_IT_number 2
_symmetry_cell_setting 'triclinic'
loop_
_space_group_symop_operation_xyz
x,y,z
-x,-y,-z
loop_
_atom_site_type_symbol
_atom_site_label
_atom_site_fract_x
_atom_site_fract_y
_atom_site_fract_z
Si Si1 0.368036 0.954985 0.664234
Si Si2 0.603928 0.782247 0.922981
Si Si3 0.918401 0.233648 0.741611
Si Si4 0.916812 0.541224 0.127262
Si Si5 0.137606 0.385123 0.467215
Si Si6 0.606902 0.745602 0.574124
Si Si7 0.094976 0.107317 0.606011
Si Si8 0.552217 0.376800 0.838170
O O1 0.525861 0.877630 0.843508
O O2 0.129998 0.917634 0.547032
O O3 0.500000 0.000000 0.500000
O O4 0.281415 0.024820 0.723513
O O5 0.518480 0.755331 0.739591
O O6 0.464260 0.719608 0.062666
O O7 0.911627 0.770791 0.046578
O O8 0.612000 0.244177 0.626835
O O9 0.010874 0.313276 0.599208
O O10 0.003953 0.150171 0.725952
O O11 0.956595 0.465282 0.327010
O O12 0.154093 0.599881 0.146261
O O13 0.628871 0.583325 0.077082
O O14 0.000000 0.500000 0.000000
O O15 0.234936 0.340639 0.351038
O O16 0.385729 0.405111 0.614209
O O17 0.774675 0.821285 0.520904
#
# Coordination Sequence:
#
# PCOD9013826 Si02
#       8
#     2   2   2   2   2   2   2   2
#     4  11  21  41  68  94 133 174 232 277 352 409
#     4  11  24  43  70  99 133 185 224 288 346 421
#     4  10  23  42  65 101 135 175 233 274 355 407
#     4  12  26  45  71 104 140 183 236 284 347 416
#     4  10  25  42  69  97 134 184 223 288 341 408
#     4  11  22  44  69  96 141 173 230 281 347 412
#     4  10  21  41  65  99 129 181 223 288 345 415
#     4  11  27  45  68 104 140 182 235 284 350 415
#
# _framework density 24.026609000000001
#
# number of rings (size 3 to 8) (size 9 to 14) (size 15 to 20)
#    0.000    1.250    2.500    1.875    7.000    1.500 
#    4.500    2.500    0.000    0.000    0.000    0.000 
#    0.000    0.000    0.000    0.000    0.000    0.000 
#
# Total GULP energy -89383.348950 kJ/mol
# GULP energy per Si atom -5586.459309 kJ/mol
# Density = 2.397192 g / cm^3
# Si number density = 24.026609 Si / 1000 Ang^3
#
#
#
# Elastic Constant Matrix: (Units=GPa)
#
#
# Indices 1 2 3 4 5 6 
#
# 1 73.0670 53.7416 2.9414 -13.8572 13.6589 -11.0255
# 2 53.7416 123.0080 44.0362 -21.0770 7.2034 -15.4236
# 3 2.9414 44.0362 70.1381 -21.0083 9.9841 -20.8991
# 4 -13.8572 -21.0770 -21.0083 48.9764 -10.6058 6.9904
# 5 13.6589 7.2034 9.9841 -10.6058 18.1110 5.8101
# 6 -11.0255 -15.4236 -20.8991 6.9904 5.8101 48.7423
#
#
#
# Elastic Compliance Matrix: (Units=1/GPa)
#
#
# Indices 1 2 3 4 5 6 
#
# 1 0.035083 -0.018332 0.019445 0.000980 -0.033926 0.014376
# 2 -0.018332 0.020241 -0.016107 0.001451 0.017741 -0.006971
# 3 0.019445 -0.016107 0.034150 0.004315 -0.029979 0.016899
# 4 0.000980 0.001451 0.004315 0.026285 0.012576 -0.002738
# 5 -0.033926 0.017741 -0.029979 0.012576 0.107095 -0.029484
# 6 0.014376 -0.006971 0.016899 -0.002738 -0.029484 0.032715
#
#
# Mechanical properties :
#
#
# Convention : Reuss Voigt Hill
#
# Bulk Modulus (GPa) = 16.81080 51.96128 34.38604
# Shear Modulus (GPa) = 16.37275 34.19885 25.28580
#
# Velocity S-wave (km/s) = 2.61328 3.77686 3.24760
# Velocity P-wave (km/s) = 4.01467 6.37911 5.32966
#
# Compressibility (1/GPa) = 0.05948557
#
# Stress axis : x y z
#
# Youngs Moduli (GPa) = 28.50347 49.40569 29.28251
#
# Poissons Ratio (x) = 0.90569 -0.56938
# Poissons Ratio (y) = 0.52252 0.47165
# Poissons Ratio (z) = -0.55424 0.79578
#
# Static dielectric constant tensor:
#      x y z
#    x 1.998170 -0.080180 0.016160 
#    y -0.080180 1.980870 0.020740 
#    z 0.016160 0.020740 1.922600 
# 
# From -- ./inp_files/46757.got.cif
#   From: 2010.05.17/outbox.cif.g08.bks.cpg/sg2_24_cif.got.tgz:46757.got - 2010.06.03 11:33:40.
