data_PCOD9013230
_publ_section_title
;
Structure prediction by ZEFSAII (Michael W. Deem and Ramdas Pophale) SiO2 
 PCOD9013230
Probable space group: P -1
;
_chemical_formula_sum "Si O2"
_cell_formula_units_Z 16
_cell_length_a 5.555290
_cell_length_b 15.902317
_cell_length_c 8.944303
_cell_angle_alpha 91.816860
_cell_angle_beta 115.057461
_cell_angle_gamma 114.769900
_cell_volume 628.573940
_symmetry_space_group_name_H-M "P -1"
_symmetry_group_IT_number 2
_symmetry_cell_setting 'triclinic'
loop_
_space_group_symop_operation_xyz
x,y,z
-x,-y,-z
loop_
_atom_site_type_symbol
_atom_site_label
_atom_site_fract_x
_atom_site_fract_y
_atom_site_fract_z
Si Si1 0.739638 0.732409 0.789549
Si Si2 0.799886 0.633294 0.231860
Si Si3 0.095711 0.831554 0.186026
Si Si4 0.228061 0.061686 0.933091
Si Si5 0.738732 0.195398 0.296170
Si Si6 0.153602 0.441650 0.453248
Si Si7 0.259938 0.984942 0.641476
Si Si8 0.686042 0.426582 0.119304
O O1 0.463642 0.757286 0.691952
O O2 0.572205 0.629427 0.824822
O O3 0.931109 0.745377 0.691322
O O4 0.970614 0.800642 0.981699
O O5 0.842084 0.626398 0.417638
O O6 0.802167 0.539863 0.156687
O O7 0.047466 0.735386 0.245095
O O8 0.477577 0.618817 0.082561
O O9 0.422563 0.921020 0.293705
O O10 0.876227 0.872770 0.185068
O O11 0.225465 0.986418 0.811453
O O12 0.525927 0.135880 0.098180
O O13 0.000000 0.000000 0.000000
O O14 0.741687 0.114431 0.400628
O O15 0.500000 0.500000 0.500000
O O16 0.000000 0.500000 0.500000
O O17 0.956370 0.409271 0.247444
O O18 0.000000 0.000000 0.500000
#
# Coordination Sequence:
#
# PCOD9013230 Si02
#       8
#     2   2   2   2   2   2   2   2
#     4  10  22  39  70  96 129 171 236 279 324 412
#     4   9  20  42  68  99 137 179 225 291 340 413
#     4  10  21  41  63  97 134 175 224 278 346 406
#     4  11  21  42  69  90 130 183 233 279 339 418
#     4  11  22  41  66  96 126 181 224 276 338 402
#     4  10  22  42  66  96 131 178 225 277 341 403
#     4  12  25  40  62  98 137 174 223 286 351 415
#     4   9  20  42  69 101 135 180 231 279 347 409
#
# _framework density 25.454443000000001
#
# number of rings (size 3 to 8) (size 9 to 14) (size 15 to 20)
#    0.000    1.750    2.500    1.875    0.000    4.000 
#    6.750    3.750    0.000    0.000    0.000    0.000 
#    0.000    0.000    0.000    0.000    0.000    0.000 
#
# Total GULP energy -89429.113172 kJ/mol
# GULP energy per Si atom -5589.319573 kJ/mol
# Density = 2.539651 g / cm^3
# Si number density = 25.454443 Si / 1000 Ang^3
#
#
#
# Elastic Constant Matrix: (Units=GPa)
#
#
# Indices 1 2 3 4 5 6 
#
# 1 120.6028 56.3582 37.4517 -10.6950 13.6910 5.2209
# 2 56.3582 190.2874 29.7759 -28.9061 20.5282 5.0300
# 3 37.4517 29.7759 160.8324 -25.5480 26.7391 2.5073
# 4 -10.6950 -28.9061 -25.5480 34.9894 -3.1073 -1.0502
# 5 13.6910 20.5282 26.7391 -3.1073 44.5156 6.3080
# 6 5.2209 5.0300 2.5073 -1.0502 6.3080 36.0046
#
#
#
# Elastic Compliance Matrix: (Units=1/GPa)
#
#
# Indices 1 2 3 4 5 6 
#
# 1 0.010199 -0.002720 -0.001829 -0.000554 -0.000699 -0.000865
# 2 -0.002720 0.007014 0.000546 0.005150 -0.002358 -0.000060
# 3 -0.001829 0.000546 0.008107 0.005449 -0.004253 0.000529
# 4 -0.000554 0.005150 0.005449 0.036394 -0.003019 0.000572
# 5 -0.000699 -0.002358 -0.004253 -0.003019 0.026682 -0.004036
# 6 -0.000865 -0.000060 0.000529 0.000572 -0.004036 0.028595
#
#
# Mechanical properties :
#
#
# Convention : Reuss Voigt Hill
#
# Bulk Modulus (GPa) = 57.76259 79.87713 68.81986
# Shear Modulus (GPa) = 38.23547 46.31106 42.27326
#
# Velocity S-wave (km/s) = 3.87992 4.27004 4.07964
# Velocity P-wave (km/s) = 6.54320 7.46723 7.02043
#
# Compressibility (1/GPa) = 0.01731224
#
# Stress axis : x y z
#
# Youngs Moduli (GPa) = 98.05209 142.57801 123.34829
#
# Poissons Ratio (x) = 0.38783 0.22566
# Poissons Ratio (y) = 0.26671 -0.06734
# Poissons Ratio (z) = 0.17938 -0.07784
#
# Static dielectric constant tensor:
#      x y z
#    x 2.085510 -0.066130 -0.011610 
#    y -0.066130 2.102560 0.015780 
#    z -0.011610 0.015780 2.027760 
# 
# From -- ./inp_files/369001.got.cif
#   From: 2010.05.17/outbox.cif.g08.bks.cpg/sg2_185_cif.got.tgz:369001.got - 2010.06.03 11:33:40.
