data_PCOD9013112
_publ_section_title
;
Structure prediction by ZEFSAII (Michael W. Deem and Ramdas Pophale) SiO2 
 PCOD9013112
Probable space group: P -1
;
_chemical_formula_sum "Si O2"
_cell_formula_units_Z 16
_cell_length_a 5.691119
_cell_length_b 11.851610
_cell_length_c 25.946103
_cell_angle_alpha 31.036562
_cell_angle_beta 121.197214
_cell_angle_gamma 129.811338
_cell_volume 691.028271
_symmetry_space_group_name_H-M "P -1"
_symmetry_group_IT_number 2
_symmetry_cell_setting 'triclinic'
loop_
_space_group_symop_operation_xyz
x,y,z
-x,-y,-z
loop_
_atom_site_type_symbol
_atom_site_label
_atom_site_fract_x
_atom_site_fract_y
_atom_site_fract_z
Si Si1 0.916760 0.928917 0.959767
Si Si2 0.309821 0.789626 0.688688
Si Si3 0.930215 0.878402 0.766307
Si Si4 0.823426 0.634300 0.358407
Si Si5 0.743084 0.580538 0.249601
Si Si6 0.545399 0.292212 0.555216
Si Si7 0.110170 0.535143 0.145895
Si Si8 0.677300 0.506266 0.965331
O O1 0.563548 0.737665 0.993988
O O2 0.995244 0.161219 0.841837
O O3 0.105203 0.774832 0.027660
O O4 0.000000 0.000000 0.000000
O O5 0.677989 0.894173 0.693396
O O6 0.217145 0.652955 0.676656
O O7 0.130000 0.566675 0.794585
O O8 0.273607 0.022986 0.616130
O O9 0.007201 0.678799 0.825835
O O10 0.744831 0.753470 0.845783
O O11 0.210117 0.133340 0.712852
O O12 0.729050 0.580425 0.309732
O O13 0.663361 0.407023 0.467240
O O14 0.186472 0.724946 0.373736
O O15 0.435846 0.572644 0.191121
O O16 0.500000 0.500000 0.500000
O O17 0.500000 0.500000 0.000000
O O18 0.000000 0.500000 0.000000
#
# Coordination Sequence:
#
# PCOD9013112 Si02
#       8
#     2   2   2   2   2   2   2   2
#     4  12  23  44  67  98 145 191 238 281 346 431
#     4  10  21  41  66  92 130 172 229 280 347 424
#     4  10  21  41  63  90 129 180 226 283 344 421
#     4  10  23  42  65  98 131 166 230 292 354 425
#     4  11  24  41  65 103 135 179 228 291 345 418
#     4  10  22  44  70  92 125 176 223 286 366 435
#     4  11  21  41  68  93 134 191 234 274 348 421
#     4  12  26  43  65 103 143 191 243 303 354 414
#
# _framework density 23.153901999999999
#
# number of rings (size 3 to 8) (size 9 to 14) (size 15 to 20)
#    0.000    1.250    2.500    3.375    0.000    4.500 
#    2.250    1.250    0.000    0.000    0.000    0.000 
#    0.000    0.000    0.000    0.000    0.000    0.000 
#
# Total GULP energy -89318.363875 kJ/mol
# GULP energy per Si atom -5582.397742 kJ/mol
# Density = 2.310120 g / cm^3
# Si number density = 23.153902 Si / 1000 Ang^3
#
#
#
# Elastic Constant Matrix: (Units=GPa)
#
#
# Indices 1 2 3 4 5 6 
#
# 1 60.9093 31.1648 16.8480 2.4688 4.5367 -9.6672
# 2 31.1648 117.0410 50.7277 -10.5264 2.1494 -19.6080
# 3 16.8480 50.7277 100.2518 -13.6087 -7.3173 -11.0243
# 4 2.4688 -10.5264 -13.6087 38.4040 -11.2879 0.1790
# 5 4.5367 2.1494 -7.3173 -11.2879 36.0942 -5.2143
# 6 -9.6672 -19.6080 -11.0243 0.1790 -5.2143 46.7904
#
#
#
# Elastic Compliance Matrix: (Units=1/GPa)
#
#
# Indices 1 2 3 4 5 6 
#
# 1 0.019936 -0.004661 -0.001688 -0.004252 -0.003702 0.001371
# 2 -0.004661 0.012666 -0.005027 0.001938 -0.000128 0.003139
# 3 -0.001688 -0.005027 0.014047 0.005230 0.005199 0.001414
# 4 -0.004252 0.001938 0.005230 0.032179 0.011885 0.002367
# 5 -0.003702 -0.000128 0.005199 0.011885 0.033541 0.004099
# 6 0.001371 0.003139 0.001414 0.002367 0.004099 0.023751
#
#
# Mechanical properties :
#
#
# Convention : Reuss Voigt Hill
#
# Bulk Modulus (GPa) = 41.84787 52.85366 47.35076
# Shear Modulus (GPa) = 29.96899 36.22183 33.09541
#
# Velocity S-wave (km/s) = 3.60160 3.95953 3.78480
# Velocity P-wave (km/s) = 5.95049 6.61669 6.29241
#
# Compressibility (1/GPa) = 0.02389608
#
# Stress axis : x y z
#
# Youngs Moduli (GPa) = 50.16165 78.94847 71.18867
#
# Poissons Ratio (x) = 0.36800 0.12019
# Poissons Ratio (y) = 0.23381 0.35787
# Poissons Ratio (z) = 0.08469 0.39688
#
# Static dielectric constant tensor:
#      x y z
#    x 1.931840 -0.040880 0.082620 
#    y -0.040880 1.911030 -0.029290 
#    z 0.082620 -0.029290 1.941380 
# 
# From -- ./inp_files/615498.got.cif
#   From: 2010.05.17/outbox.cif.g08.bks.cpg/sg2_308_cif.got.tgz:615498.got - 2010.06.03 11:33:40.
