data_PCOD9013176
_publ_section_title
;
Structure prediction by ZEFSAII (Michael W. Deem and Ramdas Pophale) SiO2 
 PCOD9013176
Probable space group: P -1
;
_chemical_formula_sum "Si O2"
_cell_formula_units_Z 16
_cell_length_a 18.510432
_cell_length_b 21.721687
_cell_length_c 8.412227
_cell_angle_alpha 46.034132
_cell_angle_beta 33.274667
_cell_angle_gamma 23.898453
_cell_volume 713.379771
_symmetry_space_group_name_H-M "P -1"
_symmetry_group_IT_number 2
_symmetry_cell_setting 'triclinic'
loop_
_space_group_symop_operation_xyz
x,y,z
-x,-y,-z
loop_
_atom_site_type_symbol
_atom_site_label
_atom_site_fract_x
_atom_site_fract_y
_atom_site_fract_z
Si Si1 0.717475 0.518300 0.299517
Si Si2 0.515656 0.758607 0.666779
Si Si3 0.203169 0.242150 0.730577
Si Si4 0.461814 0.091411 0.195093
Si Si5 0.665034 0.486976 0.791157
Si Si6 0.853223 0.994046 0.822458
Si Si7 0.708802 0.357894 0.243587
Si Si8 0.742682 0.678409 0.079296
O O1 0.801824 0.443236 0.456946
O O2 0.444347 0.633714 0.574685
O O3 0.699266 0.629320 0.117324
O O4 0.924234 0.375576 0.051672
O O5 0.739424 0.689612 0.459685
O O6 0.540536 0.642926 0.806924
O O7 0.534396 0.783217 0.409251
O O8 0.289327 0.907972 0.926377
O O9 0.280876 0.182335 0.515448
O O10 0.384262 0.081297 0.788758
O O11 0.300351 0.209059 0.131152
O O12 0.659420 0.057236 0.943056
O O13 0.500000 0.500000 0.000000
O O14 0.776727 0.385913 0.927455
O O15 0.054912 0.810623 0.807608
O O16 0.000000 0.000000 0.500000
O O17 0.500000 0.500000 0.500000
O O18 0.000000 0.500000 0.000000
#
# Coordination Sequence:
#
# PCOD9013176 Si02
#       8
#     2   2   2   2   2   2   2   2
#     4  10  21  41  63  94 128 165 219 267 330 383
#     4  10  22  42  64  95 129 170 220 262 338 392
#     4  10  21  43  62  96 130 172 211 271 334 387
#     4  10  24  42  63  93 137 166 219 270 330 396
#     4   9  21  40  62  92 129 165 218 273 318 392
#     4  11  23  43  64  94 132 176 219 271 328 389
#     4  11  22  40  66  96 127 173 226 266 327 389
#     4  11  22  43  63  97 127 171 218 268 330 389
#
# _framework density 22.428445
#
# number of rings (size 3 to 8) (size 9 to 14) (size 15 to 20)
#    0.000    1.750    1.250    2.250    0.000    4.000 
#   20.250   10.000    0.000    0.000    0.000    0.000 
#    0.000    0.000    0.000    0.000    0.000    0.000 
#
# Total GULP energy -89178.398509 kJ/mol
# GULP energy per Si atom -5573.649907 kJ/mol
# Density = 2.237740 g / cm^3
# Si number density = 22.428445 Si / 1000 Ang^3
#
#
#
# Elastic Constant Matrix: (Units=GPa)
#
#
# Indices 1 2 3 4 5 6 
#
# 1 61.2208 43.8581 13.6525 2.4659 -16.9913 4.3066
# 2 43.8581 97.7172 41.1327 -6.9356 -2.7839 -14.8394
# 3 13.6525 41.1327 108.3527 8.8527 -1.4408 -4.1231
# 4 2.4659 -6.9356 8.8527 36.8527 6.1238 4.1546
# 5 -16.9913 -2.7839 -1.4408 6.1238 32.6060 -4.9777
# 6 4.3066 -14.8394 -4.1231 4.1546 -4.9777 44.5749
#
#
#
# Elastic Compliance Matrix: (Units=1/GPa)
#
#
# Indices 1 2 3 4 5 6 
#
# 1 0.033500 -0.017353 0.003039 -0.008334 0.016746 -0.006086
# 2 -0.017353 0.022190 -0.006689 0.007464 -0.007796 0.006879
# 3 0.003039 -0.006689 0.011762 -0.004581 0.002278 -0.000751
# 4 -0.008334 0.007464 -0.004581 0.032019 -0.010112 -0.001247
# 5 0.016746 -0.007796 0.002278 -0.010112 0.040961 0.001514
# 6 -0.006086 0.006879 -0.000751 -0.001247 0.001514 0.025528
#
#
# Mechanical properties :
#
#
# Convention : Reuss Voigt Hill
#
# Bulk Modulus (GPa) = 39.30164 51.61970 45.46067
# Shear Modulus (GPa) = 23.10015 34.04987 28.57501
#
# Velocity S-wave (km/s) = 3.21276 3.90058 3.57326
# Velocity P-wave (km/s) = 5.59675 6.58417 6.11044
#
# Compressibility (1/GPa) = 0.02544423
#
# Stress axis : x y z
#
# Youngs Moduli (GPa) = 29.85075 45.06481 85.02287
#
# Poissons Ratio (x) = 0.78203 -0.25835
# Poissons Ratio (y) = 0.51801 0.56872
# Poissons Ratio (z) = -0.09071 0.30144
#
# Static dielectric constant tensor:
#      x y z
#    x 1.943490 0.001630 -0.059490 
#    y 0.001630 1.809350 -0.031320 
#    z -0.059490 -0.031320 1.873280 
# 
# From -- ./inp_files/327603.got.cif
#   From: 2010.05.17/outbox.cif.g08.bks.cpg/sg2_164_cif.got.tgz:327603.got - 2010.06.03 11:33:40.
