data_PCOD9013959
_publ_section_title
;
Structure prediction by ZEFSAII (Michael W. Deem and Ramdas Pophale) SiO2 
 PCOD9013959
Probable space group: P -1
;
_chemical_formula_sum "Si O2"
_cell_formula_units_Z 16
_cell_length_a 12.265416
_cell_length_b 11.845205
_cell_length_c 10.255264
_cell_angle_alpha 139.020028
_cell_angle_beta 115.696215
_cell_angle_gamma 44.819236
_cell_volume 671.787960
_symmetry_space_group_name_H-M "P -1"
_symmetry_group_IT_number 2
_symmetry_cell_setting 'triclinic'
loop_
_space_group_symop_operation_xyz
x,y,z
-x,-y,-z
loop_
_atom_site_type_symbol
_atom_site_label
_atom_site_fract_x
_atom_site_fract_y
_atom_site_fract_z
Si Si1 0.551415 0.166452 0.315477
Si Si2 0.122107 0.742208 0.186147
Si Si3 0.071509 0.841801 0.709437
Si Si4 0.154312 0.101799 0.146858
Si Si5 0.908270 0.535149 0.271273
Si Si6 0.881632 0.758546 0.209564
Si Si7 0.335308 0.541169 0.363992
Si Si8 0.384332 0.114431 0.412232
O O1 0.740264 0.406934 0.770801
O O2 0.452537 0.275302 0.226557
O O3 0.590655 0.334452 0.498394
O O4 0.456010 0.174065 0.392854
O O5 0.963973 0.855115 0.288277
O O6 0.081622 0.947952 0.265516
O O7 0.139944 0.579348 0.945293
O O8 0.987426 0.797787 0.733620
O O9 0.203741 0.658411 0.514923
O O10 0.148736 0.935311 0.908767
O O11 0.322340 0.994654 0.206134
O O12 0.086787 0.324986 0.222069
O O13 0.878761 0.729559 0.336359
O O14 0.782852 0.658862 0.427990
O O15 0.714795 0.912017 0.185037
O O16 0.000000 0.500000 0.000000
O O17 0.500000 0.000000 0.500000
#
# Coordination Sequence:
#
# PCOD9013959 Si02
#       8
#     2   2   2   2   2   2   2   2
#     4  11  25  44  61 100 139 174 224 269 352 409
#     4  10  22  39  70  97 126 177 234 280 322 396
#     4  10  21  43  70  98 133 175 242 274 327 395
#     4  10  24  41  70  98 130 181 228 282 326 405
#     4  10  22  43  63  98 130 173 233 273 339 396
#     4  10  21  41  66  92 130 171 223 283 325 401
#     4  11  24  42  68  98 137 180 221 285 335 398
#     4  12  25  42  65  97 140 177 217 280 346 406
#
# _framework density 23.817038
#
# number of rings (size 3 to 8) (size 9 to 14) (size 15 to 20)
#    0.000    1.500    2.500    1.500    5.250    0.000 
#    4.500    3.750    0.000    0.000    0.000    0.000 
#    0.000    0.000    0.000    0.000    0.000    0.000 
#
# Total GULP energy -89364.545274 kJ/mol
# GULP energy per Si atom -5585.284080 kJ/mol
# Density = 2.376283 g / cm^3
# Si number density = 23.817038 Si / 1000 Ang^3
#
#
#
# Elastic Constant Matrix: (Units=GPa)
#
#
# Indices 1 2 3 4 5 6 
#
# 1 85.2483 21.0625 21.9724 3.9189 3.9085 10.8916
# 2 21.0625 181.3878 42.1633 -12.0559 14.9678 5.4239
# 3 21.9724 42.1633 81.3787 -13.3801 9.8211 -3.4402
# 4 3.9189 -12.0559 -13.3801 37.3444 -3.1904 6.4143
# 5 3.9085 14.9678 9.8211 -3.1904 20.6379 -3.0647
# 6 10.8916 5.4239 -3.4402 6.4143 -3.0647 26.5048
#
#
#
# Elastic Compliance Matrix: (Units=1/GPa)
#
#
# Indices 1 2 3 4 5 6 
#
# 1 0.013753 -0.000549 -0.003835 -0.002149 -0.001559 -0.005697
# 2 -0.000549 0.006663 -0.002756 0.001300 -0.003545 -0.002220
# 3 -0.003835 -0.002756 0.016064 0.004478 -0.003826 0.002699
# 4 -0.002149 0.001300 0.004478 0.030147 0.001108 -0.005969
# 5 -0.001559 -0.003545 -0.003826 0.001108 0.054336 0.006884
# 6 -0.005697 -0.002220 0.002699 -0.005969 0.006884 0.043115
#
#
# Mechanical properties :
#
#
# Convention : Reuss Voigt Hill
#
# Bulk Modulus (GPa) = 45.04706 57.60124 51.32415
# Shear Modulus (GPa) = 26.91695 34.41853 30.66774
#
# Velocity S-wave (km/s) = 3.36543 3.80560 3.59226
# Velocity P-wave (km/s) = 5.83578 6.59905 6.22912
#
# Compressibility (1/GPa) = 0.02219901
#
# Stress axis : x y z
#
# Youngs Moduli (GPa) = 72.71313 150.08720 62.25271
#
# Poissons Ratio (x) = 0.08246 0.23871
# Poissons Ratio (y) = 0.03995 0.17157
# Poissons Ratio (z) = 0.27882 0.41364
#
# Static dielectric constant tensor:
#      x y z
#    x 1.954970 -0.007940 0.041190 
#    y -0.007940 2.053020 -0.057570 
#    z 0.041190 -0.057570 2.021840 
# 
# From -- ./inp_files/427009.got.cif
#   From: 2010.05.17/outbox.cif.g08.bks.cpg/sg2_214_cif.got.tgz:427009.got - 2010.06.03 11:33:40.
