data_PCOD9013667
_publ_section_title
;
Structure prediction by ZEFSAII (Michael W. Deem and Ramdas Pophale) SiO2 
 PCOD9013667
Probable space group: P -1
;
_chemical_formula_sum "Si O2"
_cell_formula_units_Z 16
_cell_length_a 15.705657
_cell_length_b 8.294756
_cell_length_c 9.430501
_cell_angle_alpha 114.016605
_cell_angle_beta 142.980589
_cell_angle_gamma 84.320978
_cell_volume 615.968409
_symmetry_space_group_name_H-M "P -1"
_symmetry_group_IT_number 2
_symmetry_cell_setting 'triclinic'
loop_
_space_group_symop_operation_xyz
x,y,z
-x,-y,-z
loop_
_atom_site_type_symbol
_atom_site_label
_atom_site_fract_x
_atom_site_fract_y
_atom_site_fract_z
Si Si1 0.709314 0.104859 0.467015
Si Si2 0.023402 0.334415 0.065399
Si Si3 0.499449 0.125845 0.412224
Si Si4 0.286893 0.713785 0.907553
Si Si5 0.016447 0.771153 0.694696
Si Si6 0.463585 0.712114 0.896565
Si Si7 0.285069 0.390233 0.951117
Si Si8 0.766758 0.770387 0.867328
O O1 0.886453 0.148773 0.743969
O O2 0.659915 0.192434 0.569999
O O3 0.649128 0.204992 0.301194
O O4 0.608101 0.880091 0.228536
O O5 0.186726 0.336354 0.234862
O O6 0.003586 0.315626 0.202317
O O7 0.000000 0.500000 0.000000
O O8 0.500000 0.000000 0.500000
O O9 0.410190 0.256762 0.373064
O O10 0.381072 0.944728 0.091494
O O11 0.112585 0.690616 0.687548
O O12 0.349533 0.605630 0.835963
O O13 0.314966 0.614429 0.051525
O O14 0.853553 0.724277 0.385052
O O15 0.126990 0.000825 0.931054
O O16 0.556556 0.634023 0.885103
O O17 0.216396 0.308131 0.984137
#
# Coordination Sequence:
#
# PCOD9013667 Si02
#       8
#     2   2   2   2   2   2   2   2
#     4  10  21  41  65  92 132 166 226 261 325 398
#     4  12  27  45  67 100 135 176 219 279 336 389
#     4  10  21  43  67  91 128 179 217 271 327 400
#     4  10  23  39  64  96 133 166 219 269 339 373
#     4  11  25  43  66  94 134 180 218 269 330 398
#     4  10  22  39  67  97 125 177 212 273 323 391
#     4  12  23  41  65 104 131 167 224 277 327 393
#     4  11  24  43  67  96 130 177 231 260 331 398
#
# _framework density 25.975358
#
# number of rings (size 3 to 8) (size 9 to 14) (size 15 to 20)
#    0.000    1.250    1.250    4.500    5.250    2.000 
#    2.250    1.250    0.000    0.000    0.000    0.000 
#    0.000    0.000    0.000    0.000    0.000    0.000 
#
# Total GULP energy -89368.115882 kJ/mol
# GULP energy per Si atom -5585.507243 kJ/mol
# Density = 2.591624 g / cm^3
# Si number density = 25.975358 Si / 1000 Ang^3
#
#
#
# Elastic Constant Matrix: (Units=GPa)
#
#
# Indices 1 2 3 4 5 6 
#
# 1 155.0429 39.1167 24.3073 -13.3691 -2.1457 2.4265
# 2 39.1167 69.4542 -0.2752 2.4466 -3.8053 16.5735
# 3 24.3073 -0.2752 77.9150 -8.0112 -2.9586 -0.3047
# 4 -13.3691 2.4466 -8.0112 38.8769 0.9529 -7.5848
# 5 -2.1457 -3.8053 -2.9586 0.9529 42.7875 -17.6855
# 6 2.4265 16.5735 -0.3047 -7.5848 -17.6855 48.4702
#
#
#
# Elastic Compliance Matrix: (Units=1/GPa)
#
#
# Indices 1 2 3 4 5 6 
#
# 1 0.008395 -0.005314 -0.002284 0.003144 0.000583 0.002087
# 2 -0.005314 0.019255 0.001206 -0.004220 -0.001481 -0.007511
# 3 -0.002284 0.001206 0.013807 0.002057 0.001116 0.000518
# 4 0.003144 -0.004220 0.002057 0.028715 0.001977 0.006513
# 5 0.000583 -0.001481 0.001116 0.001977 0.027827 0.010947
# 6 0.002087 -0.007511 0.000518 0.006513 0.010947 0.028112
#
#
# Mechanical properties :
#
#
# Convention : Reuss Voigt Hill
#
# Bulk Modulus (GPa) = 34.87483 47.63441 41.25462
# Shear Modulus (GPa) = 33.68064 41.97780 37.82922
#
# Velocity S-wave (km/s) = 3.60479 4.02439 3.82036
# Velocity P-wave (km/s) = 5.54809 6.32237 5.94784
#
# Compressibility (1/GPa) = 0.02867398
#
# Stress axis : x y z
#
# Youngs Moduli (GPa) = 119.11690 51.93339 72.42536
#
# Poissons Ratio (x) = 0.27597 0.16544
# Poissons Ratio (y) = 0.63299 -0.08737
# Poissons Ratio (z) = 0.27210 -0.06265
#
# Static dielectric constant tensor:
#      x y z
#    x 1.895400 -0.129870 0.009260 
#    y -0.129870 2.050510 0.154780 
#    z 0.009260 0.154780 2.087100 
# 
# From -- ./inp_files/299016.got.cif
#   From: 2010.05.17/outbox.cif.g08.bks.cpg/sg2_150_cif.got.tgz:299016.got - 2010.06.03 11:33:40.
