data_PCOD9013208
_publ_section_title
;
Structure prediction by ZEFSAII (Michael W. Deem and Ramdas Pophale) SiO2 
 PCOD9013208
Probable space group: P -1
;
_chemical_formula_sum "Si O2"
_cell_formula_units_Z 16
_cell_length_a 5.371538
_cell_length_b 12.617088
_cell_length_c 15.080814
_cell_angle_alpha 41.422239
_cell_angle_beta 104.372645
_cell_angle_gamma 114.375149
_cell_volume 612.743208
_symmetry_space_group_name_H-M "P -1"
_symmetry_group_IT_number 2
_symmetry_cell_setting 'triclinic'
loop_
_space_group_symop_operation_xyz
x,y,z
-x,-y,-z
loop_
_atom_site_type_symbol
_atom_site_label
_atom_site_fract_x
_atom_site_fract_y
_atom_site_fract_z
Si Si1 0.105186 0.015786 0.852527
Si Si2 0.942242 0.009677 0.334632
Si Si3 0.393521 0.714229 0.481202
Si Si4 0.666065 0.463923 0.736201
Si Si5 0.346199 0.330402 0.964357
Si Si6 0.747407 0.210710 0.769057
Si Si7 0.528682 0.712319 0.812959
Si Si8 0.156042 0.771656 0.607999
O O1 0.022761 0.054005 0.721676
O O2 0.960920 0.112093 0.843756
O O3 0.434208 0.082550 0.841437
O O4 0.956181 0.812269 0.975936
O O5 0.070814 0.927255 0.472895
O O6 0.619989 0.907402 0.381437
O O7 0.141107 0.207675 0.224371
O O8 0.524790 0.565634 0.595975
O O9 0.250149 0.702273 0.381470
O O10 0.237793 0.704015 0.565866
O O11 0.469855 0.350119 0.865441
O O12 0.796151 0.354462 0.757063
O O13 0.890562 0.616168 0.713070
O O14 0.385325 0.518782 0.886790
O O15 0.505323 0.270505 0.095246
O O16 0.384475 0.812848 0.676730
#
# Coordination Sequence:
#
# PCOD9013208 Si02
#       8
#     2   2   2   2   2   2   2   2
#     4  10  23  43  68  98 133 173 220 272 322 390
#     4   9  20  40  62  98 130 165 215 266 328 394
#     4  10  21  41  63  95 135 163 208 275 323 394
#     4  11  25  40  63  96 129 170 217 269 323 397
#     4  10  23  44  62  93 130 168 223 271 322 390
#     4  11  24  43  71  98 131 176 217 270 336 383
#     4  10  21  41  67  88 129 172 216 270 332 385
#     4  11  21  38  65  94 129 165 216 269 327 390
#
# _framework density 26.112081
#
# number of rings (size 3 to 8) (size 9 to 14) (size 15 to 20)
#    0.000    1.750    2.500    0.750    1.750    3.500 
#    2.250    2.500    0.000    0.000    0.000    0.000 
#    0.000    0.000    0.000    0.000    0.000    0.000 
#
# Total GULP energy -89534.063141 kJ/mol
# GULP energy per Si atom -5595.878946 kJ/mol
# Density = 2.605265 g / cm^3
# Si number density = 26.112081 Si / 1000 Ang^3
#
#
#
# Elastic Constant Matrix: (Units=GPa)
#
#
# Indices 1 2 3 4 5 6 
#
# 1 54.1243 18.5604 35.2622 6.0021 -15.9933 -6.4925
# 2 18.5604 112.5508 62.7368 2.4805 -7.2701 -21.4226
# 3 35.2622 62.7368 114.8716 10.3891 -14.9665 10.7539
# 4 6.0021 2.4805 10.3891 42.8806 21.1716 -3.5329
# 5 -15.9933 -7.2701 -14.9665 21.1716 42.7561 -1.7104
# 6 -6.4925 -21.4226 10.7539 -3.5329 -1.7104 38.3392
#
#
#
# Elastic Compliance Matrix: (Units=1/GPa)
#
#
# Indices 1 2 3 4 5 6 
#
# 1 0.028796 0.002938 -0.009062 -0.007206 0.012025 0.008933
# 2 0.002938 0.017938 -0.012525 0.003437 -0.001365 0.014290
# 3 -0.009062 -0.012525 0.020866 -0.006445 0.004384 -0.014784
# 4 -0.007206 0.003437 -0.006445 0.037269 -0.022624 0.004933
# 5 0.012025 -0.001365 0.004384 -0.022624 0.040382 -0.000240
# 6 0.008933 0.014290 -0.014784 0.004933 -0.000240 0.040171
#
#
# Mechanical properties :
#
#
# Convention : Reuss Voigt Hill
#
# Bulk Modulus (GPa) = 33.00112 57.18508 45.09310
# Shear Modulus (GPa) = 21.47573 35.79435 28.63504
#
# Velocity S-wave (km/s) = 2.87094 3.70644 3.31512
# Velocity P-wave (km/s) = 4.86368 6.34542 5.65331
#
# Compressibility (1/GPa) = 0.03030200
#
# Stress axis : x y z
#
# Youngs Moduli (GPa) = 34.72678 55.74779 47.92467
#
# Poissons Ratio (x) = -0.16381 0.43431
# Poissons Ratio (y) = -0.10204 0.60027
# Poissons Ratio (z) = 0.31470 0.69826
#
# Static dielectric constant tensor:
#      x y z
#    x 2.082610 -0.021200 0.022580 
#    y -0.021200 1.976470 -0.009580 
#    z 0.022580 -0.009580 2.057140 
# 
# From -- ./inp_files/77918.got.cif
#   From: 2010.05.17/outbox.cif.g08.bks.cpg/sg2_39_cif.got.tgz:77918.got - 2010.06.03 11:33:40.
