data_PCOD9013911
_publ_section_title
;
Structure prediction by ZEFSAII (Michael W. Deem and Ramdas Pophale) SiO2 
 PCOD9013911
Probable space group: P -1
;
_chemical_formula_sum "Si O2"
_cell_formula_units_Z 16
_cell_length_a 15.269350
_cell_length_b 7.987881
_cell_length_c 8.067828
_cell_angle_alpha 74.416864
_cell_angle_beta 83.073848
_cell_angle_gamma 44.751574
_cell_volume 663.742002
_symmetry_space_group_name_H-M "P -1"
_symmetry_group_IT_number 2
_symmetry_cell_setting 'triclinic'
loop_
_space_group_symop_operation_xyz
x,y,z
-x,-y,-z
loop_
_atom_site_type_symbol
_atom_site_label
_atom_site_fract_x
_atom_site_fract_y
_atom_site_fract_z
Si Si1 0.143919 0.090080 0.891232
Si Si2 0.409522 0.582433 0.848795
Si Si3 0.805109 0.671164 0.390804
Si Si4 0.582755 0.160243 0.514625
Si Si5 0.199745 0.163662 0.215947
Si Si6 0.659996 0.582889 0.317784
Si Si7 0.123756 0.914099 0.414878
Si Si8 0.108555 0.654239 0.237073
O O1 0.120577 0.276668 0.716126
O O2 0.023199 0.141843 0.877383
O O3 0.271465 0.824305 0.876540
O O4 0.166417 0.154201 0.041476
O O5 0.442194 0.643984 0.656314
O O6 0.399743 0.397097 0.844151
O O7 0.500000 0.500000 0.000000
O O8 0.742254 0.639496 0.273981
O O9 0.885057 0.448074 0.558089
O O10 0.684421 0.907886 0.456391
O O11 0.452696 0.252106 0.567886
O O12 0.660333 0.079819 0.688970
O O13 0.177117 0.402273 0.184704
O O14 0.119580 0.129104 0.345277
O O15 0.759381 0.302348 0.438658
O O16 0.150161 0.788120 0.259573
O O17 0.000000 0.000000 0.500000
#
# Coordination Sequence:
#
# PCOD9013911 Si02
#       8
#     2   2   2   2   2   2   2   2
#     4  11  23  42  62  94 131 172 211 257 333 378
#     4  11  23  38  62  94 124 169 210 265 319 383
#     4   9  22  39  65  94 125 170 212 266 320 382
#     4  10  21  41  66  90 125 169 218 256 332 378
#     4  11  24  43  68  94 134 169 212 272 318 386
#     4  11  21  40  65  94 127 166 217 269 310 389
#     4  11  25  40  67 101 123 172 224 258 320 387
#     4  10  23  42  66  92 130 175 212 261 320 378
#
# _framework density 24.105754000000001
#
# number of rings (size 3 to 8) (size 9 to 14) (size 15 to 20)
#    0.000    1.500    1.250    3.000    8.750    0.500 
#    2.250    6.875    0.000    0.000    0.000    0.000 
#    0.000    0.000    0.000    0.000    0.000    0.000 
#
# Total GULP energy -89296.228892 kJ/mol
# GULP energy per Si atom -5581.014306 kJ/mol
# Density = 2.405089 g / cm^3
# Si number density = 24.105754 Si / 1000 Ang^3
#
#
#
# Elastic Constant Matrix: (Units=GPa)
#
#
# Indices 1 2 3 4 5 6 
#
# 1 88.4555 18.5210 25.8811 -1.7686 22.2038 1.3828
# 2 18.5210 88.4560 15.6825 -7.2766 4.1866 -0.1133
# 3 25.8811 15.6825 88.4704 -5.7884 42.3586 -7.3866
# 4 -1.7686 -7.2766 -5.7884 30.7146 1.8563 13.8450
# 5 22.2038 4.1866 42.3586 1.8563 47.9022 6.8403
# 6 1.3828 -0.1133 -7.3866 13.8450 6.8403 32.7468
#
#
#
# Elastic Compliance Matrix: (Units=1/GPa)
#
#
# Indices 1 2 3 4 5 6 
#
# 1 0.013387 -0.002360 -0.001004 0.000259 -0.005145 0.000165
# 2 -0.002360 0.012428 -0.002797 0.003203 0.002700 -0.002406
# 3 -0.001004 -0.002797 0.022927 0.000678 -0.020916 0.009286
# 4 0.000259 0.003203 0.000678 0.041246 -0.000134 -0.017257
# 5 -0.005145 0.002700 -0.020916 -0.000134 0.043455 -0.013512
# 6 0.000165 -0.002406 0.009286 -0.017257 -0.013512 0.042735
#
#
# Mechanical properties :
#
#
# Convention : Reuss Voigt Hill
#
# Bulk Modulus (GPa) = 27.45740 42.83901 35.14820
# Shear Modulus (GPa) = 24.92031 35.95921 30.43976
#
# Velocity S-wave (km/s) = 3.21875 3.86648 3.55739
# Velocity P-wave (km/s) = 5.02284 6.14351 5.61122
#
# Compressibility (1/GPa) = 0.03642006
#
# Stress axis : x y z
#
# Youngs Moduli (GPa) = 74.69925 80.46591 43.61711
#
# Poissons Ratio (x) = 0.18990 0.04378
# Poissons Ratio (y) = 0.17629 0.12199
# Poissons Ratio (z) = 0.07499 0.22505
#
# Static dielectric constant tensor:
#      x y z
#    x 1.959720 0.064830 0.003750 
#    y 0.064830 1.982740 0.055300 
#    z 0.003750 0.055300 1.932130 
# 
# From -- ./inp_files/201439.got.cif
#   From: 2010.05.17/outbox.cif.g08.bks.cpg/sg2_101_cif.got.tgz:201439.got - 2010.06.03 11:33:40.
