data_PCOD9013394
_publ_section_title
;
Structure prediction by ZEFSAII (Michael W. Deem and Ramdas Pophale) SiO2 
 PCOD9013394
Probable space group: P -1
;
_chemical_formula_sum "Si O2"
_cell_formula_units_Z 14
_cell_length_a 11.480473
_cell_length_b 9.789922
_cell_length_c 6.959070
_cell_angle_alpha 120.666999
_cell_angle_beta 102.219394
_cell_angle_gamma 90.138610
_cell_volume 651.829808
_symmetry_space_group_name_H-M "P -1"
_symmetry_group_IT_number 2
_symmetry_cell_setting 'triclinic'
loop_
_space_group_symop_operation_xyz
x,y,z
-x,-y,-z
loop_
_atom_site_type_symbol
_atom_site_label
_atom_site_fract_x
_atom_site_fract_y
_atom_site_fract_z
Si Si1 0.440892 0.302297 0.371989
Si Si2 0.208228 0.261758 0.009564
Si Si3 0.425352 0.965649 0.256334
Si Si4 0.355885 0.683165 0.795122
Si Si5 0.188082 0.916808 0.938091
Si Si6 0.958494 0.658720 0.696563
Si Si7 0.260794 0.349676 0.656738
O O1 0.465928 0.116061 0.242403
O O2 0.566050 0.388048 0.391905
O O3 0.384200 0.312864 0.572068
O O4 0.333281 0.317382 0.199713
O O5 0.232041 0.284602 0.810314
O O6 0.173839 0.077154 0.932904
O O7 0.107817 0.362376 0.135259
O O8 0.500000 0.000000 0.500000
O O9 0.442007 0.793645 0.050329
O O10 0.277871 0.955698 0.182611
O O11 0.267589 0.801415 0.765673
O O12 0.278839 0.543043 0.786411
O O13 0.065415 0.804235 0.855701
O O14 0.852889 0.708732 0.559245
O O15 0.000000 0.500000 0.500000
#
# Coordination Sequence:
#
# PCOD9013394 Si02
#       7
#     2   2   2   2   2   2   2
#     4  10  22  40  65  90 134 169 207 264 317 373
#     4  10  24  41  65  93 131 164 214 264 312 374
#     4   9  20  38  64  94 122 168 214 254 310 379
#     4  10  21  41  64  93 130 172 208 257 318 375
#     4   9  21  41  68  90 132 166 208 263 314 375
#     4  11  21  45  68  91 130 166 210 268 318 373
#     4  11  24  41  64  99 126 169 213 261 319 379
#
# _framework density 21.477999000000001
#
# number of rings (size 3 to 8) (size 9 to 14) (size 15 to 20)
#    0.857    1.143    1.429    1.286    2.000    1.714 
#    5.143    2.857    0.000    0.000    0.000    0.000 
#    0.000    0.000    0.000    0.000    0.000    0.000 
#
# Total GULP energy -77974.703720 kJ/mol
# GULP energy per Si atom -5569.621694 kJ/mol
# Density = 2.142911 g / cm^3
# Si number density = 21.477999 Si / 1000 Ang^3
#
#
#
# Elastic Constant Matrix: (Units=GPa)
#
#
# Indices 1 2 3 4 5 6 
#
# 1 118.3852 45.1322 46.1750 -13.2962 -14.3080 15.8636
# 2 45.1322 78.4761 51.9158 -1.7011 0.7690 15.1632
# 3 46.1750 51.9158 107.8422 -14.5782 1.4472 18.1989
# 4 -13.2962 -1.7011 -14.5782 23.2241 1.4224 -4.0170
# 5 -14.3080 0.7690 1.4472 1.4224 39.1403 12.7987
# 6 15.8636 15.1632 18.1989 -4.0170 12.7987 34.6757
#
#
#
# Elastic Compliance Matrix: (Units=1/GPa)
#
#
# Indices 1 2 3 4 5 6 
#
# 1 0.013096 -0.005575 -0.001588 0.004941 0.006230 -0.004446
# 2 -0.005575 0.022210 -0.008792 -0.007569 -0.000858 -0.003107
# 3 -0.001588 -0.008792 0.015694 0.007875 -0.000426 -0.002596
# 4 0.004941 -0.007569 0.007875 0.050921 -0.001259 0.003280
# 5 0.006230 -0.000858 -0.000426 -0.001259 0.032627 -0.014440
# 6 -0.004446 -0.003107 -0.002596 0.003280 -0.014440 0.039303
#
#
# Mechanical properties :
#
#
# Convention : Reuss Voigt Hill
#
# Bulk Modulus (GPa) = 52.38958 65.68329 59.03643
# Shear Modulus (GPa) = 23.57086 30.17340 26.87213
#
# Velocity S-wave (km/s) = 3.31636 3.75220 3.54099
# Velocity P-wave (km/s) = 6.25376 7.02994 6.65318
#
# Compressibility (1/GPa) = 0.01908776
#
# Stress axis : x y z
#
# Youngs Moduli (GPa) = 76.35981 45.02385 63.71896
#
# Poissons Ratio (x) = 0.25103 0.10122
# Poissons Ratio (y) = 0.42574 0.56023
# Poissons Ratio (z) = 0.12130 0.39586
#
# Static dielectric constant tensor:
#      x y z
#    x 1.850180 -0.040500 -0.071010 
#    y -0.040500 1.832940 0.086270 
#    z -0.071010 0.086270 1.837280 
# 
# From -- ./inp_files/67951.got.cif
#   From: 2010.05.17/outbox.cif.g08.bks.cpg/sg2_34_cif.got.tgz:67951.got - 2010.06.03 11:33:40.
