data_PCOD9013170
_publ_section_title
;
Structure prediction by ZEFSAII (Michael W. Deem and Ramdas Pophale) SiO2 
 PCOD9013170
Probable space group: P -1
;
_chemical_formula_sum "Si O2"
_cell_formula_units_Z 16
_cell_length_a 9.999377
_cell_length_b 13.779241
_cell_length_c 7.929366
_cell_angle_alpha 135.355924
_cell_angle_beta 121.933511
_cell_angle_gamma 60.597973
_cell_volume 639.397020
_symmetry_space_group_name_H-M "P -1"
_symmetry_group_IT_number 2
_symmetry_cell_setting 'triclinic'
loop_
_space_group_symop_operation_xyz
x,y,z
-x,-y,-z
loop_
_atom_site_type_symbol
_atom_site_label
_atom_site_fract_x
_atom_site_fract_y
_atom_site_fract_z
Si Si1 0.693233 0.982436 0.602968
Si Si2 0.330808 0.461985 0.802268
Si Si3 0.837292 0.542357 0.724573
Si Si4 0.928231 0.302337 0.091994
Si Si5 0.817744 0.956624 0.018729
Si Si6 0.582339 0.750123 0.673617
Si Si7 0.885521 0.670707 0.268414
Si Si8 0.225121 0.854611 0.475067
O O1 0.745899 0.023573 0.877340
O O2 0.796082 0.826092 0.445306
O O3 0.500000 0.000000 0.500000
O O4 0.729979 0.066147 0.564740
O O5 0.373653 0.311162 0.557608
O O6 0.217133 0.434917 0.844038
O O7 0.500000 0.500000 0.000000
O O8 0.225469 0.597254 0.804520
O O9 0.651545 0.609598 0.653873
O O10 0.929552 0.383270 0.617795
O O11 0.875395 0.632197 0.020928
O O12 0.933425 0.606334 0.720692
O O13 0.865209 0.256323 0.811753
O O14 0.024160 0.160104 0.062580
O O15 0.682715 0.875480 0.912858
O O16 0.867153 0.050458 0.319737
O O17 0.392869 0.793882 0.605917
#
# Coordination Sequence:
#
# PCOD9013170 Si02
#       8
#     2   2   2   2   2   2   2   2
#     4  12  24  38  65  96 128 171 217 268 311 386
#     4  11  21  39  67  92 127 163 207 272 330 373
#     4   9  22  40  71  91 120 171 214 271 319 378
#     4  10  23  41  66  94 131 171 211 266 331 383
#     4  11  24  40  65  96 125 179 219 255 322 390
#     4  11  21  40  65  96 120 169 218 259 324 386
#     4  10  21  41  63  94 127 160 220 263 322 378
#     4  12  24  43  65  95 139 169 212 270 325 381
#
# _framework density 25.023577
#
# number of rings (size 3 to 8) (size 9 to 14) (size 15 to 20)
#    0.000    1.250    3.750    2.250    3.500    2.000 
#    0.000    0.625    2.750    0.000    0.000    0.000 
#    0.000    0.000    0.000    0.000    0.000    0.000 
#
# Total GULP energy -89345.114672 kJ/mol
# GULP energy per Si atom -5584.069667 kJ/mol
# Density = 2.496662 g / cm^3
# Si number density = 25.023577 Si / 1000 Ang^3
#
#
#
# Elastic Constant Matrix: (Units=GPa)
#
#
# Indices 1 2 3 4 5 6 
#
# 1 62.1135 30.1478 9.2219 -0.8674 -3.6249 -9.2032
# 2 30.1478 132.3293 14.3572 -11.5201 -3.1742 -32.2006
# 3 9.2219 14.3572 102.3045 6.4857 -7.8670 -1.5329
# 4 -0.8674 -11.5201 6.4857 38.0726 -9.0269 -1.3326
# 5 -3.6249 -3.1742 -7.8670 -9.0269 35.2878 -6.7736
# 6 -9.2032 -32.2006 -1.5329 -1.3326 -6.7736 36.2617
#
#
#
# Elastic Compliance Matrix: (Units=1/GPa)
#
#
# Indices 1 2 3 4 5 6 
#
# 1 0.018354 -0.003625 -0.000990 -0.000059 0.001651 0.001703
# 2 -0.003625 0.011452 -0.001160 0.004772 0.003547 0.010038
# 3 -0.000990 -0.001160 0.010246 -0.001785 0.001500 -0.000633
# 4 -0.000059 0.004772 -0.001785 0.030425 0.009147 0.006974
# 5 0.001651 0.003547 0.001500 0.009147 0.033463 0.010219
# 6 0.001703 0.010038 -0.000633 0.006974 0.010219 0.039062
#
#
# Mechanical properties :
#
#
# Convention : Reuss Voigt Hill
#
# Bulk Modulus (GPa) = 35.08452 44.91122 39.99787
# Shear Modulus (GPa) = 30.47831 38.12579 34.30205
#
# Velocity S-wave (km/s) = 3.49375 3.90756 3.70643
# Velocity P-wave (km/s) = 5.50691 6.19235 5.85966
#
# Compressibility (1/GPa) = 0.02850260
#
# Stress axis : x y z
#
# Youngs Moduli (GPa) = 54.48437 87.32232 97.60164
#
# Poissons Ratio (x) = 0.31656 0.09658
# Poissons Ratio (y) = 0.19752 0.11319
# Poissons Ratio (z) = 0.05391 0.10127
#
# Static dielectric constant tensor:
#      x y z
#    x 1.995940 0.046470 0.024850 
#    y 0.046470 2.098410 0.004440 
#    z 0.024850 0.004440 2.022110 
# 
# From -- ./inp_files/224092.got.cif
#   From: 2010.05.17/outbox.cif.g08.bks.cpg/sg2_113_cif.got.tgz:224092.got - 2010.06.03 11:33:40.
