data_PCOD9013464
_publ_section_title
;
Structure prediction by ZEFSAII (Michael W. Deem and Ramdas Pophale) SiO2 
 PCOD9013464
Probable space group: P -1
;
_chemical_formula_sum "Si O2"
_cell_formula_units_Z 14
_cell_length_a 9.390473
_cell_length_b 6.700857
_cell_length_c 17.348649
_cell_angle_alpha 99.215476
_cell_angle_beta 52.917361
_cell_angle_gamma 131.956406
_cell_volume 590.827300
_symmetry_space_group_name_H-M "P -1"
_symmetry_group_IT_number 2
_symmetry_cell_setting 'triclinic'
loop_
_space_group_symop_operation_xyz
x,y,z
-x,-y,-z
loop_
_atom_site_type_symbol
_atom_site_label
_atom_site_fract_x
_atom_site_fract_y
_atom_site_fract_z
Si Si1 0.080744 0.397186 0.907083
Si Si2 0.357871 0.913236 0.461802
Si Si3 0.546973 0.512233 0.797263
Si Si4 0.777156 0.798331 0.895229
Si Si5 0.177507 0.768500 0.758277
Si Si6 0.259877 0.125086 0.388950
Si Si7 0.866050 0.397153 0.683806
O O1 0.270635 0.393853 0.887817
O O2 0.197431 0.622290 0.811362
O O3 0.855264 0.074510 0.924142
O O4 0.000000 0.500000 0.000000
O O5 0.058436 0.636924 0.567181
O O6 0.500000 0.000000 0.500000
O O7 0.536974 0.929572 0.346354
O O8 0.399921 0.163484 0.422861
O O9 0.738233 0.773500 0.813816
O O10 0.610844 0.615009 0.694697
O O11 0.614101 0.331894 0.775799
O O12 0.000559 0.815911 0.840624
O O13 0.500000 0.500000 0.000000
O O14 0.026562 0.544453 0.720364
O O15 0.201100 0.880358 0.340270
O O16 0.000000 0.000000 0.500000
#
# Coordination Sequence:
#
# PCOD9013464 Si02
#       7
#     2   2   2   2   2   2   2
#     4  12  27  45  73 106 134 177 238 294 352 414
#     4  10  21  41  64  96 135 175 219 273 334 400
#     4  11  25  44  70 100 136 185 228 278 350 408
#     4  11  27  49  71  99 139 183 232 293 358 414
#     4  10  23  45  67  97 138 177 228 286 341 410
#     4  12  23  39  65  99 137 178 226 274 333 406
#     4  10  23  42  65  96 140 183 221 274 336 407
#
# _framework density 23.695587
#
# number of rings (size 3 to 8) (size 9 to 14) (size 15 to 20)
#    0.000    1.143    2.857    2.143    2.000    6.857 
#    0.000    1.429    0.000    0.000    0.000    0.000 
#    0.000    0.000    0.000    0.000    0.000    0.000 
#
# Total GULP energy -78174.809491 kJ/mol
# GULP energy per Si atom -5583.914964 kJ/mol
# Density = 2.364166 g / cm^3
# Si number density = 23.695587 Si / 1000 Ang^3
#
#
#
# Elastic Constant Matrix: (Units=GPa)
#
#
# Indices 1 2 3 4 5 6 
#
# 1 130.6523 24.9609 32.2531 19.5929 -2.5959 -6.5247
# 2 24.9609 121.8383 39.7744 32.2522 -4.2776 0.0226
# 3 32.2531 39.7744 123.0061 11.8130 -21.0831 -8.8634
# 4 19.5929 32.2522 11.8130 44.7894 -2.8266 6.9895
# 5 -2.5959 -4.2776 -21.0831 -2.8266 52.5868 4.1063
# 6 -6.5247 0.0226 -8.8634 6.9895 4.1063 21.5082
#
#
#
# Elastic Compliance Matrix: (Units=1/GPa)
#
#
# Indices 1 2 3 4 5 6 
#
# 1 0.008859 -0.000264 -0.001763 -0.003789 -0.000755 0.003337
# 2 -0.000264 0.011122 -0.002854 -0.007387 -0.000749 0.001276
# 3 -0.001763 -0.002854 0.010370 -0.000168 0.003586 0.003111
# 4 -0.003789 -0.007387 -0.000168 0.031285 0.001741 -0.011710
# 5 -0.000755 -0.000749 0.003586 0.001741 0.020705 -0.003269
# 6 0.003337 0.001276 0.003111 -0.011710 -0.003269 0.053216
#
#
# Mechanical properties :
#
#
# Convention : Reuss Voigt Hill
#
# Bulk Modulus (GPa) = 48.56758 63.27483 55.92121
# Shear Modulus (GPa) = 32.85523 42.34411 37.59967
#
# Velocity S-wave (km/s) = 3.72769 4.23188 3.98776
# Velocity P-wave (km/s) = 6.25048 7.11615 6.69732
#
# Compressibility (1/GPa) = 0.02058987
#
# Stress axis : x y z
#
# Youngs Moduli (GPa) = 112.87568 89.90862 96.43322
#
# Poissons Ratio (x) = 0.02370 0.16999
# Poissons Ratio (y) = 0.02976 0.27526
# Poissons Ratio (z) = 0.19898 0.25664
#
# Static dielectric constant tensor:
#      x y z
#    x 1.994470 -0.044070 -0.058700 
#    y -0.044070 2.009760 0.036490 
#    z -0.058700 0.036490 1.990220 
# 
# From -- ./inp_files/52336.got.cif
#   From: 2010.05.17/outbox.cif.g08.bks.cpg/sg2_27_cif.got.tgz:52336.got - 2010.06.03 11:33:40.
