data_PCOD9013744
_publ_section_title
;
Structure prediction by ZEFSAII (Michael W. Deem and Ramdas Pophale) SiO2 
 PCOD9013744
Probable space group: P -1
;
_chemical_formula_sum "Si O2"
_cell_formula_units_Z 16
_cell_length_a 5.688844
_cell_length_b 10.018212
_cell_length_c 24.088734
_cell_angle_alpha 37.489629
_cell_angle_beta 79.967544
_cell_angle_gamma 57.989273
_cell_volume 622.540634
_symmetry_space_group_name_H-M "P -1"
_symmetry_group_IT_number 2
_symmetry_cell_setting 'triclinic'
loop_
_space_group_symop_operation_xyz
x,y,z
-x,-y,-z
loop_
_atom_site_type_symbol
_atom_site_label
_atom_site_fract_x
_atom_site_fract_y
_atom_site_fract_z
Si Si1 0.128268 0.327328 0.495695
Si Si2 0.233177 0.323629 0.306448
Si Si3 0.798230 0.356143 0.709916
Si Si4 0.907761 0.779266 0.768638
Si Si5 0.318256 0.868096 0.779763
Si Si6 0.287264 0.718421 0.986966
Si Si7 0.162074 0.671028 0.589397
Si Si8 0.325919 0.168518 0.008801
O O1 0.223292 0.459379 0.404004
O O2 0.000000 0.500000 0.500000
O O3 0.861090 0.349332 0.468016
O O4 0.427182 0.993292 0.603408
O O5 0.259445 0.554076 0.251919
O O6 0.045574 0.349380 0.252634
O O7 0.069807 0.345151 0.362264
O O8 0.490657 0.407967 0.688459
O O9 0.117865 0.038828 0.786960
O O10 0.532370 0.957446 0.732554
O O11 0.062979 0.923690 0.727470
O O12 0.089251 0.514207 0.891907
O O13 0.580682 0.519743 0.889549
O O14 0.408807 0.888631 0.942425
O O15 0.918727 0.871693 0.947353
O O16 0.500000 0.500000 0.000000
O O17 0.000000 0.000000 0.500000
O O18 0.500000 0.000000 0.000000
#
# Coordination Sequence:
#
# PCOD9013744 Si02
#       8
#     2   2   2   2   2   2   2   2
#     4  11  23  37  57  83 111 154 207 249 306 363
#     4  11  23  38  58  85 117 157 202 255 307 363
#     4  11  23  39  58  82 118 157 202 253 309 358
#     4  10  24  43  62  91 127 159 203 251 302 361
#     4  10  24  42  62  90 126 162 200 253 302 359
#     4  10  21  41  65  95 129 164 206 253 306 369
#     4  11  21  40  56  80 117 152 200 262 305 355
#     4  10  21  41  66  95 129 165 203 255 307 367
#
# _framework density 25.701135000000001
#
# number of rings (size 3 to 8) (size 9 to 14) (size 15 to 20)
#    0.000    1.500    2.500    2.250    7.000    2.500 
#    2.250    0.000    0.000    0.000    0.000    0.000 
#    0.000    0.000    0.000    0.000    0.000    0.000 
#
# Total GULP energy -89204.776015 kJ/mol
# GULP energy per Si atom -5575.298501 kJ/mol
# Density = 2.564264 g / cm^3
# Si number density = 25.701135 Si / 1000 Ang^3
#
#
#
# Elastic Constant Matrix: (Units=GPa)
#
#
# Indices 1 2 3 4 5 6 
#
# 1 170.3674 72.2760 13.1930 11.1939 29.3111 10.0877
# 2 72.2760 163.7499 -7.0775 12.7826 19.1764 9.7482
# 3 13.1930 -7.0775 71.0318 -13.2120 15.4204 6.6717
# 4 11.1939 12.7826 -13.2120 30.4779 2.3159 14.1444
# 5 29.3111 19.1764 15.4204 2.3159 35.5557 7.7319
# 6 10.0877 9.7482 6.6717 14.1444 7.7319 49.6237
#
#
#
# Elastic Compliance Matrix: (Units=1/GPa)
#
#
# Indices 1 2 3 4 5 6 
#
# 1 0.008115 -0.002969 -0.001263 -0.002133 -0.004492 0.000411
# 2 -0.002969 0.007880 0.001698 -0.001067 -0.002361 -0.000501
# 3 -0.001263 0.001698 0.018464 0.010340 -0.007616 -0.004320
# 4 -0.002133 -0.001067 0.010340 0.044805 -0.002204 -0.013174
# 5 -0.004492 -0.002361 -0.007616 -0.002204 0.037148 -0.002759
# 6 0.000411 -0.000501 -0.004320 -0.013174 -0.002759 0.024932
#
#
# Mechanical properties :
#
#
# Convention : Reuss Voigt Hill
#
# Bulk Modulus (GPa) = 34.02373 62.43690 48.23032
# Shear Modulus (GPa) = 32.00811 44.91530 38.46171
#
# Velocity S-wave (km/s) = 3.53285 4.18497 3.87266
# Velocity P-wave (km/s) = 5.46885 6.90638 6.22922
#
# Compressibility (1/GPa) = 0.02939125
#
# Stress axis : x y z
#
# Youngs Moduli (GPa) = 123.22207 126.90247 54.15861
#
# Poissons Ratio (x) = 0.37672 0.06842
# Poissons Ratio (y) = 0.36579 -0.09194
# Poissons Ratio (z) = 0.15566 -0.21543
#
# Static dielectric constant tensor:
#      x y z
#    x 2.114260 -0.019990 -0.059670 
#    y -0.019990 1.903330 0.075500 
#    z -0.059670 0.075500 1.940160 
# 
# From -- ./inp_files/45766.got.cif
#   From: 2010.05.17/outbox.cif.g08.bks.cpg/sg2_23_cif.got.tgz:45766.got - 2010.06.03 11:33:40.
