data_PCOD9013410
_publ_section_title
;
Structure prediction by ZEFSAII (Michael W. Deem and Ramdas Pophale) SiO2 
 PCOD9013410
Probable space group: P -1
;
_chemical_formula_sum "Si O2"
_cell_formula_units_Z 14
_cell_length_a 11.580743
_cell_length_b 8.971933
_cell_length_c 9.771697
_cell_angle_alpha 110.588145
_cell_angle_beta 97.219761
_cell_angle_gamma 39.750183
_cell_volume 589.737418
_symmetry_space_group_name_H-M "P -1"
_symmetry_group_IT_number 2
_symmetry_cell_setting 'triclinic'
loop_
_space_group_symop_operation_xyz
x,y,z
-x,-y,-z
loop_
_atom_site_type_symbol
_atom_site_label
_atom_site_fract_x
_atom_site_fract_y
_atom_site_fract_z
Si Si1 0.171935 0.635400 0.804512
Si Si2 0.408620 0.128570 0.178002
Si Si3 0.981483 0.532903 0.168913
Si Si4 0.437595 0.821197 0.291174
Si Si5 0.830329 0.958573 0.447107
Si Si6 0.800598 0.207870 0.860298
Si Si7 0.244918 0.609997 0.385922
O O1 0.101158 0.535169 0.795362
O O2 0.366951 0.428378 0.688054
O O3 0.220605 0.667428 0.966590
O O4 0.003413 0.911973 0.804031
O O5 0.407186 0.305280 0.305642
O O6 0.188812 0.332739 0.191863
O O7 0.476958 0.925789 0.230916
O O8 0.500000 0.000000 0.000000
O O9 0.854912 0.819784 0.276826
O O10 0.000000 0.500000 0.000000
O O11 0.352620 0.766482 0.172343
O O12 0.280408 0.016685 0.444099
O O13 0.044982 0.763377 0.462010
O O14 0.732810 0.234324 0.504165
O O15 0.789095 0.325092 0.761030
#
# Coordination Sequence:
#
# PCOD9013410 Si02
#       7
#     2   2   2   2   2   2   2
#     4  11  22  38  64  97 130 172 215 269 327 380
#     4  11  22  39  67 100 129 172 219 267 326 385
#     4  11  22  40  65  92 131 169 217 277 326 386
#     4  11  22  41  67  95 131 172 220 266 320 398
#     4   9  21  40  66  91 127 178 216 267 332 382
#     4  10  21  41  64  94 131 175 216 268 319 388
#     4   9  19  40  65  93 128 173 218 266 324 388
#
# _framework density 23.739379
#
# number of rings (size 3 to 8) (size 9 to 14) (size 15 to 20)
#    0.000    1.714    1.429    3.857    0.000    4.000 
#    2.571    0.714    0.000    0.000    0.000    0.000 
#    0.000    0.000    0.000    0.000    0.000    0.000 
#
# Total GULP energy -78314.578728 kJ/mol
# GULP energy per Si atom -5593.898481 kJ/mol
# Density = 2.368535 g / cm^3
# Si number density = 23.739379 Si / 1000 Ang^3
#
#
#
# Elastic Constant Matrix: (Units=GPa)
#
#
# Indices 1 2 3 4 5 6 
#
# 1 68.6117 35.5245 43.8473 19.4896 -7.3594 6.6668
# 2 35.5245 74.2208 5.5536 27.9766 -11.5661 -5.0138
# 3 43.8473 5.5536 142.4100 24.3882 3.8038 17.7921
# 4 19.4896 27.9766 24.3882 30.8273 3.3289 -1.2681
# 5 -7.3594 -11.5661 3.8038 3.3289 43.0666 3.1648
# 6 6.6668 -5.0138 17.7921 -1.2681 3.1648 34.6013
#
#
#
# Elastic Compliance Matrix: (Units=1/GPa)
#
#
# Indices 1 2 3 4 5 6 
#
# 1 0.025698 -0.011340 -0.006988 -0.000805 0.002263 -0.003238
# 2 -0.011340 0.028973 0.006202 -0.024730 0.007087 0.001639
# 3 -0.006988 0.006202 0.011165 -0.010266 0.000567 -0.003924
# 4 -0.000805 -0.024730 -0.010266 0.064947 -0.011279 0.005262
# 5 0.002263 0.007087 0.000567 -0.011279 0.026518 -0.002540
# 6 -0.003238 0.001639 -0.003924 0.005262 -0.002540 0.032205
#
#
# Mechanical properties :
#
#
# Convention : Reuss Voigt Hill
#
# Bulk Modulus (GPa) = 24.04682 50.56591 37.30637
# Shear Modulus (GPa) = 21.96657 35.05349 28.51003
#
# Velocity S-wave (km/s) = 3.04521 3.84682 3.46925
# Velocity P-wave (km/s) = 4.74509 6.40916 5.63885
#
# Compressibility (1/GPa) = 0.04158554
#
# Stress axis : x y z
#
# Youngs Moduli (GPa) = 38.91378 34.51449 89.56577
#
# Poissons Ratio (x) = 0.39138 0.62590
# Poissons Ratio (y) = 0.44127 -0.55553
# Poissons Ratio (z) = 0.27194 -0.21408
#
# Static dielectric constant tensor:
#      x y z
#    x 1.931810 -0.012710 0.027400 
#    y -0.012710 1.911560 0.034410 
#    z 0.027400 0.034410 1.926700 
# 
# From -- ./inp_files/391226.got.cif
#   From: 2010.05.17/outbox.cif.g08.bks.cpg/sg2_196_cif.got.tgz:391226.got - 2010.06.03 11:33:40.
