data_PCOD9013681
_publ_section_title
;
Structure prediction by ZEFSAII (Michael W. Deem and Ramdas Pophale) SiO2 
 PCOD9013681
Probable space group: P -1
;
_chemical_formula_sum "Si O2"
_cell_formula_units_Z 16
_cell_length_a 12.191160
_cell_length_b 6.838836
_cell_length_c 20.726935
_cell_angle_alpha 134.207861
_cell_angle_beta 142.231489
_cell_angle_gamma 59.861994
_cell_volume 753.916697
_symmetry_space_group_name_H-M "P -1"
_symmetry_group_IT_number 2
_symmetry_cell_setting 'triclinic'
loop_
_space_group_symop_operation_xyz
x,y,z
-x,-y,-z
loop_
_atom_site_type_symbol
_atom_site_label
_atom_site_fract_x
_atom_site_fract_y
_atom_site_fract_z
Si Si1 0.754286 0.362223 0.040667
Si Si2 0.025979 0.310840 0.561234
Si Si3 0.709645 0.404167 0.342216
Si Si4 0.441812 0.088243 0.920895
Si Si5 0.592695 0.741948 0.556976
Si Si6 0.983210 0.237242 0.234703
Si Si7 0.019593 0.412645 0.914731
Si Si8 0.396643 0.660670 0.310676
O O1 0.656573 0.638232 0.059499
O O2 0.923197 0.342201 0.161820
O O3 0.839232 0.377087 0.011395
O O4 0.606944 0.147666 0.959838
O O5 0.182425 0.345718 0.588437
O O6 0.081902 0.543161 0.694478
O O7 0.837061 0.365400 0.453210
O O8 0.000000 0.000000 0.500000
O O9 0.507356 0.453566 0.276515
O O10 0.695817 0.143447 0.229277
O O11 0.500000 0.000000 0.000000
O O12 0.500000 0.500000 0.500000
O O13 0.499394 0.708131 0.436642
O O14 0.803721 0.726040 0.648594
O O15 0.575740 0.046518 0.645117
O O16 0.931354 0.904964 0.141100
O O17 0.815201 0.415242 0.794321
O O18 0.000000 0.500000 0.000000
#
# Coordination Sequence:
#
# PCOD9013681 Si02
#       8
#     2   2   2   2   2   2   2   2
#     4  11  24  44  72  97 131 181 229 275 339 407
#     4  11  24  42  68 101 133 172 220 275 346 400
#     4  11  24  42  66  98 135 169 219 283 331 402
#     4  11  25  46  71  99 134 179 228 281 338 395
#     4  10  21  41  65  93 126 176 215 269 337 400
#     4  11  23  44  65  98 136 173 222 282 339 398
#     4  11  26  46  68 100 139 183 227 279 336 398
#     4  10  23  41  65  96 133 172 220 274 333 398
#
# _framework density 21.222503
#
# number of rings (size 3 to 8) (size 9 to 14) (size 15 to 20)
#    0.000    1.250    1.250    3.750    5.250    2.500 
#    4.500    0.000    0.000    0.000    0.000    0.000 
#    0.000    0.000    0.000    0.000    0.000    0.000 
#
# Total GULP energy -89235.692066 kJ/mol
# GULP energy per Si atom -5577.230754 kJ/mol
# Density = 2.117420 g / cm^3
# Si number density = 21.222503 Si / 1000 Ang^3
#
#
#
# Elastic Constant Matrix: (Units=GPa)
#
#
# Indices 1 2 3 4 5 6 
#
# 1 106.9292 55.1079 23.8130 11.0150 7.1033 18.1092
# 2 55.1079 90.4016 19.3033 2.4537 1.1763 18.0576
# 3 23.8130 19.3033 61.0292 0.3479 -1.1587 13.3955
# 4 11.0150 2.4537 0.3479 36.5697 0.3802 6.1953
# 5 7.1033 1.1763 -1.1587 0.3802 34.1286 2.3331
# 6 18.1092 18.0576 13.3955 6.1953 2.3331 39.3768
#
#
#
# Elastic Compliance Matrix: (Units=1/GPa)
#
#
# Indices 1 2 3 4 5 6 
#
# 1 0.014990 -0.008074 -0.003016 -0.003675 -0.002806 -0.001421
# 2 -0.008074 0.017000 -0.001331 0.001971 0.001302 -0.004017
# 3 -0.003016 -0.001331 0.019068 0.001619 0.001634 -0.004841
# 4 -0.003675 0.001971 0.001619 0.029038 0.000728 -0.004376
# 5 -0.002806 0.001302 0.001634 0.000728 0.030007 -0.001755
# 6 -0.001421 -0.004017 -0.004841 -0.004376 -0.001755 0.030331
#
#
# Mechanical properties :
#
#
# Convention : Reuss Voigt Hill
#
# Bulk Modulus (GPa) = 38.14510 50.53426 44.33968
# Shear Modulus (GPa) = 28.73329 32.69075 30.71202
#
# Velocity S-wave (km/s) = 3.68354 3.92903 3.80826
# Velocity P-wave (km/s) = 6.00868 6.66681 6.34628
#
# Compressibility (1/GPa) = 0.02621569
#
# Stress axis : x y z
#
# Youngs Moduli (GPa) = 66.71038 58.82455 52.44463
#
# Poissons Ratio (x) = 0.47494 0.15816
# Poissons Ratio (y) = 0.53861 0.06983
# Poissons Ratio (z) = 0.20118 0.07832
#
# Static dielectric constant tensor:
#      x y z
#    x 1.805420 -0.009740 0.006250 
#    y -0.009740 1.752550 0.010520 
#    z 0.006250 0.010520 1.769520 
# 
# From -- ./inp_files/364539.got.cif
#   From: 2010.05.17/outbox.cif.g08.bks.cpg/sg2_183_cif.got.tgz:364539.got - 2010.06.03 11:33:40.
