data_PCOD9013177
_publ_section_title
;
Structure prediction by ZEFSAII (Michael W. Deem and Ramdas Pophale) SiO2 
 PCOD9013177
Probable space group: P -1
;
_chemical_formula_sum "Si O2"
_cell_formula_units_Z 12
_cell_length_a 17.083869
_cell_length_b 8.514778
_cell_length_c 6.959276
_cell_angle_alpha 107.551269
_cell_angle_beta 98.477560
_cell_angle_gamma 139.202362
_cell_volume 503.056976
_symmetry_space_group_name_H-M "P -1"
_symmetry_group_IT_number 2
_symmetry_cell_setting 'triclinic'
loop_
_space_group_symop_operation_xyz
x,y,z
-x,-y,-z
loop_
_atom_site_type_symbol
_atom_site_label
_atom_site_fract_x
_atom_site_fract_y
_atom_site_fract_z
Si Si1 0.158962 0.615922 0.173609
Si Si2 0.521023 0.259319 0.942810
Si Si3 0.850812 0.703490 0.711400
Si Si4 0.191806 0.002011 0.153776
Si Si5 0.755254 0.407756 0.187158
Si Si6 0.477510 0.487562 0.261870
O O1 0.226069 0.585523 0.312474
O O2 0.218756 0.908634 0.290974
O O3 0.169671 0.569915 0.940857
O O4 0.985668 0.323301 0.068090
O O5 0.489228 0.276428 0.727957
O O6 0.378655 0.921564 0.867462
O O7 0.664575 0.395621 0.048772
O O8 0.551453 0.474727 0.161675
O O9 0.868580 0.675026 0.488626
O O10 0.773253 0.745531 0.689315
O O11 0.000000 0.000000 0.000000
O O12 0.295123 0.145968 0.061464
O O13 0.500000 0.500000 0.500000
#
# Coordination Sequence:
#
# PCOD9013177 Si02
#       6
#     2   2   2   2   2   2
#     4  10  22  42  66  91 132 171 219 271 326 397
#     4  10  24  39  64  98 130 174 219 264 332 393
#     4  10  23  41  64  96 129 175 220 267 332 388
#     4  10  21  41  63  94 128 168 220 264 328 389
#     4  11  22  43  65  96 135 170 219 275 326 396
#     4  11  22  41  65  96 131 171 220 272 323 394
#
# _framework density 23.854154999999999
#
# number of rings (size 3 to 8) (size 9 to 14) (size 15 to 20)
#    0.000    1.667    1.667    2.000    2.333    2.667 
#    0.000   18.333    0.000    0.000    0.000    0.000 
#    0.000    0.000    0.000    0.000    0.000    0.000 
#
# Total GULP energy -66978.333739 kJ/mol
# GULP energy per Si atom -5581.527812 kJ/mol
# Density = 2.379986 g / cm^3
# Si number density = 23.854155 Si / 1000 Ang^3
#
#
#
# Elastic Constant Matrix: (Units=GPa)
#
#
# Indices 1 2 3 4 5 6 
#
# 1 134.2441 54.3323 36.3796 -11.1062 0.4448 -33.5718
# 2 54.3323 111.6145 10.6922 -7.3255 10.9229 -31.9821
# 3 36.3796 10.6922 101.6913 -15.1920 7.2526 -11.2265
# 4 -11.1062 -7.3255 -15.1920 33.0719 -5.4711 5.2428
# 5 0.4448 10.9229 7.2526 -5.4711 26.9719 -9.2088
# 6 -33.5718 -31.9821 -11.2265 5.2428 -9.2088 68.9714
#
#
#
# Elastic Compliance Matrix: (Units=1/GPa)
#
#
# Indices 1 2 3 4 5 6 
#
# 1 0.011002 -0.004420 -0.003186 0.001380 0.003836 0.003194
# 2 -0.004420 0.012349 0.000999 0.000546 -0.004007 0.003161
# 3 -0.003186 0.000999 0.011678 0.004059 -0.002616 0.000156
# 4 0.001380 0.000546 0.004059 0.033619 0.005399 -0.000249
# 5 0.003836 -0.004007 -0.002616 0.005399 0.042069 0.004790
# 6 0.003194 0.003161 0.000156 -0.000249 0.004790 0.018203
#
#
# Mechanical properties :
#
#
# Convention : Reuss Voigt Hill
#
# Bulk Modulus (GPa) = 45.83805 61.15090 53.49448
# Shear Modulus (GPa) = 33.46625 42.21275 37.83950
#
# Velocity S-wave (km/s) = 3.74966 4.21125 3.98714
# Velocity P-wave (km/s) = 6.16476 7.02404 6.60838
#
# Compressibility (1/GPa) = 0.02181594
#
# Stress axis : x y z
#
# Youngs Moduli (GPa) = 90.89664 80.97914 85.62809
#
# Poissons Ratio (x) = 0.35790 0.27279
# Poissons Ratio (y) = 0.40174 -0.08554
# Poissons Ratio (z) = 0.28957 -0.08090
#
# Static dielectric constant tensor:
#      x y z
#    x 1.943020 -0.030970 0.058520 
#    y -0.030970 1.956950 0.050540 
#    z 0.058520 0.050540 1.917710 
# 
# From -- ./inp_files/25844.got.cif
#   From: 2010.05.17/outbox.cif.g08.bks.cpg/sg2_13_cif.got.tgz:25844.got - 2010.06.03 11:33:40.
