data_PCOD9013441
_publ_section_title
;
Structure prediction by ZEFSAII (Michael W. Deem and Ramdas Pophale) SiO2 
 PCOD9013441
Probable space group: P -1
;
_chemical_formula_sum "Si O2"
_cell_formula_units_Z 16
_cell_length_a 19.787654
_cell_length_b 16.928194
_cell_length_c 11.607342
_cell_angle_alpha 142.242994
_cell_angle_beta 151.084132
_cell_angle_gamma 22.053720
_cell_volume 701.302335
_symmetry_space_group_name_H-M "P -1"
_symmetry_group_IT_number 2
_symmetry_cell_setting 'triclinic'
loop_
_space_group_symop_operation_xyz
x,y,z
-x,-y,-z
loop_
_atom_site_type_symbol
_atom_site_label
_atom_site_fract_x
_atom_site_fract_y
_atom_site_fract_z
Si Si1 0.331938 0.355153 0.642202
Si Si2 0.420016 0.914361 0.746116
Si Si3 0.880504 0.247707 0.803675
Si Si4 0.982211 0.802589 0.700637
Si Si5 0.211377 0.879676 0.038845
Si Si6 0.565606 0.293503 0.258709
Si Si7 0.245852 0.321481 0.221487
Si Si8 0.657683 0.003629 0.890765
O O1 0.134108 0.564584 0.663898
O O2 0.543339 0.295609 0.857126
O O3 0.237267 0.386876 0.411840
O O4 0.457143 0.152468 0.668546
O O5 0.426148 0.811424 0.742356
O O6 0.587222 0.737686 0.691601
O O7 0.172957 0.101871 0.533659
O O8 0.500000 0.000000 0.000000
O O9 0.742588 0.279779 0.532048
O O10 0.688751 0.460217 0.837669
O O11 0.010117 0.043339 0.834172
O O12 0.087369 0.187693 0.003076
O O13 0.158311 0.792089 0.931475
O O14 0.821292 0.968577 0.755627
O O15 0.631639 0.160924 0.095074
O O16 0.351087 0.102975 0.152508
O O17 0.000000 0.500000 0.000000
#
# Coordination Sequence:
#
# PCOD9013441 Si02
#       8
#     2   2   2   2   2   2   2   2
#     4  11  24  42  66  97 129 173 219 268 335 391
#     4  12  23  42  66  94 133 173 221 273 324 386
#     4  10  22  39  65  96 128 172 216 275 327 391
#     4  11  22  40  64  95 129 174 215 273 325 391
#     4  10  21  41  64  95 133 168 219 273 328 389
#     4  11  22  41  64  97 131 171 221 269 333 386
#     4  12  25  44  67  96 131 175 224 273 326 397
#     4  11  24  44  64  93 135 172 217 270 330 392
#
# _framework density 22.814696000000001
#
# number of rings (size 3 to 8) (size 9 to 14) (size 15 to 20)
#    0.000    1.000    3.750    3.375    0.000    0.000 
#    0.000    1.875    0.000    0.000    0.000    0.000 
#    0.000    0.000    0.000    0.000    0.000    0.000 
#
# Total GULP energy -89447.008299 kJ/mol
# GULP energy per Si atom -5590.438019 kJ/mol
# Density = 2.276277 g / cm^3
# Si number density = 22.814696 Si / 1000 Ang^3
#
#
#
# Elastic Constant Matrix: (Units=GPa)
#
#
# Indices 1 2 3 4 5 6 
#
# 1 61.3242 -2.2475 8.0848 -9.6294 -12.6739 6.0725
# 2 -2.2475 79.9815 38.2362 -12.0661 -4.0760 -11.4731
# 3 8.0848 38.2362 87.6419 -12.4896 -20.9932 0.7293
# 4 -9.6294 -12.0661 -12.4896 38.1636 0.0658 -5.5675
# 5 -12.6739 -4.0760 -20.9932 0.0658 28.1588 4.7244
# 6 6.0725 -11.4731 0.7293 -5.5675 4.7244 27.2558
#
#
#
# Elastic Compliance Matrix: (Units=1/GPa)
#
#
# Indices 1 2 3 4 5 6 
#
# 1 0.019615 0.000483 0.001257 0.004754 0.010677 -0.005080
# 2 0.000483 0.018572 -0.008867 0.004531 -0.005360 0.009802
# 3 0.001257 -0.008867 0.019116 0.002799 0.014616 -0.006486
# 4 0.004754 0.004531 0.002799 0.030677 0.003738 0.006392
# 5 0.010677 -0.005360 0.014616 0.003738 0.052677 -0.013393
# 6 -0.005080 0.009802 -0.006486 0.006392 -0.013393 0.045748
#
#
# Mechanical properties :
#
#
# Convention : Reuss Voigt Hill
#
# Bulk Modulus (GPa) = 23.22942 35.23273 29.23107
# Shear Modulus (GPa) = 23.25495 31.04058 27.14777
#
# Velocity S-wave (km/s) = 3.19611 3.69257 3.45327
# Velocity P-wave (km/s) = 4.88098 5.80143 5.36100
#
# Compressibility (1/GPa) = 0.04304886
#
# Stress axis : x y z
#
# Youngs Moduli (GPa) = 50.98194 53.84523 52.31179
#
# Poissons Ratio (x) = -0.02599 -0.06576
# Poissons Ratio (y) = -0.02461 0.46383
# Poissons Ratio (z) = -0.06409 0.47743
#
# Static dielectric constant tensor:
#      x y z
#    x 1.835450 0.009410 -0.017040 
#    y 0.009410 1.857070 0.032170 
#    z -0.017040 0.032170 1.878730 
# 
# From -- ./inp_files/272640.got.cif
#   From: 2010.05.17/outbox.cif.g08.bks.cpg/sg2_137_cif.got.tgz:272640.got - 2010.06.03 11:33:40.
