data_PCOD9013710
_publ_section_title
;
Structure prediction by ZEFSAII (Michael W. Deem and Ramdas Pophale) SiO2 
 PCOD9013710
Probable space group: P -1
;
_chemical_formula_sum "Si O2"
_cell_formula_units_Z 16
_cell_length_a 9.242253
_cell_length_b 11.061128
_cell_length_c 12.287324
_cell_angle_alpha 45.046630
_cell_angle_beta 44.871459
_cell_angle_gamma 60.094397
_cell_volume 627.158402
_symmetry_space_group_name_H-M "P -1"
_symmetry_group_IT_number 2
_symmetry_cell_setting 'triclinic'
loop_
_space_group_symop_operation_xyz
x,y,z
-x,-y,-z
loop_
_atom_site_type_symbol
_atom_site_label
_atom_site_fract_x
_atom_site_fract_y
_atom_site_fract_z
Si Si1 0.293838 0.120840 0.398853
Si Si2 0.776565 0.467489 0.590773
Si Si3 0.521991 0.678351 0.439938
Si Si4 0.870613 0.213386 0.504168
Si Si5 0.138053 0.826020 0.836352
Si Si6 0.514757 0.436628 0.155477
Si Si7 0.706866 0.038471 0.104288
Si Si8 0.742257 0.971941 0.903458
O O1 0.359842 0.276054 0.341655
O O2 0.110563 0.194408 0.375899
O O3 0.236989 0.965913 0.610661
O O4 0.488265 0.091083 0.237660
O O5 0.664368 0.630638 0.493913
O O6 0.818765 0.344954 0.544676
O O7 0.591871 0.421636 0.802245
O O8 0.000000 0.500000 0.500000
O O9 0.500000 0.500000 0.500000
O O10 0.285770 0.739886 0.537719
O O11 0.644329 0.842950 0.225704
O O12 0.814217 0.039235 0.705032
O O13 0.266172 0.649300 0.879907
O O14 0.899756 0.813948 0.937221
O O15 0.154850 0.903179 0.902990
O O16 0.500000 0.500000 0.000000
O O17 0.792777 0.093958 0.905058
O O18 0.500000 0.000000 0.000000
#
# Coordination Sequence:
#
# PCOD9013710 Si02
#       8
#     2   2   2   2   2   2   2   2
#     4  10  21  41  65  94 128 164 222 263 317 386
#     4  11  22  39  67  87 125 171 213 257 321 380
#     4  10  22  39  59  93 125 163 215 255 318 384
#     4  10  22  41  62  92 125 169 212 265 314 390
#     4  10  23  42  67  93 129 170 222 264 318 385
#     4  11  23  40  61 102 133 165 211 274 323 377
#     4  11  21  38  67  92 125 163 212 268 315 378
#     4  11  23  42  62  94 130 163 215 268 325 376
#
# _framework density 25.511894000000002
#
# number of rings (size 3 to 8) (size 9 to 14) (size 15 to 20)
#    0.000    1.500    2.500    3.375    5.250    1.500 
#    2.250    0.000    0.000    1.500    0.000    0.000 
#    0.000    0.000    0.000    0.000    0.000    0.000 
#
# Total GULP energy -89081.761470 kJ/mol
# GULP energy per Si atom -5567.610092 kJ/mol
# Density = 2.545383 g / cm^3
# Si number density = 25.511894 Si / 1000 Ang^3
#
#
#
# Elastic Constant Matrix: (Units=GPa)
#
#
# Indices 1 2 3 4 5 6 
#
# 1 183.0386 67.5898 4.9854 15.3720 4.6441 -53.0655
# 2 67.5898 114.3102 25.7242 14.8138 11.5954 -17.4996
# 3 4.9854 25.7242 24.6393 13.7209 12.3408 -8.2176
# 4 15.3720 14.8138 13.7209 28.0364 0.1946 -6.2243
# 5 4.6441 11.5954 12.3408 0.1946 32.6701 3.5555
# 6 -53.0655 -17.4996 -8.2176 -6.2243 3.5555 72.5244
#
#
#
# Elastic Compliance Matrix: (Units=1/GPa)
#
#
# Indices 1 2 3 4 5 6 
#
# 1 0.010392 -0.006714 0.013949 -0.007347 -0.005101 0.007184
# 2 -0.006714 0.015925 -0.020606 0.004623 0.003404 -0.003175
# 3 0.013949 -0.020606 0.108858 -0.046355 -0.037191 0.015414
# 4 -0.007347 0.004623 -0.046355 0.058639 0.017143 -0.005320
# 5 -0.005101 0.003404 -0.037191 0.017143 0.044927 -0.007857
# 6 0.007184 -0.003175 0.015414 -0.005320 -0.007857 0.019954
#
#
# Mechanical properties :
#
#
# Convention : Reuss Voigt Hill
#
# Bulk Modulus (GPa) = 9.22229 57.62080 33.42155
# Shear Modulus (GPa) = 15.54821 41.55875 28.55348
#
# Velocity S-wave (km/s) = 2.47138 4.04046 3.34911
# Velocity P-wave (km/s) = 3.43022 6.66348 5.29945
#
# Compressibility (1/GPa) = 0.10843289
#
# Stress axis : x y z
#
# Youngs Moduli (GPa) = 96.22928 62.79482 9.18630
#
# Poissons Ratio (x) = 0.42163 -0.12814
# Poissons Ratio (y) = 0.64612 0.18929
# Poissons Ratio (z) = -1.34234 1.29394
#
# Static dielectric constant tensor:
#      x y z
#    x 2.134060 -0.020690 0.484210 
#    y -0.020690 2.061500 0.200530 
#    z 0.484210 0.200530 0.371930 
# 
# From -- ./inp_files/205288.got.cif
#   From: 2010.05.17/outbox.cif.g08.bks.cpg/sg2_103_cif.got.tgz:205288.got - 2010.06.03 11:33:40.
