data_PCOD9013488
_publ_section_title
;
Structure prediction by ZEFSAII (Michael W. Deem and Ramdas Pophale) SiO2 
 PCOD9013488
Probable space group: P -1
;
_chemical_formula_sum "Si O2"
_cell_formula_units_Z 12
_cell_length_a 14.932690
_cell_length_b 17.619093
_cell_length_c 12.435834
_cell_angle_alpha 151.164658
_cell_angle_beta 30.603403
_cell_angle_gamma 158.225484
_cell_volume 564.625710
_symmetry_space_group_name_H-M "P -1"
_symmetry_group_IT_number 2
_symmetry_cell_setting 'triclinic'
loop_
_space_group_symop_operation_xyz
x,y,z
-x,-y,-z
loop_
_atom_site_type_symbol
_atom_site_label
_atom_site_fract_x
_atom_site_fract_y
_atom_site_fract_z
Si Si1 0.922423 0.150556 0.873967
Si Si2 0.055646 0.169524 0.997645
Si Si3 0.828510 0.456480 0.356753
Si Si4 0.586081 0.665810 0.519121
Si Si5 0.276032 0.610353 0.374387
Si Si6 0.780695 0.057707 0.368446
O O1 0.200969 0.285267 0.711299
O O2 0.724746 0.910838 0.722961
O O3 0.912503 0.107828 0.958418
O O4 0.866449 0.297901 0.094300
O O5 0.899174 0.106859 0.189517
O O6 0.277028 0.440132 0.107027
O O7 0.144518 0.048107 0.769237
O O8 0.655551 0.436888 0.426846
O O9 0.694988 0.382728 0.519319
O O10 0.093039 0.712099 0.420563
O O11 0.500000 0.500000 0.500000
O O12 0.000000 0.500000 0.500000
O O13 0.483962 0.858014 0.421946
#
# Coordination Sequence:
#
# PCOD9013488 Si02
#       6
#     2   2   2   2   2   2
#     4  11  24  45  68  95 135 170 222 277 324 388
#     4  10  21  41  64  98 129 178 212 266 330 384
#     4  11  24  44  66 101 130 174 218 270 331 387
#     4  11  26  45  69  95 129 175 226 272 331 385
#     4  11  22  41  64 100 135 170 211 265 329 394
#     4  10  23  39  67  97 137 169 220 262 325 403
#
# _framework density 21.253018000000001
#
# number of rings (size 3 to 8) (size 9 to 14) (size 15 to 20)
#    0.000    1.333    1.667    3.000    0.000   10.000 
#    3.000    0.000    0.000    0.000    0.000    0.000 
#    0.000    0.000    0.000    0.000    0.000    0.000 
#
# Total GULP energy -67124.094970 kJ/mol
# GULP energy per Si atom -5593.674581 kJ/mol
# Density = 2.120464 g / cm^3
# Si number density = 21.253018 Si / 1000 Ang^3
#
#
#
# Elastic Constant Matrix: (Units=GPa)
#
#
# Indices 1 2 3 4 5 6 
#
# 1 136.1280 35.3298 25.2252 -7.1315 0.7135 -4.1738
# 2 35.3298 143.0512 29.0682 9.2350 0.7584 -1.2922
# 3 25.2252 29.0682 80.0753 23.0886 -4.6048 -1.7606
# 4 -7.1315 9.2350 23.0886 22.3465 1.2260 -11.2057
# 5 0.7135 0.7584 -4.6048 1.2260 27.9986 8.4808
# 6 -4.1738 -1.2922 -1.7606 -11.2057 8.4808 31.4307
#
#
#
# Elastic Compliance Matrix: (Units=1/GPa)
#
#
# Indices 1 2 3 4 5 6 
#
# 1 0.010213 -0.002000 -0.006983 0.015295 -0.004294 0.007494
# 2 -0.002000 0.007955 -0.001398 -0.003050 0.000080 -0.001126
# 3 -0.006983 -0.001398 0.026210 -0.037219 0.010922 -0.015733
# 4 0.015295 -0.003050 -0.037219 0.114684 -0.025897 0.047696
# 5 -0.004294 0.000080 0.010922 -0.025897 0.045234 -0.021393
# 6 0.007494 -0.001126 -0.015733 0.047696 -0.021393 0.054661
#
#
# Mechanical properties :
#
#
# Convention : Reuss Voigt Hill
#
# Bulk Modulus (GPa) = 42.34868 59.83344 51.09106
# Shear Modulus (GPa) = 17.38580 34.33061 25.85820
#
# Velocity S-wave (km/s) = 2.86324 4.02348 3.49188
# Velocity P-wave (km/s) = 5.55878 7.05681 6.35211
#
# Compressibility (1/GPa) = 0.02361349
#
# Stress axis : x y z
#
# Youngs Moduli (GPa) = 97.91681 125.70797 38.15403
#
# Poissons Ratio (x) = 0.25144 0.26644
# Poissons Ratio (y) = 0.19585 0.05335
# Poissons Ratio (z) = 0.68379 0.17579
#
# Static dielectric constant tensor:
#      x y z
#    x 1.760590 0.002750 -0.032050 
#    y 0.002750 1.783150 -0.007090 
#    z -0.032050 -0.007090 1.780770 
# 
# From -- ./inp_files/23513.got.cif
#   From: 2010.05.17/outbox.cif.g08.bks.cpg/sg2_12_cif.got.tgz:23513.got - 2010.06.03 11:33:40.
