data_PCOD9013630
_publ_section_title
;
Structure prediction by ZEFSAII (Michael W. Deem and Ramdas Pophale) SiO2 
 PCOD9013630
Probable space group: P -1
;
_chemical_formula_sum "Si O2"
_cell_formula_units_Z 14
_cell_length_a 8.519362
_cell_length_b 17.936582
_cell_length_c 12.527844
_cell_angle_alpha 29.539618
_cell_angle_beta 54.319604
_cell_angle_gamma 41.078830
_cell_volume 604.429929
_symmetry_space_group_name_H-M "P -1"
_symmetry_group_IT_number 2
_symmetry_cell_setting 'triclinic'
loop_
_space_group_symop_operation_xyz
x,y,z
-x,-y,-z
loop_
_atom_site_type_symbol
_atom_site_label
_atom_site_fract_x
_atom_site_fract_y
_atom_site_fract_z
Si Si1 0.051220 0.448415 0.788390
Si Si2 0.344756 0.454332 0.340223
Si Si3 0.708688 0.129221 0.435092
Si Si4 0.560408 0.252687 0.104200
Si Si5 0.011955 0.183222 0.566061
Si Si6 0.131065 0.255056 0.206899
Si Si7 0.506852 0.329122 0.660878
O O1 0.347347 0.303744 0.835804
O O2 0.903507 0.453408 0.741485
O O3 0.979588 0.660046 0.570526
O O4 0.991753 0.378094 0.004007
O O5 0.552089 0.272789 0.413268
O O6 0.355502 0.388565 0.537332
O O7 0.401187 0.604529 0.141590
O O8 0.622671 0.243964 0.215387
O O9 0.678716 0.965329 0.632245
O O10 0.000000 0.000000 0.500000
O O11 0.292184 0.314757 0.113661
O O12 0.749973 0.036221 0.255371
O O13 0.985450 0.250605 0.368915
O O14 0.790626 0.184334 0.694833
O O15 0.500000 0.500000 0.500000
#
# Coordination Sequence:
#
# PCOD9013630 Si02
#       7
#     2   2   2   2   2   2   2
#     4  11  23  41  64  94 125 165 210 259 309 363
#     4  12  23  40  63  91 126 165 206 260 312 367
#     4  11  23  39  61  96 131 160 202 261 315 365
#     4  11  22  38  63  97 128 167 207 250 311 375
#     4  10  21  41  65  91 127 167 208 254 305 371
#     4  11  22  40  64  95 127 165 208 251 309 377
#     4  10  23  43  63  88 124 167 211 257 310 372
#
# _framework density 23.162323000000001
#
# number of rings (size 3 to 8) (size 9 to 14) (size 15 to 20)
#    0.000    1.143    0.000    9.000    0.000    2.286 
#    0.000   10.714    0.000    0.000    0.000    0.000 
#    0.000    0.000    0.000    0.000    0.000    0.000 
#
# Total GULP energy -78296.254794 kJ/mol
# GULP energy per Si atom -5592.589628 kJ/mol
# Density = 2.310960 g / cm^3
# Si number density = 23.162323 Si / 1000 Ang^3
#
#
#
# Elastic Constant Matrix: (Units=GPa)
#
#
# Indices 1 2 3 4 5 6 
#
# 1 92.0457 15.3578 -21.1560 8.5990 -3.5900 -11.6784
# 2 15.3578 95.3546 15.4719 2.9300 -7.0455 -8.9175
# 3 -21.1560 15.4719 37.8754 -7.5545 -15.3746 1.4884
# 4 8.5990 2.9300 -7.5545 18.8998 1.6589 0.6172
# 5 -3.5900 -7.0455 -15.3746 1.6589 35.1618 2.3034
# 6 -11.6784 -8.9175 1.4884 0.6172 2.3034 26.7060
#
#
#
# Elastic Compliance Matrix: (Units=1/GPa)
#
#
# Indices 1 2 3 4 5 6 
#
# 1 0.015064 -0.003381 0.011458 -0.002393 0.005696 0.004384
# 2 -0.003381 0.012765 -0.008674 -0.003880 -0.001626 0.003497
# 3 0.011458 -0.008674 0.047023 0.013295 0.019529 -0.002498
# 4 -0.002393 -0.003880 0.013295 0.059868 0.002273 -0.004662
# 5 0.005696 -0.001626 0.019529 0.002273 0.037285 -0.002409
# 6 0.004384 0.003497 -0.002498 -0.004662 -0.002409 0.040984
#
#
# Mechanical properties :
#
#
# Convention : Reuss Voigt Hill
#
# Bulk Modulus (GPa) = 13.57641 27.18034 20.37838
# Shear Modulus (GPa) = 20.94356 30.52699 25.73528
#
# Velocity S-wave (km/s) = 3.01027 3.63431 3.33691
# Velocity P-wave (km/s) = 4.23750 5.41951 4.86454
#
# Compressibility (1/GPa) = 0.07365715
#
# Stress axis : x y z
#
# Youngs Moduli (GPa) = 66.38492 78.33746 21.26616
#
# Poissons Ratio (x) = 0.26485 -0.24366
# Poissons Ratio (y) = 0.22444 0.18447
# Poissons Ratio (z) = -0.76063 0.67953
#
# Static dielectric constant tensor:
#      x y z
#    x 1.902670 -0.019970 -0.015420 
#    y -0.019970 1.897650 0.001650 
#    z -0.015420 0.001650 1.846580 
# 
# From -- ./inp_files/159089.got.cif
#   From: 2010.05.17/outbox.cif.g08.bks.cpg/sg2_80_cif.got.tgz:159089.got - 2010.06.03 11:33:40.
