data_PCOD9013303
_publ_section_title
;
Structure prediction by ZEFSAII (Michael W. Deem and Ramdas Pophale) SiO2 
 PCOD9013303
Probable space group: P -1
;
_chemical_formula_sum "Si O2"
_cell_formula_units_Z 16
_cell_length_a 16.374291
_cell_length_b 9.046168
_cell_length_c 11.027718
_cell_angle_alpha 99.230437
_cell_angle_beta 71.812216
_cell_angle_gamma 149.952728
_cell_volume 756.066364
_symmetry_space_group_name_H-M "P -1"
_symmetry_group_IT_number 2
_symmetry_cell_setting 'triclinic'
loop_
_space_group_symop_operation_xyz
x,y,z
-x,-y,-z
loop_
_atom_site_type_symbol
_atom_site_label
_atom_site_fract_x
_atom_site_fract_y
_atom_site_fract_z
Si Si1 0.547032 0.924937 0.141203
Si Si2 0.159491 0.758905 0.131803
Si Si3 0.198787 0.677196 0.708841
Si Si4 0.715469 0.248722 0.723618
Si Si5 0.392126 0.413023 0.430198
Si Si6 0.831077 0.640705 0.504654
Si Si7 0.190292 0.843213 0.497550
Si Si8 0.600259 0.604758 0.845376
O O1 0.634825 0.085693 0.252207
O O2 0.450046 0.931564 0.156580
O O3 0.396185 0.569064 0.162910
O O4 0.704013 0.099608 0.009584
O O5 0.156373 0.625855 0.219059
O O6 0.964121 0.511782 0.160285
O O7 0.240923 0.038346 0.181123
O O8 0.155044 0.460312 0.624149
O O9 0.226141 0.846970 0.617580
O O10 0.788993 0.479678 0.623695
O O11 0.672514 0.040986 0.632804
O O12 0.500000 0.500000 0.500000
O O13 0.328776 0.488464 0.470602
O O14 0.473706 0.499341 0.271468
O O15 0.212387 0.047577 0.480965
O O16 0.000000 0.000000 0.500000
O O17 0.000000 0.500000 0.500000
O O18 0.500000 0.500000 0.000000
#
# Coordination Sequence:
#
# PCOD9013303 Si02
#       8
#     2   2   2   2   2   2   2   2
#     4  11  24  40  63  96 125 166 211 273 316 365
#     4  11  22  43  67  87 126 176 218 246 315 400
#     4  11  24  40  64  94 131 159 209 270 326 369
#     4  11  22  38  66  90 127 160 218 253 312 379
#     4  12  23  39  64  97 126 158 211 272 325 366
#     4  11  25  40  65  94 128 168 210 261 321 391
#     4  11  21  38  63  88 121 164 202 253 316 388
#     4  10  21  41  64  89 126 172 215 251 316 394
#
# _framework density 21.162163
#
# number of rings (size 3 to 8) (size 9 to 14) (size 15 to 20)
#    0.000    1.000    3.750    3.750    1.750    1.000 
#    0.000    0.000    0.000    0.750    0.000    0.000 
#    0.000    0.000    0.000    0.000    0.000    0.000 
#
# Total GULP energy -89125.902576 kJ/mol
# GULP energy per Si atom -5570.368911 kJ/mol
# Density = 2.111400 g / cm^3
# Si number density = 21.162163 Si / 1000 Ang^3
#
#
#
# Elastic Constant Matrix: (Units=GPa)
#
#
# Indices 1 2 3 4 5 6 
#
# 1 121.3522 37.0972 36.2917 -5.0094 -11.1417 -2.4930
# 2 37.0972 52.6944 12.3438 2.2023 -6.1866 -0.8908
# 3 36.2917 12.3438 90.9219 8.1311 -14.3913 -2.9232
# 4 -5.0094 2.2023 8.1311 23.1757 -2.0087 3.4277
# 5 -11.1417 -6.1866 -14.3913 -2.0087 41.1856 -0.1566
# 6 -2.4930 -0.8908 -2.9232 3.4277 -0.1566 33.9846
#
#
#
# Elastic Compliance Matrix: (Units=1/GPa)
#
#
# Indices 1 2 3 4 5 6 
#
# 1 0.012081 -0.007647 -0.004077 0.004872 0.000932 -0.000152
# 2 -0.007647 0.024644 0.000332 -0.004055 0.001553 0.000530
# 3 -0.004077 0.000332 0.013679 -0.005630 0.003458 0.001470
# 4 0.004872 -0.004055 -0.005630 0.047392 0.001034 -0.005008
# 5 0.000932 0.001553 0.003458 0.001034 0.026026 0.000422
# 6 -0.000152 0.000530 0.001470 -0.005008 0.000422 0.030061
#
#
# Mechanical properties :
#
#
# Convention : Reuss Voigt Hill
#
# Bulk Modulus (GPa) = 36.20574 48.49266 42.34920
# Shear Modulus (GPa) = 26.90008 31.61824 29.25916
#
# Velocity S-wave (km/s) = 3.56917 3.86954 3.72239
# Velocity P-wave (km/s) = 5.84219 6.55202 6.20726
#
# Compressibility (1/GPa) = 0.02761993
#
# Stress axis : x y z
#
# Youngs Moduli (GPa) = 82.77541 40.57830 73.10632
#
# Poissons Ratio (x) = 0.31029 0.29805
# Poissons Ratio (y) = 0.63296 -0.02427
# Poissons Ratio (z) = 0.33748 -0.01347
#
# Static dielectric constant tensor:
#      x y z
#    x 1.758480 -0.004770 -0.026080 
#    y -0.004770 1.822120 -0.028340 
#    z -0.026080 -0.028340 1.845460 
# 
# From -- ./inp_files/180097.got.cif
#   From: 2010.05.17/outbox.cif.g08.bks.cpg/sg2_91_cif.got.tgz:180097.got - 2010.06.03 11:33:40.
