data_PCOD9013922
_publ_section_title
;
Structure prediction by ZEFSAII (Michael W. Deem and Ramdas Pophale) SiO2 
 PCOD9013922
Probable space group: P -1
;
_chemical_formula_sum "Si O2"
_cell_formula_units_Z 14
_cell_length_a 19.554151
_cell_length_b 5.967474
_cell_length_c 8.860735
_cell_angle_alpha 86.127666
_cell_angle_beta 138.165319
_cell_angle_gamma 102.622805
_cell_volume 665.707695
_symmetry_space_group_name_H-M "P -1"
_symmetry_group_IT_number 2
_symmetry_cell_setting 'triclinic'
loop_
_space_group_symop_operation_xyz
x,y,z
-x,-y,-z
loop_
_atom_site_type_symbol
_atom_site_label
_atom_site_fract_x
_atom_site_fract_y
_atom_site_fract_z
Si Si1 0.138306 0.813783 0.812641
Si Si2 0.430425 0.639470 0.970253
Si Si3 0.730519 0.783943 0.198001
Si Si4 0.838718 0.971724 0.834916
Si Si5 0.091959 0.424155 0.537858
Si Si6 0.996984 0.310128 0.874309
Si Si7 0.360147 0.007540 0.672352
O O1 0.152725 0.576228 0.770297
O O2 0.012156 0.769935 0.576805
O O3 0.218848 0.029945 0.854903
O O4 0.147418 0.861351 0.003641
O O5 0.357797 0.454906 0.971447
O O6 0.361597 0.745169 0.731511
O O7 0.500000 0.500000 0.000000
O O8 0.518652 0.856495 0.172012
O O9 0.830520 0.693007 0.420304
O O10 0.680309 0.902533 0.242553
O O11 0.909382 0.091653 0.804299
O O12 0.718601 0.939417 0.585042
O O13 0.892460 0.759759 0.967998
O O14 0.049243 0.597231 0.353010
O O15 0.000000 0.500000 0.000000
#
# Coordination Sequence:
#
# PCOD9013922 Si02
#       7
#     2   2   2   2   2   2   2
#     4  11  25  37  56  89 128 165 205 239 297 362
#     4   9  20  40  67  92 112 150 201 253 306 361
#     4  11  21  38  64  88 118 161 204 247 297 359
#     4  11  24  37  58  90 123 159 198 252 297 353
#     4  11  24  39  58  85 126 172 203 243 288 359
#     4  11  22  38  57  84 124 162 205 244 291 349
#     4  10  21  41  66  91 117 149 204 255 302 358
#
# _framework density 21.030252999999998
#
# number of rings (size 3 to 8) (size 9 to 14) (size 15 to 20)
#    0.000    1.429    1.429    3.857    8.000    1.143 
#    0.000    0.714    0.000   12.000    0.000    0.000 
#    0.000    0.000    0.000    0.000    0.000    0.000 
#
# Total GULP energy -78037.117129 kJ/mol
# GULP energy per Si atom -5574.079795 kJ/mol
# Density = 2.098239 g / cm^3
# Si number density = 21.030253 Si / 1000 Ang^3
#
#
#
# Elastic Constant Matrix: (Units=GPa)
#
#
# Indices 1 2 3 4 5 6 
#
# 1 98.3568 38.3022 35.8375 0.8815 8.5750 11.5921
# 2 38.3022 71.3950 11.5906 -3.8352 2.1840 10.3381
# 3 35.8375 11.5906 67.8844 -0.6056 -3.3501 -5.3014
# 4 0.8815 -3.8352 -0.6056 30.8398 0.1480 14.6271
# 5 8.5750 2.1840 -3.3501 0.1480 34.4269 3.0733
# 6 11.5921 10.3381 -5.3014 14.6271 3.0733 52.1043
#
#
#
# Elastic Compliance Matrix: (Units=1/GPa)
#
#
# Indices 1 2 3 4 5 6 
#
# 1 0.016492 -0.007037 -0.007930 -0.000160 -0.004183 -0.002788
# 2 -0.007037 0.018370 0.000407 0.004015 0.000897 -0.003218
# 3 -0.007930 0.000407 0.019304 -0.001145 0.003497 0.003763
# 4 -0.000160 0.004015 -0.001145 0.038456 0.000553 -0.011706
# 5 -0.004183 0.000897 0.003497 0.000553 0.030445 -0.000843
# 6 -0.002788 -0.003218 0.003763 -0.011706 -0.000843 0.024170
#
#
# Mechanical properties :
#
#
# Convention : Reuss Voigt Hill
#
# Bulk Modulus (GPa) = 39.92716 45.45518 42.69117
# Shear Modulus (GPa) = 27.07005 33.60128 30.33566
#
# Velocity S-wave (km/s) = 3.59164 4.00153 3.80212
# Velocity P-wave (km/s) = 6.01886 6.55826 6.29434
#
# Compressibility (1/GPa) = 0.02504561
#
# Stress axis : x y z
#
# Youngs Moduli (GPa) = 60.63662 54.43697 51.80217
#
# Poissons Ratio (x) = 0.38307 0.41081
# Poissons Ratio (y) = 0.42670 -0.02110
# Poissons Ratio (z) = 0.48087 -0.02217
#
# Static dielectric constant tensor:
#      x y z
#    x 1.768820 0.016610 0.016620 
#    y 0.016610 1.853560 0.021300 
#    z 0.016620 0.021300 1.785950 
# 
# From -- ./inp_files/322681.got.cif
#   From: 2010.05.17/outbox.cif.g08.bks.cpg/sg2_162_cif.got.tgz:322681.got - 2010.06.03 11:33:40.
