data_PCOD9013143
_publ_section_title
;
Structure prediction by ZEFSAII (Michael W. Deem and Ramdas Pophale) SiO2 
 PCOD9013143
Probable space group: P -1
;
_chemical_formula_sum "Si O2"
_cell_formula_units_Z 16
_cell_length_a 12.903707
_cell_length_b 11.342452
_cell_length_c 10.728370
_cell_angle_alpha 92.363265
_cell_angle_beta 37.900136
_cell_angle_gamma 117.618148
_cell_volume 686.076240
_symmetry_space_group_name_H-M "P -1"
_symmetry_group_IT_number 2
_symmetry_cell_setting 'triclinic'
loop_
_space_group_symop_operation_xyz
x,y,z
-x,-y,-z
loop_
_atom_site_type_symbol
_atom_site_label
_atom_site_fract_x
_atom_site_fract_y
_atom_site_fract_z
Si Si1 0.502573 0.142180 0.182563
Si Si2 0.144581 0.561141 0.991995
Si Si3 0.381440 0.218671 0.077027
Si Si4 0.751258 0.485707 0.536202
Si Si5 0.133231 0.861054 0.202436
Si Si6 0.318407 0.384429 0.794863
Si Si7 0.975975 0.118370 0.311792
Si Si8 0.067576 0.119940 0.826120
O O1 0.268477 0.949943 0.414518
O O2 0.643580 0.242514 0.178379
O O3 0.457788 0.237296 0.146838
O O4 0.684836 0.151415 0.936272
O O5 0.948261 0.497581 0.283474
O O6 0.284392 0.506500 0.849082
O O7 0.000000 0.500000 0.000000
O O8 0.607323 0.354664 0.780619
O O9 0.176768 0.209886 0.230843
O O10 0.236411 0.027332 0.176541
O O11 0.544006 0.425350 0.635839
O O12 0.883539 0.673211 0.454938
O O13 0.124542 0.892438 0.063488
O O14 0.259591 0.302993 0.710452
O O15 0.099549 0.237069 0.083609
O O16 0.882574 0.945628 0.338137
O O17 0.000000 0.000000 0.000000
#
# Coordination Sequence:
#
# PCOD9013143 Si02
#       8
#     2   2   2   2   2   2   2   2
#     4  11  23  41  63  97 130 166 217 275 321 388
#     4  11  26  41  62 102 131 166 219 270 330 391
#     4  10  22  44  67  91 130 176 217 266 332 382
#     4  10  24  43  67  96 132 173 221 272 319 397
#     4  10  22  39  63  95 125 170 220 261 335 377
#     4  10  21  41  63  92 129 176 211 263 335 383
#     4   9  21  39  63  94 125 166 219 267 325 389
#     4   9  19  39  62  89 125 170 216 256 321 395
#
# _framework density 23.321023
#
# number of rings (size 3 to 8) (size 9 to 14) (size 15 to 20)
#    0.000    2.000    0.000    3.000    7.000    3.000 
#    2.250    3.125    0.000    0.000    0.000    0.000 
#    0.000    0.000    0.000    0.000    0.000    0.000 
#
# Total GULP energy -89129.555488 kJ/mol
# GULP energy per Si atom -5570.597218 kJ/mol
# Density = 2.326794 g / cm^3
# Si number density = 23.321023 Si / 1000 Ang^3
#
#
#
# Elastic Constant Matrix: (Units=GPa)
#
#
# Indices 1 2 3 4 5 6 
#
# 1 80.4736 4.4165 26.2556 5.7642 10.0044 17.3346
# 2 4.4165 70.6540 -0.6421 -1.6492 7.2619 3.8179
# 3 26.2556 -0.6421 128.8217 -5.3459 9.3610 4.8323
# 4 5.7642 -1.6492 -5.3459 23.5226 -6.3369 -3.1752
# 5 10.0044 7.2619 9.3610 -6.3369 35.2707 -8.4144
# 6 17.3346 3.8179 4.8323 -3.1752 -8.4144 22.1062
#
#
#
# Elastic Compliance Matrix: (Units=1/GPa)
#
#
# Indices 1 2 3 4 5 6 
#
# 1 0.020560 0.000913 -0.002930 -0.012061 -0.012707 -0.022208
# 2 0.000913 0.014872 0.000401 -0.001147 -0.004924 -0.005411
# 3 -0.002930 0.000401 0.008523 0.002463 -0.000990 0.000342
# 4 -0.012061 -0.001147 0.002463 0.054141 0.018435 0.023911
# 5 -0.012707 -0.004924 -0.000990 0.018435 0.043784 0.030345
# 6 -0.022208 -0.005411 0.000342 0.023911 0.030345 0.078495
#
#
# Mechanical properties :
#
#
# Convention : Reuss Voigt Hill
#
# Bulk Modulus (GPa) = 24.55609 37.77878 31.16744
# Shear Modulus (GPa) = 21.08095 32.84119 26.96107
#
# Velocity S-wave (km/s) = 3.00983 3.75670 3.40381
# Velocity P-wave (km/s) = 4.75723 5.92045 5.37042
#
# Compressibility (1/GPa) = 0.04072309
#
# Stress axis : x y z
#
# Youngs Moduli (GPa) = 48.63882 67.24119 117.32836
#
# Poissons Ratio (x) = -0.06138 0.34376
# Poissons Ratio (y) = -0.04440 -0.04708
# Poissons Ratio (z) = 0.14251 -0.02698
#
# Static dielectric constant tensor:
#      x y z
#    x 1.890270 0.008320 -0.013630 
#    y 0.008320 1.954470 0.045080 
#    z -0.013630 0.045080 1.953650 
# 
# From -- ./inp_files/428078.got.cif
#   From: 2010.05.17/outbox.cif.g08.bks.cpg/sg2_215_cif.got.tgz:428078.got - 2010.06.03 11:33:40.
