data_PCOD9013759
_publ_section_title
;
Structure prediction by ZEFSAII (Michael W. Deem and Ramdas Pophale) SiO2 
 PCOD9013759
Probable space group: P -1
;
_chemical_formula_sum "Si O2"
_cell_formula_units_Z 16
_cell_length_a 13.168634
_cell_length_b 9.521672
_cell_length_c 19.039553
_cell_angle_alpha 130.382823
_cell_angle_beta 140.646671
_cell_angle_gamma 26.612594
_cell_volume 670.140214
_symmetry_space_group_name_H-M "P -1"
_symmetry_group_IT_number 2
_symmetry_cell_setting 'triclinic'
loop_
_space_group_symop_operation_xyz
x,y,z
-x,-y,-z
loop_
_atom_site_type_symbol
_atom_site_label
_atom_site_fract_x
_atom_site_fract_y
_atom_site_fract_z
Si Si1 0.960436 0.271118 0.008171
Si Si2 0.325658 0.185333 0.587390
Si Si3 0.296065 0.599924 0.655234
Si Si4 0.782489 0.342145 0.084184
Si Si5 0.429113 0.139040 0.784597
Si Si6 0.323226 0.485161 0.480868
Si Si7 0.833087 0.274478 0.673711
Si Si8 0.663081 0.613060 0.826820
O O1 0.784319 0.429335 0.035995
O O2 0.266474 0.055085 0.119444
O O3 0.828313 0.507903 0.950974
O O4 0.993149 0.029512 0.919606
O O5 0.430915 0.291712 0.659909
O O6 0.366127 0.109991 0.666914
O O7 0.000000 0.500000 0.500000
O O8 0.494379 0.870988 0.535147
O O9 0.178926 0.651859 0.532439
O O10 0.498888 0.580584 0.746892
O O11 0.054819 0.903764 0.673484
O O12 0.791851 0.497471 0.195574
O O13 0.500000 0.500000 0.000000
O O14 0.456929 0.962482 0.803058
O O15 0.534941 0.457764 0.578839
O O16 0.149648 0.649398 0.369427
O O17 0.853657 0.388499 0.788229
#
# Coordination Sequence:
#
# PCOD9013759 Si02
#       8
#     2   2   2   2   2   2   2   2
#     4  10  23  44  71  97 134 176 220 275 334 400
#     4  12  25  44  67  98 136 175 226 283 331 395
#     4  11  25  38  67  98 130 181 226 272 337 392
#     4   9  22  42  70 101 133 170 218 277 335 397
#     4  11  25  45  66  98 136 179 222 273 335 398
#     4  10  21  43  63  92 135 173 225 273 328 398
#     4  10  21  41  65  95 133 177 217 277 330 395
#     4  11  25  42  68 101 135 174 225 274 332 402
#
# _framework density 23.875599999999999
#
# number of rings (size 3 to 8) (size 9 to 14) (size 15 to 20)
#    0.000    1.500    2.500    1.125    7.000    3.500 
#    2.250    0.000    0.000    0.000    0.000    0.000 
#    0.000    0.000    0.000    0.000    0.000    0.000 
#
# Total GULP energy -89518.215035 kJ/mol
# GULP energy per Si atom -5594.888440 kJ/mol
# Density = 2.382126 g / cm^3
# Si number density = 23.875600 Si / 1000 Ang^3
#
#
#
# Elastic Constant Matrix: (Units=GPa)
#
#
# Indices 1 2 3 4 5 6 
#
# 1 81.2099 9.8234 23.7761 -10.3360 -1.5296 4.6089
# 2 9.8234 55.0217 11.6590 15.4724 7.9722 5.4773
# 3 23.7761 11.6590 69.7654 -11.1659 -2.8843 -8.9875
# 4 -10.3360 15.4724 -11.1659 30.9264 9.7045 -9.6030
# 5 -1.5296 7.9722 -2.8843 9.7045 22.4306 4.4967
# 6 4.6089 5.4773 -8.9875 -9.6030 4.4967 38.6870
#
#
#
# Elastic Compliance Matrix: (Units=1/GPa)
#
#
# Indices 1 2 3 4 5 6 
#
# 1 0.014437 -0.002956 -0.003810 0.004718 -0.000299 -0.000981
# 2 -0.002956 0.027451 -0.008341 -0.021162 0.000282 -0.010758
# 3 -0.003810 -0.008341 0.020552 0.014471 -0.002988 0.010349
# 4 0.004718 -0.021162 0.014471 0.064608 -0.023166 0.024526
# 5 -0.000299 0.000282 -0.002988 -0.023166 0.056714 -0.013041
# 6 -0.000981 -0.010758 0.010349 0.024526 -0.013041 0.037496
#
#
# Mechanical properties :
#
#
# Convention : Reuss Voigt Hill
#
# Bulk Modulus (GPa) = 31.03114 32.94601 31.98857
# Shear Modulus (GPa) = 19.06835 29.12468 24.09651
#
# Velocity S-wave (km/s) = 2.82911 3.49643 3.18032
# Velocity P-wave (km/s) = 4.86796 5.48899 5.18778
#
# Compressibility (1/GPa) = 0.03222570
#
# Stress axis : x y z
#
# Youngs Moduli (GPa) = 69.26533 36.42880 48.65749
#
# Poissons Ratio (x) = 0.10768 0.18538
# Poissons Ratio (y) = 0.20474 0.40587
# Poissons Ratio (z) = 0.26389 0.30386
#
# Static dielectric constant tensor:
#      x y z
#    x 1.932870 0.023290 0.011120 
#    y 0.023290 1.877970 -0.001150 
#    z 0.011120 -0.001150 1.904670 
# 
# From -- ./inp_files/139358.got.cif
#   From: 2010.05.17/outbox.cif.g08.bks.cpg/sg2_70_cif.got.tgz:139358.got - 2010.06.03 11:33:40.
