data_PCOD9013207
_publ_section_title
;
Structure prediction by ZEFSAII (Michael W. Deem and Ramdas Pophale) SiO2 
 PCOD9013207
Probable space group: P -1
;
_chemical_formula_sum "Si O2"
_cell_formula_units_Z 14
_cell_length_a 23.064282
_cell_length_b 28.170248
_cell_length_c 7.086720
_cell_angle_alpha 50.896153
_cell_angle_beta 47.252163
_cell_angle_gamma 10.218485
_cell_volume 574.759007
_symmetry_space_group_name_H-M "P -1"
_symmetry_group_IT_number 2
_symmetry_cell_setting 'triclinic'
loop_
_space_group_symop_operation_xyz
x,y,z
-x,-y,-z
loop_
_atom_site_type_symbol
_atom_site_label
_atom_site_fract_x
_atom_site_fract_y
_atom_site_fract_z
Si Si1 0.535282 0.037431 0.435889
Si Si2 0.895441 0.197384 0.471350
Si Si3 0.889362 0.737310 0.758137
Si Si4 0.878774 0.307550 0.552209
Si Si5 0.969133 0.036927 0.248874
Si Si6 0.696382 0.094794 0.088238
Si Si7 0.787534 0.600997 0.862259
O O1 0.481770 0.138052 0.173674
O O2 0.203305 0.303467 0.646351
O O3 0.500000 0.000000 0.500000
O O4 0.876772 0.769461 0.489445
O O5 0.500000 0.500000 0.500000
O O6 0.957024 0.204017 0.465603
O O7 0.937887 0.097714 0.713671
O O8 0.146558 0.015654 0.191965
O O9 0.979796 0.730345 0.691453
O O10 0.181792 0.466180 0.855523
O O11 0.500000 0.000000 0.000000
O O12 0.444273 0.635226 0.706480
O O13 0.078471 0.126009 0.743629
O O14 0.000000 0.000000 0.500000
O O15 0.238439 0.889942 0.992299
O O16 0.311356 0.360724 0.209129
#
# Coordination Sequence:
#
# PCOD9013207 Si02
#       7
#     2   2   2   2   2   2   2
#     4  10  22  44  67  98 128 173 229 276 340 413
#     4  11  24  42  67  96 132 183 225 271 347 401
#     4  10  22  42  68  94 132 178 218 283 340 389
#     4  12  23  45  66  95 140 176 227 284 335 407
#     4  10  21  41  63  95 134 171 222 278 332 401
#     4  11  23  43  67  98 138 175 223 286 333 407
#     4  10  22  43  65  93 139 169 216 290 335 390
#
# _framework density 24.358035000000001
#
# number of rings (size 3 to 8) (size 9 to 14) (size 15 to 20)
#    0.000    1.429    4.286    2.143    0.000    3.429 
#    5.143    0.000    0.000    0.000    0.000    0.000 
#    0.000    0.000    0.000    0.000    0.000    0.000 
#
# Total GULP energy -78198.561826 kJ/mol
# GULP energy per Si atom -5585.611559 kJ/mol
# Density = 2.430260 g / cm^3
# Si number density = 24.358035 Si / 1000 Ang^3
#
#
#
# Elastic Constant Matrix: (Units=GPa)
#
#
# Indices 1 2 3 4 5 6 
#
# 1 141.8183 24.6313 47.8524 -20.0859 -36.3581 -0.6505
# 2 24.6313 102.5115 49.2323 -36.2962 0.6543 -16.5941
# 3 47.8524 49.2323 112.2001 -42.2506 -40.1757 3.8454
# 4 -20.0859 -36.2962 -42.2506 62.6670 0.1370 -0.7078
# 5 -36.3581 0.6543 -40.1757 0.1370 44.4712 -5.8460
# 6 -0.6505 -16.5941 3.8454 -0.7078 -5.8460 37.6791
#
#
#
# Elastic Compliance Matrix: (Units=1/GPa)
#
#
# Indices 1 2 3 4 5 6 
#
# 1 0.009702 -0.001644 0.000587 0.002543 0.008578 0.000762
# 2 -0.001644 0.016662 -0.008570 0.003443 -0.008430 0.006941
# 3 0.000587 -0.008570 0.025473 0.012319 0.023248 -0.002525
# 4 0.002543 0.003443 0.012319 0.027075 0.013455 0.002899
# 5 0.008578 -0.008430 0.023248 0.013455 0.050876 0.002209
# 6 0.000762 0.006941 -0.002525 0.002899 0.002209 0.030265
#
#
# Mechanical properties :
#
#
# Convention : Reuss Voigt Hill
#
# Bulk Modulus (GPa) = 30.69133 66.66243 48.67688
# Shear Modulus (GPa) = 26.29256 44.61772 35.45514
#
# Velocity S-wave (km/s) = 3.28902 4.28453 3.81935
# Velocity P-wave (km/s) = 5.20105 7.20440 6.28309
#
# Compressibility (1/GPa) = 0.03258249
#
# Stress axis : x y z
#
# Youngs Moduli (GPa) = 103.07443 60.01619 39.25745
#
# Poissons Ratio (x) = 0.09866 -0.02304
# Poissons Ratio (y) = 0.16944 0.33644
# Poissons Ratio (z) = -0.06048 0.51434
#
# Static dielectric constant tensor:
#      x y z
#    x 2.094860 -0.219620 -0.184930 
#    y -0.219620 2.196770 0.229170 
#    z -0.184930 0.229170 2.295540 
# 
# From -- ./inp_files/355676.got.cif
#   From: 2010.05.17/outbox.cif.g08.bks.cpg/sg2_178_cif.got.tgz:355676.got - 2010.06.03 11:33:40.
