data_PCOD9013921
_publ_section_title
;
Structure prediction by ZEFSAII (Michael W. Deem and Ramdas Pophale) SiO2 
 PCOD9013921
Probable space group: P -1
;
_chemical_formula_sum "Si O2"
_cell_formula_units_Z 16
_cell_length_a 16.579126
_cell_length_b 9.530766
_cell_length_c 8.113163
_cell_angle_alpha 111.973627
_cell_angle_beta 77.665682
_cell_angle_gamma 141.911788
_cell_volume 726.001127
_symmetry_space_group_name_H-M "P -1"
_symmetry_group_IT_number 2
_symmetry_cell_setting 'triclinic'
loop_
_space_group_symop_operation_xyz
x,y,z
-x,-y,-z
loop_
_atom_site_type_symbol
_atom_site_label
_atom_site_fract_x
_atom_site_fract_y
_atom_site_fract_z
Si Si1 0.117132 0.502970 0.954349
Si Si2 0.929254 0.060733 0.587616
Si Si3 0.690123 0.695159 0.762050
Si Si4 0.867998 0.168284 0.089015
Si Si5 0.543242 0.488240 0.148604
Si Si6 0.755982 0.019491 0.419614
Si Si7 0.389414 0.726693 0.876114
Si Si8 0.503028 0.169672 0.491636
O O1 0.148436 0.721654 0.990418
O O2 0.249706 0.599057 0.922899
O O3 0.022077 0.291100 0.767114
O O4 0.025513 0.361783 0.095808
O O5 0.876511 0.108743 0.499463
O O6 0.795281 0.821191 0.631037
O O7 0.000000 0.000000 0.500000
O O8 0.589790 0.689134 0.764240
O O9 0.590254 0.409098 0.674040
O O10 0.781559 0.895671 0.958170
O O11 0.815395 0.157250 0.279063
O O12 0.591082 0.389373 0.068484
O O13 0.657070 0.741932 0.297859
O O14 0.500000 0.500000 0.000000
O O15 0.650058 0.989344 0.525043
O O16 0.421853 0.730056 0.673431
O O17 0.500000 0.000000 0.000000
O O18 0.500000 0.000000 0.500000
#
# Coordination Sequence:
#
# PCOD9013921 Si02
#       8
#     2   2   2   2   2   2   2   2
#     4  10  23  43  65  93 136 173 227 270 343 399
#     4  11  23  42  63  93 134 181 220 282 332 404
#     4  10  21  41  66  90 134 176 216 275 340 390
#     4  10  21  41  68  94 130 181 218 275 329 406
#     4  11  22  39  66  97 130 173 225 278 331 396
#     4  11  23  40  68  97 132 172 232 266 343 393
#     4  12  26  43  70 100 133 174 224 279 346 407
#     4  11  25  41  68 104 137 173 223 287 344 401
#
# _framework density 22.038535
#
# number of rings (size 3 to 8) (size 9 to 14) (size 15 to 20)
#    0.000    1.250    1.250    4.500    3.500    4.500 
#    2.250    3.125    0.000    0.000    0.000    0.000 
#    0.000    0.000    0.000    0.000    0.000    0.000 
#
# Total GULP energy -89206.924105 kJ/mol
# GULP energy per Si atom -5575.432757 kJ/mol
# Density = 2.198837 g / cm^3
# Si number density = 22.038535 Si / 1000 Ang^3
#
#
#
# Elastic Constant Matrix: (Units=GPa)
#
#
# Indices 1 2 3 4 5 6 
#
# 1 167.1528 60.9208 32.9380 -8.7696 -17.3940 19.5656
# 2 60.9208 100.7260 20.7093 1.6057 -5.8095 28.2642
# 3 32.9380 20.7093 47.7969 -0.0291 -14.7713 9.2003
# 4 -8.7696 1.6057 -0.0291 41.9700 7.2385 -16.6116
# 5 -17.3940 -5.8095 -14.7713 7.2385 30.7446 -3.7219
# 6 19.5656 28.2642 9.2003 -16.6116 -3.7219 50.4006
#
#
#
# Elastic Compliance Matrix: (Units=1/GPa)
#
#
# Indices 1 2 3 4 5 6 
#
# 1 0.008548 -0.004556 -0.003428 0.001866 0.001964 0.000622
# 2 -0.004556 0.015433 -0.002183 -0.004630 -0.000596 -0.008058
# 3 -0.003428 -0.002183 0.028483 -0.003865 0.011874 -0.003041
# 4 0.001866 -0.004630 -0.003865 0.030439 -0.007382 0.012065
# 5 0.001964 -0.000596 0.011874 -0.007382 0.040723 -0.002022
# 6 0.000622 -0.008058 -0.003041 0.012065 -0.002022 0.028500
#
#
# Mechanical properties :
#
#
# Convention : Reuss Voigt Hill
#
# Bulk Modulus (GPa) = 31.12434 60.53468 45.82951
# Shear Modulus (GPa) = 27.29689 38.03024 32.66357
#
# Velocity S-wave (km/s) = 3.52319 4.15857 3.85400
# Velocity P-wave (km/s) = 5.54111 7.11235 6.37532
#
# Compressibility (1/GPa) = 0.03212919
#
# Stress axis : x y z
#
# Youngs Moduli (GPa) = 116.98499 64.79673 35.10892
#
# Poissons Ratio (x) = 0.29523 0.12036
# Poissons Ratio (y) = 0.53302 0.07663
# Poissons Ratio (z) = 0.40105 0.14144
#
# Static dielectric constant tensor:
#      x y z
#    x 1.877390 0.028480 -0.026380 
#    y 0.028480 1.842420 -0.063520 
#    z -0.026380 -0.063520 1.894930 
# 
# From -- ./inp_files/299204.got.cif
#   From: 2010.05.17/outbox.cif.g08.bks.cpg/sg2_150_cif.got.tgz:299204.got - 2010.06.03 11:33:40.
