data_PCOD9013760
_publ_section_title
;
Structure prediction by ZEFSAII (Michael W. Deem and Ramdas Pophale) SiO2 
 PCOD9013760
Probable space group: P -1
;
_chemical_formula_sum "Si O2"
_cell_formula_units_Z 13
_cell_length_a 7.093556
_cell_length_b 4.873584
_cell_length_c 21.071651
_cell_angle_alpha 116.581328
_cell_angle_beta 50.750322
_cell_angle_gamma 101.871159
_cell_volume 501.334956
_symmetry_space_group_name_H-M "P -1"
_symmetry_group_IT_number 2
_symmetry_cell_setting 'triclinic'
loop_
_space_group_symop_operation_xyz
x,y,z
-x,-y,-z
loop_
_atom_site_type_symbol
_atom_site_label
_atom_site_fract_x
_atom_site_fract_y
_atom_site_fract_z
Si Si1 0.764885 0.961653 0.614126
Si Si2 0.500000 0.000000 0.000000
Si Si3 0.908214 0.538087 0.434268
Si Si4 0.717937 0.980089 0.199031
Si Si5 0.038594 0.505465 0.721426
Si Si6 0.478895 0.138596 0.135577
Si Si7 0.149815 0.623802 0.126725
O O1 0.978493 0.791728 0.596654
O O2 0.723825 0.713933 0.542419
O O3 0.864236 0.254504 0.590983
O O4 0.528249 0.070316 0.716281
O O5 0.745990 0.728574 0.929923
O O6 0.395338 0.752765 0.942299
O O7 0.826253 0.560179 0.380872
O O8 0.640378 0.048890 0.151139
O O9 0.927547 0.701650 0.134957
O O10 0.818000 0.266293 0.243724
O O11 0.962022 0.274527 0.768788
O O12 0.768014 0.653542 0.772100
O O13 0.362866 0.851444 0.091431
#
# Coordination Sequence:
#
# PCOD9013760 Si02
#       7
#     2   1   2   2   2   2   2
#     4  10  22  39  67  96 131 177 223 266 329 375
#     4  10  22  42  66  88 122 166 204 270 332 394
#     4  10  21  41  65  95 133 179 219 269 322 388
#     4  11  23  38  64  96 123 169 218 268 319 391
#     4  10  22  38  62  92 128 169 216 261 326 381
#     4  10  21  42  63  88 125 164 207 268 327 390
#     4  10  23  40  62  92 124 163 215 262 330 390
#
# _framework density 25.930765000000001
#
# number of rings (size 3 to 8) (size 9 to 14) (size 15 to 20)
#    0.000    1.846    1.538    1.385    4.308    3.692 
#    0.000    8.462    0.000    0.000    0.000    0.000 
#    0.000    0.000    0.000    0.000    0.000    0.000 
#
# Total GULP energy -72532.174072 kJ/mol
# GULP energy per Si atom -5579.398006 kJ/mol
# Density = 2.587175 g / cm^3
# Si number density = 25.930765 Si / 1000 Ang^3
#
#
#
# Elastic Constant Matrix: (Units=GPa)
#
#
# Indices 1 2 3 4 5 6 
#
# 1 177.7928 34.7143 54.8167 -0.3201 28.9296 -36.9954
# 2 34.7143 92.0186 0.1256 -7.5942 -2.9747 -7.3848
# 3 54.8167 0.1256 84.6328 -19.4027 29.9054 0.8170
# 4 -0.3201 -7.5942 -19.4027 30.1362 -10.2170 8.5956
# 5 28.9296 -2.9747 29.9054 -10.2170 38.2287 -7.1015
# 6 -36.9954 -7.3848 0.8170 8.5956 -7.1015 36.6405
#
#
#
# Elastic Compliance Matrix: (Units=1/GPa)
#
#
# Indices 1 2 3 4 5 6 
#
# 1 0.013895 -0.005189 -0.011363 -0.013981 -0.002799 0.015975
# 2 -0.005189 0.013278 0.004125 0.008151 0.003177 -0.003951
# 3 -0.011363 0.004125 0.027812 0.020344 -0.010766 -0.018121
# 4 -0.013981 0.008151 0.020344 0.057403 0.005953 -0.025240
# 5 -0.002799 0.003177 -0.010766 0.005953 0.039333 0.004281
# 6 0.015975 -0.003951 -0.018121 -0.025240 0.004281 0.049780
#
#
# Mechanical properties :
#
#
# Convention : Reuss Voigt Hill
#
# Bulk Modulus (GPa) = 33.18632 59.30639 46.24636
# Shear Modulus (GPa) = 21.15079 38.65359 29.90219
#
# Velocity S-wave (km/s) = 2.85908 3.86508 3.39950
# Velocity P-wave (km/s) = 4.87083 6.54516 5.76906
#
# Compressibility (1/GPa) = 0.03013290
#
# Stress axis : x y z
#
# Youngs Moduli (GPa) = 71.96666 75.31521 35.95519
#
# Poissons Ratio (x) = 0.39080 0.40854
# Poissons Ratio (y) = 0.37342 -0.14832
# Poissons Ratio (z) = 0.81773 -0.31069
#
# Static dielectric constant tensor:
#      x y z
#    x 2.016580 0.013900 0.062390 
#    y 0.013900 2.209330 -0.120130 
#    z 0.062390 -0.120130 2.215500 
# 
# From -- ./inp_files/4446.got.cif
#   From: 2010.05.17/outbox.cif.g08.bks.cpg/sg2_3_cif.got.tgz:4446.got - 2010.06.03 11:33:40.
