data_PCOD9013976
_publ_section_title
;
Structure prediction by ZEFSAII (Michael W. Deem and Ramdas Pophale) SiO2 
 PCOD9013976
Probable space group: P -1
;
_chemical_formula_sum "Si O2"
_cell_formula_units_Z 14
_cell_length_a 9.942598
_cell_length_b 17.545807
_cell_length_c 9.745963
_cell_angle_alpha 37.150682
_cell_angle_beta 134.005980
_cell_angle_gamma 144.171036
_cell_volume 595.351136
_symmetry_space_group_name_H-M "P -1"
_symmetry_group_IT_number 2
_symmetry_cell_setting 'triclinic'
loop_
_space_group_symop_operation_xyz
x,y,z
-x,-y,-z
loop_
_atom_site_type_symbol
_atom_site_label
_atom_site_fract_x
_atom_site_fract_y
_atom_site_fract_z
Si Si1 0.201906 0.304754 0.394565
Si Si2 0.368992 0.673300 0.371342
Si Si3 0.658253 0.138599 0.701432
Si Si4 0.406644 0.439492 0.865707
Si Si5 0.433866 0.172976 0.242189
Si Si6 0.032839 0.872596 0.261869
Si Si7 0.289583 0.775989 0.906831
O O1 0.349166 0.237599 0.552606
O O2 0.380028 0.476684 0.212717
O O3 0.163372 0.267802 0.582242
O O4 0.954760 0.248587 0.240059
O O5 0.304232 0.775510 0.254768
O O6 0.275684 0.513188 0.615882
O O7 0.284341 0.656763 0.179887
O O8 0.549299 0.195670 0.437218
O O9 0.884682 0.180683 0.725485
O O10 0.484423 0.950420 0.852024
O O11 0.500000 0.500000 0.000000
O O12 0.312331 0.260682 0.040958
O O13 0.616885 0.233549 0.160756
O O14 0.252723 0.987725 0.352471
O O15 0.000000 0.000000 0.000000
#
# Coordination Sequence:
#
# PCOD9013976 Si02
#       7
#     2   2   2   2   2   2   2
#     4  10  21  41  66  93 124 170 224 254 319 390
#     4  10  24  41  63  91 139 166 214 268 327 376
#     4  11  20  41  65  90 139 164 206 278 333 365
#     4  10  23  44  62  90 134 179 208 266 329 382
#     4  11  20  41  69  86 140 170 205 271 336 369
#     4  11  22  41  66 104 124 166 227 269 315 391
#     4  11  21  39  64 101 120 172 222 268 318 388
#
# _framework density 23.515533999999999
#
# number of rings (size 3 to 8) (size 9 to 14) (size 15 to 20)
#    0.857    0.571    4.286    3.000    0.000    1.714 
#    7.714    0.714    0.000    0.000    0.000    0.000 
#    0.000    0.000    0.000    0.000    0.000    0.000 
#
# Total GULP energy -78107.133350 kJ/mol
# GULP energy per Si atom -5579.080954 kJ/mol
# Density = 2.346201 g / cm^3
# Si number density = 23.515534 Si / 1000 Ang^3
#
#
#
# Elastic Constant Matrix: (Units=GPa)
#
#
# Indices 1 2 3 4 5 6 
#
# 1 81.1523 15.6408 13.6903 -10.1239 2.6768 -13.2533
# 2 15.6408 38.1733 3.5825 -3.9009 1.9212 -4.3416
# 3 13.6903 3.5825 138.8450 5.5702 -4.9327 -2.8103
# 4 -10.1239 -3.9009 5.5702 26.6011 -5.3280 8.7707
# 5 2.6768 1.9212 -4.9327 -5.3280 35.0488 -0.1412
# 6 -13.2533 -4.3416 -2.8103 8.7707 -0.1412 21.6717
#
#
#
# Elastic Compliance Matrix: (Units=1/GPa)
#
#
# Indices 1 2 3 4 5 6 
#
# 1 0.014995 -0.004914 -0.001351 0.002896 -0.000598 0.006835
# 2 -0.004914 0.028680 -0.000310 0.001514 -0.001002 0.002081
# 3 -0.001351 -0.000310 0.007486 -0.002296 0.000829 0.001017
# 4 0.002896 0.001514 -0.002296 0.046236 0.006333 -0.016895
# 5 -0.000598 -0.001002 0.000829 0.006333 0.029700 -0.002829
# 6 0.006835 0.002081 0.001017 -0.016895 -0.002829 0.057691
#
#
# Mechanical properties :
#
#
# Convention : Reuss Voigt Hill
#
# Bulk Modulus (GPa) = 26.30724 35.99976 31.15350
# Shear Modulus (GPa) = 23.74092 31.68146 27.71119
#
# Velocity S-wave (km/s) = 3.18084 3.67448 3.43654
# Velocity P-wave (km/s) = 4.97009 5.77448 5.38732
#
# Compressibility (1/GPa) = 0.03801235
#
# Stress axis : x y z
#
# Youngs Moduli (GPa) = 66.69086 34.86694 133.58950
#
# Poissons Ratio (x) = 0.17132 0.18045
# Poissons Ratio (y) = 0.32770 0.04137
# Poissons Ratio (z) = 0.09009 0.01080
#
# Static dielectric constant tensor:
#      x y z
#    x 1.907800 0.041970 -0.061950 
#    y 0.041970 1.931290 0.064790 
#    z -0.061950 0.064790 2.108340 
# 
# From -- ./inp_files/214118.got.cif
#   From: 2010.05.17/outbox.cif.g08.bks.cpg/sg2_108_cif.got.tgz:214118.got - 2010.06.03 11:33:40.
