data_PCOD9013641
_publ_section_title
;
Structure prediction by ZEFSAII (Michael W. Deem and Ramdas Pophale) SiO2 
 PCOD9013641
Probable space group: P -1
;
_chemical_formula_sum "Si O2"
_cell_formula_units_Z 16
_cell_length_a 11.757500
_cell_length_b 8.198593
_cell_length_c 8.859233
_cell_angle_alpha 67.266649
_cell_angle_beta 94.540805
_cell_angle_gamma 111.458789
_cell_volume 731.116167
_symmetry_space_group_name_H-M "P -1"
_symmetry_group_IT_number 2
_symmetry_cell_setting 'triclinic'
loop_
_space_group_symop_operation_xyz
x,y,z
-x,-y,-z
loop_
_atom_site_type_symbol
_atom_site_label
_atom_site_fract_x
_atom_site_fract_y
_atom_site_fract_z
Si Si1 0.441326 0.747119 0.453525
Si Si2 0.207191 0.555706 0.925553
Si Si3 0.040734 0.496380 0.210104
Si Si4 0.063709 0.186480 0.539032
Si Si5 0.680493 0.729186 0.890178
Si Si6 0.084134 0.914210 0.136277
Si Si7 0.551752 0.175442 0.220896
Si Si8 0.323094 0.359111 0.433740
O O1 0.410298 0.763431 0.621288
O O2 0.346508 0.573152 0.413523
O O3 0.563079 0.697481 0.490139
O O4 0.476518 0.950598 0.305469
O O5 0.321284 0.754026 0.883769
O O6 0.106736 0.571139 0.793281
O O7 0.113820 0.459229 0.087519
O O8 0.280900 0.415998 0.951100
O O9 0.065245 0.377081 0.390110
O O10 0.091845 0.723756 0.136758
O O11 0.205253 0.217905 0.557159
O O12 0.990627 0.155796 0.694285
O O13 0.000000 0.000000 0.500000
O O14 0.544854 0.735064 0.885358
O O15 0.691268 0.671100 0.737381
O O16 0.783884 0.931489 0.866293
O O17 0.000000 0.000000 0.000000
#
# Coordination Sequence:
#
# PCOD9013641 Si02
#       8
#     2   2   2   2   2   2   2   2
#     4   9  22  41  62 100 131 174 224 288 334 405
#     4  11  23  44  65  97 135 179 224 282 349 397
#     4  11  26  43  69  98 141 176 230 285 338 409
#     4  12  25  43  72 103 134 187 225 281 344 412
#     4  11  22  44  65  97 136 175 224 282 339 407
#     4  12  26  45  68 105 140 178 231 283 340 407
#     4  10  23  39  71  95 131 177 228 282 342 405
#     4  10  21  41  65  91 140 174 224 274 340 406
#
# _framework density 21.884345
#
# number of rings (size 3 to 8) (size 9 to 14) (size 15 to 20)
#    0.000    1.250    3.750    0.750    7.000    1.000 
#    0.000    5.000    0.000    0.000    0.000    0.000 
#    0.000    0.000    0.000    0.000    0.000    0.000 
#
# Total GULP energy -89349.919162 kJ/mol
# GULP energy per Si atom -5584.369948 kJ/mol
# Density = 2.183454 g / cm^3
# Si number density = 21.884345 Si / 1000 Ang^3
#
#
#
# Elastic Constant Matrix: (Units=GPa)
#
#
# Indices 1 2 3 4 5 6 
#
# 1 97.0004 31.1024 18.2651 -2.8077 6.0291 25.8684
# 2 31.1024 107.4501 -1.6367 -7.7065 8.2824 16.9742
# 3 18.2651 -1.6367 49.5987 -15.5780 11.4912 3.3547
# 4 -2.8077 -7.7065 -15.5780 25.2482 1.6791 2.5513
# 5 6.0291 8.2824 11.4912 1.6791 30.7545 -10.6191
# 6 25.8684 16.9742 3.3547 2.5513 -10.6191 39.1160
#
#
#
# Elastic Compliance Matrix: (Units=1/GPa)
#
#
# Indices 1 2 3 4 5 6 
#
# 1 0.014572 -0.002590 -0.004142 -0.000554 -0.003736 -0.009136
# 2 -0.002590 0.012550 0.006539 0.008845 -0.008254 -0.007112
# 3 -0.004142 0.006539 0.034848 0.025275 -0.018741 -0.009823
# 4 -0.000554 0.008845 0.025275 0.060711 -0.020244 -0.015095
# 5 -0.003736 -0.008254 -0.018741 -0.020244 0.051507 0.022963
# 6 -0.009136 -0.007112 -0.009823 -0.015095 0.022963 0.042754
#
#
# Mechanical properties :
#
#
# Convention : Reuss Voigt Hill
#
# Bulk Modulus (GPa) = 16.23799 38.83454 27.53627
# Shear Modulus (GPa) = 21.02109 32.77831 26.89970
#
# Velocity S-wave (km/s) = 3.10264 3.87434 3.50976
# Velocity P-wave (km/s) = 4.50236 6.14800 5.38837
#
# Compressibility (1/GPa) = 0.06158397
#
# Stress axis : x y z
#
# Youngs Moduli (GPa) = 68.62402 79.68193 28.69606
#
# Poissons Ratio (x) = 0.20635 0.11887
# Poissons Ratio (y) = 0.17772 -0.18764
# Poissons Ratio (z) = 0.28427 -0.52104
#
# Static dielectric constant tensor:
#      x y z
#    x 1.871430 0.022760 0.087480 
#    y 0.022760 1.784550 0.040010 
#    z 0.087480 0.040010 1.887560 
# 
# From -- ./inp_files/206740.got.cif
#   From: 2010.05.17/outbox.cif.g08.bks.cpg/sg2_104_cif.got.tgz:206740.got - 2010.06.03 11:33:40.
