data_PCOD9013927
_publ_section_title
;
Structure prediction by ZEFSAII (Michael W. Deem and Ramdas Pophale) SiO2 
 PCOD9013927
Probable space group: P -1
;
_chemical_formula_sum "Si O2"
_cell_formula_units_Z 16
_cell_length_a 9.961859
_cell_length_b 21.457798
_cell_length_c 11.929868
_cell_angle_alpha 37.805670
_cell_angle_beta 112.035616
_cell_angle_gamma 142.203473
_cell_volume 717.025517
_symmetry_space_group_name_H-M "P -1"
_symmetry_group_IT_number 2
_symmetry_cell_setting 'triclinic'
loop_
_space_group_symop_operation_xyz
x,y,z
-x,-y,-z
loop_
_atom_site_type_symbol
_atom_site_label
_atom_site_fract_x
_atom_site_fract_y
_atom_site_fract_z
Si Si1 0.066519 0.225460 0.248439
Si Si2 0.526077 0.378691 0.302963
Si Si3 0.467631 0.827492 0.515210
Si Si4 0.660595 0.126873 0.983883
Si Si5 0.799604 0.185510 0.404586
Si Si6 0.688904 0.522672 0.373599
Si Si7 0.721488 0.743975 0.173912
Si Si8 0.772404 0.000248 0.852201
O O1 0.262677 0.258057 0.316676
O O2 0.037961 0.297432 0.230456
O O3 0.226223 0.383597 0.974469
O O4 0.756327 0.990375 0.450474
O O5 0.612270 0.320491 0.369264
O O6 0.464276 0.343138 0.466362
O O7 0.211689 0.715206 0.673984
O O8 0.572602 0.982621 0.246097
O O9 0.001615 0.337192 0.760816
O O10 0.522919 0.144428 0.970067
O O11 0.500000 0.000000 0.000000
O O12 0.500000 0.000000 0.500000
O O13 0.818685 0.112692 0.611710
O O14 0.705276 0.655409 0.193211
O O15 0.568904 0.430006 0.592254
O O16 0.764016 0.885962 0.953355
O O17 0.978507 0.859846 0.172780
#
# Coordination Sequence:
#
# PCOD9013927 Si02
#       8
#     2   2   2   2   2   2   2   2
#     4  10  21  42  63  92 129 161 211 261 306 373
#     4  11  23  39  65  96 125 164 208 260 318 371
#     4  10  22  41  65  90 126 168 206 255 317 375
#     4  11  22  40  62  89 127 169 204 262 317 378
#     4   9  20  40  63  89 124 163 208 260 304 377
#     4  11  23  41  60  94 135 159 213 269 312 382
#     4  10  23  41  64  92 125 169 210 268 319 378
#     4  10  21  41  66  91 121 171 218 251 327 383
#
# _framework density 22.314409999999999
#
# number of rings (size 3 to 8) (size 9 to 14) (size 15 to 20)
#    0.000    1.750    2.500    1.125    1.750    2.000 
#    9.000    0.000    0.000    0.000    0.000    0.000 
#    0.000    0.000    0.000    0.000    0.000    0.000 
#
# Total GULP energy -89319.031757 kJ/mol
# GULP energy per Si atom -5582.439485 kJ/mol
# Density = 2.226362 g / cm^3
# Si number density = 22.314410 Si / 1000 Ang^3
#
#
#
# Elastic Constant Matrix: (Units=GPa)
#
#
# Indices 1 2 3 4 5 6 
#
# 1 137.1343 36.9918 17.8398 1.0991 3.4379 -16.8833
# 2 36.9918 60.4811 4.1800 11.9823 8.7112 -4.6365
# 3 17.8398 4.1800 30.7958 -2.2655 -13.0392 8.7426
# 4 1.0991 11.9823 -2.2655 14.2130 -5.3942 0.4074
# 5 3.4379 8.7112 -13.0392 -5.3942 38.5542 -2.2711
# 6 -16.8833 -4.6365 8.7426 0.4074 -2.2711 40.9400
#
#
#
# Elastic Compliance Matrix: (Units=1/GPa)
#
#
# Indices 1 2 3 4 5 6 
#
# 1 0.010403 -0.005698 -0.007150 0.002161 -0.001457 0.005069
# 2 -0.005698 0.028724 -0.009077 -0.030281 -0.013147 0.002414
# 3 -0.007150 -0.009077 0.053928 0.026228 0.023746 -0.014436
# 4 0.002161 -0.030281 0.026228 0.111773 0.030714 -0.007547
# 5 -0.001457 -0.013147 0.023746 0.030714 0.041061 -0.005189
# 6 0.005069 0.002414 -0.014436 -0.007547 -0.005189 0.029660
#
#
# Mechanical properties :
#
#
# Convention : Reuss Voigt Hill
#
# Bulk Modulus (GPa) = 20.32324 38.49272 29.40798
# Shear Modulus (GPa) = 14.88980 30.03473 22.46227
#
# Velocity S-wave (km/s) = 2.58596 3.67274 3.17618
# Velocity P-wave (km/s) = 4.24779 5.93910 5.16317
#
# Compressibility (1/GPa) = 0.04920475
#
# Stress axis : x y z
#
# Youngs Moduli (GPa) = 96.13015 34.81385 18.54320
#
# Poissons Ratio (x) = 0.19837 0.13258
# Poissons Ratio (y) = 0.54775 0.16832
# Poissons Ratio (z) = 0.68731 0.31601
#
# Static dielectric constant tensor:
#      x y z
#    x 1.880540 0.034140 0.010390 
#    y 0.034140 1.849690 -0.018020 
#    z 0.010390 -0.018020 1.888480 
# 
# From -- ./inp_files/180591.got.cif
#   From: 2010.05.17/outbox.cif.g08.bks.cpg/sg2_91_cif.got.tgz:180591.got - 2010.06.03 11:33:40.
