data_PCOD9013865
_publ_section_title
;
Structure prediction by ZEFSAII (Michael W. Deem and Ramdas Pophale) SiO2 
 PCOD9013865
Probable space group: P -1
;
_chemical_formula_sum "Si O2"
_cell_formula_units_Z 14
_cell_length_a 8.328477
_cell_length_b 11.497304
_cell_length_c 20.513150
_cell_angle_alpha 31.261511
_cell_angle_beta 30.911439
_cell_angle_gamma 35.029324
_cell_volume 496.004315
_symmetry_space_group_name_H-M "P -1"
_symmetry_group_IT_number 2
_symmetry_cell_setting 'triclinic'
loop_
_space_group_symop_operation_xyz
x,y,z
-x,-y,-z
loop_
_atom_site_type_symbol
_atom_site_label
_atom_site_fract_x
_atom_site_fract_y
_atom_site_fract_z
Si Si1 0.586018 0.688303 0.788910
Si Si2 0.230427 0.862731 0.667664
Si Si3 0.660705 0.147295 0.514224
Si Si4 0.118000 0.405744 0.127188
Si Si5 0.658039 0.152890 0.825405
Si Si6 0.692233 0.901941 0.149332
Si Si7 0.066208 0.383927 0.667569
O O1 0.459468 0.968687 0.689209
O O2 0.816472 0.589935 0.818660
O O3 0.802499 0.608908 0.685965
O O4 0.284365 0.590956 0.950292
O O5 0.179880 0.601658 0.815353
O O6 0.500000 0.000000 0.500000
O O7 0.202517 0.839154 0.610576
O O8 0.970786 0.020662 0.733185
O O9 0.382062 0.394798 0.510449
O O10 0.000000 0.000000 0.500000
O O11 0.388987 0.144497 0.143255
O O12 0.370164 0.229282 0.831971
O O13 0.827744 0.297231 0.744632
O O14 0.500000 0.000000 0.000000
O O15 0.746209 0.749600 0.269041
O O16 0.000000 0.000000 0.000000
#
# Coordination Sequence:
#
# PCOD9013865 Si02
#       7
#     2   2   2   2   2   2   2
#     4  11  23  40  72 105 140 183 246 297 349 429
#     4  11  22  43  71  97 142 193 229 289 369 422
#     4  12  24  46  69 101 143 191 236 291 366 431
#     4  10  21  41  66 103 143 179 242 297 343 428
#     4  11  22  39  70 103 138 184 242 290 350 429
#     4  11  19  38  70 100 138 187 234 292 357 414
#     4  12  23  42  71 101 142 186 236 291 360 420
#
# _framework density 28.225559000000001
#
# number of rings (size 3 to 8) (size 9 to 14) (size 15 to 20)
#    0.000    0.857    7.143    1.714    0.000    0.571 
#    0.000    2.857    0.000    0.000    0.000    0.000 
#    0.000    0.000    0.000    0.000    0.000    0.000 
#
# Total GULP energy -77938.466439 kJ/mol
# GULP energy per Si atom -5567.033317 kJ/mol
# Density = 2.816132 g / cm^3
# Si number density = 28.225559 Si / 1000 Ang^3
#
#
#
# Elastic Constant Matrix: (Units=GPa)
#
#
# Indices 1 2 3 4 5 6 
#
# 1 192.2615 45.8940 39.4434 11.8008 -27.9909 16.1182
# 2 45.8940 44.5501 25.8172 23.1007 -5.2121 18.5624
# 3 39.4434 25.8172 132.4260 23.2582 -19.8509 3.8280
# 4 11.8008 23.1007 23.2582 51.5430 7.3469 -8.3245
# 5 -27.9909 -5.2121 -19.8509 7.3469 67.8104 3.3980
# 6 16.1182 18.5624 3.8280 -8.3245 3.3980 48.1034
#
#
#
# Elastic Compliance Matrix: (Units=1/GPa)
#
#
# Indices 1 2 3 4 5 6 
#
# 1 0.007488 -0.008985 -0.000692 0.002575 0.001852 0.001328
# 2 -0.008985 0.057764 -0.002491 -0.027189 0.004154 -0.024080
# 3 -0.000692 -0.002491 0.009221 -0.003304 0.002595 -0.000296
# 4 0.002575 -0.027189 -0.003304 0.036133 -0.006742 0.016621
# 5 0.001852 0.004154 0.002595 -0.006742 0.017563 -0.004838
# 6 0.001328 -0.024080 -0.000296 0.016621 -0.004838 0.032877
#
#
# Mechanical properties :
#
#
# Convention : Reuss Voigt Hill
#
# Bulk Modulus (GPa) = 19.94527 65.72743 42.83635
# Shear Modulus (GPa) = 24.74070 50.69689 37.71879
#
# Velocity S-wave (km/s) = 2.96385 4.24268 3.65956
# Velocity P-wave (km/s) = 4.33523 6.88022 5.75029
#
# Compressibility (1/GPa) = 0.05013721
#
# Stress axis : x y z
#
# Youngs Moduli (GPa) = 133.54207 17.31174 108.44998
#
# Poissons Ratio (x) = 0.15555 0.07501
# Poissons Ratio (y) = 1.19991 0.27017
# Poissons Ratio (z) = 0.09237 0.04313
#
# Static dielectric constant tensor:
#      x y z
#    x 2.981830 0.156820 -0.630170 
#    y 0.156820 2.439470 0.021940 
#    z -0.630170 0.021940 2.625650 
# 
# From -- ./inp_files/588929.got.cif
#   From: 2010.05.17/outbox.cif.g08.bks.cpg/sg2_295_cif.got.tgz:588929.got - 2010.06.03 11:33:40.
