data_PCOD9013772
_publ_section_title
;
Structure prediction by ZEFSAII (Michael W. Deem and Ramdas Pophale) SiO2 
 PCOD9013772
Probable space group: P -1
;
_chemical_formula_sum "Si O2"
_cell_formula_units_Z 16
_cell_length_a 17.903219
_cell_length_b 15.075468
_cell_length_c 23.402022
_cell_angle_alpha 28.116341
_cell_angle_beta 161.356617
_cell_angle_gamma 160.402612
_cell_volume 673.890262
_symmetry_space_group_name_H-M "P -1"
_symmetry_group_IT_number 2
_symmetry_cell_setting 'triclinic'
loop_
_space_group_symop_operation_xyz
x,y,z
-x,-y,-z
loop_
_atom_site_type_symbol
_atom_site_label
_atom_site_fract_x
_atom_site_fract_y
_atom_site_fract_z
Si Si1 0.277907 0.858561 0.108380
Si Si2 0.124831 0.726799 0.886138
Si Si3 0.197351 0.202109 0.115008
Si Si4 0.595165 0.902045 0.427138
Si Si5 0.785201 0.027432 0.294680
Si Si6 0.945481 0.257374 0.793549
Si Si7 0.373349 0.444247 0.294686
Si Si8 0.240270 0.495764 0.560588
O O1 0.567586 0.049478 0.162242
O O2 0.009294 0.559435 0.057923
O O3 0.491240 0.884405 0.298102
O O4 0.064040 0.885755 0.974866
O O5 0.986566 0.739736 0.835786
O O6 0.997593 0.755632 0.719911
O O7 0.500000 0.000000 0.000000
O O8 0.555868 0.365472 0.311261
O O9 0.065441 0.935017 0.143225
O O10 0.193274 0.353456 0.972967
O O11 0.974727 0.176909 0.553944
O O12 0.394461 0.913484 0.320597
O O13 0.483418 0.627808 0.516418
O O14 0.525116 0.734847 0.244309
O O15 0.000000 0.000000 0.500000
O O16 0.943656 0.434808 0.646469
O O17 0.471803 0.406305 0.329059
#
# Coordination Sequence:
#
# PCOD9013772 Si02
#       8
#     2   2   2   2   2   2   2   2
#     4  10  23  39  61  92 130 170 216 271 325 388
#     4  11  25  38  59  89 130 166 215 269 322 384
#     4  10  22  42  69  94 135 173 216 276 326 384
#     4  10  21  41  65  96 129 167 218 270 327 394
#     4  11  22  39  64  88 123 174 218 263 328 385
#     4   9  22  46  64  96 137 170 215 277 323 391
#     4  10  22  37  61  88 128 164 213 271 315 383
#     4  11  22  39  72  97 129 177 220 263 335 391
#
# _framework density 23.742737000000002
#
# number of rings (size 3 to 8) (size 9 to 14) (size 15 to 20)
#    0.000    1.750    0.000    3.375    5.250    5.500 
#    0.000   11.875    0.000    0.000    0.000    0.000 
#    0.000    0.000    0.000    0.000    0.000    0.000 
#
# Total GULP energy -89154.867734 kJ/mol
# GULP energy per Si atom -5572.179233 kJ/mol
# Density = 2.368870 g / cm^3
# Si number density = 23.742737 Si / 1000 Ang^3
#
#
#
# Elastic Constant Matrix: (Units=GPa)
#
#
# Indices 1 2 3 4 5 6 
#
# 1 100.2038 34.4520 37.1857 -9.7232 -3.0218 -3.6902
# 2 34.4520 67.4309 25.2998 -9.9638 -1.7119 2.7631
# 3 37.1857 25.2998 88.7474 -11.0174 -16.8548 -0.5968
# 4 -9.7232 -9.9638 -11.0174 44.6033 -4.5182 -5.7911
# 5 -3.0218 -1.7119 -16.8548 -4.5182 46.3599 -8.4870
# 6 -3.6902 2.7631 -0.5968 -5.7911 -8.4870 30.9254
#
#
#
# Elastic Compliance Matrix: (Units=1/GPa)
#
#
# Indices 1 2 3 4 5 6 
#
# 1 0.013474 -0.005311 -0.004053 0.000992 -0.000309 0.002105
# 2 -0.005311 0.019093 -0.003194 0.001910 -0.001043 -0.002330
# 3 -0.004053 -0.003194 0.015408 0.003112 0.005946 0.002314
# 4 0.000992 0.001910 0.003112 0.025102 0.004817 0.006030
# 5 -0.000309 -0.001043 0.005946 0.004817 0.025627 0.008106
# 6 0.002105 -0.002330 0.002314 0.006030 0.008106 0.036194
#
#
# Mechanical properties :
#
#
# Convention : Reuss Voigt Hill
#
# Bulk Modulus (GPa) = 43.74752 50.02856 46.88804
# Shear Modulus (GPa) = 29.82666 35.00735 32.41701
#
# Velocity S-wave (km/s) = 3.54820 3.84402 3.69907
# Velocity P-wave (km/s) = 5.93733 6.38896 6.16728
#
# Compressibility (1/GPa) = 0.02285844
#
# Stress axis : x y z
#
# Youngs Moduli (GPa) = 74.21525 52.37436 64.90121
#
# Poissons Ratio (x) = 0.27817 0.26306
# Poissons Ratio (y) = 0.39417 0.20731
# Poissons Ratio (z) = 0.30081 0.16729
#
# Static dielectric constant tensor:
#      x y z
#    x 1.926360 -0.005810 -0.123250 
#    y -0.005810 1.867050 0.006900 
#    z -0.123250 0.006900 2.145050 
# 
# From -- ./inp_files/543195.got.cif
#   From: 2010.05.17/outbox.cif.g08.bks.cpg/sg2_272_cif.got.tgz:543195.got - 2010.06.03 11:33:40.
