data_PCOD9013418
_publ_section_title
;
Structure prediction by ZEFSAII (Michael W. Deem and Ramdas Pophale) SiO2 
 PCOD9013418
Probable space group: P -1
;
_chemical_formula_sum "Si O2"
_cell_formula_units_Z 16
_cell_length_a 11.688101
_cell_length_b 17.029012
_cell_length_c 9.141703
_cell_angle_alpha 135.598393
_cell_angle_beta 88.137791
_cell_angle_gamma 126.608440
_cell_volume 729.100622
_symmetry_space_group_name_H-M "P -1"
_symmetry_group_IT_number 2
_symmetry_cell_setting 'triclinic'
loop_
_space_group_symop_operation_xyz
x,y,z
-x,-y,-z
loop_
_atom_site_type_symbol
_atom_site_label
_atom_site_fract_x
_atom_site_fract_y
_atom_site_fract_z
Si Si1 0.649855 0.250407 0.420738
Si Si2 0.562852 0.171420 0.660346
Si Si3 0.164942 0.264443 0.794125
Si Si4 0.714612 0.859126 0.272776
Si Si5 0.780593 0.118493 0.131539
Si Si6 0.107292 0.369311 0.204242
Si Si7 0.154318 0.403505 0.704919
Si Si8 0.424104 0.549614 0.648052
O O1 0.619752 0.201312 0.528313
O O2 0.709789 0.189328 0.245672
O O3 0.841304 0.484494 0.704676
O O4 0.430720 0.115902 0.192512
O O5 0.372988 0.102820 0.592820
O O6 0.500000 0.000000 0.500000
O O7 0.740614 0.387782 0.020738
O O8 0.310706 0.274890 0.808709
O O9 0.196889 0.390722 0.848010
O O10 0.138871 0.288325 0.991672
O O11 0.944587 0.047628 0.474644
O O12 0.604134 0.759953 0.992001
O O13 0.911908 0.210737 0.101301
O O14 0.931971 0.222751 0.402813
O O15 0.290471 0.516339 0.504447
O O16 0.276900 0.415198 0.613018
O O17 0.500000 0.500000 0.500000
#
# Coordination Sequence:
#
# PCOD9013418 Si02
#       8
#     2   2   2   2   2   2   2   2
#     4  11  24  43  69  97 132 193 224 280 347 400
#     4  11  25  44  68 102 134 180 230 283 339 405
#     4  11  22  42  68  98 135 177 222 287 339 402
#     4  10  24  40  67  98 139 172 230 279 341 403
#     4  10  25  42  64 101 142 172 235 282 335 416
#     4  11  22  42  69  97 137 179 228 281 343 409
#     4  10  24  42  67 100 133 175 227 282 340 405
#     4  10  21  41  64  94 134 176 217 280 341 402
#
# _framework density 21.944842999999999
#
# number of rings (size 3 to 8) (size 9 to 14) (size 15 to 20)
#    0.000    1.500    2.500    1.125    3.500   10.500 
#    0.000    0.625    0.000    0.000    0.000    0.000 
#    0.000    0.000    0.000    0.000    0.000    0.000 
#
# Total GULP energy -89171.754794 kJ/mol
# GULP energy per Si atom -5573.234675 kJ/mol
# Density = 2.189490 g / cm^3
# Si number density = 21.944843 Si / 1000 Ang^3
#
#
#
# Elastic Constant Matrix: (Units=GPa)
#
#
# Indices 1 2 3 4 5 6 
#
# 1 92.7417 43.4202 15.7362 3.7701 -2.1181 2.9586
# 2 43.4202 92.0021 16.0013 -13.4762 -11.1580 2.2918
# 3 15.7362 16.0013 64.4351 -7.0510 12.4567 -3.4010
# 4 3.7701 -13.4762 -7.0510 30.1917 -1.8389 2.2830
# 5 -2.1181 -11.1580 12.4567 -1.8389 41.8217 3.9444
# 6 2.9586 2.2918 -3.4010 2.2830 3.9444 18.9945
#
#
#
# Elastic Compliance Matrix: (Units=1/GPa)
#
#
# Indices 1 2 3 4 5 6 
#
# 1 0.014968 -0.007569 -0.002317 -0.005758 -0.000731 -0.000989
# 2 -0.007569 0.016927 -0.002705 0.008480 0.005645 -0.003539
# 3 -0.002317 -0.002705 0.018620 0.002633 -0.006751 0.005107
# 4 -0.005758 0.008480 0.002633 0.038826 0.003367 -0.005021
# 5 -0.000731 0.005645 -0.006751 0.003367 0.028299 -0.008057
# 6 -0.000989 -0.003539 0.005107 -0.005021 -0.008057 0.056419
#
#
# Mechanical properties :
#
#
# Convention : Reuss Voigt Hill
#
# Bulk Modulus (GPa) = 39.47399 44.38823 41.93111
# Shear Modulus (GPa) = 24.07497 29.80300 26.93899
#
# Velocity S-wave (km/s) = 3.31579 3.68922 3.50748
# Velocity P-wave (km/s) = 5.71718 6.19824 5.96257
#
# Compressibility (1/GPa) = 0.02533314
#
# Stress axis : x y z
#
# Youngs Moduli (GPa) = 66.80793 59.07779 53.70594
#
# Poissons Ratio (x) = 0.44714 0.12443
# Poissons Ratio (y) = 0.50565 0.14529
# Poissons Ratio (z) = 0.15479 0.15982
#
# Static dielectric constant tensor:
#      x y z
#    x 1.882520 -0.052710 0.118730 
#    y -0.052710 1.895050 0.073420 
#    z 0.118730 0.073420 2.129260 
# 
# From -- ./inp_files/278820.got.cif
#   From: 2010.05.17/outbox.cif.g08.bks.cpg/sg2_140_cif.got.tgz:278820.got - 2010.06.03 11:33:40.
