data_PCOD9013363
_publ_section_title
;
Structure prediction by ZEFSAII (Michael W. Deem and Ramdas Pophale) SiO2 
 PCOD9013363
Probable space group: P -1
;
_chemical_formula_sum "Si O2"
_cell_formula_units_Z 14
_cell_length_a 8.620432
_cell_length_b 6.739458
_cell_length_c 16.349853
_cell_angle_alpha 110.332440
_cell_angle_beta 48.171706
_cell_angle_gamma 121.810279
_cell_volume 601.473520
_symmetry_space_group_name_H-M "P -1"
_symmetry_group_IT_number 2
_symmetry_cell_setting 'triclinic'
loop_
_space_group_symop_operation_xyz
x,y,z
-x,-y,-z
loop_
_atom_site_type_symbol
_atom_site_label
_atom_site_fract_x
_atom_site_fract_y
_atom_site_fract_z
Si Si1 0.215280 0.644471 0.257579
Si Si2 0.158686 0.870153 0.658959
Si Si3 0.620764 0.253639 0.956567
Si Si4 0.503213 0.305951 0.408617
Si Si5 0.500979 0.450510 0.177200
Si Si6 0.862490 0.917357 0.634191
Si Si7 0.858241 0.654141 0.204439
O O1 0.393445 0.747063 0.135583
O O2 0.378904 0.621427 0.266740
O O3 0.925633 0.123781 0.405497
O O4 0.093602 0.812875 0.339182
O O5 0.966229 0.624291 0.726217
O O6 0.394610 0.852732 0.599871
O O7 0.140860 0.097159 0.736016
O O8 0.892528 0.338354 0.881292
O O9 0.520587 0.395706 0.068066
O O10 0.500000 0.000000 0.000000
O O11 0.500000 0.500000 0.500000
O O12 0.264183 0.180305 0.422469
O O13 0.689885 0.457258 0.296818
O O14 0.341091 0.215030 0.247106
O O15 0.752143 0.572947 0.141713
#
# Coordination Sequence:
#
# PCOD9013363 Si02
#       7
#     2   2   2   2   2   2   2
#     4  11  20  40  62  90 128 168 209 248 309 371
#     4  11  21  42  67  88 128 170 199 262 320 362
#     4  12  20  38  62  90 129 167 209 254 302 369
#     4  11  25  44  68  94 122 162 210 263 320 374
#     4  10  22  35  60  92 125 171 207 254 305 361
#     4  10  21  41  64  92 128 162 209 259 305 375
#     4  11  23  43  60  92 131 159 212 261 306 371
#
# _framework density 23.276171999999999
#
# number of rings (size 3 to 8) (size 9 to 14) (size 15 to 20)
#    0.000    1.143    4.286    2.571    0.000    1.143 
#    0.000    4.286    0.000    0.000    0.000    0.000 
#    0.000    0.000    0.000    0.000    0.000    0.000 
#
# Total GULP energy -78076.479807 kJ/mol
# GULP energy per Si atom -5576.891415 kJ/mol
# Density = 2.322319 g / cm^3
# Si number density = 23.276172 Si / 1000 Ang^3
#
#
#
# Elastic Constant Matrix: (Units=GPa)
#
#
# Indices 1 2 3 4 5 6 
#
# 1 77.6102 36.6602 26.2712 20.5962 -5.7205 -13.1279
# 2 36.6602 108.9199 25.6070 4.1867 -1.7213 -23.8095
# 3 26.2712 25.6070 87.8081 -1.1780 0.9296 -16.3044
# 4 20.5962 4.1867 -1.1780 32.5064 -3.8700 -10.2240
# 5 -5.7205 -1.7213 0.9296 -3.8700 36.3906 5.2521
# 6 -13.1279 -23.8095 -16.3044 -10.2240 5.2521 35.1185
#
#
#
# Elastic Compliance Matrix: (Units=1/GPa)
#
#
# Indices 1 2 3 4 5 6 
#
# 1 0.020504 -0.005752 -0.005164 -0.013052 0.002091 -0.002745
# 2 -0.005752 0.012724 -0.000506 0.004275 -0.000935 0.007626
# 3 -0.005164 -0.000506 0.014333 0.005643 -0.001504 0.006248
# 4 -0.013052 0.004275 0.005643 0.042862 0.000686 0.013015
# 5 0.002091 -0.000935 -0.001504 0.000686 0.028542 -0.004619
# 6 -0.002745 0.007626 0.006248 0.013015 -0.004619 0.039999
#
#
# Mechanical properties :
#
#
# Convention : Reuss Voigt Hill
#
# Bulk Modulus (GPa) = 40.46109 50.15722 45.30916
# Shear Modulus (GPa) = 26.30912 33.18974 29.74943
#
# Velocity S-wave (km/s) = 3.36564 3.78022 3.57894
# Velocity P-wave (km/s) = 5.70300 6.37565 6.04868
#
# Compressibility (1/GPa) = 0.02471510
#
# Stress axis : x y z
#
# Youngs Moduli (GPa) = 48.77181 78.59097 69.76932
#
# Poissons Ratio (x) = 0.45209 0.36028
# Poissons Ratio (y) = 0.28056 0.03533
# Poissons Ratio (z) = 0.25185 0.03980
#
# Static dielectric constant tensor:
#      x y z
#    x 1.963780 -0.004430 0.003310 
#    y -0.004430 1.849050 0.029330 
#    z 0.003310 0.029330 1.686270 
# 
# From -- ./inp_files/553019.got.cif
#   From: 2010.05.17/outbox.cif.g08.bks.cpg/sg2_277_cif.got.tgz:553019.got - 2010.06.03 11:33:40.
