data_PCOD9013522
_publ_section_title
;
Structure prediction by ZEFSAII (Michael W. Deem and Ramdas Pophale) SiO2 
 PCOD9013522
Probable space group: P -1
;
_chemical_formula_sum "Si O2"
_cell_formula_units_Z 16
_cell_length_a 12.257790
_cell_length_b 16.299429
_cell_length_c 11.691599
_cell_angle_alpha 126.608589
_cell_angle_beta 70.122630
_cell_angle_gamma 153.894377
_cell_volume 687.196185
_symmetry_space_group_name_H-M "P -1"
_symmetry_group_IT_number 2
_symmetry_cell_setting 'triclinic'
loop_
_space_group_symop_operation_xyz
x,y,z
-x,-y,-z
loop_
_atom_site_type_symbol
_atom_site_label
_atom_site_fract_x
_atom_site_fract_y
_atom_site_fract_z
Si Si1 0.173335 0.930995 0.195022
Si Si2 0.882589 0.335064 0.729635
Si Si3 0.938648 0.077943 0.199438
Si Si4 0.388707 0.303583 0.325733
Si Si5 0.315391 0.798582 0.794760
Si Si6 0.404317 0.093309 0.631979
Si Si7 0.299852 0.538325 0.863749
Si Si8 0.105938 0.367085 0.198051
O O1 0.908535 0.703331 0.188569
O O2 0.302711 0.148915 0.319764
O O3 0.438240 0.067338 0.246272
O O4 0.046300 0.798279 0.002904
O O5 0.645833 0.233271 0.745213
O O6 0.074945 0.527812 0.712020
O O7 0.122309 0.500142 0.876863
O O8 0.710170 0.090795 0.560006
O O9 0.863701 0.076946 0.342106
O O10 0.615129 0.804993 0.032709
O O11 0.094956 0.098313 0.189028
O O12 0.133921 0.302208 0.228050
O O13 0.500000 0.500000 0.500000
O O14 0.623770 0.444613 0.273130
O O15 0.123739 0.733749 0.753870
O O16 0.500000 0.000000 0.000000
O O17 0.590893 0.330562 0.695157
#
# Coordination Sequence:
#
# PCOD9013522 Si02
#       8
#     2   2   2   2   2   2   2   2
#     4  11  23  41  68  98 133 172 223 278 321 393
#     4  10  21  42  66  96 149 166 221 269 339 392
#     4  12  25  42  72  96 131 178 226 265 338 393
#     4  12  28  48  67  94 135 176 222 282 331 391
#     4   9  18  38  65  96 136 172 209 271 326 385
#     4  10  23  42  64 103 135 180 208 283 328 397
#     4  12  24  42  70 100 124 179 225 273 332 395
#     4  10  21  41  65 101 136 169 218 272 331 396
#
# _framework density 23.283018999999999
#
# number of rings (size 3 to 8) (size 9 to 14) (size 15 to 20)
#    0.000    1.250    3.750    1.875    1.750    3.500 
#    0.000    1.875    0.000    0.000    0.000    0.000 
#    0.000    0.000    0.000    0.000    0.000    0.000 
#
# Total GULP energy -89551.204876 kJ/mol
# GULP energy per Si atom -5596.950305 kJ/mol
# Density = 2.323003 g / cm^3
# Si number density = 23.283019 Si / 1000 Ang^3
#
#
#
# Elastic Constant Matrix: (Units=GPa)
#
#
# Indices 1 2 3 4 5 6 
#
# 1 91.0302 25.2957 -0.5818 -4.4309 3.4294 8.0888
# 2 25.2957 107.7198 10.6646 7.5621 -12.6357 -9.3593
# 3 -0.5818 10.6646 51.5059 17.7475 -0.2043 1.4044
# 4 -4.4309 7.5621 17.7475 18.5398 -6.4742 -2.0128
# 5 3.4294 -12.6357 -0.2043 -6.4742 34.9651 12.5071
# 6 8.0888 -9.3593 1.4044 -2.0128 12.5071 26.9539
#
#
#
# Elastic Compliance Matrix: (Units=1/GPa)
#
#
# Indices 1 2 3 4 5 6 
#
# 1 0.012628 -0.003641 -0.000517 0.004470 -0.000061 -0.004665
# 2 -0.003641 0.011091 -0.001511 -0.002658 0.002564 0.003634
# 3 -0.000517 -0.001511 0.030273 -0.030545 -0.005350 -0.001745
# 4 0.004470 -0.002658 -0.030545 0.090660 0.015621 -0.001151
# 5 -0.000061 0.002564 -0.005350 0.015621 0.037831 -0.015200
# 6 -0.004665 0.003634 -0.001745 -0.001151 -0.015200 0.046820
#
#
# Mechanical properties :
#
#
# Convention : Reuss Voigt Hill
#
# Bulk Modulus (GPa) = 23.44319 35.66811 29.55565
# Shear Modulus (GPa) = 19.61875 30.41693 25.01784
#
# Velocity S-wave (km/s) = 2.90594 3.61834 3.28153
# Velocity P-wave (km/s) = 4.62060 5.72792 5.20380
#
# Compressibility (1/GPa) = 0.04265632
#
# Stress axis : x y z
#
# Youngs Moduli (GPa) = 79.18874 90.16391 33.03228
#
# Poissons Ratio (x) = 0.32824 0.01707
# Poissons Ratio (y) = 0.28829 0.04990
# Poissons Ratio (z) = 0.04093 0.13621
#
# Static dielectric constant tensor:
#      x y z
#    x 1.859970 0.016560 0.030260 
#    y 0.016560 1.824900 -0.015040 
#    z 0.030260 -0.015040 1.957350 
# 
# From -- ./inp_files/434213.got.cif
#   From: 2010.05.17/outbox.cif.g08.bks.cpg/sg2_218_cif.got.tgz:434213.got - 2010.06.03 11:33:40.
