data_PCOD9013556
_publ_section_title
;
Structure prediction by ZEFSAII (Michael W. Deem and Ramdas Pophale) SiO2 
 PCOD9013556
Probable space group: P -1
;
_chemical_formula_sum "Si O2"
_cell_formula_units_Z 12
_cell_length_a 16.357753
_cell_length_b 11.354848
_cell_length_c 9.868172
_cell_angle_alpha 100.688596
_cell_angle_beta 146.684265
_cell_angle_gamma 55.029299
_cell_volume 625.441080
_symmetry_space_group_name_H-M "P -1"
_symmetry_group_IT_number 2
_symmetry_cell_setting 'triclinic'
loop_
_space_group_symop_operation_xyz
x,y,z
-x,-y,-z
loop_
_atom_site_type_symbol
_atom_site_label
_atom_site_fract_x
_atom_site_fract_y
_atom_site_fract_z
Si Si1 0.309941 0.874965 0.544845
Si Si2 0.181291 0.317691 0.117468
Si Si3 0.175190 0.410958 0.845576
Si Si4 0.594110 0.485746 0.774169
Si Si5 0.924499 0.083565 0.262949
Si Si6 0.729612 0.013086 0.780279
O O1 0.382443 0.689251 0.597722
O O2 0.209138 0.972179 0.279033
O O3 0.560274 0.786824 0.878544
O O4 0.141792 0.004410 0.463647
O O5 0.206870 0.165327 0.165831
O O6 0.448334 0.202807 0.457002
O O7 0.099332 0.380754 0.862387
O O8 0.000000 0.500000 0.000000
O O9 0.000000 0.500000 0.500000
O O10 0.213622 0.525457 0.972376
O O11 0.500000 0.500000 0.500000
O O12 0.707883 0.310072 0.984257
O O13 0.000000 0.000000 0.500000
O O14 0.857860 0.005793 0.072522
#
# Coordination Sequence:
#
# PCOD9013556 Si02
#       6
#     2   2   2   2   2   2
#     4   9  22  40  63  86 124 167 204 257 307 376
#     4  10  22  39  62  89 120 163 204 255 305 374
#     4   9  21  40  61  88 123 162 200 255 317 363
#     4  10  21  41  65  88 123 166 215 242 314 380
#     4  12  25  38  63  97 123 161 209 267 311 363
#     4  10  22  39  60  91 122 156 215 248 303 379
#
# _framework density 19.186457999999998
#
# number of rings (size 3 to 8) (size 9 to 14) (size 15 to 20)
#    1.000    1.000    1.667    0.500    4.667    3.333 
#    0.000    0.833    0.000    0.000    0.000    0.000 
#    0.000    0.000    0.000    0.000    0.000    0.000 
#
# Total GULP energy -66874.510819 kJ/mol
# GULP energy per Si atom -5572.875902 kJ/mol
# Density = 1.914279 g / cm^3
# Si number density = 19.186458 Si / 1000 Ang^3
#
#
#
# Elastic Constant Matrix: (Units=GPa)
#
#
# Indices 1 2 3 4 5 6 
#
# 1 131.6093 43.1333 66.8760 -12.3697 -27.6170 -11.2642
# 2 43.1333 59.0536 38.0328 -18.5474 -10.3969 2.6481
# 3 66.8760 38.0328 121.9913 7.6285 -40.0218 -8.5360
# 4 -12.3697 -18.5474 7.6285 30.0132 1.4231 -0.2661
# 5 -27.6170 -10.3969 -40.0218 1.4231 33.6038 0.7569
# 6 -11.2642 2.6481 -8.5360 -0.2661 0.7569 20.4691
#
#
#
# Elastic Compliance Matrix: (Units=1/GPa)
#
#
# Indices 1 2 3 4 5 6 
#
# 1 0.013068 -0.006002 -0.003556 0.002428 0.004402 0.006354
# 2 -0.006002 0.036827 -0.014390 0.024365 -0.011409 -0.013330
# 3 -0.003556 -0.014390 0.023072 -0.017125 0.020637 0.008541
# 4 0.002428 0.024365 -0.017125 0.054276 -0.012986 -0.007772
# 5 0.004402 -0.011409 0.020637 -0.012986 0.054742 0.010311
# 6 0.006354 -0.013330 0.008541 -0.007772 0.010311 0.057155
#
#
# Mechanical properties :
#
#
# Convention : Reuss Voigt Hill
#
# Bulk Modulus (GPa) = 39.88763 67.63759 53.76261
# Shear Modulus (GPa) = 16.92658 27.79136 22.35897
#
# Velocity S-wave (km/s) = 2.97343 3.81003 3.41743
# Velocity P-wave (km/s) = 5.71166 7.39489 6.60710
#
# Compressibility (1/GPa) = 0.02507043
#
# Stress axis : x y z
#
# Youngs Moduli (GPa) = 76.52335 27.15363 43.34300
#
# Poissons Ratio (x) = 0.16299 0.15411
# Poissons Ratio (y) = 0.45932 0.62373
# Poissons Ratio (z) = 0.27208 0.39075
#
# Static dielectric constant tensor:
#      x y z
#    x 1.662570 0.023550 0.021590 
#    y 0.023550 1.691980 -0.032120 
#    z 0.021590 -0.032120 1.723760 
# 
# From -- ./inp_files/303365.got.cif
#   From: 2010.05.17/outbox.cif.g08.bks.cpg/sg2_152_cif.got.tgz:303365.got - 2010.06.03 11:33:40.
