data_PCOD9013206
_publ_section_title
;
Structure prediction by ZEFSAII (Michael W. Deem and Ramdas Pophale) SiO2 
 PCOD9013206
Probable space group: P -1
;
_chemical_formula_sum "Si O2"
_cell_formula_units_Z 14
_cell_length_a 5.605004
_cell_length_b 17.469738
_cell_length_c 18.767704
_cell_angle_alpha 20.863573
_cell_angle_beta 67.730789
_cell_angle_gamma 68.634966
_cell_volume 605.378404
_symmetry_space_group_name_H-M "P -1"
_symmetry_group_IT_number 2
_symmetry_cell_setting 'triclinic'
loop_
_space_group_symop_operation_xyz
x,y,z
-x,-y,-z
loop_
_atom_site_type_symbol
_atom_site_label
_atom_site_fract_x
_atom_site_fract_y
_atom_site_fract_z
Si Si1 0.634928 0.835574 0.843847
Si Si2 0.364251 0.408729 0.281392
Si Si3 0.881937 0.907672 0.989115
Si Si4 0.307384 0.976899 0.475020
Si Si5 0.529431 0.689386 0.505168
Si Si6 0.643510 0.828895 0.227190
Si Si7 0.088356 0.407773 0.868657
O O1 0.631859 0.863646 0.735738
O O2 0.573627 0.064998 0.688005
O O3 0.444206 0.652445 0.048670
O O4 0.890801 0.731336 0.941076
O O5 0.256960 0.342264 0.429354
O O6 0.119808 0.399628 0.265852
O O7 0.599801 0.255142 0.365090
O O8 0.773553 0.773470 0.185088
O O9 0.957724 0.762794 0.040112
O O10 0.635232 0.058436 0.859519
O O11 0.137214 0.024048 0.888063
O O12 0.500000 0.000000 0.500000
O O13 0.000000 0.000000 0.500000
O O14 0.599445 0.654295 0.445904
O O15 0.333730 0.524116 0.705278
#
# Coordination Sequence:
#
# PCOD9013206 Si02
#       7
#     2   2   2   2   2   2   2
#     4  10  23  44  68  95 137 175 216 274 329 397
#     4  10  25  42  68 100 133 175 225 269 334 400
#     4  10  22  39  66  94 135 177 231 271 339 389
#     4  11  28  48  72 102 137 172 217 271 333 407
#     4  10  22  39  64  98 134 178 229 276 328 392
#     4  10  21  41  63  95 133 185 221 281 331 389
#     4  11  23  39  69 101 130 179 228 278 328 399
#
# _framework density 23.126033
#
# number of rings (size 3 to 8) (size 9 to 14) (size 15 to 20)
#    0.000    1.714    1.429    0.857   12.000    2.857 
#    0.000    0.714    0.000    0.000    0.000    0.000 
#    0.000    0.000    0.000    0.000    0.000    0.000 
#
# Total GULP energy -77958.334437 kJ/mol
# GULP energy per Si atom -5568.452460 kJ/mol
# Density = 2.307340 g / cm^3
# Si number density = 23.126033 Si / 1000 Ang^3
#
#
#
# Elastic Constant Matrix: (Units=GPa)
#
#
# Indices 1 2 3 4 5 6 
#
# 1 112.3612 38.3293 33.6900 11.2668 30.6181 -0.2978
# 2 38.3293 54.2199 25.2342 21.4247 21.6591 7.2878
# 3 33.6900 25.2342 118.5819 30.9881 27.6752 3.6542
# 4 11.2668 21.4247 30.9881 32.8764 13.3156 4.8666
# 5 30.6181 21.6591 27.6752 13.3156 39.1191 1.7296
# 6 -0.2978 7.2878 3.6542 4.8666 1.7296 39.1514
#
#
#
# Elastic Compliance Matrix: (Units=1/GPa)
#
#
# Indices 1 2 3 4 5 6 
#
# 1 0.013559 -0.008280 -0.001933 0.004946 -0.006410 0.001493
# 2 -0.008280 0.033797 0.001421 -0.016978 -0.007279 -0.004055
# 3 -0.001933 0.001421 0.012388 -0.010076 -0.004609 0.000021
# 4 0.004946 -0.016978 -0.010076 0.051528 -0.004791 -0.002055
# 5 -0.006410 -0.007279 -0.004609 -0.004791 0.039476 0.000588
# 6 0.001493 -0.004055 0.000021 -0.002055 0.000588 0.026536
#
#
# Mechanical properties :
#
#
# Convention : Reuss Voigt Hill
#
# Bulk Modulus (GPa) = 23.71930 53.29665 38.50798
# Shear Modulus (GPa) = 23.93271 34.75668 29.34470
#
# Velocity S-wave (km/s) = 3.22045 3.88096 3.56603
# Velocity P-wave (km/s) = 4.90991 6.57105 5.80025
#
# Compressibility (1/GPa) = 0.04215975
#
# Stress axis : x y z
#
# Youngs Moduli (GPa) = 73.75413 29.58873 80.72371
#
# Poissons Ratio (x) = 0.24499 0.15601
# Poissons Ratio (y) = 0.61067 -0.11469
# Poissons Ratio (z) = 0.14254 -0.04204
#
# Static dielectric constant tensor:
#      x y z
#    x 2.382200 0.132910 0.031950 
#    y 0.132910 1.925610 -0.016040 
#    z 0.031950 -0.016040 1.843070 
# 
# From -- ./inp_files/7600.got.cif
#   From: 2010.05.17/outbox.cif.g08.bks.cpg/sg2_4_cif.got.tgz:7600.got - 2010.06.03 11:33:40.
