data_PCOD9013375
_publ_section_title
;
Structure prediction by ZEFSAII (Michael W. Deem and Ramdas Pophale) SiO2 
 PCOD9013375
Probable space group: P -1
;
_chemical_formula_sum "Si O2"
_cell_formula_units_Z 11
_cell_length_a 12.934870
_cell_length_b 9.940879
_cell_length_c 12.525575
_cell_angle_alpha 35.438823
_cell_angle_beta 34.997790
_cell_angle_gamma 31.381971
_cell_volume 443.678270
_symmetry_space_group_name_H-M "P -1"
_symmetry_group_IT_number 2
_symmetry_cell_setting 'triclinic'
loop_
_space_group_symop_operation_xyz
x,y,z
-x,-y,-z
loop_
_atom_site_type_symbol
_atom_site_label
_atom_site_fract_x
_atom_site_fract_y
_atom_site_fract_z
Si Si1 0.682539 0.665294 0.045484
Si Si2 0.923105 0.320096 0.373461
Si Si3 0.355576 0.114842 0.443190
Si Si4 0.539827 0.277426 0.018343
Si Si5 0.500000 0.500000 0.500000
Si Si6 0.938607 0.250072 0.650230
O O1 0.649479 0.520801 0.266504
O O2 0.617017 0.594876 0.033221
O O3 0.917172 0.619698 0.862428
O O4 0.500000 0.000000 0.000000
O O5 0.669864 0.479875 0.459060
O O6 0.961067 0.330867 0.459959
O O7 0.000000 0.000000 0.500000
O O8 0.496365 0.066693 0.250711
O O9 0.197548 0.452327 0.367615
O O10 0.178544 0.041528 0.628125
O O11 0.500000 0.000000 0.500000
O O12 0.500000 0.500000 0.000000
O O13 0.784912 0.137625 0.860133
#
# Coordination Sequence:
#
# PCOD9013375 Si02
#       6
#     2   2   2   2   1   2
#     4  12  24  46  73 102 143 188 236 296 353 424
#     4  12  24  44  70 102 141 184 236 295 352 418
#     4  10  22  39  67  95 126 178 227 268 345 421
#     4  10  21  42  67  95 139 176 218 290 349 402
#     4  12  26  44  72 106 134 190 244 282 364 422
#     4  10  21  41  64  92 136 172 216 291 338 399
#
# _framework density 24.792739999999998
#
# number of rings (size 3 to 8) (size 9 to 14) (size 15 to 20)
#    0.000    1.091    5.455    0.545    0.000    3.636 
#    0.000    1.818    0.000    0.000    0.000    0.000 
#    0.000    0.000    0.000    0.000    0.000    0.000 
#
# Total GULP energy -61249.606288 kJ/mol
# GULP energy per Si atom -5568.146026 kJ/mol
# Density = 2.473631 g / cm^3
# Si number density = 24.792740 Si / 1000 Ang^3
#
#
#
# Elastic Constant Matrix: (Units=GPa)
#
#
# Indices 1 2 3 4 5 6 
#
# 1 123.9012 7.7117 38.5676 12.7771 -8.3661 -35.0226
# 2 7.7117 46.2613 25.5936 0.8281 -27.7888 -0.6557
# 3 38.5676 25.5936 217.8474 57.0579 -17.5904 -35.2537
# 4 12.7771 0.8281 57.0579 36.3149 -18.0827 -18.4808
# 5 -8.3661 -27.7888 -17.5904 -18.0827 53.4073 18.0792
# 6 -35.0226 -0.6557 -35.2537 -18.4808 18.0792 59.1417
#
#
#
# Elastic Compliance Matrix: (Units=1/GPa)
#
#
# Indices 1 2 3 4 5 6 
#
# 1 0.010031 -0.002747 -0.000431 -0.000855 -0.002357 0.006106
# 2 -0.002747 0.049292 -0.012351 0.032072 0.035106 -0.009153
# 3 -0.000431 -0.012351 0.011280 -0.021205 -0.010997 0.003067
# 4 -0.000855 0.032072 -0.021205 0.078745 0.035952 0.000826
# 5 -0.002357 0.035106 -0.010997 0.035952 0.048999 -0.011306
# 6 0.006106 -0.009153 0.003067 0.000826 -0.011306 0.025965
#
#
# Mechanical properties :
#
#
# Convention : Reuss Voigt Hill
#
# Bulk Modulus (GPa) = 25.28887 59.08395 42.18641
# Shear Modulus (GPa) = 18.61826 50.84857 34.73342
#
# Velocity S-wave (km/s) = 2.74333 4.53365 3.74699
# Velocity P-wave (km/s) = 4.50075 7.16158 5.98101
#
# Compressibility (1/GPa) = 0.03954309
#
# Stress axis : x y z
#
# Youngs Moduli (GPa) = 99.68891 20.28741 88.65191
#
# Poissons Ratio (x) = 0.05574 0.03824
# Poissons Ratio (y) = 0.27388 1.09496
# Poissons Ratio (z) = 0.04300 0.25057
#
# Static dielectric constant tensor:
#      x y z
#    x 1.913300 0.005490 -0.100390 
#    y 0.005490 1.980180 0.001800 
#    z -0.100390 0.001800 2.126230 
# 
# From -- ./inp_files/301530.got.cif
#   From: 2010.05.17/outbox.cif.g08.bks.cpg/sg2_151_cif.got.tgz:301530.got - 2010.06.03 11:33:40.
