data_PCOD9013228
_publ_section_title
;
Structure prediction by ZEFSAII (Michael W. Deem and Ramdas Pophale) SiO2 
 PCOD9013228
Probable space group: P -1
;
_chemical_formula_sum "Si O2"
_cell_formula_units_Z 16
_cell_length_a 13.394981
_cell_length_b 16.146257
_cell_length_c 7.244222
_cell_angle_alpha 47.464485
_cell_angle_beta 43.823185
_cell_angle_gamma 38.580205
_cell_volume 653.376077
_symmetry_space_group_name_H-M "P -1"
_symmetry_group_IT_number 2
_symmetry_cell_setting 'triclinic'
loop_
_space_group_symop_operation_xyz
x,y,z
-x,-y,-z
loop_
_atom_site_type_symbol
_atom_site_label
_atom_site_fract_x
_atom_site_fract_y
_atom_site_fract_z
Si Si1 0.368834 0.871713 0.852295
Si Si2 0.556479 0.576425 0.941100
Si Si3 0.744710 0.314599 0.308637
Si Si4 0.018978 0.944173 0.848557
Si Si5 0.702116 0.995384 0.643894
Si Si6 0.533434 0.763399 0.149800
Si Si7 0.988601 0.692089 0.782480
Si Si8 0.167664 0.446431 0.663396
O O1 0.393319 0.732803 0.957165
O O2 0.361123 0.952019 0.560355
O O3 0.529167 0.807978 0.878423
O O4 0.186376 0.973210 0.052868
O O5 0.704822 0.583503 0.629656
O O6 0.500000 0.500000 0.000000
O O7 0.639702 0.475074 0.155698
O O8 0.604012 0.279688 0.587047
O O9 0.868157 0.287504 0.357246
O O10 0.873443 0.214818 0.119336
O O11 0.141912 0.985781 0.540547
O O12 0.000000 0.000000 0.000000
O O13 0.545112 0.100974 0.826924
O O14 0.804744 0.834633 0.773426
O O15 0.708634 0.637882 0.197950
O O16 0.058749 0.603299 0.636387
O O17 0.954332 0.608297 0.103748
#
# Coordination Sequence:
#
# PCOD9013228 Si02
#       8
#     2   2   2   2   2   2   2   2
#     4  11  22  36  65  99 128 172 215 279 329 399
#     4  12  23  40  67  98 134 172 224 277 337 387
#     4  11  23  40  69 103 125 180 224 273 335 393
#     4   9  19  35  62 100 133 156 216 273 330 384
#     4  10  21  41  63  97 131 174 214 277 337 387
#     4  11  22  43  68 101 134 163 233 279 325 402
#     4  11  26  44  67  92 136 184 218 272 340 391
#     4  11  26  46  63  95 137 179 223 278 328 398
#
# _framework density 24.488195000000001
#
# number of rings (size 3 to 8) (size 9 to 14) (size 15 to 20)
#    0.000    1.250    2.500    3.750    7.000    4.000 
#    0.000    0.625    0.000    0.000    0.000    0.000 
#    0.000    0.000    0.000    0.000    0.000    0.000 
#
# Total GULP energy -89494.641243 kJ/mol
# GULP energy per Si atom -5593.415078 kJ/mol
# Density = 2.443246 g / cm^3
# Si number density = 24.488195 Si / 1000 Ang^3
#
#
#
# Elastic Constant Matrix: (Units=GPa)
#
#
# Indices 1 2 3 4 5 6 
#
# 1 55.0292 17.2088 24.3110 -6.0059 5.2079 -5.1659
# 2 17.2088 139.8179 21.3236 -5.9718 -2.4386 10.2254
# 3 24.3110 21.3236 55.4565 -6.2879 0.4492 8.5042
# 4 -6.0059 -5.9718 -6.2879 34.0212 -6.0788 6.5806
# 5 5.2079 -2.4386 0.4492 -6.0788 37.7430 -0.6889
# 6 -5.1659 10.2254 8.5042 6.5806 -0.6889 34.2422
#
#
#
# Elastic Compliance Matrix: (Units=1/GPa)
#
#
# Indices 1 2 3 4 5 6 
#
# 1 0.024642 -0.001904 -0.011110 0.000031 -0.003259 0.006974
# 2 -0.001904 0.007899 -0.001672 0.001395 0.000972 -0.002479
# 3 -0.011110 -0.001672 0.025286 0.004313 0.001668 -0.008252
# 4 0.000031 0.001395 0.004313 0.032855 0.005186 -0.007693
# 5 -0.003259 0.000972 0.001668 0.005186 0.027793 -0.001634
# 6 0.006974 -0.002479 -0.008252 -0.007693 -0.001634 0.034491
#
#
# Mechanical properties :
#
#
# Convention : Reuss Voigt Hill
#
# Bulk Modulus (GPa) = 35.14254 41.77669 38.45961
# Shear Modulus (GPa) = 26.06534 33.69863 29.88198
#
# Velocity S-wave (km/s) = 3.26606 3.71363 3.49701
# Velocity P-wave (km/s) = 5.34835 5.95693 5.66082
#
# Compressibility (1/GPa) = 0.02845554
#
# Stress axis : x y z
#
# Youngs Moduli (GPa) = 40.58058 126.59186 39.54685
#
# Poissons Ratio (x) = 0.24104 0.43937
# Poissons Ratio (y) = 0.07727 0.06613
# Poissons Ratio (z) = 0.45085 0.21169
#
# Static dielectric constant tensor:
#      x y z
#    x 2.021000 0.000900 -0.013010 
#    y 0.000900 1.927840 -0.002480 
#    z -0.013010 -0.002480 1.956240 
# 
# From -- ./inp_files/317955.got.cif
#   From: 2010.05.17/outbox.cif.g08.bks.cpg/sg2_159_cif.got.tgz:317955.got - 2010.06.03 11:33:40.
