data_PCOD9013201
_publ_section_title
;
Structure prediction by ZEFSAII (Michael W. Deem and Ramdas Pophale) SiO2 
 PCOD9013201
Probable space group: P -1
;
_chemical_formula_sum "Si O2"
_cell_formula_units_Z 13
_cell_length_a 11.090396
_cell_length_b 7.587255
_cell_length_c 8.640977
_cell_angle_alpha 52.857654
_cell_angle_beta 67.928894
_cell_angle_gamma 85.547512
_cell_volume 526.048897
_symmetry_space_group_name_H-M "P -1"
_symmetry_group_IT_number 2
_symmetry_cell_setting 'triclinic'
loop_
_space_group_symop_operation_xyz
x,y,z
-x,-y,-z
loop_
_atom_site_type_symbol
_atom_site_label
_atom_site_fract_x
_atom_site_fract_y
_atom_site_fract_z
Si Si1 0.411206 0.250536 0.150486
Si Si2 0.379652 0.386752 0.509465
Si Si3 0.809075 0.568652 0.667901
Si Si4 0.137564 0.632747 0.936991
Si Si5 0.500000 0.000000 0.500000
Si Si6 0.979151 0.966988 0.211087
Si Si7 0.742315 0.736642 0.058419
O O1 0.266530 0.271763 0.276627
O O2 0.478238 0.063340 0.294240
O O3 0.500000 0.500000 0.000000
O O4 0.379956 0.209121 0.006344
O O5 0.500000 0.500000 0.500000
O O6 0.298849 0.527136 0.361949
O O7 0.434166 0.213389 0.466555
O O8 0.274305 0.261526 0.751619
O O9 0.850589 0.406544 0.863959
O O10 0.931590 0.722890 0.437710
O O11 0.134648 0.890229 0.769151
O O12 0.247714 0.521439 0.858687
O O13 0.000000 0.500000 0.000000
O O14 0.120569 0.096050 0.141229
O O15 0.000000 0.000000 0.000000
#
# Coordination Sequence:
#
# PCOD9013201 Si02
#       7
#     2   2   2   2   1   2   2
#     4  10  22  42  66  97 134 172 227 278 328 399
#     4  11  23  43  66  99 134 171 234 277 327 407
#     4  10  22  41  67  93 135 176 213 274 336 390
#     4   9  22  41  67  94 131 176 212 268 340 394
#     4  10  24  44  70  94 130 184 220 276 352 378
#     4  11  22  42  64  96 135 165 219 272 325 407
#     4  10  21  41  63  95 131 168 218 276 325 395
#
# _framework density 24.712534000000002
#
# number of rings (size 3 to 8) (size 9 to 14) (size 15 to 20)
#    0.000    1.846    1.538    1.846    0.000   14.154 
#    2.769    1.538    0.000    0.000    0.000    0.000 
#    0.000    0.000    0.000    0.000    0.000    0.000 
#
# Total GULP energy -72408.906050 kJ/mol
# GULP energy per Si atom -5569.915850 kJ/mol
# Density = 2.465629 g / cm^3
# Si number density = 24.712534 Si / 1000 Ang^3
#
#
#
# Elastic Constant Matrix: (Units=GPa)
#
#
# Indices 1 2 3 4 5 6 
#
# 1 134.9268 17.5843 51.0708 -12.5744 32.5811 32.7032
# 2 17.5843 57.2521 5.6588 9.2927 -1.1693 4.5901
# 3 51.0708 5.6588 98.7057 5.4993 8.1455 5.0263
# 4 -12.5744 9.2927 5.4993 31.2433 -0.7707 11.7240
# 5 32.5811 -1.1693 8.1455 -0.7707 59.6544 4.9733
# 6 32.7032 4.5901 5.0263 11.7240 4.9733 40.9008
#
#
#
# Elastic Compliance Matrix: (Units=1/GPa)
#
#
# Indices 1 2 3 4 5 6 
#
# 1 0.019921 -0.006873 -0.009347 0.018380 -0.007975 -0.018307
# 2 -0.006873 0.020800 0.002445 -0.011465 0.003199 0.005758
# 3 -0.009347 0.002445 0.014787 -0.010025 0.002340 0.007971
# 4 0.018380 -0.011465 -0.010025 0.054605 -0.005929 -0.027109
# 5 -0.007975 0.003199 0.002340 -0.005929 0.020373 0.004952
# 6 -0.018307 0.005758 0.007971 -0.027109 0.004952 0.044630
#
#
# Mechanical properties :
#
#
# Convention : Reuss Voigt Hill
#
# Bulk Modulus (GPa) = 35.76715 48.83472 42.30093
# Shear Modulus (GPa) = 23.58673 40.79774 32.19223
#
# Velocity S-wave (km/s) = 3.09276 4.06753 3.61317
# Velocity P-wave (km/s) = 5.22094 6.47022 5.87886
#
# Compressibility (1/GPa) = 0.02795862
#
# Stress axis : x y z
#
# Youngs Moduli (GPa) = 50.19906 48.07580 67.62907
#
# Poissons Ratio (x) = 0.33042 0.63211
# Poissons Ratio (y) = 0.34502 -0.16536
# Poissons Ratio (z) = 0.46920 -0.11755
#
# Static dielectric constant tensor:
#      x y z
#    x 2.014300 0.031430 0.027030 
#    y 0.031430 1.964790 0.033540 
#    z 0.027030 0.033540 1.254400 
# 
# From -- ./inp_files/196697.got.cif
#   From: 2010.05.17/outbox.cif.g08.bks.cpg/sg2_99_cif.got.tgz:196697.got - 2010.06.03 11:33:40.
