data_PCOD9013765
_publ_section_title
;
Structure prediction by ZEFSAII (Michael W. Deem and Ramdas Pophale) SiO2 
 PCOD9013765
Probable space group: P -1
;
_chemical_formula_sum "Si O2"
_cell_formula_units_Z 16
_cell_length_a 14.268266
_cell_length_b 12.722440
_cell_length_c 8.866152
_cell_angle_alpha 128.173101
_cell_angle_beta 49.461763
_cell_angle_gamma 96.437345
_cell_volume 841.064088
_symmetry_space_group_name_H-M "P -1"
_symmetry_group_IT_number 2
_symmetry_cell_setting 'triclinic'
loop_
_space_group_symop_operation_xyz
x,y,z
-x,-y,-z
loop_
_atom_site_type_symbol
_atom_site_label
_atom_site_fract_x
_atom_site_fract_y
_atom_site_fract_z
Si Si1 0.312561 0.743063 0.019074
Si Si2 0.854957 0.049911 0.107176
Si Si3 0.983931 0.121840 0.494083
Si Si4 0.467130 0.408253 0.084863
Si Si5 0.213652 0.653485 0.730396
Si Si6 0.953983 0.677065 0.188133
Si Si7 0.587083 0.065281 0.556272
Si Si8 0.352371 0.031397 0.251986
O O1 0.175413 0.814120 0.333896
O O2 0.329625 0.890940 0.091834
O O3 0.434468 0.627784 0.899957
O O4 0.279080 0.674825 0.841423
O O5 0.791876 0.222622 0.271142
O O6 0.735170 0.028343 0.293985
O O7 0.902340 0.956457 0.820407
O O8 0.000000 0.000000 0.000000
O O9 0.995102 0.263796 0.670906
O O10 0.000000 0.000000 0.500000
O O11 0.313111 0.496715 0.401484
O O12 0.500000 0.500000 0.000000
O O13 0.499265 0.247637 0.836044
O O14 0.054671 0.686357 0.959875
O O15 0.787622 0.802184 0.468843
O O16 0.000000 0.500000 0.000000
O O17 0.500000 0.000000 0.500000
O O18 0.622264 0.992215 0.618632
O O19 0.500000 0.000000 0.000000
#
# Coordination Sequence:
#
# PCOD9013765 Si02
#       8
#     2   2   2   2   2   2   2   2
#     4  10  21  41  65  96 121 166 230 258 321 394
#     4  12  22  40  71  92 128 177 222 269 324 399
#     4  11  20  40  70  92 123 167 221 267 311 395
#     4  11  23  41  63  96 130 169 215 275 331 390
#     4  11  22  41  67  94 129 167 215 280 321 387
#     4  11  24  41  64 103 129 160 219 276 330 370
#     4  11  27  43  61  97 134 173 220 267 336 395
#     4  11  24  42  68  89 133 174 216 265 324 403
#
# _framework density 19.023520999999999
#
# number of rings (size 3 to 8) (size 9 to 14) (size 15 to 20)
#    0.000    1.000    5.000    2.625    7.000    0.000 
#    4.500    0.000    0.000    3.000    0.000    0.000 
#    0.000    0.000    0.000    0.000    0.000    0.000 
#
# Total GULP energy -89180.944172 kJ/mol
# GULP energy per Si atom -5573.809011 kJ/mol
# Density = 1.898022 g / cm^3
# Si number density = 19.023521 Si / 1000 Ang^3
#
#
#
# Elastic Constant Matrix: (Units=GPa)
#
#
# Indices 1 2 3 4 5 6 
#
# 1 81.2538 49.9646 42.1339 -6.4556 -5.9171 8.8974
# 2 49.9646 106.5148 57.1982 -8.2959 -4.7419 9.4601
# 3 42.1339 57.1982 167.6170 -20.6691 -18.5028 13.8265
# 4 -6.4556 -8.2959 -20.6691 42.8783 5.4754 -0.3469
# 5 -5.9171 -4.7419 -18.5028 5.4754 36.1061 0.4655
# 6 8.8974 9.4601 13.8265 -0.3469 0.4655 32.0382
#
#
#
# Elastic Compliance Matrix: (Units=1/GPa)
#
#
# Indices 1 2 3 4 5 6 
#
# 1 0.017997 -0.007261 -0.001709 0.000323 0.001098 -0.002129
# 2 -0.007261 0.014536 -0.003121 0.000324 -0.000918 -0.000912
# 3 -0.001709 -0.003121 0.008333 0.002730 0.003195 -0.002217
# 4 0.000323 0.000324 0.002730 0.025033 -0.002288 -0.001059
# 5 0.001098 -0.000918 0.003195 -0.002288 0.029764 -0.001870
# 6 -0.002129 -0.000912 -0.002217 -0.001059 -0.001870 0.033046
#
#
# Mechanical properties :
#
#
# Convention : Reuss Voigt Hill
#
# Bulk Modulus (GPa) = 59.94288 72.66433 66.30361
# Shear Modulus (GPa) = 31.55514 35.94376 33.74945
#
# Velocity S-wave (km/s) = 4.07719 4.35148 4.21656
# Velocity P-wave (km/s) = 7.33095 7.97040 7.65735
#
# Compressibility (1/GPa) = 0.01668255
#
# Stress axis : x y z
#
# Youngs Moduli (GPa) = 55.56362 68.79506 120.00656
#
# Poissons Ratio (x) = 0.49954 0.20515
# Poissons Ratio (y) = 0.40346 0.37456
# Poissons Ratio (z) = 0.09498 0.21472
#
# Static dielectric constant tensor:
#      x y z
#    x 1.656970 0.029430 0.013240 
#    y 0.029430 1.534560 -0.106190 
#    z 0.013240 -0.106190 1.633710 
# 
# From -- ./inp_files/308432.got.cif
#   From: 2010.05.17/outbox.cif.g08.bks.cpg/sg2_155_cif.got.tgz:308432.got - 2010.06.03 11:33:40.
