data_PCOD9013898
_publ_section_title
;
Structure prediction by ZEFSAII (Michael W. Deem and Ramdas Pophale) SiO2 
 PCOD9013898
Probable space group: P -1
;
_chemical_formula_sum "Si O2"
_cell_formula_units_Z 16
_cell_length_a 15.563837
_cell_length_b 8.391727
_cell_length_c 14.752993
_cell_angle_alpha 67.619951
_cell_angle_beta 154.234932
_cell_angle_gamma 118.872117
_cell_volume 726.011027
_symmetry_space_group_name_H-M "P -1"
_symmetry_group_IT_number 2
_symmetry_cell_setting 'triclinic'
loop_
_space_group_symop_operation_xyz
x,y,z
-x,-y,-z
loop_
_atom_site_type_symbol
_atom_site_label
_atom_site_fract_x
_atom_site_fract_y
_atom_site_fract_z
Si Si1 0.945294 0.784963 0.017742
Si Si2 0.798137 0.558903 0.083658
Si Si3 0.961967 0.925978 0.378442
Si Si4 0.336283 0.422384 0.746446
Si Si5 0.954236 0.691853 0.686482
Si Si6 0.643944 0.046954 0.537439
Si Si7 0.718425 0.662801 0.654889
Si Si8 0.774955 0.235895 0.444347
O O1 0.773761 0.697196 0.951762
O O2 0.156530 0.790302 0.266505
O O3 0.877748 0.672272 0.886787
O O4 0.000000 0.000000 0.000000
O O5 0.875496 0.407072 0.141556
O O6 0.991948 0.669726 0.309108
O O7 0.579137 0.465722 0.945995
O O8 0.765534 0.738471 0.243497
O O9 0.171918 0.893013 0.550326
O O10 0.000000 0.000000 0.500000
O O11 0.933977 0.087253 0.256931
O O12 0.202980 0.366440 0.537202
O O13 0.296395 0.606261 0.698904
O O14 0.819044 0.642420 0.659880
O O15 0.614144 0.130393 0.394196
O O16 0.500000 0.000000 0.500000
O O17 0.684771 0.859993 0.588765
O O18 0.500000 0.500000 0.500000
#
# Coordination Sequence:
#
# PCOD9013898 Si02
#       8
#     2   2   2   2   2   2   2   2
#     4   9  21  38  58  85 125 161 207 254 303 367
#     4  10  22  39  61  91 122 161 207 253 307 370
#     4  10  21  42  64  88 124 160 202 258 318 363
#     4  10  22  39  66  89 119 158 212 255 306 373
#     4  10  22  41  59  89 130 162 197 261 313 369
#     4  10  22  39  62  91 125 168 207 249 311 379
#     4  11  22  37  63  89 126 166 210 252 314 370
#     4  10  21  41  66  89 123 162 205 255 311 365
#
# _framework density 22.038233999999999
#
# number of rings (size 3 to 8) (size 9 to 14) (size 15 to 20)
#    0.000    2.000    1.250    1.125    8.750    1.500 
#    2.250    2.500    0.000    0.000    0.000    0.000 
#    0.000    0.000    0.000    0.000    0.000    0.000 
#
# Total GULP energy -89288.628868 kJ/mol
# GULP energy per Si atom -5580.539304 kJ/mol
# Density = 2.198807 g / cm^3
# Si number density = 22.038234 Si / 1000 Ang^3
#
#
#
# Elastic Constant Matrix: (Units=GPa)
#
#
# Indices 1 2 3 4 5 6 
#
# 1 150.3517 52.3629 30.3099 -0.6540 21.9180 4.7923
# 2 52.3629 122.9197 21.4703 -4.2776 14.4713 10.2110
# 3 30.3099 21.4703 41.7407 4.1800 4.4637 4.6406
# 4 -0.6540 -4.2776 4.1800 16.8176 -4.4726 8.8076
# 5 21.9180 14.4713 4.4637 -4.4726 30.5396 6.0824
# 6 4.7923 10.2110 4.6406 8.8076 6.0824 45.2863
#
#
#
# Elastic Compliance Matrix: (Units=1/GPa)
#
#
# Indices 1 2 3 4 5 6 
#
# 1 0.009231 -0.002610 -0.004838 -0.000939 -0.005010 0.000963
# 2 -0.002610 0.010360 -0.003442 0.004226 -0.001449 -0.002334
# 3 -0.004838 -0.003442 0.030177 -0.008698 -0.000574 -0.000035
# 4 -0.000939 0.004226 -0.008698 0.075070 0.014218 -0.016472
# 5 -0.005010 -0.001449 -0.000574 0.014218 0.040649 -0.007309
# 6 0.000963 -0.002334 -0.000035 -0.016472 -0.007309 0.026695
#
#
# Mechanical properties :
#
#
# Convention : Reuss Voigt Hill
#
# Bulk Modulus (GPa) = 35.72944 58.14426 46.93685
# Shear Modulus (GPa) = 22.39223 32.58662 27.48942
#
# Velocity S-wave (km/s) = 3.19103 3.84948 3.53562
# Velocity P-wave (km/s) = 5.46119 6.79696 6.16536
#
# Compressibility (1/GPa) = 0.02798812
#
# Stress axis : x y z
#
# Youngs Moduli (GPa) = 108.33094 96.52358 33.13742
#
# Poissons Ratio (x) = 0.25194 0.16031
# Poissons Ratio (y) = 0.28276 0.11407
# Poissons Ratio (z) = 0.52407 0.33227
#
# Static dielectric constant tensor:
#      x y z
#    x -2.660420 6.338210 -4.749700 
#    y 6.338210 -6.955310 6.612650 
#    z -4.749700 6.612650 -3.128000 
# 
# From -- ./inp_files/529584.got.cif
#   From: 2010.05.17/outbox.cif.g08.bks.cpg/sg2_265_cif.got.tgz:529584.got - 2010.06.03 11:33:40.
