data_PCOD9013356
_publ_section_title
;
Structure prediction by ZEFSAII (Michael W. Deem and Ramdas Pophale) SiO2 
 PCOD9013356
Probable space group: P -1
;
_chemical_formula_sum "Si O2"
_cell_formula_units_Z 13
_cell_length_a 8.245535
_cell_length_b 17.271901
_cell_length_c 9.290060
_cell_angle_alpha 148.584561
_cell_angle_beta 72.334799
_cell_angle_gamma 124.380553
_cell_volume 517.870474
_symmetry_space_group_name_H-M "P -1"
_symmetry_group_IT_number 2
_symmetry_cell_setting 'triclinic'
loop_
_space_group_symop_operation_xyz
x,y,z
-x,-y,-z
loop_
_atom_site_type_symbol
_atom_site_label
_atom_site_fract_x
_atom_site_fract_y
_atom_site_fract_z
Si Si1 0.194710 0.266685 0.940193
Si Si2 0.211404 0.016662 0.953610
Si Si3 0.753873 0.080737 0.889599
Si Si4 0.642887 0.136817 0.544425
Si Si5 0.500000 0.500000 0.000000
Si Si6 0.318852 0.610996 0.627288
Si Si7 0.636918 0.428285 0.135959
O O1 0.275308 0.312519 0.829306
O O2 0.231322 0.457014 0.284760
O O3 0.950452 0.107810 0.796778
O O4 0.375233 0.264309 0.968866
O O5 0.242074 0.948483 0.989055
O O6 0.207529 0.899460 0.635225
O O7 0.425876 0.230010 0.212094
O O8 0.000000 0.000000 0.000000
O O9 0.764776 0.265101 0.154680
O O10 0.529474 0.909797 0.606977
O O11 0.746363 0.340771 0.902050
O O12 0.500000 0.000000 0.500000
O O13 0.380997 0.464969 0.817967
O O14 0.272725 0.504262 0.622157
#
# Coordination Sequence:
#
# PCOD9013356 Si02
#       7
#     2   2   2   2   1   2   2
#     4  10  23  42  62  96 131 175 217 265 325 392
#     4  11  25  42  67 102 126 175 222 267 331 391
#     4  11  24  39  68  96 128 174 219 270 325 390
#     4  11  22  44  67  95 137 168 215 283 324 383
#     4   8  24  38  64  88 132 172 212 266 320 384
#     4  11  21  43  66  91 137 172 212 270 325 395
#     4  10  21  41  64  92 125 178 211 263 332 373
#
# _framework density 25.102800999999999
#
# number of rings (size 3 to 8) (size 9 to 14) (size 15 to 20)
#    0.923    0.615    3.077    3.692    4.308    0.615 
#    2.769    0.769    0.000    0.000    0.000    0.000 
#    0.000    0.000    0.000    0.000    0.000    0.000 
#
# Total GULP energy -72413.047228 kJ/mol
# GULP energy per Si atom -5570.234402 kJ/mol
# Density = 2.504567 g / cm^3
# Si number density = 25.102801 Si / 1000 Ang^3
#
#
#
# Elastic Constant Matrix: (Units=GPa)
#
#
# Indices 1 2 3 4 5 6 
#
# 1 95.7661 53.5319 26.0932 -25.5309 -8.1239 14.3731
# 2 53.5319 159.4296 24.7393 -33.3233 -2.8757 -15.4172
# 3 26.0932 24.7393 44.6134 8.7799 -26.5538 5.6645
# 4 -25.5309 -33.3233 8.7799 17.3428 14.6825 13.6326
# 5 -8.1239 -2.8757 -26.5538 14.6825 23.9072 -13.5397
# 6 14.3731 -15.4172 5.6645 13.6326 -13.5397 59.4441
#
#
#
# Elastic Compliance Matrix: (Units=1/GPa)
#
#
# Indices 1 2 3 4 5 6 
#
# 1 0.011869 -0.005895 0.004936 -0.006230 0.012267 -0.000646
# 2 -0.005895 0.008115 0.001716 -0.002125 0.005013 0.004996
# 3 0.004936 0.001716 0.006541 0.027099 -0.013536 -0.010670
# 4 -0.006230 -0.002125 0.027099 -0.007128 0.036863 0.008404
# 5 0.012267 0.005013 -0.013536 0.036863 0.004506 -0.007803
# 6 -0.000646 0.004996 -0.010670 0.008404 -0.007803 0.015586
#
#
# Mechanical properties :
#
#
# Convention : Reuss Voigt Hill
#
# Bulk Modulus (GPa) = 35.66409 56.50419 46.08414
# Shear Modulus (GPa) = 105.65969 33.16845 69.41407
#
# Velocity S-wave (km/s) = 6.49478 3.63892 5.26421
# Velocity P-wave (km/s) = 8.39529 6.34142 7.43958
#
# Compressibility (1/GPa) = 0.02803941
#
# Stress axis : x y z
#
# Youngs Moduli (GPa) = 84.25404 123.23423 152.87580
#
# Poissons Ratio (x) = 0.72641 -0.75463
# Poissons Ratio (y) = 0.49664 -0.26228
# Poissons Ratio (z) = -0.41590 -0.21143
#
# Static dielectric constant tensor:
#      x y z
#    x 2.024610 0.053410 -0.001280 
#    y 0.053410 1.952600 0.067910 
#    z -0.001280 0.067910 2.066560 
# 
# From -- ./inp_files/211337.got.cif
#   From: 2010.05.17/outbox.cif.g08.bks.cpg/sg2_106_cif.got.tgz:211337.got - 2010.06.03 11:33:40.
