data_PCOD9013313
_publ_section_title
;
Structure prediction by ZEFSAII (Michael W. Deem and Ramdas Pophale) SiO2 
 PCOD9013313
Probable space group: P -1
;
_chemical_formula_sum "Si O2"
_cell_formula_units_Z 16
_cell_length_a 14.075257
_cell_length_b 5.464495
_cell_length_c 12.228870
_cell_angle_alpha 108.026579
_cell_angle_beta 138.757952
_cell_angle_gamma 82.032481
_cell_volume 582.950081
_symmetry_space_group_name_H-M "P -1"
_symmetry_group_IT_number 2
_symmetry_cell_setting 'triclinic'
loop_
_space_group_symop_operation_xyz
x,y,z
-x,-y,-z
loop_
_atom_site_type_symbol
_atom_site_label
_atom_site_fract_x
_atom_site_fract_y
_atom_site_fract_z
Si Si1 0.534479 0.782092 0.721873
Si Si2 0.670232 0.496669 0.060071
Si Si3 0.083928 0.450402 0.176479
Si Si4 0.125690 0.748476 0.648321
Si Si5 0.091919 0.948187 0.402850
Si Si6 0.630406 0.850253 0.252668
Si Si7 0.637403 0.321665 0.648228
Si Si8 0.192126 0.826465 0.028021
O O1 0.546041 0.481268 0.671497
O O2 0.457707 0.843122 0.548742
O O3 0.434749 0.883984 0.742166
O O4 0.698086 0.938687 0.898338
O O5 0.731815 0.342018 0.192189
O O6 0.670023 0.779082 0.151977
O O7 0.508186 0.368275 0.873327
O O8 0.774486 0.433332 0.043396
O O9 0.087203 0.708723 0.286702
O O10 0.251104 0.454103 0.288681
O O11 0.000000 0.500000 0.000000
O O12 0.982864 0.209115 0.115176
O O13 0.127585 0.851502 0.541875
O O14 0.000000 0.500000 0.500000
O O15 0.057156 0.938131 0.698379
O O16 0.236640 0.162208 0.549259
O O17 0.740459 0.178661 0.792973
#
# Coordination Sequence:
#
# PCOD9013313 Si02
#       8
#     2   2   2   2   2   2   2   2
#     4  10  21  41  64  90 127 168 217 262 319 380
#     4  10  22  42  64  97 134 164 215 261 321 390
#     4  10  22  40  64  93 125 163 214 267 314 379
#     4  11  23  41  66  94 128 169 211 268 321 391
#     4  11  23  42  68  92 128 171 214 263 333 376
#     4  10  21  42  63  94 131 167 210 266 313 389
#     4  10  21  41  64  91 125 167 219 264 314 382
#     4  10  22  40  64  90 130 167 206 267 326 374
#
# _framework density 27.446604000000001
#
# number of rings (size 3 to 8) (size 9 to 14) (size 15 to 20)
#    0.000    1.750    2.500    1.125    1.750    5.000 
#    6.750    5.000    0.000    0.000    0.000    0.000 
#    0.000    0.000    0.000    0.000    0.000    0.000 
#
# Total GULP energy -89520.728599 kJ/mol
# GULP energy per Si atom -5595.045537 kJ/mol
# Density = 2.738413 g / cm^3
# Si number density = 27.446604 Si / 1000 Ang^3
#
#
#
# Elastic Constant Matrix: (Units=GPa)
#
#
# Indices 1 2 3 4 5 6 
#
# 1 102.0464 30.2203 40.5536 6.8197 0.6317 -32.2953
# 2 30.2203 76.2406 26.9901 8.9966 -12.0288 -31.4884
# 3 40.5536 26.9901 159.8120 16.0608 4.7982 -15.9068
# 4 6.8197 8.9966 16.0608 36.5725 -7.5699 -12.3918
# 5 0.6317 -12.0288 4.7982 -7.5699 54.9690 2.8415
# 6 -32.2953 -31.4884 -15.9068 -12.3918 2.8415 43.9320
#
#
#
# Elastic Compliance Matrix: (Units=1/GPa)
#
#
# Indices 1 2 3 4 5 6 
#
# 1 0.013902 -0.001153 -0.002608 0.001797 -0.000401 0.008982
# 2 -0.001153 0.020156 -0.002087 0.001426 0.004132 0.012979
# 3 -0.002608 -0.002087 0.007476 -0.003081 -0.001427 -0.001483
# 4 0.001797 0.001426 -0.003081 0.032350 0.004495 0.010061
# 5 -0.000401 0.004132 -0.001427 0.004495 0.019734 0.002141
# 6 0.008982 0.012979 -0.001483 0.010061 0.002141 0.040830
#
#
# Mechanical properties :
#
#
# Convention : Reuss Voigt Hill
#
# Bulk Modulus (GPa) = 33.51274 59.29187 46.40231
# Shear Modulus (GPa) = 32.03264 43.11701 37.57483
#
# Velocity S-wave (km/s) = 3.41998 3.96781 3.70404
# Velocity P-wave (km/s) = 5.27557 6.53000 5.93601
#
# Compressibility (1/GPa) = 0.02983940
#
# Stress axis : x y z
#
# Youngs Moduli (GPa) = 71.93123 49.61238 133.75305
#
# Poissons Ratio (x) = 0.05721 0.34877
# Poissons Ratio (y) = 0.08295 0.27915
# Poissons Ratio (z) = 0.18756 0.10354
#
# Static dielectric constant tensor:
#      x y z
#    x 2.282580 0.083790 0.141520 
#    y 0.083790 2.187120 0.048980 
#    z 0.141520 0.048980 2.200490 
# 
# From -- ./inp_files/526029.got.cif
#   From: 2010.05.17/outbox.cif.g08.bks.cpg/sg2_264_cif.got.tgz:526029.got - 2010.06.03 11:33:40.
