data_PCOD9013175
_publ_section_title
;
Structure prediction by ZEFSAII (Michael W. Deem and Ramdas Pophale) SiO2 
 PCOD9013175
Probable space group: P -1
;
_chemical_formula_sum "Si O2"
_cell_formula_units_Z 16
_cell_length_a 9.022280
_cell_length_b 19.239057
_cell_length_c 7.843900
_cell_angle_alpha 134.724029
_cell_angle_beta 131.910179
_cell_angle_gamma 43.279217
_cell_volume 628.417155
_symmetry_space_group_name_H-M "P -1"
_symmetry_group_IT_number 2
_symmetry_cell_setting 'triclinic'
loop_
_space_group_symop_operation_xyz
x,y,z
-x,-y,-z
loop_
_atom_site_type_symbol
_atom_site_label
_atom_site_fract_x
_atom_site_fract_y
_atom_site_fract_z
Si Si1 0.830247 0.691071 0.229644
Si Si2 0.233103 0.494757 0.973219
Si Si3 0.207179 0.997368 0.762442
Si Si4 0.590398 0.533645 0.462417
Si Si5 0.078077 0.630862 0.753428
Si Si6 0.191718 0.186157 0.884682
Si Si7 0.964320 0.188156 0.177916
Si Si8 0.271937 0.788018 0.613571
O O1 0.049641 0.592539 0.126967
O O2 0.701693 0.780521 0.133643
O O3 0.885726 0.762478 0.531570
O O4 0.721149 0.624046 0.122704
O O5 0.465953 0.499789 0.166704
O O6 0.153868 0.537002 0.795612
O O7 0.305243 0.059161 0.822033
O O8 0.103193 0.076678 0.984297
O O9 0.000000 0.000000 0.500000
O O10 0.339047 0.871421 0.714830
O O11 0.500000 0.500000 0.500000
O O12 0.858493 0.453032 0.506528
O O13 0.482632 0.664399 0.584317
O O14 0.173432 0.712944 0.894879
O O15 0.858556 0.730084 0.850316
O O16 0.938618 0.212088 0.657578
O O17 0.828183 0.175086 0.208700
#
# Coordination Sequence:
#
# PCOD9013175 Si02
#       8
#     2   2   2   2   2   2   2   2
#     4   9  17  32  50  72 101 132 166 200 250 292
#     4  10  19  31  49  71 102 139 164 196 243 301
#     4   9  18  29  49  73 102 123 164 205 258 298
#     4  12  20  32  48  71 110 132 165 199 241 299
#     4  10  18  29  48  72 103 135 159 200 244 291
#     4   8  16  31  49  73  99 125 161 208 248 288
#     4  10  17  31  48  73 104 128 160 210 246 292
#     4  10  17  30  45  73 101 132 158 200 252 292
#
# _framework density 25.460794
#
# number of rings (size 3 to 8) (size 9 to 14) (size 15 to 20)
#    0.000    2.250    5.000    0.750    0.000    0.500 
#    0.000    2.500    0.000    0.000    0.000    5.250 
#    0.000    0.000    0.000    0.000    0.000    0.000 
#
# Total GULP energy -89208.034575 kJ/mol
# GULP energy per Si atom -5575.502161 kJ/mol
# Density = 2.540284 g / cm^3
# Si number density = 25.460794 Si / 1000 Ang^3
#
#
#
# Elastic Constant Matrix: (Units=GPa)
#
#
# Indices 1 2 3 4 5 6 
#
# 1 102.8997 56.8731 49.5578 4.0785 5.3060 35.0059
# 2 56.8731 188.9442 42.6756 39.6225 3.5362 54.8546
# 3 49.5578 42.6756 116.6376 12.0500 -11.8250 14.0033
# 4 4.0785 39.6225 12.0500 42.9303 13.4515 5.7761
# 5 5.3060 3.5362 -11.8250 13.4515 48.5525 9.7779
# 6 35.0059 54.8546 14.0033 5.7761 9.7779 51.3377
#
#
#
# Elastic Compliance Matrix: (Units=1/GPa)
#
#
# Indices 1 2 3 4 5 6 
#
# 1 0.016160 -0.002358 -0.005889 0.004085 -0.002786 -0.006822
# 2 -0.002358 0.010776 -0.000419 -0.009561 0.003926 -0.009464
# 3 -0.005889 -0.000419 0.012005 -0.003948 0.004537 0.000769
# 4 0.004085 -0.009561 -0.003948 0.035674 -0.011959 0.006771
# 5 -0.002786 0.003926 0.004537 -0.011959 0.026489 -0.007232
# 6 -0.006822 -0.009464 0.000769 0.006771 -0.007232 0.034649
#
#
# Mechanical properties :
#
#
# Convention : Reuss Voigt Hill
#
# Bulk Modulus (GPa) = 46.27670 78.52163 62.39916
# Shear Modulus (GPa) = 31.19365 45.85576 38.52470
#
# Velocity S-wave (km/s) = 3.50403 4.24846 3.89408
# Velocity P-wave (km/s) = 5.88100 7.41438 6.69176
#
# Compressibility (1/GPa) = 0.02160915
#
# Stress axis : x y z
#
# Youngs Moduli (GPa) = 61.87934 92.79765 83.30149
#
# Poissons Ratio (x) = 0.21883 0.49057
# Poissons Ratio (y) = 0.14592 0.03489
# Poissons Ratio (z) = 0.36441 0.03887
#
# Static dielectric constant tensor:
#      x y z
#    x 2.009270 -0.048090 0.051200 
#    y -0.048090 2.145560 -0.115710 
#    z 0.051200 -0.115710 2.115950 
# 
# From -- ./inp_files/215941.got.cif
#   From: 2010.05.17/outbox.cif.g08.bks.cpg/sg2_108_cif.got.tgz:215941.got - 2010.06.03 11:33:40.
