data_PCOD9013319
_publ_section_title
;
Structure prediction by ZEFSAII (Michael W. Deem and Ramdas Pophale) SiO2 
 PCOD9013319
Probable space group: P -1
;
_chemical_formula_sum "Si O2"
_cell_formula_units_Z 14
_cell_length_a 11.455981
_cell_length_b 7.173256
_cell_length_c 8.246740
_cell_angle_alpha 57.163454
_cell_angle_beta 73.719287
_cell_angle_gamma 80.265219
_cell_volume 546.453153
_symmetry_space_group_name_H-M "P -1"
_symmetry_group_IT_number 2
_symmetry_cell_setting 'triclinic'
loop_
_space_group_symop_operation_xyz
x,y,z
-x,-y,-z
loop_
_atom_site_type_symbol
_atom_site_label
_atom_site_fract_x
_atom_site_fract_y
_atom_site_fract_z
Si Si1 0.512875 0.766326 0.837380
Si Si2 0.412142 0.190366 0.582575
Si Si3 0.905727 0.224788 0.565534
Si Si4 0.970395 0.858455 0.919343
Si Si5 0.887854 0.463736 0.792898
Si Si6 0.672804 0.377959 0.435065
Si Si7 0.720170 0.680437 0.991326
O O1 0.574600 0.807781 0.617585
O O2 0.602069 0.826485 0.923499
O O3 0.399725 0.944663 0.780909
O O4 0.500000 0.500000 0.000000
O O5 0.543284 0.269343 0.561193
O O6 0.321376 0.390213 0.575469
O O7 0.861002 0.312992 0.719411
O O8 0.784625 0.216939 0.511586
O O9 0.996443 0.398507 0.372858
O O10 0.982003 0.003988 0.685607
O O11 0.830829 0.785769 0.997244
O O12 0.066377 0.661523 0.003118
O O13 0.000000 0.000000 0.000000
O O14 0.777041 0.611681 0.828564
O O15 0.680144 0.466233 0.207812
#
# Coordination Sequence:
#
# PCOD9013319 Si02
#       7
#     2   2   2   2   2   2   2
#     4  11  23  46  66  97 128 169 219 274 323 385
#     4  10  24  45  66  93 134 167 221 272 322 391
#     4  10  21  41  64  90 129 170 211 263 322 386
#     4  10  22  41  61  92 128 169 215 262 320 382
#     4  10  22  41  62  91 131 165 214 266 314 388
#     4  11  22  42  67  96 129 177 214 268 330 383
#     4  12  23  41  66  95 130 169 216 271 320 389
#
# _framework density 25.619762999999999
#
# number of rings (size 3 to 8) (size 9 to 14) (size 15 to 20)
#    0.000    1.429    2.857    2.143    0.000    1.143 
#   10.286    0.000    0.000    0.000    0.000    0.000 
#    0.000    0.000    0.000    0.000    0.000    0.000 
#
# Total GULP energy -78238.154341 kJ/mol
# GULP energy per Si atom -5588.439596 kJ/mol
# Density = 2.556145 g / cm^3
# Si number density = 25.619763 Si / 1000 Ang^3
#
#
#
# Elastic Constant Matrix: (Units=GPa)
#
#
# Indices 1 2 3 4 5 6 
#
# 1 71.0006 1.4878 38.6075 -19.3401 35.9379 -7.2628
# 2 1.4878 76.8260 21.7221 -4.1608 5.5983 -0.2997
# 3 38.6075 21.7221 123.7651 -20.0442 39.0036 -12.2524
# 4 -19.3401 -4.1608 -20.0442 45.8156 -11.0829 1.3698
# 5 35.9379 5.5983 39.0036 -11.0829 49.0794 -5.6330
# 6 -7.2628 -0.2997 -12.2524 1.3698 -5.6330 30.9737
#
#
#
# Elastic Compliance Matrix: (Units=1/GPa)
#
#
# Indices 1 2 3 4 5 6 
#
# 1 0.024559 0.001525 -0.002060 0.005928 -0.014954 0.001977
# 2 0.001525 0.013822 -0.002723 0.000615 -0.000471 -0.000699
# 3 -0.002060 -0.002723 0.012043 0.002402 -0.006877 0.002898
# 4 0.005928 0.000615 0.002402 0.025286 -0.000478 0.001141
# 5 -0.014954 -0.000471 -0.006877 -0.000478 0.036791 0.000481
# 6 0.001977 -0.000699 0.002898 0.001141 0.000481 0.033925
#
#
# Mechanical properties :
#
#
# Convention : Reuss Voigt Hill
#
# Bulk Modulus (GPa) = 22.77460 43.91405 33.34432
# Shear Modulus (GPa) = 29.83692 39.15871 34.49782
#
# Velocity S-wave (km/s) = 3.41633 3.91379 3.67349
# Velocity P-wave (km/s) = 4.94677 6.13201 5.57100
#
# Compressibility (1/GPa) = 0.04390857
#
# Stress axis : x y z
#
# Youngs Moduli (GPa) = 40.71852 72.35031 83.03299
#
# Poissons Ratio (x) = -0.11036 0.17107
# Poissons Ratio (y) = -0.06211 0.22608
# Poissons Ratio (z) = 0.08389 0.19700
#
# Static dielectric constant tensor:
#      x y z
#    x 1.967220 0.037150 -0.006210 
#    y 0.037150 2.135830 -0.066170 
#    z -0.006210 -0.066170 2.016080 
# 
# From -- ./inp_files/179813.got.cif
#   From: 2010.05.17/outbox.cif.g08.bks.cpg/sg2_90_cif.got.tgz:179813.got - 2010.06.03 11:33:40.
