data_PCOD9013931
_publ_section_title
;
Structure prediction by ZEFSAII (Michael W. Deem and Ramdas Pophale) SiO2 
 PCOD9013931
Probable space group: P -1
;
_chemical_formula_sum "Si O2"
_cell_formula_units_Z 16
_cell_length_a 14.902902
_cell_length_b 9.165436
_cell_length_c 28.788152
_cell_angle_alpha 143.737638
_cell_angle_beta 19.468672
_cell_angle_gamma 133.455046
_cell_volume 720.966895
_symmetry_space_group_name_H-M "P -1"
_symmetry_group_IT_number 2
_symmetry_cell_setting 'triclinic'
loop_
_space_group_symop_operation_xyz
x,y,z
-x,-y,-z
loop_
_atom_site_type_symbol
_atom_site_label
_atom_site_fract_x
_atom_site_fract_y
_atom_site_fract_z
Si Si1 0.270143 0.986473 0.792957
Si Si2 0.131839 0.543925 0.045830
Si Si3 0.300092 0.317147 0.781932
Si Si4 0.608966 0.400209 0.502295
Si Si5 0.030670 0.305380 0.733773
Si Si6 0.118723 0.218120 0.131471
Si Si7 0.556472 0.815474 0.878074
Si Si8 0.818880 0.294098 0.476527
O O1 0.487432 0.721046 0.641890
O O2 0.004237 0.918226 0.884145
O O3 0.167623 0.240745 0.941544
O O4 0.409107 0.078223 0.703971
O O5 0.383639 0.619934 0.919294
O O6 0.832821 0.729324 0.214259
O O7 0.131876 0.596606 0.113308
O O8 0.541355 0.437731 0.681808
O O9 0.000000 0.500000 0.000000
O O10 0.344164 0.325846 0.593913
O O11 0.697057 0.302120 0.486016
O O12 0.878143 0.290154 0.308007
O O13 0.875576 0.508407 0.821094
O O14 0.071653 0.001981 0.632216
O O15 0.408290 0.017958 0.961000
O O16 0.889685 0.651084 0.660311
O O17 0.500000 0.000000 0.000000
#
# Coordination Sequence:
#
# PCOD9013931 Si02
#       8
#     2   2   2   2   2   2   2   2
#     4  10  22  40  66  94 130 164 218 280 323 372
#     4  11  22  42  64  96 129 174 213 267 333 380
#     4  10  21  41  66  91 124 166 218 269 321 381
#     4  11  21  37  64 100 128 162 223 274 323 376
#     4  11  22  36  66  99 127 164 226 271 322 381
#     4  11  22  39  64  99 130 169 214 278 320 378
#     4  12  24  42  64  94 138 175 213 264 323 397
#     4  12  23  40  66  95 130 174 215 265 329 391
#
# _framework density 22.192419999999998
#
# number of rings (size 3 to 8) (size 9 to 14) (size 15 to 20)
#    0.000    1.000    5.000    3.375    0.000    2.500 
#    0.000    3.125    0.000    0.000    0.000    0.000 
#    0.000    0.000    0.000    0.000    0.000    0.000 
#
# Total GULP energy -89417.645375 kJ/mol
# GULP energy per Si atom -5588.602836 kJ/mol
# Density = 2.214191 g / cm^3
# Si number density = 22.192420 Si / 1000 Ang^3
#
#
#
# Elastic Constant Matrix: (Units=GPa)
#
#
# Indices 1 2 3 4 5 6 
#
# 1 43.6103 8.9961 21.6414 -5.5698 -0.3259 -10.5076
# 2 8.9961 75.0279 29.9171 -2.8646 0.9284 -13.7665
# 3 21.6414 29.9171 99.7200 -20.2291 0.4986 -7.6589
# 4 -5.5698 -2.8646 -20.2291 41.0270 1.9451 10.9279
# 5 -0.3259 0.9284 0.4986 1.9451 24.5459 -4.5667
# 6 -10.5076 -13.7665 -7.6589 10.9279 -4.5667 29.8735
#
#
#
# Elastic Compliance Matrix: (Units=1/GPa)
#
#
# Indices 1 2 3 4 5 6 
#
# 1 0.027808 0.000666 -0.005862 -0.001735 0.002384 0.009584
# 2 0.000666 0.016670 -0.005252 -0.003542 0.001265 0.008059
# 3 -0.005862 -0.005252 0.013977 0.006746 -0.001363 -0.003575
# 4 -0.001735 -0.003542 0.006746 0.030775 -0.004791 -0.012503
# 5 0.002384 0.001265 -0.001363 -0.004791 0.042876 0.009379
# 6 0.009584 0.008059 -0.003575 -0.012503 0.009379 0.045650
#
#
# Mechanical properties :
#
#
# Convention : Reuss Voigt Hill
#
# Bulk Modulus (GPa) = 26.62502 37.71859 32.17181
# Shear Modulus (GPa) = 23.67750 29.60953 26.64351
#
# Velocity S-wave (km/s) = 3.26991 3.65666 3.46868
# Velocity P-wave (km/s) = 5.12639 5.90434 5.52906
#
# Compressibility (1/GPa) = 0.03755865
#
# Stress axis : x y z
#
# Youngs Moduli (GPa) = 35.96149 59.98641 71.54817
#
# Poissons Ratio (x) = -0.03996 0.41945
# Poissons Ratio (y) = -0.02396 0.37575
# Poissons Ratio (z) = 0.21082 0.31503
#
# Static dielectric constant tensor:
#      x y z
#    x 1.843640 0.011070 0.026790 
#    y 0.011070 1.844880 0.006050 
#    z 0.026790 0.006050 1.892040 
# 
# From -- ./inp_files/623430.got.cif
#   From: 2010.05.17/outbox.cif.g08.bks.cpg/sg2_312_cif.got.tgz:623430.got - 2010.06.03 11:33:40.
