data_PCOD9013275
_publ_section_title
;
Structure prediction by ZEFSAII (Michael W. Deem and Ramdas Pophale) SiO2 
 PCOD9013275
Probable space group: P -1
;
_chemical_formula_sum "Si O2"
_cell_formula_units_Z 16
_cell_length_a 7.570983
_cell_length_b 19.532692
_cell_length_c 8.715827
_cell_angle_alpha 41.058415
_cell_angle_beta 127.873665
_cell_angle_gamma 116.714348
_cell_volume 668.049558
_symmetry_space_group_name_H-M "P -1"
_symmetry_group_IT_number 2
_symmetry_cell_setting 'triclinic'
loop_
_space_group_symop_operation_xyz
x,y,z
-x,-y,-z
loop_
_atom_site_type_symbol
_atom_site_label
_atom_site_fract_x
_atom_site_fract_y
_atom_site_fract_z
Si Si1 0.229777 0.194608 0.937667
Si Si2 0.851310 0.894285 0.281868
Si Si3 0.123861 0.623985 0.501618
Si Si4 0.029324 0.398683 0.884606
Si Si5 0.446568 0.245602 0.417668
Si Si6 0.819021 0.066940 0.192032
Si Si7 0.243528 0.773216 0.870792
Si Si8 0.422172 0.067240 0.490950
O O1 0.164277 0.128582 0.866278
O O2 0.075446 0.296966 0.688937
O O3 0.492681 0.222243 0.024303
O O4 0.206144 0.127766 0.194768
O O5 0.667392 0.824905 0.391588
O O6 0.821555 0.014511 0.115519
O O7 0.090143 0.849416 0.552587
O O8 0.104147 0.514861 0.765653
O O9 0.353480 0.682788 0.547617
O O10 0.091511 0.597425 0.350698
O O11 0.246330 0.321619 0.123076
O O12 0.857638 0.340983 0.002714
O O13 0.530899 0.164486 0.469469
O O14 0.604492 0.016491 0.248359
O O15 0.804859 0.183100 0.055092
O O16 0.000000 0.000000 0.500000
O O17 0.500000 0.000000 0.500000
#
# Coordination Sequence:
#
# PCOD9013275 Si02
#       8
#     2   2   2   2   2   2   2   2
#     4  12  24  38  63  96 133 157 208 262 315 362
#     4   9  22  40  62  93 124 167 212 247 306 389
#     4  11  24  39  66  98 122 160 220 265 312 368
#     4  10  22  44  66  91 123 169 213 262 315 366
#     4  10  21  44  67  89 130 169 208 253 316 375
#     4   9  19  38  64  85 122 168 212 238 308 379
#     4  10  21  41  64  84 131 170 201 254 317 371
#     4  11  22  41  63  94 129 170 200 255 316 373
#
# _framework density 23.950320000000001
#
# number of rings (size 3 to 8) (size 9 to 14) (size 15 to 20)
#    0.000    1.750    2.500    1.875    1.750    1.000 
#    2.250    5.625    0.000    0.000    0.000    0.000 
#    0.000    0.000    0.000    0.000    0.000    0.000 
#
# Total GULP energy -89415.816705 kJ/mol
# GULP energy per Si atom -5588.488544 kJ/mol
# Density = 2.389581 g / cm^3
# Si number density = 23.950320 Si / 1000 Ang^3
#
#
#
# Elastic Constant Matrix: (Units=GPa)
#
#
# Indices 1 2 3 4 5 6 
#
# 1 79.4726 28.0642 13.9184 1.3353 8.0652 19.8623
# 2 28.0642 123.3950 28.7351 1.7416 -6.0252 27.5962
# 3 13.9184 28.7351 80.1430 -5.2782 -4.9266 16.9904
# 4 1.3353 1.7416 -5.2782 48.2076 4.8187 0.4500
# 5 8.0652 -6.0252 -4.9266 4.8187 32.9013 7.8272
# 6 19.8623 27.5962 16.9904 0.4500 7.8272 44.8671
#
#
#
# Elastic Compliance Matrix: (Units=1/GPa)
#
#
# Indices 1 2 3 4 5 6 
#
# 1 0.014992 -0.002380 -0.001066 -0.000081 -0.003259 -0.004200
# 2 -0.002380 0.010482 -0.002075 -0.000847 0.003558 -0.005219
# 3 -0.001066 -0.002075 0.014589 0.001455 0.002874 -0.004292
# 4 -0.000081 -0.000847 0.001455 0.021243 -0.003108 0.000335
# 5 -0.003259 0.003558 0.002874 -0.003108 0.034595 -0.007838
# 6 -0.004200 -0.005219 -0.004292 0.000335 -0.007838 0.030347
#
#
# Mechanical properties :
#
#
# Convention : Reuss Voigt Hill
#
# Bulk Modulus (GPa) = 34.45826 47.16067 40.80946
# Shear Modulus (GPa) = 34.02202 39.34809 36.68505
#
# Velocity S-wave (km/s) = 3.77307 4.05767 3.91796
# Velocity P-wave (km/s) = 5.77928 6.45653 6.12727
#
# Compressibility (1/GPa) = 0.02902062
#
# Stress axis : x y z
#
# Youngs Moduli (GPa) = 66.70268 95.40455 68.54332
#
# Poissons Ratio (x) = 0.22709 0.07303
# Poissons Ratio (y) = 0.15877 0.14225
# Poissons Ratio (z) = 0.07107 0.19800
#
# Static dielectric constant tensor:
#      x y z
#    x 2.180380 0.091680 0.020500 
#    y 0.091680 1.908470 0.032680 
#    z 0.020500 0.032680 1.937200 
# 
# From -- ./inp_files/216839.got.cif
#   From: 2010.05.17/outbox.cif.g08.bks.cpg/sg2_109_cif.got.tgz:216839.got - 2010.06.03 11:33:40.
