data_PCOD9013325
_publ_section_title
;
Structure prediction by ZEFSAII (Michael W. Deem and Ramdas Pophale) SiO2 
 PCOD9013325
Probable space group: P -1
;
_chemical_formula_sum "Si O2"
_cell_formula_units_Z 16
_cell_length_a 11.784483
_cell_length_b 7.127806
_cell_length_c 11.438262
_cell_angle_alpha 71.388123
_cell_angle_beta 68.449866
_cell_angle_gamma 63.945539
_cell_volume 788.360504
_symmetry_space_group_name_H-M "P -1"
_symmetry_group_IT_number 2
_symmetry_cell_setting 'triclinic'
loop_
_space_group_symop_operation_xyz
x,y,z
-x,-y,-z
loop_
_atom_site_type_symbol
_atom_site_label
_atom_site_fract_x
_atom_site_fract_y
_atom_site_fract_z
Si Si1 0.975904 0.692249 0.559487
Si Si2 0.350388 0.099115 0.068626
Si Si3 0.224821 0.452686 0.212313
Si Si4 0.659970 0.298072 0.721977
Si Si5 0.810929 0.601657 0.137485
Si Si6 0.596247 0.473597 0.355049
Si Si7 0.951670 0.253490 0.967246
Si Si8 0.188871 0.850050 0.543200
O O1 0.875714 0.661264 0.695949
O O2 0.000000 0.500000 0.500000
O O3 0.097480 0.713157 0.579701
O O4 0.908309 0.907747 0.467700
O O5 0.339535 0.267294 0.142101
O O6 0.315927 0.898246 0.161581
O O7 0.260446 0.234070 0.971879
O O8 0.500000 0.000000 0.000000
O O9 0.269944 0.547768 0.288224
O O10 0.156771 0.643628 0.110883
O O11 0.507825 0.442742 0.726886
O O12 0.723714 0.189742 0.598607
O O13 0.697440 0.597591 0.271070
O O14 0.925482 0.676814 0.124024
O O15 0.886238 0.373544 0.089203
O O16 0.500000 0.500000 0.500000
O O17 0.705840 0.236619 0.375765
O O18 0.000000 0.000000 0.000000
#
# Coordination Sequence:
#
# PCOD9013325 Si02
#       8
#     2   2   2   2   2   2   2   2
#     4  11  21  38  63  91 119 158 204 250 299 359
#     4  11  22  40  64  86 120 163 199 250 303 358
#     4  11  23  38  63  93 121 155 209 251 302 365
#     4  11  21  41  62  89 126 158 203 249 299 368
#     4  10  21  41  64  91 122 159 207 248 310 367
#     4  10  22  41  64  88 125 168 202 249 305 365
#     4  10  22  40  63  93 122 156 201 262 310 357
#     4  10  22  39  63  89 124 163 200 249 304 354
#
# _framework density 20.295283999999999
#
# number of rings (size 3 to 8) (size 9 to 14) (size 15 to 20)
#    0.000    1.500    3.750    1.500    0.000    1.500 
#    2.250    1.875    0.000    0.000    0.000    0.000 
#    0.000    0.000    0.000    0.000    0.000    0.000 
#
# Total GULP energy -89178.823111 kJ/mol
# GULP energy per Si atom -5573.676444 kJ/mol
# Density = 2.024909 g / cm^3
# Si number density = 20.295284 Si / 1000 Ang^3
#
#
#
# Elastic Constant Matrix: (Units=GPa)
#
#
# Indices 1 2 3 4 5 6 
#
# 1 83.0418 49.0111 11.9936 -8.3167 -9.1725 -9.7867
# 2 49.0111 110.4778 23.3517 -14.2960 5.6229 -11.3061
# 3 11.9936 23.3517 62.4993 -13.2315 -20.0128 -1.6282
# 4 -8.3167 -14.2960 -13.2315 27.1448 -3.1455 -1.4859
# 5 -9.1725 5.6229 -20.0128 -3.1455 34.9452 -4.6634
# 6 -9.7867 -11.3061 -1.6282 -1.4859 -4.6634 25.9705
#
#
#
# Elastic Compliance Matrix: (Units=1/GPa)
#
#
# Indices 1 2 3 4 5 6 
#
# 1 0.018598 -0.008363 0.003690 0.004496 0.009488 0.005560
# 2 -0.008363 0.014782 -0.006017 0.001490 -0.007670 0.001614
# 3 0.003690 -0.006017 0.026561 0.013359 0.018965 0.004606
# 4 0.004496 0.001490 0.013359 0.047596 0.013998 0.008417
# 5 0.009488 -0.007670 0.018965 0.013998 0.045858 0.010461
# 6 0.005560 0.001614 0.004606 0.008417 0.010461 0.043952
#
#
# Mechanical properties :
#
#
# Convention : Reuss Voigt Hill
#
# Bulk Modulus (GPa) = 25.93170 47.19240 36.56205
# Shear Modulus (GPa) = 21.59093 29.05628 25.32360
#
# Velocity S-wave (km/s) = 3.26519 3.78785 3.53619
# Velocity P-wave (km/s) = 5.19810 6.51413 5.89297
#
# Compressibility (1/GPa) = 0.03856284
#
# Stress axis : x y z
#
# Youngs Moduli (GPa) = 53.76795 67.65156 37.64948
#
# Poissons Ratio (x) = 0.56576 -0.13894
# Poissons Ratio (y) = 0.44965 0.22652
# Poissons Ratio (z) = -0.19842 0.40703
#
# Static dielectric constant tensor:
#      x y z
#    x 1.777010 0.156440 -0.358270 
#    y 0.156440 2.217770 -1.001040 
#    z -0.358270 -1.001040 3.801930 
# 
# From -- ./inp_files/81141.got.cif
#   From: 2010.05.17/outbox.cif.g08.bks.cpg/sg2_41_cif.got.tgz:81141.got - 2010.06.03 11:33:40.
