data_PCOD9013110
_publ_section_title
;
Structure prediction by ZEFSAII (Michael W. Deem and Ramdas Pophale) SiO2 
 PCOD9013110
Probable space group: P -1
;
_chemical_formula_sum "Si O2"
_cell_formula_units_Z 14
_cell_length_a 23.867488
_cell_length_b 9.483115
_cell_length_c 10.754931
_cell_angle_alpha 127.125555
_cell_angle_beta 42.774983
_cell_angle_gamma 154.517209
_cell_volume 696.573697
_symmetry_space_group_name_H-M "P -1"
_symmetry_group_IT_number 2
_symmetry_cell_setting 'triclinic'
loop_
_space_group_symop_operation_xyz
x,y,z
-x,-y,-z
loop_
_atom_site_type_symbol
_atom_site_label
_atom_site_fract_x
_atom_site_fract_y
_atom_site_fract_z
Si Si1 0.423125 0.594129 0.986081
Si Si2 0.160552 0.196496 0.384929
Si Si3 0.995845 0.701837 0.610598
Si Si4 0.495418 0.402450 0.592669
Si Si5 0.204832 0.302805 0.747502
Si Si6 0.692461 0.325263 0.973402
Si Si7 0.663183 0.231407 0.419925
O O1 0.736431 0.712839 0.839260
O O2 0.481058 0.522348 0.787177
O O3 0.563251 0.944670 0.019663
O O4 0.385468 0.663000 0.973995
O O5 0.280611 0.557069 0.439527
O O6 0.106478 0.968408 0.461197
O O7 0.000000 0.000000 0.500000
O O8 0.000000 0.500000 0.500000
O O9 0.821274 0.458927 0.752248
O O10 0.060305 0.914995 0.743241
O O11 0.500000 0.500000 0.500000
O O12 0.650817 0.568351 0.440050
O O13 0.358423 0.009632 0.631316
O O14 0.211990 0.480072 0.733558
O O15 0.229749 0.432934 0.909612
O O16 0.500000 0.000000 0.500000
#
# Coordination Sequence:
#
# PCOD9013110 Si02
#       7
#     2   2   2   2   2   2   2
#     4  11  23  38  65  96 123 163 214 261 311 370
#     4  11  23  43  65  88 131 170 207 256 324 380
#     4  11  24  42  65  95 127 166 210 265 314 370
#     4  11  21  37  62  96 124 160 216 264 303 373
#     4  10  21  41  63  90 129 168 204 257 322 374
#     4  11  22  40  65  93 127 167 210 256 315 377
#     4   9  21  39  61  87 125 168 203 251 320 371
#
# _framework density 20.098376999999999
#
# number of rings (size 3 to 8) (size 9 to 14) (size 15 to 20)
#    0.000    1.429    2.857    3.000    2.000    2.286 
#    0.000    8.571    0.000    0.000    0.000    0.000 
#    0.000    0.000    0.000    0.000    0.000    0.000 
#
# Total GULP energy -78078.527210 kJ/mol
# GULP energy per Si atom -5577.037658 kJ/mol
# Density = 2.005263 g / cm^3
# Si number density = 20.098377 Si / 1000 Ang^3
#
#
#
# Elastic Constant Matrix: (Units=GPa)
#
#
# Indices 1 2 3 4 5 6 
#
# 1 62.8324 35.2219 24.4565 20.7410 -0.5718 -9.2312
# 2 35.2219 119.3824 50.9636 20.8585 -4.6351 -11.0216
# 3 24.4565 50.9636 137.3702 4.8164 -0.3340 -10.3741
# 4 20.7410 20.8585 4.8164 32.6835 -0.5318 -3.6284
# 5 -0.5718 -4.6351 -0.3340 -0.5318 26.6475 8.9006
# 6 -9.2312 -11.0216 -10.3741 -3.6284 8.9006 30.0004
#
#
#
# Elastic Compliance Matrix: (Units=1/GPa)
#
#
# Indices 1 2 3 4 5 6 
#
# 1 0.023199 -0.003600 -0.002071 -0.011680 -0.001797 0.004220
# 2 -0.003600 0.011916 -0.003535 -0.004660 0.001512 0.001036
# 3 -0.002071 -0.003535 0.009008 0.002424 -0.001099 0.001798
# 4 -0.011680 -0.004660 0.002424 0.040682 -0.000411 0.000575
# 5 -0.001797 0.001512 -0.001099 -0.000411 0.042038 -0.012899
# 6 0.004220 0.001036 0.001798 0.000575 -0.012899 0.039530
#
#
# Mechanical properties :
#
#
# Convention : Reuss Voigt Hill
#
# Bulk Modulus (GPa) = 38.89258 60.09658 49.49458
# Shear Modulus (GPa) = 25.85938 31.79579 28.82758
#
# Velocity S-wave (km/s) = 3.59087 3.98176 3.79136
# Velocity P-wave (km/s) = 6.04860 7.14880 6.62159
#
# Compressibility (1/GPa) = 0.02571184
#
# Stress axis : x y z
#
# Youngs Moduli (GPa) = 43.10617 83.92162 111.01595
#
# Poissons Ratio (x) = 0.30210 0.22989
# Poissons Ratio (y) = 0.15517 0.39240
# Poissons Ratio (z) = 0.08926 0.29663
#
# Static dielectric constant tensor:
#      x y z
#    x 1.562970 -0.202720 -0.037430 
#    y -0.202720 1.486420 -0.124380 
#    z -0.037430 -0.124380 1.672490 
# 
# From -- ./inp_files/469571.got.cif
#   From: 2010.05.17/outbox.cif.g08.bks.cpg/sg2_235_cif.got.tgz:469571.got - 2010.06.03 11:33:40.
