data_PCOD9013715
_publ_section_title
;
Structure prediction by ZEFSAII (Michael W. Deem and Ramdas Pophale) SiO2 
 PCOD9013715
Probable space group: P -1
;
_chemical_formula_sum "Si O2"
_cell_formula_units_Z 13
_cell_length_a 20.546068
_cell_length_b 9.659904
_cell_length_c 21.726632
_cell_angle_alpha 25.183600
_cell_angle_beta 18.557553
_cell_angle_gamma 34.786673
_cell_volume 562.224586
_symmetry_space_group_name_H-M "P -1"
_symmetry_group_IT_number 2
_symmetry_cell_setting 'triclinic'
loop_
_space_group_symop_operation_xyz
x,y,z
-x,-y,-z
loop_
_atom_site_type_symbol
_atom_site_label
_atom_site_fract_x
_atom_site_fract_y
_atom_site_fract_z
Si Si1 0.942705 0.018677 0.920867
Si Si2 0.294852 0.224573 0.987743
Si Si3 0.500000 0.500000 0.500000
Si Si4 0.746501 0.494891 0.963154
Si Si5 0.961301 0.814160 0.370261
Si Si6 0.482876 0.593588 0.049013
Si Si7 0.622591 0.165380 0.408215
O O1 0.154407 0.901890 0.783197
O O2 0.722463 0.729784 0.241156
O O3 0.940392 0.151195 0.799209
O O4 0.936579 0.325486 0.848532
O O5 0.232499 0.232183 0.111810
O O6 0.428802 0.584732 0.697515
O O7 0.413708 0.938471 0.980816
O O8 0.079087 0.129356 0.178994
O O9 0.639583 0.374834 0.372033
O O10 0.679597 0.613130 0.909554
O O11 0.551580 0.187065 0.284646
O O12 0.708824 0.719393 0.629453
O O13 0.000000 0.500000 0.500000
O O14 0.500000 0.500000 0.000000
#
# Coordination Sequence:
#
# PCOD9013715 Si02
#       7
#     2   2   1   2   2   2   2
#     4  11  22  41  67  98 136 176 224 276 330 395
#     4  11  24  42  66  99 135 177 221 278 343 396
#     4  10  22  36  66 102 124 178 222 274 320 388
#     4  11  24  44  68  97 139 176 220 277 343 398
#     4  10  21  41  65  94 130 171 227 276 322 393
#     4  11  24  46  69  98 130 179 232 281 326 401
#     4  11  23  41  68  98 140 171 227 274 336 399
#
# _framework density 23.122433999999998
#
# number of rings (size 3 to 8) (size 9 to 14) (size 15 to 20)
#    0.000    1.231    3.077    3.231    2.154    0.615 
#    5.538    3.846    0.000    0.000    0.000    0.000 
#    0.000    0.000    0.000    0.000    0.000    0.000 
#
# Total GULP energy -72386.047297 kJ/mol
# GULP energy per Si atom -5568.157484 kJ/mol
# Density = 2.306981 g / cm^3
# Si number density = 23.122434 Si / 1000 Ang^3
#
#
#
# Elastic Constant Matrix: (Units=GPa)
#
#
# Indices 1 2 3 4 5 6 
#
# 1 82.5040 70.9370 -2.3971 -3.8757 17.7737 24.1878
# 2 70.9370 182.5455 19.7333 29.5326 10.1688 27.3481
# 3 -2.3971 19.7333 48.0715 10.7162 4.3292 -15.4958
# 4 -3.8757 29.5326 10.7162 29.2698 -6.3574 3.0244
# 5 17.7737 10.1688 4.3292 -6.3574 15.8891 -4.2077
# 6 24.1878 27.3481 -15.4958 3.0244 -4.2077 36.4732
#
#
#
# Elastic Compliance Matrix: (Units=1/GPa)
#
#
# Indices 1 2 3 4 5 6 
#
# 1 0.034048 -0.009996 0.000464 0.009207 -0.033293 -0.019491
# 2 -0.009996 0.012379 -0.003763 -0.012429 -0.001590 -0.003405
# 3 0.000464 -0.003763 0.030184 -0.010159 -0.006307 0.015453
# 4 0.009207 -0.012429 -0.010159 0.056823 0.022300 -0.003242
# 5 -0.033293 -0.001590 -0.006307 0.022300 0.120480 0.032641
# 6 -0.019491 -0.003405 0.015453 -0.003242 0.032641 0.053496
#
#
# Mechanical properties :
#
#
# Convention : Reuss Voigt Hill
#
# Bulk Modulus (GPa) = 19.99210 54.40750 37.19980
# Shear Modulus (GPa) = 14.25830 31.31628 22.78729
#
# Velocity S-wave (km/s) = 2.48592 3.68417 3.14268
# Velocity P-wave (km/s) = 4.11154 6.45590 5.41218
#
# Compressibility (1/GPa) = 0.05001975
#
# Stress axis : x y z
#
# Youngs Moduli (GPa) = 29.37071 80.78407 33.12989
#
# Poissons Ratio (x) = 0.80750 -0.01537
# Poissons Ratio (y) = 0.29358 0.12468
# Poissons Ratio (z) = -0.01362 0.30402
#
# Static dielectric constant tensor:
#      x y z
#    x 1.917680 -0.004780 -0.016260 
#    y -0.004780 1.877290 -0.013530 
#    z -0.016260 -0.013530 1.915250 
# 
# From -- ./inp_files/591424.got.cif
#   From: 2010.05.17/outbox.cif.g08.bks.cpg/sg2_296_cif.got.tgz:591424.got - 2010.06.03 11:33:40.
