data_PCOD9013925
_publ_section_title
;
Structure prediction by ZEFSAII (Michael W. Deem and Ramdas Pophale) SiO2 
 PCOD9013925
Probable space group: P -1
;
_chemical_formula_sum "Si O2"
_cell_formula_units_Z 13
_cell_length_a 7.953299
_cell_length_b 8.605390
_cell_length_c 9.719972
_cell_angle_alpha 95.930747
_cell_angle_beta 48.512547
_cell_angle_gamma 110.126838
_cell_volume 460.501704
_symmetry_space_group_name_H-M "P -1"
_symmetry_group_IT_number 2
_symmetry_cell_setting 'triclinic'
loop_
_space_group_symop_operation_xyz
x,y,z
-x,-y,-z
loop_
_atom_site_type_symbol
_atom_site_label
_atom_site_fract_x
_atom_site_fract_y
_atom_site_fract_z
Si Si1 0.532984 0.913776 0.679567
Si Si2 0.958082 0.303360 0.784759
Si Si3 0.472091 0.342963 0.152095
Si Si4 0.000000 0.500000 0.500000
Si Si5 0.772609 0.219284 0.404102
Si Si6 0.251517 0.065731 0.022805
Si Si7 0.647667 0.677281 0.231499
O O1 0.611943 0.768340 0.676220
O O2 0.276453 0.823181 0.732317
O O3 0.720250 0.041908 0.488526
O O4 0.479621 0.021294 0.840950
O O5 0.974828 0.355316 0.621360
O O6 0.200631 0.389127 0.752201
O O7 0.902606 0.106771 0.832815
O O8 0.744866 0.352981 0.972133
O O9 0.323293 0.219096 0.103472
O O10 0.490685 0.529319 0.197918
O O11 0.011720 0.633151 0.631389
O O12 0.549094 0.272887 0.576205
O O13 0.197600 0.158704 0.925737
#
# Coordination Sequence:
#
# PCOD9013925 Si02
#       7
#     2   2   2   1   2   2   2
#     4   9  19  39  65  87 119 166 205 245 303 367
#     4  11  23  40  63  90 125 166 206 248 305 370
#     4  11  21  39  66  93 123 161 205 255 305 362
#     4  12  24  40  62  90 122 162 208 252 302 362
#     4  10  22  41  63  89 125 165 206 250 304 367
#     4  10  21  41  66  91 121 160 208 254 303 363
#     4  11  23  40  64  96 126 157 202 259 310 357
#
# _framework density 28.230080000000001
#
# number of rings (size 3 to 8) (size 9 to 14) (size 15 to 20)
#    0.000    1.538    0.000    6.923    0.000    3.692 
#    0.000    6.154    0.000   22.154    0.000    0.000 
#    0.000    0.000    0.000    0.000    0.000    0.000 
#
# Total GULP energy -72589.526644 kJ/mol
# GULP energy per Si atom -5583.809742 kJ/mol
# Density = 2.816583 g / cm^3
# Si number density = 28.230080 Si / 1000 Ang^3
#
#
#
# Elastic Constant Matrix: (Units=GPa)
#
#
# Indices 1 2 3 4 5 6 
#
# 1 64.6966 18.4480 48.7698 2.4352 11.8557 1.7544
# 2 18.4480 160.6580 42.8782 5.0612 12.7173 10.8504
# 3 48.7698 42.8782 90.5880 -11.3539 28.6911 -12.7353
# 4 2.4352 5.0612 -11.3539 54.9492 -22.5892 14.0310
# 5 11.8557 12.7173 28.6911 -22.5892 53.4405 4.8713
# 6 1.7544 10.8504 -12.7353 14.0310 4.8713 43.2696
#
#
#
# Elastic Compliance Matrix: (Units=1/GPa)
#
#
# Indices 1 2 3 4 5 6 
#
# 1 0.028500 0.001925 -0.018300 -0.002500 0.002580 -0.006504
# 2 0.001925 0.007662 -0.005452 -0.000769 0.000664 -0.003429
# 3 -0.018300 -0.005452 0.028688 -0.000482 -0.011341 0.011986
# 4 -0.002500 -0.000769 -0.000482 0.026079 0.012909 -0.009758
# 5 0.002580 0.000664 -0.011341 0.012909 0.030552 -0.011235
# 6 -0.006504 -0.003429 0.011986 -0.009758 -0.011235 0.032191
#
#
# Mechanical properties :
#
#
# Convention : Reuss Voigt Hill
#
# Bulk Modulus (GPa) = 47.17593 59.57050 53.37321
# Shear Modulus (GPa) = 24.46291 44.05496 34.25894
#
# Velocity S-wave (km/s) = 2.94692 3.95469 3.48740
# Velocity P-wave (km/s) = 5.32228 6.48077 5.92988
#
# Compressibility (1/GPa) = 0.02119725
#
# Stress axis : x y z
#
# Youngs Moduli (GPa) = 35.08728 130.52046 34.85753
#
# Poissons Ratio (x) = -0.25129 0.63789
# Poissons Ratio (y) = -0.06755 0.19004
# Poissons Ratio (z) = 0.64209 0.71158
#
# Static dielectric constant tensor:
#      x y z
#    x 2.600000 0.032690 0.031060 
#    y 0.032690 2.111500 -0.081260 
#    z 0.031060 -0.081260 2.245350 
# 
# From -- ./inp_files/154563.got.cif
#   From: 2010.05.17/outbox.cif.g08.bks.cpg/sg2_78_cif.got.tgz:154563.got - 2010.06.03 11:33:40.
