data_PCOD9013062
_publ_section_title
;
Structure prediction by ZEFSAII (Michael W. Deem and Ramdas Pophale) SiO2 
 PCOD9013062
Probable space group: P -1
;
_chemical_formula_sum "Si O2"
_cell_formula_units_Z 16
_cell_length_a 10.124806
_cell_length_b 10.330619
_cell_length_c 8.868533
_cell_angle_alpha 66.179355
_cell_angle_beta 49.341783
_cell_angle_gamma 72.037033
_cell_volume 642.377885
_symmetry_space_group_name_H-M "P -1"
_symmetry_group_IT_number 2
_symmetry_cell_setting 'triclinic'
loop_
_space_group_symop_operation_xyz
x,y,z
-x,-y,-z
loop_
_atom_site_type_symbol
_atom_site_label
_atom_site_fract_x
_atom_site_fract_y
_atom_site_fract_z
Si Si1 0.526873 0.308114 0.408144
Si Si2 0.256658 0.945106 0.156166
Si Si3 0.702139 0.573377 0.231575
Si Si4 0.938416 0.799896 0.962266
Si Si5 0.935501 0.795432 0.325620
Si Si6 0.738062 0.053593 0.488208
Si Si7 0.700209 0.584787 0.717610
Si Si8 0.489135 0.685349 0.079470
O O1 0.680716 0.411092 0.284035
O O2 0.353651 0.385061 0.576739
O O3 0.574345 0.151064 0.502992
O O4 0.472725 0.328401 0.266170
O O5 0.256760 0.965896 0.326495
O O6 0.426829 0.847711 0.029101
O O7 0.096994 0.850420 0.271950
O O8 0.221476 0.089374 0.021839
O O9 0.538516 0.655767 0.229273
O O10 0.879419 0.645787 0.036297
O O11 0.098642 0.856307 0.725647
O O12 0.969073 0.806108 0.116711
O O13 0.874402 0.644388 0.495678
O O14 0.775266 0.906514 0.441591
O O15 0.659485 0.421883 0.801898
O O16 0.668916 0.629313 0.892293
#
# Coordination Sequence:
#
# PCOD9013062 Si02
#       8
#     2   2   2   2   2   2   2   2
#     4  10  21  41  63  87 120 154 196 245 294 352
#     4  11  24  41  61  87 122 157 198 246 292 352
#     4  10  21  41  63  87 120 154 196 245 294 352
#     4  11  24  40  62  88 119 159 198 244 296 348
#     4  11  24  41  61  87 122 157 198 246 292 352
#     4  11  24  40  62  88 119 159 198 244 296 348
#     4  10  23  41  63  90 120 156 196 244 297 349
#     4  10  23  41  63  90 120 156 196 244 297 349
#
# _framework density 24.907457999999998
#
# number of rings (size 3 to 8) (size 9 to 14) (size 15 to 20)
#    0.000    1.500    2.500    3.000    7.000    3.000 
#    0.000    0.000    0.000    0.000    0.000    0.000 
#    0.000    0.000    0.000    0.000    0.000    0.000 
#
# Total GULP energy -89445.514633 kJ/mol
# GULP energy per Si atom -5590.344665 kJ/mol
# Density = 2.485077 g / cm^3
# Si number density = 24.907458 Si / 1000 Ang^3
#
#
#
# Elastic Constant Matrix: (Units=GPa)
#
#
# Indices 1 2 3 4 5 6 
#
# 1 54.5373 15.8273 21.1661 -5.7704 -2.4337 12.1694
# 2 15.8273 74.9339 4.6694 -11.2213 -1.5719 -8.8623
# 3 21.1661 4.6694 95.9704 -13.5186 -17.6343 19.1778
# 4 -5.7704 -11.2213 -13.5186 27.4143 8.5749 4.6807
# 5 -2.4337 -1.5719 -17.6343 8.5749 36.6733 -13.8170
# 6 12.1694 -8.8623 19.1778 4.6807 -13.8170 35.3832
#
#
#
# Elastic Compliance Matrix: (Units=1/GPa)
#
#
# Indices 1 2 3 4 5 6 
#
# 1 0.023749 -0.005474 -0.003192 0.004596 -0.005205 -0.010450
# 2 -0.005474 0.015806 0.000101 0.003816 0.001713 0.005951
# 3 -0.003192 0.000101 0.013721 0.006378 0.002582 -0.006148
# 4 0.004596 0.003816 0.006378 0.049295 -0.014053 -0.016090
# 5 -0.005205 0.001713 0.002582 -0.014053 0.038144 0.017574
# 6 -0.010450 0.005951 -0.006148 -0.016090 0.017574 0.045670
#
#
# Mechanical properties :
#
#
# Convention : Reuss Voigt Hill
#
# Bulk Modulus (GPa) = 27.66575 34.30747 30.98661
# Shear Modulus (GPa) = 23.19495 32.14608 27.67052
#
# Velocity S-wave (km/s) = 3.05494 3.59642 3.33668
# Velocity P-wave (km/s) = 4.85542 5.57221 5.22612
#
# Compressibility (1/GPa) = 0.03614578
#
# Stress axis : x y z
#
# Youngs Moduli (GPa) = 42.10621 63.26668 72.88353
#
# Poissons Ratio (x) = 0.34633 0.23267
# Poissons Ratio (y) = 0.23049 -0.00738
# Poissons Ratio (z) = 0.13442 -0.00641
#
# Static dielectric constant tensor:
#      x y z
#    x 1.960200 -0.027830 -0.055980 
#    y -0.027830 1.949980 -0.006690 
#    z -0.055980 -0.006690 1.934880 
# 
# From -- ./inp_files/242432.got.cif
#   From: 2010.05.17/outbox.cif.g08.bks.cpg/sg2_122_cif.got.tgz:242432.got - 2010.06.03 11:33:40.
