data_PCOD9013829
_publ_section_title
;
Structure prediction by ZEFSAII (Michael W. Deem and Ramdas Pophale) SiO2 
 PCOD9013829
Probable space group: P -1
;
_chemical_formula_sum "Si O2"
_cell_formula_units_Z 16
_cell_length_a 8.644254
_cell_length_b 9.105779
_cell_length_c 14.611691
_cell_angle_alpha 39.740640
_cell_angle_beta 65.642975
_cell_angle_gamma 71.808725
_cell_volume 669.820522
_symmetry_space_group_name_H-M "P -1"
_symmetry_group_IT_number 2
_symmetry_cell_setting 'triclinic'
loop_
_space_group_symop_operation_xyz
x,y,z
-x,-y,-z
loop_
_atom_site_type_symbol
_atom_site_label
_atom_site_fract_x
_atom_site_fract_y
_atom_site_fract_z
Si Si1 0.162702 0.963555 0.044332
Si Si2 0.456577 0.089938 0.321605
Si Si3 0.036931 0.204672 0.535878
Si Si4 0.746186 0.204657 0.340647
Si Si5 0.050289 0.381518 0.951624
Si Si6 0.815699 0.523753 0.782736
Si Si7 0.412351 0.209635 0.732254
Si Si8 0.736211 0.502238 0.527116
O O1 0.110095 0.119213 0.068426
O O2 0.320053 0.077467 0.898918
O O3 0.201528 0.696814 0.174209
O O4 0.000000 0.000000 0.000000
O O5 0.622494 0.152234 0.310561
O O6 0.346041 0.320566 0.232970
O O7 0.347824 0.903051 0.496753
O O8 0.503545 0.973910 0.269995
O O9 0.051397 0.308439 0.380949
O O10 0.190958 0.325953 0.496786
O O11 0.867233 0.297002 0.577482
O O12 0.081374 0.939395 0.648063
O O13 0.797631 0.469430 0.202511
O O14 0.890057 0.414578 0.908413
O O15 0.000000 0.500000 0.000000
O O16 0.553791 0.391072 0.643956
O O17 0.281865 0.350323 0.632457
#
# Coordination Sequence:
#
# PCOD9013829 Si02
#       8
#     2   2   2   2   2   2   2   2
#     4  10  24  45  67  92 132 177 222 274 334 398
#     4  10  23  41  67  99 137 174 213 287 335 393
#     4  10  21  41  65  99 136 177 216 279 331 397
#     4  10  23  41  65  95 136 173 223 273 341 389
#     4  11  26  44  71  96 129 177 226 275 329 406
#     4  10  24  44  67  95 134 178 226 269 334 396
#     4  11  23  39  68  99 137 177 226 275 334 399
#     4  10  22  36  65 102 135 170 222 275 336 397
#
# _framework density 23.886997999999998
#
# number of rings (size 3 to 8) (size 9 to 14) (size 15 to 20)
#    0.000    1.750    1.250    1.500   10.500    3.500 
#    0.000    1.250    0.000    0.000    0.000    0.000 
#    0.000    0.000    0.000    0.000    0.000    0.000 
#
# Total GULP energy -89588.525481 kJ/mol
# GULP energy per Si atom -5599.282843 kJ/mol
# Density = 2.383263 g / cm^3
# Si number density = 23.886998 Si / 1000 Ang^3
#
#
#
# Elastic Constant Matrix: (Units=GPa)
#
#
# Indices 1 2 3 4 5 6 
#
# 1 60.4471 36.6182 16.5154 -11.8302 10.4526 -6.5889
# 2 36.6182 144.9896 17.2722 -16.3768 13.8727 -19.6352
# 3 16.5154 17.2722 59.2230 -18.1074 10.0557 -10.1196
# 4 -11.8302 -16.3768 -18.1074 39.5892 -3.4011 9.7784
# 5 10.4526 13.8727 10.0557 -3.4011 18.7328 -2.9006
# 6 -6.5889 -19.6352 -10.1196 9.7784 -2.9006 30.5403
#
#
#
# Elastic Compliance Matrix: (Units=1/GPa)
#
#
# Indices 1 2 3 4 5 6 
#
# 1 0.021572 -0.004190 -0.002798 0.002978 -0.006982 -0.000583
# 2 -0.004190 0.008977 0.000253 0.001228 -0.003569 0.004219
# 3 -0.002798 0.000253 0.022003 0.007722 -0.008483 0.003572
# 4 0.002978 0.001228 0.007722 0.031578 -0.001959 -0.006306
# 5 -0.006982 -0.003569 -0.008483 -0.001959 0.064136 0.000107
# 6 -0.000583 0.004219 0.003572 -0.006306 0.000107 0.038543
#
#
# Mechanical properties :
#
#
# Convention : Reuss Voigt Hill
#
# Bulk Modulus (GPa) = 25.58606 45.05238 35.31922
# Shear Modulus (GPa) = 23.44050 30.72273 27.08162
#
# Velocity S-wave (km/s) = 3.13598 3.59021 3.37076
# Velocity P-wave (km/s) = 4.88335 6.00731 5.47425
#
# Compressibility (1/GPa) = 0.03908378
#
# Stress axis : x y z
#
# Youngs Moduli (GPa) = 46.35560 111.40015 45.44796
#
# Poissons Ratio (x) = 0.46671 0.12714
# Poissons Ratio (y) = 0.19421 -0.01149
# Poissons Ratio (z) = 0.12968 -0.02817
#
# Static dielectric constant tensor:
#      x y z
#    x 1.906180 0.026780 -0.004180 
#    y 0.026780 1.928010 0.005840 
#    z -0.004180 0.005840 1.885900 
# 
# From -- ./inp_files/494213.got.cif
#   From: 2010.05.17/outbox.cif.g08.bks.cpg/sg2_248_cif.got.tgz:494213.got - 2010.06.03 11:33:40.
