data_PCOD9013714
_publ_section_title
;
Structure prediction by ZEFSAII (Michael W. Deem and Ramdas Pophale) SiO2 
 PCOD9013714
Probable space group: P -1
;
_chemical_formula_sum "Si O2"
_cell_formula_units_Z 16
_cell_length_a 10.869347
_cell_length_b 13.758366
_cell_length_c 5.600695
_cell_angle_alpha 123.212682
_cell_angle_beta 110.939701
_cell_angle_gamma 93.159970
_cell_volume 619.804409
_symmetry_space_group_name_H-M "P -1"
_symmetry_group_IT_number 2
_symmetry_cell_setting 'triclinic'
loop_
_space_group_symop_operation_xyz
x,y,z
-x,-y,-z
loop_
_atom_site_type_symbol
_atom_site_label
_atom_site_fract_x
_atom_site_fract_y
_atom_site_fract_z
Si Si1 0.649636 0.819891 0.866417
Si Si2 0.128070 0.877354 0.304549
Si Si3 0.780662 0.473266 0.830968
Si Si4 0.320407 0.354165 0.722138
Si Si5 0.112746 0.121219 0.540176
Si Si6 0.441031 0.682826 0.897127
Si Si7 0.988557 0.391288 0.158624
Si Si8 0.567041 0.111973 0.520031
O O1 0.648003 0.691535 0.572782
O O2 0.557203 0.794518 0.003330
O O3 0.563936 0.881296 0.718850
O O4 0.804488 0.876380 0.146307
O O5 0.291238 0.902351 0.507682
O O6 0.033380 0.867558 0.462788
O O7 0.109159 0.986283 0.273012
O O8 0.061050 0.744752 0.955286
O O9 0.657009 0.389377 0.474491
O O10 0.868522 0.577083 0.847219
O O11 0.738370 0.536317 0.116843
O O12 0.877351 0.397917 0.890032
O O13 0.206903 0.231552 0.591785
O O14 0.466261 0.388486 0.010648
O O15 0.376791 0.752700 0.136406
O O16 0.000000 0.500000 0.500000
O O17 0.500000 0.000000 0.500000
#
# Coordination Sequence:
#
# PCOD9013714 Si02
#       8
#     2   2   2   2   2   2   2   2
#     4  10  22  40  64  93 126 172 210 256 329 370
#     4  11  22  43  68  91 129 169 210 265 320 373
#     4  11  23  40  61  93 126 170 212 261 317 372
#     4  10  21  41  65  94 130 161 215 265 313 381
#     4  10  23  43  66  96 128 165 215 268 312 381
#     4  10  22  39  61  93 127 163 213 261 315 382
#     4  11  25  41  63  91 130 171 211 259 316 381
#     4  11  23  41  64  95 129 164 211 267 315 384
#
# _framework density 25.814598
#
# number of rings (size 3 to 8) (size 9 to 14) (size 15 to 20)
#    0.000    1.500    1.250    4.125    1.750    4.500 
#    0.000    8.125    0.000    0.000    0.000    0.000 
#    0.000    0.000    0.000    0.000    0.000    0.000 
#
# Total GULP energy -89543.650859 kJ/mol
# GULP energy per Si atom -5596.478179 kJ/mol
# Density = 2.575584 g / cm^3
# Si number density = 25.814598 Si / 1000 Ang^3
#
#
#
# Elastic Constant Matrix: (Units=GPa)
#
#
# Indices 1 2 3 4 5 6 
#
# 1 153.9193 20.8256 27.6291 4.7893 2.1279 -12.6065
# 2 20.8256 72.7991 21.9090 13.7433 9.4852 -17.6744
# 3 27.6291 21.9090 83.9111 20.6909 2.5284 -7.2094
# 4 4.7893 13.7433 20.6909 39.6526 1.1020 0.9020
# 5 2.1279 9.4852 2.5284 1.1020 34.3697 9.2205
# 6 -12.6065 -17.6744 -7.2094 0.9020 9.2205 37.1476
#
#
#
# Elastic Compliance Matrix: (Units=1/GPa)
#
#
# Indices 1 2 3 4 5 6 
#
# 1 0.007132 -0.001082 -0.002053 0.000561 -0.000440 0.001603
# 2 -0.001082 0.019267 -0.002212 -0.005416 -0.007708 0.010415
# 3 -0.002053 -0.002212 0.014997 -0.006829 -0.000539 0.001461
# 4 0.000561 -0.005416 -0.006829 0.030641 0.002330 -0.005034
# 5 -0.000440 -0.007708 -0.000539 0.002330 0.034585 -0.012562
# 6 0.001603 0.010415 0.001461 -0.005034 -0.012562 0.035943
#
#
# Mechanical properties :
#
#
# Convention : Reuss Voigt Hill
#
# Bulk Modulus (GPa) = 32.57132 50.15079 41.36105
# Shear Modulus (GPa) = 30.58258 38.25168 34.41713
#
# Velocity S-wave (km/s) = 3.44568 3.85357 3.65532
# Velocity P-wave (km/s) = 5.33621 6.26654 5.81999
#
# Compressibility (1/GPa) = 0.03070186
#
# Stress axis : x y z
#
# Youngs Moduli (GPa) = 140.21885 51.90250 66.68214
#
# Poissons Ratio (x) = 0.05614 0.13690
# Poissons Ratio (y) = 0.15167 0.14749
# Poissons Ratio (z) = 0.28788 0.11480
#
# Static dielectric constant tensor:
#      x y z
#    x 2.017810 -0.003430 0.007870 
#    y -0.003430 2.069470 0.054000 
#    z 0.007870 0.054000 2.044610 
# 
# From -- ./inp_files/78823.got.cif
#   From: 2010.05.17/outbox.cif.g08.bks.cpg/sg2_40_cif.got.tgz:78823.got - 2010.06.03 11:33:40.
