data_PCOD9013461
_publ_section_title
;
Structure prediction by ZEFSAII (Michael W. Deem and Ramdas Pophale) SiO2 
 PCOD9013461
Probable space group: P -1
;
_chemical_formula_sum "Si O2"
_cell_formula_units_Z 12
_cell_length_a 7.451102
_cell_length_b 12.826819
_cell_length_c 12.258405
_cell_angle_alpha 154.962277
_cell_angle_beta 110.737911
_cell_angle_gamma 71.231491
_cell_volume 463.705546
_symmetry_space_group_name_H-M "P -1"
_symmetry_group_IT_number 2
_symmetry_cell_setting 'triclinic'
loop_
_space_group_symop_operation_xyz
x,y,z
-x,-y,-z
loop_
_atom_site_type_symbol
_atom_site_label
_atom_site_fract_x
_atom_site_fract_y
_atom_site_fract_z
Si Si1 0.559367 0.931056 0.795094
Si Si2 0.076972 0.736709 0.808073
Si Si3 0.688639 0.532889 0.876021
Si Si4 0.916042 0.182468 0.744186
Si Si5 0.413492 0.944455 0.310749
Si Si6 0.273219 0.288478 0.162193
O O1 0.572082 0.865317 0.607254
O O2 0.633028 0.745184 0.728449
O O3 0.699823 0.181392 0.066664
O O4 0.351689 0.037962 0.884552
O O5 0.000000 0.500000 0.500000
O O6 0.952709 0.692400 0.847632
O O7 0.000000 0.000000 0.000000
O O8 0.528413 0.706187 0.062809
O O9 0.896928 0.666267 0.041903
O O10 0.749079 0.326279 0.778785
O O11 0.658669 0.502670 0.710170
O O12 0.809057 0.074274 0.723034
O O13 0.000000 0.000000 0.500000
O O14 0.500000 0.000000 0.500000
#
# Coordination Sequence:
#
# PCOD9013461 Si02
#       6
#     2   2   2   2   2   2
#     4   9  20  39  67  94 137 172 219 275 335 404
#     4  10  21  41  64  96 133 176 221 273 333 401
#     4  10  22  41  64  92 130 168 221 274 331 396
#     4  11  22  40  61  92 123 169 218 269 327 391
#     4  11  21  40  67  97 131 174 221 272 334 398
#     4   9  19  41  63  96 130 172 217 273 339 400
#
# _framework density 25.878491
#
# number of rings (size 3 to 8) (size 9 to 14) (size 15 to 20)
#    0.000    2.000    1.667    1.500    0.000    0.667 
#   12.000   10.000    0.000    0.000    0.000    0.000 
#    0.000    0.000    0.000    0.000    0.000    0.000 
#
# Total GULP energy -66848.825707 kJ/mol
# GULP energy per Si atom -5570.735476 kJ/mol
# Density = 2.581959 g / cm^3
# Si number density = 25.878491 Si / 1000 Ang^3
#
#
#
# Elastic Constant Matrix: (Units=GPa)
#
#
# Indices 1 2 3 4 5 6 
#
# 1 119.1697 27.4257 25.7802 -7.9195 -12.5458 34.3972
# 2 27.4257 142.9005 41.4328 -23.6909 -9.6859 25.9003
# 3 25.7802 41.4328 66.3451 -12.2914 -5.6412 4.7341
# 4 -7.9195 -23.6909 -12.2914 49.2388 -0.2799 4.8117
# 5 -12.5458 -9.6859 -5.6412 -0.2799 42.0747 -8.8101
# 6 34.3972 25.9003 4.7341 4.8117 -8.8101 63.5731
#
#
#
# Elastic Compliance Matrix: (Units=1/GPa)
#
#
# Indices 1 2 3 4 5 6 
#
# 1 0.011042 0.000365 -0.003668 0.001606 0.001694 -0.005737
# 2 0.000365 0.009875 -0.005226 0.003902 0.000868 -0.004007
# 3 -0.003668 -0.005226 0.019955 0.001625 0.000941 0.002635
# 4 0.001606 0.003902 0.001625 0.023268 0.000866 -0.004221
# 5 0.001694 0.000868 0.000941 0.000866 0.025036 0.002063
# 6 -0.005737 -0.004007 0.002635 -0.004221 0.002063 0.020875
#
#
# Mechanical properties :
#
#
# Convention : Reuss Voigt Hill
#
# Bulk Modulus (GPa) = 41.99213 57.52141 49.75677
# Shear Modulus (GPa) = 37.02427 46.56242 41.79335
#
# Velocity S-wave (km/s) = 3.78656 4.24638 4.02305
# Velocity P-wave (km/s) = 5.94805 6.80574 6.39130
#
# Compressibility (1/GPa) = 0.02381399
#
# Stress axis : x y z
#
# Youngs Moduli (GPa) = 90.56535 101.26551 50.11361
#
# Poissons Ratio (x) = -0.03698 0.18380
# Poissons Ratio (y) = -0.03307 0.26191
# Poissons Ratio (z) = 0.33216 0.52924
#
# Static dielectric constant tensor:
#      x y z
#    x 2.456620 -0.014200 0.295630 
#    y -0.014200 2.120230 -0.046360 
#    z 0.295630 -0.046360 2.185390 
# 
# From -- ./inp_files/371927.got.cif
#   From: 2010.05.17/outbox.cif.g08.bks.cpg/sg2_186_cif.got.tgz:371927.got - 2010.06.03 11:33:40.
