data_PCOD9013002
_publ_section_title
;
Structure prediction by ZEFSAII (Michael W. Deem and Ramdas Pophale) SiO2 
 PCOD9013002
Probable space group: P -1
;
_chemical_formula_sum "Si O2"
_cell_formula_units_Z 14
_cell_length_a 9.085993
_cell_length_b 14.849265
_cell_length_c 11.713332
_cell_angle_alpha 107.732939
_cell_angle_beta 123.376981
_cell_angle_gamma 33.893573
_cell_volume 695.589699
_symmetry_space_group_name_H-M "P -1"
_symmetry_group_IT_number 2
_symmetry_cell_setting 'triclinic'
loop_
_space_group_symop_operation_xyz
x,y,z
-x,-y,-z
loop_
_atom_site_type_symbol
_atom_site_label
_atom_site_fract_x
_atom_site_fract_y
_atom_site_fract_z
Si Si1 0.635721 0.859611 0.917586
Si Si2 0.621926 0.228504 0.156415
Si Si3 0.763879 0.097438 0.829805
Si Si4 0.059864 0.742845 0.629376
Si Si5 0.740857 0.475751 0.055577
Si Si6 0.206417 0.476278 0.661991
Si Si7 0.479185 0.993610 0.309140
O O1 0.541859 0.794841 0.885910
O O2 0.509071 0.948315 0.774634
O O3 0.014127 0.682813 0.988481
O O4 0.500000 0.000000 0.000000
O O5 0.674366 0.295415 0.285726
O O6 0.447390 0.355231 0.022570
O O7 0.986925 0.037326 0.214758
O O8 0.545805 0.279170 0.762552
O O9 0.537156 0.110383 0.765917
O O10 0.000000 0.000000 0.000000
O O11 0.847571 0.844718 0.695596
O O12 0.219327 0.569476 0.637485
O O13 0.786946 0.873540 0.469852
O O14 0.911849 0.444668 0.228610
O O15 0.500000 0.500000 0.000000
O O16 0.000000 0.500000 0.500000
#
# Coordination Sequence:
#
# PCOD9013002 Si02
#       7
#     2   2   2   2   2   2   2
#     4  12  27  42  67 102 143 182 229 293 360 418
#     4  11  24  40  65  99 139 181 227 287 360 416
#     4  11  21  36  67  99 129 177 236 287 331 407
#     4  10  21  41  67  95 132 185 232 290 339 413
#     4  12  24  46  72  99 140 185 242 288 342 422
#     4  12  23  39  72 106 134 175 239 298 340 396
#     4  10  21  41  62  94 135 179 235 280 343 409
#
# _framework density 20.126806999999999
#
# number of rings (size 3 to 8) (size 9 to 14) (size 15 to 20)
#    0.000    0.857    5.714    2.143    2.000    0.571 
#    0.000    0.000    0.000    2.571    0.000    0.000 
#    0.000    0.000    0.000    0.000    0.000    0.000 
#
# Total GULP energy -78028.025996 kJ/mol
# GULP energy per Si atom -5573.430428 kJ/mol
# Density = 2.008100 g / cm^3
# Si number density = 20.126807 Si / 1000 Ang^3
#
#
#
# Elastic Constant Matrix: (Units=GPa)
#
#
# Indices 1 2 3 4 5 6 
#
# 1 130.4030 64.4095 45.9414 -2.1561 1.0879 37.7099
# 2 64.4095 148.4380 42.7871 -18.6366 -3.3219 14.7777
# 3 45.9414 42.7871 104.4788 2.1062 1.0665 12.0419
# 4 -2.1561 -18.6366 2.1062 38.7557 11.6124 1.5040
# 5 1.0879 -3.3219 1.0665 11.6124 27.6109 -1.1650
# 6 37.7099 14.7777 12.0419 1.5040 -1.1650 41.4561
#
#
#
# Elastic Compliance Matrix: (Units=1/GPa)
#
#
# Indices 1 2 3 4 5 6 
#
# 1 0.013758 -0.004104 -0.003181 -0.000274 -0.001226 -0.010152
# 2 -0.004104 0.009693 -0.002343 0.004686 -0.000520 0.000774
# 3 -0.003181 -0.002343 0.011928 -0.002042 0.000256 0.000345
# 4 -0.000274 0.004686 -0.002042 0.032125 -0.012957 -0.002358
# 5 -0.001226 -0.000520 0.000256 -0.012957 0.041764 0.002870
# 6 -0.010152 0.000774 0.000345 -0.002358 0.002870 0.033147
#
#
# Mechanical properties :
#
#
# Convention : Reuss Voigt Hill
#
# Bulk Modulus (GPa) = 62.02341 76.62174 69.32257
# Shear Modulus (GPa) = 29.93213 36.90999 33.42106
#
# Velocity S-wave (km/s) = 3.86058 4.28702 4.07937
# Velocity P-wave (km/s) = 7.12427 7.91561 7.53034
#
# Compressibility (1/GPa) = 0.01612295
#
# Stress axis : x y z
#
# Youngs Moduli (GPa) = 72.68682 103.17146 83.83406
#
# Poissons Ratio (x) = 0.42341 0.26665
# Poissons Ratio (y) = 0.29830 0.19644
# Poissons Ratio (z) = 0.23119 0.24175
#
# Static dielectric constant tensor:
#      x y z
#    x 1.722550 0.037670 -0.001140 
#    y 0.037670 2.137840 0.008960 
#    z -0.001140 0.008960 1.757080 
# 
# From -- ./inp_files/392613.got.cif
#   From: 2010.05.17/outbox.cif.g08.bks.cpg/sg2_197_cif.got.tgz:392613.got - 2010.06.03 11:33:40.
