data_PCOD9013771
_publ_section_title
;
Structure prediction by ZEFSAII (Michael W. Deem and Ramdas Pophale) SiO2 
 PCOD9013771
Probable space group: P -1
;
_chemical_formula_sum "Si O2"
_cell_formula_units_Z 16
_cell_length_a 20.316332
_cell_length_b 16.834784
_cell_length_c 5.423862
_cell_angle_alpha 100.990046
_cell_angle_beta 105.005715
_cell_angle_gamma 19.853413
_cell_volume 600.566503
_symmetry_space_group_name_H-M "P -1"
_symmetry_group_IT_number 2
_symmetry_cell_setting 'triclinic'
loop_
_space_group_symop_operation_xyz
x,y,z
-x,-y,-z
loop_
_atom_site_type_symbol
_atom_site_label
_atom_site_fract_x
_atom_site_fract_y
_atom_site_fract_z
Si Si1 0.309368 0.835471 0.637318
Si Si2 0.319450 0.518356 0.505482
Si Si3 0.002105 0.209116 0.947898
Si Si4 0.479354 0.840484 0.243129
Si Si5 0.766606 0.764690 0.000262
Si Si6 0.259366 0.297847 0.550877
Si Si7 0.868915 0.808105 0.577520
Si Si8 0.010382 0.059798 0.241222
O O1 0.532388 0.606501 0.624706
O O2 0.190030 0.047357 0.546101
O O3 0.213691 0.941273 0.880943
O O4 0.222719 0.851211 0.434588
O O5 0.181687 0.601404 0.301947
O O6 0.444800 0.335357 0.738990
O O7 0.156483 0.761518 0.602503
O O8 0.949898 0.207171 0.117097
O O9 0.033581 0.262829 0.118860
O O10 0.657942 0.703644 0.346847
O O11 0.341935 0.026127 0.995982
O O12 0.327759 0.018114 0.427738
O O13 0.672769 0.821062 0.705324
O O14 0.719876 0.771528 0.211365
O O15 0.000000 0.500000 0.000000
O O16 0.021515 0.578397 0.465818
O O17 0.000000 0.000000 0.000000
#
# Coordination Sequence:
#
# PCOD9013771 Si02
#       8
#     2   2   2   2   2   2   2   2
#     4   9  21  39  61  96 132 169 226 275 333 403
#     4  10  23  42  65  98 131 171 228 276 340 409
#     4  10  21  41  65  96 126 176 220 278 337 406
#     4  11  24  44  66  96 131 176 226 285 340 410
#     4  12  27  48  69  96 139 184 231 289 353 408
#     4  12  26  47  67  99 136 180 234 290 350 410
#     4  10  23  41  66  93 131 173 223 280 338 402
#     4  10  22  42  65  94 137 173 213 273 339 411
#
# _framework density 26.641511999999999
#
# number of rings (size 3 to 8) (size 9 to 14) (size 15 to 20)
#    0.000    1.500    1.250    3.375    3.500    6.500 
#    6.750    1.250    0.000    0.000    0.000    0.000 
#    0.000    0.000    0.000    0.000    0.000    0.000 
#
# Total GULP energy -89525.143191 kJ/mol
# GULP energy per Si atom -5595.321449 kJ/mol
# Density = 2.658087 g / cm^3
# Si number density = 26.641512 Si / 1000 Ang^3
#
#
#
# Elastic Constant Matrix: (Units=GPa)
#
#
# Indices 1 2 3 4 5 6 
#
# 1 117.4147 32.9775 41.6195 12.7929 -2.4448 -24.3819
# 2 32.9775 116.4330 29.1104 23.6706 -0.8724 -36.6200
# 3 41.6195 29.1104 116.4719 24.5192 18.1936 -13.9696
# 4 12.7929 23.6706 24.5192 48.0937 3.5373 -13.3443
# 5 -2.4448 -0.8724 18.1936 3.5373 50.9657 4.2996
# 6 -24.3819 -36.6200 -13.9696 -13.3443 4.2996 51.7521
#
#
#
# Elastic Compliance Matrix: (Units=1/GPa)
#
#
# Indices 1 2 3 4 5 6 
#
# 1 0.010744 -0.001216 -0.003430 0.000280 0.001427 0.003229
# 2 -0.001216 0.011984 -0.001117 -0.003138 0.000191 0.006781
# 3 -0.003430 -0.001117 0.011594 -0.004156 -0.004033 -0.000013
# 4 0.000280 -0.003138 -0.004156 0.025364 -0.000602 0.003380
# 5 0.001427 0.000191 -0.004033 -0.000602 0.021361 -0.002211
# 6 0.003229 0.006781 -0.000013 0.003380 -0.002211 0.026694
#
#
# Mechanical properties :
#
#
# Convention : Reuss Voigt Hill
#
# Bulk Modulus (GPa) = 43.86625 61.97050 52.91837
# Shear Modulus (GPa) = 39.41223 46.60311 43.00767
#
# Velocity S-wave (km/s) = 3.85041 4.18696 4.02221
# Velocity P-wave (km/s) = 6.02235 6.83268 6.44027
#
# Compressibility (1/GPa) = 0.02279657
#
# Stress axis : x y z
#
# Youngs Moduli (GPa) = 93.07631 83.44213 86.25381
#
# Poissons Ratio (x) = 0.10148 0.29584
# Poissons Ratio (y) = 0.11320 0.09632
# Poissons Ratio (z) = 0.31924 0.09318
#
# Static dielectric constant tensor:
#      x y z
#    x 2.079160 0.010030 0.010450 
#    y 0.010030 2.116660 -0.058340 
#    z 0.010450 -0.058340 2.132880 
# 
# From -- ./inp_files/120085.got.cif
#   From: 2010.05.17/outbox.cif.g08.bks.cpg/sg2_61_cif.got.tgz:120085.got - 2010.06.03 11:33:40.
