data_PCOD9013692
_publ_section_title
;
Structure prediction by ZEFSAII (Michael W. Deem and Ramdas Pophale) SiO2 
 PCOD9013692
Probable space group: P -1
;
_chemical_formula_sum "Si O2"
_cell_formula_units_Z 16
_cell_length_a 18.319759
_cell_length_b 5.307652
_cell_length_c 6.451016
_cell_angle_alpha 84.072183
_cell_angle_beta 93.579416
_cell_angle_gamma 86.846564
_cell_volume 621.498265
_symmetry_space_group_name_H-M "P -1"
_symmetry_group_IT_number 2
_symmetry_cell_setting 'triclinic'
loop_
_space_group_symop_operation_xyz
x,y,z
-x,-y,-z
loop_
_atom_site_type_symbol
_atom_site_label
_atom_site_fract_x
_atom_site_fract_y
_atom_site_fract_z
Si Si1 0.216472 0.657218 0.242375
Si Si2 0.001650 0.771607 0.846748
Si Si3 0.593073 0.764803 0.983131
Si Si4 0.535819 0.301603 0.755316
Si Si5 0.758168 0.770871 0.477086
Si Si6 0.109736 0.926359 0.495611
Si Si7 0.354475 0.835977 0.522932
Si Si8 0.274391 0.559655 0.855978
O O1 0.218504 0.354368 0.292318
O O2 0.141493 0.753985 0.326331
O O3 0.291818 0.740548 0.360296
O O4 0.227157 0.711982 0.002057
O O5 0.068993 0.798459 0.691062
O O6 0.937682 0.849958 0.656208
O O7 0.000000 0.500000 0.000000
O O8 0.000000 0.000000 0.000000
O O9 0.546895 0.732618 0.188595
O O10 0.677521 0.680473 0.024878
O O11 0.560711 0.563308 0.833610
O O12 0.578495 0.052760 0.885741
O O13 0.565638 0.258395 0.531727
O O14 0.769837 0.554397 0.327670
O O15 0.814288 0.975418 0.415139
O O16 0.674120 0.872298 0.479294
O O17 0.335912 0.721136 0.749764
#
# Coordination Sequence:
#
# PCOD9013692 Si02
#       8
#     2   2   2   2   2   2   2   2
#     4  10  22  43  66  97 140 186 227 293 348 421
#     4  11  28  50  84 115 149 195 241 295 352 430
#     4  10  22  39  68  93 130 183 239 288 360 426
#     4  10  21  41  65  93 130 185 233 296 359 422
#     4  10  24  41  66 101 140 184 231 294 353 426
#     4  10  26  49  75 108 152 188 243 293 362 420
#     4  10  22  39  61  95 137 175 236 292 356 418
#     4  11  23  39  67 101 135 183 240 290 359 420
#
# _framework density 25.744237999999999
#
# number of rings (size 3 to 8) (size 9 to 14) (size 15 to 20)
#    0.000    1.750    1.250    0.750    7.000    7.500 
#    0.000    0.625    0.000    0.000    0.000    0.000 
#    0.000    0.000    0.000    0.000    0.000    0.000 
#
# Total GULP energy -89315.233384 kJ/mol
# GULP energy per Si atom -5582.202087 kJ/mol
# Density = 2.568564 g / cm^3
# Si number density = 25.744238 Si / 1000 Ang^3
#
#
#
# Elastic Constant Matrix: (Units=GPa)
#
#
# Indices 1 2 3 4 5 6 
#
# 1 87.6616 26.0767 55.4214 2.0398 -33.2366 -16.3343
# 2 26.0767 110.8512 58.6054 -7.5532 -17.4472 -6.5498
# 3 55.4214 58.6054 170.2202 -0.6497 -51.6806 -7.7402
# 4 2.0398 -7.5532 -0.6497 44.8945 -12.5705 -2.9652
# 5 -33.2366 -17.4472 -51.6806 -12.5705 58.8201 7.9573
# 6 -16.3343 -6.5498 -7.7402 -2.9652 7.9573 34.4301
#
#
#
# Elastic Compliance Matrix: (Units=1/GPa)
#
#
# Indices 1 2 3 4 5 6 
#
# 1 0.017022 -0.000995 -0.003093 0.001095 0.006043 0.005889
# 2 -0.000995 0.011309 -0.003522 0.001959 -0.000028 0.001062
# 3 -0.003093 -0.003522 0.010009 0.001423 0.006476 -0.001261
# 4 0.001095 0.001959 0.001423 0.024790 0.007531 0.001607
# 5 0.006043 -0.000028 0.006476 0.007531 0.027908 -0.001484
# 6 0.005889 0.001062 -0.001261 0.001607 -0.001484 0.032238
#
#
# Mechanical properties :
#
#
# Convention : Reuss Voigt Hill
#
# Bulk Modulus (GPa) = 43.25383 72.10445 57.67914
# Shear Modulus (GPa) = 34.19920 42.87089 38.53505
#
# Velocity S-wave (km/s) = 3.64871 4.08519 3.87310
# Velocity P-wave (km/s) = 5.88121 7.09369 6.51571
#
# Compressibility (1/GPa) = 0.02311934
#
# Stress axis : x y z
#
# Youngs Moduli (GPa) = 58.74798 88.42233 99.91346
#
# Poissons Ratio (x) = 0.08802 0.30899
# Poissons Ratio (y) = 0.05848 0.35191
# Poissons Ratio (z) = 0.18168 0.31144
#
# Static dielectric constant tensor:
#      x y z
#    x 2.007960 -0.018850 0.014850 
#    y -0.018850 2.151810 -0.025130 
#    z 0.014850 -0.025130 2.130380 
# 
# From -- ./inp_files/11300.got.cif
#   From: 2010.05.17/outbox.cif.g08.bks.cpg/sg2_6_cif.got.tgz:11300.got - 2010.06.03 11:33:40.
