data_PCOD9013920
_publ_section_title
;
Structure prediction by ZEFSAII (Michael W. Deem and Ramdas Pophale) SiO2 
 PCOD9013920
Probable space group: P -1
;
_chemical_formula_sum "Si O2"
_cell_formula_units_Z 16
_cell_length_a 11.220544
_cell_length_b 14.226215
_cell_length_c 11.466945
_cell_angle_alpha 116.672206
_cell_angle_beta 140.053164
_cell_angle_gamma 43.443962
_cell_volume 783.741568
_symmetry_space_group_name_H-M "P -1"
_symmetry_group_IT_number 2
_symmetry_cell_setting 'triclinic'
loop_
_space_group_symop_operation_xyz
x,y,z
-x,-y,-z
loop_
_atom_site_type_symbol
_atom_site_label
_atom_site_fract_x
_atom_site_fract_y
_atom_site_fract_z
Si Si1 0.451730 0.695317 0.329521
Si Si2 0.903320 0.249388 0.385057
Si Si3 0.386810 0.515049 0.050415
Si Si4 0.616758 0.069891 0.168117
Si Si5 0.156866 0.937850 0.431290
Si Si6 0.252615 0.562710 0.420441
Si Si7 0.225567 0.362775 0.905010
Si Si8 0.807036 0.663155 0.406317
O O1 0.321845 0.649568 0.136530
O O2 0.292184 0.817687 0.370244
O O3 0.661405 0.551970 0.479208
O O4 0.571008 0.729424 0.345426
O O5 0.623145 0.365701 0.198731
O O6 0.873065 0.293267 0.523307
O O7 0.056833 0.278046 0.444657
O O8 0.034380 0.090691 0.377931
O O9 0.500000 0.500000 0.000000
O O10 0.187362 0.502030 0.928914
O O11 0.648099 0.095929 0.341632
O O12 0.450487 0.223191 0.066462
O O13 0.910165 0.965758 0.298437
O O14 0.500000 0.000000 0.000000
O O15 0.500000 0.500000 0.500000
O O16 0.026493 0.590562 0.202327
O O17 0.255917 0.316127 0.766249
O O18 0.000000 0.500000 0.500000
#
# Coordination Sequence:
#
# PCOD9013920 Si02
#       8
#     2   2   2   2   2   2   2   2
#     4  11  24  40  66 101 136 177 226 285 350 409
#     4  10  21  41  66  90 131 187 223 268 360 410
#     4  11  20  39  67 100 135 174 224 288 342 409
#     4  11  25  46  71  94 139 192 235 275 343 429
#     4  11  26  46  66  98 144 186 227 290 352 400
#     4  10  23  39  67  97 133 173 230 288 335 404
#     4  11  21  40  73 101 126 184 237 276 349 419
#     4  11  18  40  69  97 130 175 228 284 349 414
#
# _framework density 20.414892999999999
#
# number of rings (size 3 to 8) (size 9 to 14) (size 15 to 20)
#    0.000    1.250    6.250    1.500    5.250    0.500 
#    2.250    5.625    0.000    0.000    0.000    0.000 
#    0.000    0.000    0.000    0.000    0.000    0.000 
#
# Total GULP energy -89095.958627 kJ/mol
# GULP energy per Si atom -5568.497414 kJ/mol
# Density = 2.036843 g / cm^3
# Si number density = 20.414893 Si / 1000 Ang^3
#
#
#
# Elastic Constant Matrix: (Units=GPa)
#
#
# Indices 1 2 3 4 5 6 
#
# 1 108.2835 41.7214 33.5725 9.1792 14.4500 6.6684
# 2 41.7214 124.1269 22.9115 22.2862 -1.6565 -2.3731
# 3 33.5725 22.9115 65.0779 10.6762 6.6496 1.0427
# 4 9.1792 22.2862 10.6762 29.8883 4.6554 -2.8305
# 5 14.4500 -1.6565 6.6496 4.6554 26.7647 3.7008
# 6 6.6684 -2.3731 1.0427 -2.8305 3.7008 34.2941
#
#
#
# Elastic Compliance Matrix: (Units=1/GPa)
#
#
# Indices 1 2 3 4 5 6 
#
# 1 0.013057 -0.003838 -0.004965 0.001386 -0.006033 -0.001888
# 2 -0.003838 0.010904 -0.001122 -0.007160 0.004203 0.000490
# 3 -0.004965 -0.001122 0.019164 -0.004252 -0.001425 0.000108
# 4 0.001386 -0.007160 -0.004252 0.041456 -0.007848 0.003633
# 5 -0.006033 0.004203 -0.001425 -0.007848 0.043124 -0.003794
# 6 -0.001888 0.000490 0.000108 0.003633 -0.003794 0.030267
#
#
# Mechanical properties :
#
#
# Convention : Reuss Voigt Hill
#
# Bulk Modulus (GPa) = 42.96408 54.87767 48.92087
# Shear Modulus (GPa) = 26.94249 31.47495 29.20872
#
# Velocity S-wave (km/s) = 3.63677 3.93079 3.78664
# Velocity P-wave (km/s) = 6.22302 6.89500 6.56761
#
# Compressibility (1/GPa) = 0.02327526
#
# Stress axis : x y z
#
# Youngs Moduli (GPa) = 76.58692 91.70784 52.18062
#
# Poissons Ratio (x) = 0.35194 0.25910
# Poissons Ratio (y) = 0.29392 0.05854
# Poissons Ratio (z) = 0.38029 0.10289
#
# Static dielectric constant tensor:
#      x y z
#    x 1.815020 0.049120 0.088850 
#    y 0.049120 1.740800 0.115150 
#    z 0.088850 0.115150 1.951400 
# 
# From -- ./inp_files/434264.got.cif
#   From: 2010.05.17/outbox.cif.g08.bks.cpg/sg2_218_cif.got.tgz:434264.got - 2010.06.03 11:33:40.
