data_PCOD9013502
_publ_section_title
;
Structure prediction by ZEFSAII (Michael W. Deem and Ramdas Pophale) SiO2 
 PCOD9013502
Probable space group: P -1
;
_chemical_formula_sum "Si O2"
_cell_formula_units_Z 14
_cell_length_a 10.827594
_cell_length_b 23.090231
_cell_length_c 8.545570
_cell_angle_alpha 40.222470
_cell_angle_beta 120.144938
_cell_angle_gamma 150.359921
_cell_volume 588.704500
_symmetry_space_group_name_H-M "P -1"
_symmetry_group_IT_number 2
_symmetry_cell_setting 'triclinic'
loop_
_space_group_symop_operation_xyz
x,y,z
-x,-y,-z
loop_
_atom_site_type_symbol
_atom_site_label
_atom_site_fract_x
_atom_site_fract_y
_atom_site_fract_z
Si Si1 0.591770 0.947933 0.018546
Si Si2 0.258373 0.489732 0.953786
Si Si3 0.047412 0.113443 0.195767
Si Si4 0.959606 0.317193 0.578571
Si Si5 0.622886 0.545565 0.203956
Si Si6 0.599094 0.327228 0.054747
Si Si7 0.586395 0.149705 0.225254
O O1 0.268550 0.779107 0.233129
O O2 0.564551 0.896748 0.932065
O O3 0.787546 0.998854 0.156291
O O4 0.761719 0.136793 0.732418
O O5 0.329184 0.443662 0.210713
O O6 0.380604 0.640713 0.814479
O O7 0.927743 0.329798 0.045756
O O8 0.387388 0.530915 0.785153
O O9 0.136003 0.243618 0.098839
O O10 0.330611 0.243514 0.005022
O O11 0.000000 0.000000 0.500000
O O12 0.240162 0.424151 0.618019
O O13 0.103535 0.473977 0.243454
O O14 0.534518 0.190758 0.247389
O O15 0.500000 0.000000 0.500000
#
# Coordination Sequence:
#
# PCOD9013502 Si02
#       7
#     2   2   2   2   2   2   2
#     4  10  23  43  70 101 138 183 219 282 356 396
#     4  10  21  41  64  99 129 174 229 268 335 404
#     4  10  24  44  69 100 139 181 229 285 340 408
#     4  10  21  44  71  98 138 174 231 284 336 415
#     4   9  20  41  71  93 130 180 226 271 344 402
#     4  11  26  43  67 101 135 181 235 283 335 402
#     4  12  26  42  67 100 139 178 227 286 345 406
#
# _framework density 23.781030999999999
#
# number of rings (size 3 to 8) (size 9 to 14) (size 15 to 20)
#    0.000    1.714    1.429    1.286    2.000   10.857 
#    7.714    0.000    0.000    0.000    0.000    0.000 
#    0.000    0.000    0.000    0.000    0.000    0.000 
#
# Total GULP energy -78195.386543 kJ/mol
# GULP energy per Si atom -5585.384753 kJ/mol
# Density = 2.372690 g / cm^3
# Si number density = 23.781031 Si / 1000 Ang^3
#
#
#
# Elastic Constant Matrix: (Units=GPa)
#
#
# Indices 1 2 3 4 5 6 
#
# 1 110.0318 40.8877 20.6394 -10.3425 14.3296 -27.9335
# 2 40.8877 142.7950 23.4690 4.7753 10.5150 -10.4158
# 3 20.6394 23.4690 104.1535 -16.6325 10.4086 -14.6473
# 4 -10.3425 4.7753 -16.6325 19.5479 7.3368 3.2162
# 5 14.3296 10.5150 10.4086 7.3368 24.7489 -10.1709
# 6 -27.9335 -10.4158 -14.6473 3.2162 -10.1709 50.0898
#
#
#
# Elastic Compliance Matrix: (Units=1/GPa)
#
#
# Indices 1 2 3 4 5 6 
#
# 1 0.013540 -0.003543 0.001502 0.011699 -0.008469 0.004782
# 2 -0.003543 0.008518 -0.002403 -0.006429 0.001250 -0.000240
# 3 0.001502 -0.002403 0.013661 0.016551 -0.009991 0.001242
# 4 0.011699 -0.006429 0.016551 0.088020 -0.038512 -0.003445
# 5 -0.008469 0.001250 -0.009991 -0.038512 0.063694 0.008022
# 6 0.004782 -0.000240 0.001242 -0.003445 0.008022 0.024794
#
#
# Mechanical properties :
#
#
# Convention : Reuss Voigt Hill
#
# Bulk Modulus (GPa) = 37.26828 58.55250 47.91039
# Shear Modulus (GPa) = 21.73380 37.00959 29.37169
#
# Velocity S-wave (km/s) = 3.02638 3.94923 3.51820
# Velocity P-wave (km/s) = 5.28369 6.74316 6.05754
#
# Compressibility (1/GPa) = 0.02683247
#
# Stress axis : x y z
#
# Youngs Moduli (GPa) = 73.85763 117.40213 73.20132
#
# Poissons Ratio (x) = 0.41591 -0.10997
# Poissons Ratio (y) = 0.26165 0.17588
# Poissons Ratio (z) = -0.11096 0.28208
#
# Static dielectric constant tensor:
#      x y z
#    x 1.942670 0.039320 -0.012120 
#    y 0.039320 1.919690 -0.021560 
#    z -0.012120 -0.021560 1.982830 
# 
# From -- ./inp_files/284655.got.cif
#   From: 2010.05.17/outbox.cif.g08.bks.cpg/sg2_143_cif.got.tgz:284655.got - 2010.06.03 11:33:40.
