data_PCOD9013164
_publ_section_title
;
Structure prediction by ZEFSAII (Michael W. Deem and Ramdas Pophale) SiO2 
 PCOD9013164
Probable space group: P -1
;
_chemical_formula_sum "Si O2"
_cell_formula_units_Z 14
_cell_length_a 8.349703
_cell_length_b 14.228710
_cell_length_c 10.094232
_cell_angle_alpha 145.665154
_cell_angle_beta 62.834406
_cell_angle_gamma 126.040057
_cell_volume 545.822494
_symmetry_space_group_name_H-M "P -1"
_symmetry_group_IT_number 2
_symmetry_cell_setting 'triclinic'
loop_
_space_group_symop_operation_xyz
x,y,z
-x,-y,-z
loop_
_atom_site_type_symbol
_atom_site_label
_atom_site_fract_x
_atom_site_fract_y
_atom_site_fract_z
Si Si1 0.525546 0.610633 0.981138
Si Si2 0.450132 0.062222 0.773562
Si Si3 0.262858 0.026618 0.263482
Si Si4 0.955922 0.290853 0.507460
Si Si5 0.046542 0.338979 0.110674
Si Si6 0.888037 0.689438 0.258998
Si Si7 0.373418 0.283808 0.298173
O O1 0.523603 0.811586 0.219891
O O2 0.744125 0.640328 0.886022
O O3 0.500000 0.500000 0.000000
O O4 0.329040 0.474100 0.821131
O O5 0.632020 0.025427 0.715935
O O6 0.252609 0.876682 0.632470
O O7 0.422595 0.193543 0.047977
O O8 0.128041 0.120915 0.483347
O O9 0.414940 0.183380 0.293156
O O10 0.137606 0.853121 0.014942
O O11 0.968890 0.328250 0.704605
O O12 0.141710 0.245986 0.349222
O O13 0.980031 0.476403 0.641843
O O14 0.061563 0.319788 0.922662
O O15 0.500000 0.500000 0.500000
#
# Coordination Sequence:
#
# PCOD9013164 Si02
#       7
#     2   2   2   2   2   2   2
#     4  10  22  41  65  94 129 168 214 266 318 378
#     4  12  24  43  66  96 133 171 214 266 321 384
#     4  11  23  41  67  97 125 169 218 266 323 383
#     4  11  24  40  64  97 129 172 216 263 323 384
#     4  11  22  41  64  94 131 170 216 268 320 380
#     4  10  21  41  63  93 132 171 213 266 321 380
#     4  11  24  45  68  93 127 169 217 271 323 381
#
# _framework density 25.649363999999998
#
# number of rings (size 3 to 8) (size 9 to 14) (size 15 to 20)
#    0.000    1.143    0.000    7.714    0.000    2.286 
#    0.000    8.571    0.000    0.000    0.000    0.000 
#    0.000    0.000    0.000    0.000    0.000    0.000 
#
# Total GULP energy -78460.337191 kJ/mol
# GULP energy per Si atom -5604.309799 kJ/mol
# Density = 2.559099 g / cm^3
# Si number density = 25.649364 Si / 1000 Ang^3
#
#
#
# Elastic Constant Matrix: (Units=GPa)
#
#
# Indices 1 2 3 4 5 6 
#
# 1 111.2458 16.6206 28.3825 32.3119 -14.1809 0.8855
# 2 16.6206 96.3215 25.5221 25.6785 -0.4827 -11.8616
# 3 28.3825 25.5221 112.3027 47.2511 -0.8846 -1.0385
# 4 32.3119 25.6785 47.2511 60.4371 -2.0817 4.9638
# 5 -14.1809 -0.4827 -0.8846 -2.0817 52.3077 15.7752
# 6 0.8855 -11.8616 -1.0385 4.9638 15.7752 42.0637
#
#
#
# Elastic Compliance Matrix: (Units=1/GPa)
#
#
# Indices 1 2 3 4 5 6 
#
# 1 0.011084 -0.000510 -0.000513 -0.005125 0.003070 -0.000936
# 2 -0.000510 0.012547 -0.000558 -0.005070 -0.001669 0.004759
# 3 -0.000513 -0.000558 0.013450 -0.010172 -0.000834 0.001699
# 4 -0.005125 -0.005070 -0.010172 0.029894 0.001263 -0.005574
# 5 0.003070 -0.001669 -0.000834 0.001263 0.022757 -0.009240
# 6 -0.000936 0.004759 0.001699 -0.005574 -0.009240 0.029300
#
#
# Mechanical properties :
#
#
# Convention : Reuss Voigt Hill
#
# Bulk Modulus (GPa) = 29.48370 51.21336 40.34853
# Shear Modulus (GPa) = 37.45240 47.58466 42.51853
#
# Velocity S-wave (km/s) = 3.82536 4.31187 4.07588
# Velocity P-wave (km/s) = 5.57055 6.69326 6.15755
#
# Compressibility (1/GPa) = 0.03391705
#
# Stress axis : x y z
#
# Youngs Moduli (GPa) = 90.22283 79.69844 74.34814
#
# Poissons Ratio (x) = 0.04066 0.03817
# Poissons Ratio (y) = 0.04603 0.04152
# Poissons Ratio (z) = 0.04632 0.04451
#
# Static dielectric constant tensor:
#      x y z
#    x 1.990800 -0.070550 0.005280 
#    y -0.070550 2.155940 -0.011800 
#    z 0.005280 -0.011800 1.998150 
# 
# From -- ./inp_files/306810.got.cif
#   From: 2010.05.17/outbox.cif.g08.bks.cpg/sg2_154_cif.got.tgz:306810.got - 2010.06.03 11:33:40.
