data_PCOD9013391
_publ_section_title
;
Structure prediction by ZEFSAII (Michael W. Deem and Ramdas Pophale) SiO2 
 PCOD9013391
Probable space group: P -1
;
_chemical_formula_sum "Si O2"
_cell_formula_units_Z 16
_cell_length_a 18.296435
_cell_length_b 17.466568
_cell_length_c 8.798909
_cell_angle_alpha 131.159802
_cell_angle_beta 128.443824
_cell_angle_gamma 18.971548
_cell_volume 688.240643
_symmetry_space_group_name_H-M "P -1"
_symmetry_group_IT_number 2
_symmetry_cell_setting 'triclinic'
loop_
_space_group_symop_operation_xyz
x,y,z
-x,-y,-z
loop_
_atom_site_type_symbol
_atom_site_label
_atom_site_fract_x
_atom_site_fract_y
_atom_site_fract_z
Si Si1 0.721233 0.905038 0.667724
Si Si2 0.913388 0.165908 0.898878
Si Si3 0.778636 0.313992 0.243312
Si Si4 0.023034 0.273542 0.510832
Si Si5 0.178767 0.058859 0.904945
Si Si6 0.340390 0.205255 0.340157
Si Si7 0.398204 0.677008 0.474649
Si Si8 0.824248 0.761632 0.071159
O O1 0.796386 0.732409 0.637559
O O2 0.899228 0.786223 0.638455
O O3 0.537157 0.049151 0.498552
O O4 0.655641 0.053265 0.903598
O O5 0.795633 0.197515 0.687428
O O6 0.997241 0.172659 0.909052
O O7 0.754637 0.352027 0.079716
O O8 0.131360 0.890285 0.886554
O O9 0.963843 0.216576 0.395598
O O10 0.571517 0.533071 0.375759
O O11 0.795934 0.565166 0.603000
O O12 0.204423 0.145236 0.690593
O O13 0.070336 0.259322 0.933682
O O14 0.308707 0.861261 0.694051
O O15 0.372945 0.096347 0.096784
O O16 0.500000 0.500000 0.500000
O O17 0.000000 0.500000 0.000000
#
# Coordination Sequence:
#
# PCOD9013391 Si02
#       8
#     2   2   2   2   2   2   2   2
#     4  10  21  41  64  93 129 170 222 269 326 395
#     4  11  24  46  68  94 138 178 223 276 331 398
#     4  11  25  44  67 101 132 180 222 275 334 397
#     4  11  21  38  65  95 128 172 217 268 331 394
#     4  11  22  44  69  97 135 182 219 276 336 395
#     4   9  21  40  62  93 131 167 217 273 330 389
#     4  12  26  42  67 102 138 174 226 276 335 396
#     4   9  21  40  66 100 132 171 222 274 333 395
#
# _framework density 23.247681
#
# number of rings (size 3 to 8) (size 9 to 14) (size 15 to 20)
#    0.000    1.500    2.500    1.875    1.750    3.500 
#    0.000   10.000    0.000    0.000    0.000    0.000 
#    0.000    0.000    0.000    0.000    0.000    0.000 
#
# Total GULP energy -89259.214382 kJ/mol
# GULP energy per Si atom -5578.700899 kJ/mol
# Density = 2.319477 g / cm^3
# Si number density = 23.247681 Si / 1000 Ang^3
#
#
#
# Elastic Constant Matrix: (Units=GPa)
#
#
# Indices 1 2 3 4 5 6 
#
# 1 193.8419 -38.0488 -107.7024 35.8466 40.5381 44.9401
# 2 -38.0488 735.4847 1535.5312 -140.7985 -453.5676 -386.0197
# 3 -107.7024 1535.5312 3373.9737 -305.3156 -958.4321 -837.6311
# 4 35.8466 -140.7985 -305.3156 50.6038 85.6112 70.2493
# 5 40.5381 -453.5676 -958.4321 85.6112 322.4841 252.7534
# 6 44.9401 -386.0197 -837.6311 70.2493 252.7534 249.4895
#
#
#
# Elastic Compliance Matrix: (Units=1/GPa)
#
#
# Indices 1 2 3 4 5 6 
#
# 1 0.007348 -0.004126 -0.000375 -0.009820 -0.001814 -0.004362
# 2 -0.004126 0.035191 -0.011178 0.008752 0.012412 0.002622
# 3 -0.000375 -0.011178 0.007243 0.004776 0.000393 0.005346
# 4 -0.009820 0.008752 0.004776 0.058454 0.002686 0.012167
# 5 -0.001814 0.012412 0.000393 0.002686 0.026663 -0.006917
# 6 -0.004362 0.002622 0.005346 0.012167 -0.006917 0.030382
#
#
# Mechanical properties :
#
#
# Convention : Reuss Voigt Hill
#
# Bulk Modulus (GPa) = 54.27929 786.98448 420.63188
# Shear Modulus (GPa) = 24.65757 318.75018 171.70387
#
# Velocity S-wave (km/s) = 3.26029 11.72212 8.60342
# Velocity P-wave (km/s) = 6.12957 22.85755 16.73378
#
# Compressibility (1/GPa) = 0.01842323
#
# Stress axis : x y z
#
# Youngs Moduli (GPa) = 136.10003 28.41674 138.06604
#
# Poissons Ratio (x) = 0.11724 0.05174
# Poissons Ratio (y) = 0.56150 1.54336
# Poissons Ratio (z) = 0.05101 0.31765
#
# Static dielectric constant tensor:
#      x y z
#    x 1.875280 0.001810 -0.007230 
#    y 0.001810 1.885070 -0.011710 
#    z -0.007230 -0.011710 1.918830 
# 
# From -- ./inp_files/336776.got.cif
#   From: 2010.05.17/outbox.cif.g08.bks.cpg/sg2_169_cif.got.tgz:336776.got - 2010.06.03 11:33:40.
