data_PCOD9013627
_publ_section_title
;
Structure prediction by ZEFSAII (Michael W. Deem and Ramdas Pophale) SiO2 
 PCOD9013627
Probable space group: P -1
;
_chemical_formula_sum "Si O2"
_cell_formula_units_Z 14
_cell_length_a 8.459080
_cell_length_b 23.705846
_cell_length_c 6.509519
_cell_angle_alpha 82.507478
_cell_angle_beta 92.529311
_cell_angle_gamma 151.868129
_cell_volume 603.170045
_symmetry_space_group_name_H-M "P -1"
_symmetry_group_IT_number 2
_symmetry_cell_setting 'triclinic'
loop_
_space_group_symop_operation_xyz
x,y,z
-x,-y,-z
loop_
_atom_site_type_symbol
_atom_site_label
_atom_site_fract_x
_atom_site_fract_y
_atom_site_fract_z
Si Si1 0.145585 0.895147 0.651052
Si Si2 0.323218 0.069942 0.665831
Si Si3 0.876176 0.199267 0.954265
Si Si4 0.612647 0.683132 0.395137
Si Si5 0.512724 0.231386 0.818508
Si Si6 0.181516 0.441457 0.503861
Si Si7 0.739897 0.254438 0.223886
O O1 0.854984 0.772667 0.559332
O O2 0.500000 0.000000 0.500000
O O3 0.079581 0.941413 0.647985
O O4 0.177188 0.874581 0.881449
O O5 0.566298 0.116793 0.825776
O O6 0.235893 0.101223 0.760535
O O7 0.516734 0.151398 0.432044
O O8 0.188798 0.289435 0.779005
O O9 0.914931 0.261064 0.095254
O O10 0.535989 0.719709 0.274469
O O11 0.303605 0.544283 0.503117
O O12 0.881192 0.331100 0.698338
O O13 0.532149 0.225523 0.062550
O O14 0.500000 0.500000 0.500000
O O15 0.004430 0.377229 0.303545
#
# Coordination Sequence:
#
# PCOD9013627 Si02
#       7
#     2   2   2   2   2   2   2
#     4  12  23  40  69  96 128 167 218 272 317 366
#     4  10  21  41  66  93 124 170 217 265 308 375
#     4  11  21  38  67  96 125 163 218 265 319 373
#     4  12  26  40  62 102 131 169 213 259 323 388
#     4  10  25  43  64  92 137 170 207 261 322 386
#     4  11  23  43  69  96 125 165 219 267 312 381
#     4  10  21  41  65  91 126 169 211 264 318 369
#
# _framework density 23.210704
#
# number of rings (size 3 to 8) (size 9 to 14) (size 15 to 20)
#    0.000    1.143    2.857    4.286    0.000    6.857 
#    0.000    1.429    0.000    0.000    0.000    0.000 
#    0.000    0.000    0.000    0.000    0.000    0.000 
#
# Total GULP energy -78346.758598 kJ/mol
# GULP energy per Si atom -5596.197043 kJ/mol
# Density = 2.315788 g / cm^3
# Si number density = 23.210704 Si / 1000 Ang^3
#
#
#
# Elastic Constant Matrix: (Units=GPa)
#
#
# Indices 1 2 3 4 5 6 
#
# 1 89.6237 34.8850 32.0110 5.0985 16.0993 -18.0820
# 2 34.8850 113.1053 56.3225 13.0899 -5.0967 -42.4668
# 3 32.0110 56.3225 150.9492 15.6003 20.9708 -8.7984
# 4 5.0985 13.0899 15.6003 32.0423 -5.2706 -1.0590
# 5 16.0993 -5.0967 20.9708 -5.2706 44.4264 -9.4118
# 6 -18.0820 -42.4668 -8.7984 -1.0590 -9.4118 40.0668
#
#
#
# Elastic Compliance Matrix: (Units=1/GPa)
#
#
# Indices 1 2 3 4 5 6 
#
# 1 0.014036 -0.003658 -0.000720 -0.001188 -0.005079 0.001074
# 2 -0.003658 0.024869 -0.008625 -0.002306 0.013467 0.025916
# 3 -0.000720 -0.008625 0.010955 -0.003347 -0.008220 -0.009081
# 4 -0.001188 -0.002306 -0.003347 0.034836 0.005564 -0.001488
# 5 -0.005079 0.013467 -0.008220 0.005564 0.034331 0.018388
# 6 0.001074 0.025916 -0.009081 -0.001488 0.018388 0.055197
#
#
# Mechanical properties :
#
#
# Convention : Reuss Voigt Hill
#
# Bulk Modulus (GPa) = 41.92721 66.67947 54.30334
# Shear Modulus (GPa) = 24.01748 38.67110 31.34429
#
# Velocity S-wave (km/s) = 3.22026 4.08620 3.67880
# Velocity P-wave (km/s) = 5.65064 7.14514 6.44138
#
# Compressibility (1/GPa) = 0.02385086
#
# Stress axis : x y z
#
# Youngs Moduli (GPa) = 71.24658 40.21043 91.28666
#
# Poissons Ratio (x) = 0.14711 0.06576
# Poissons Ratio (y) = 0.26065 0.78738
# Poissons Ratio (z) = 0.05133 0.34683
#
# Static dielectric constant tensor:
#      x y z
#    x 1.925170 0.015800 -0.010750 
#    y 0.015800 1.877800 0.004960 
#    z -0.010750 0.004960 1.825030 
# 
# From -- ./inp_files/27301.got.cif
#   From: 2010.05.17/outbox.cif.g08.bks.cpg/sg2_14_cif.got.tgz:27301.got - 2010.06.03 11:33:40.
