data_PCOD9013621
_publ_section_title
;
Structure prediction by ZEFSAII (Michael W. Deem and Ramdas Pophale) SiO2 
 PCOD9013621
Probable space group: P -1
;
_chemical_formula_sum "Si O2"
_cell_formula_units_Z 16
_cell_length_a 23.061936
_cell_length_b 14.157838
_cell_length_c 8.800388
_cell_angle_alpha 49.090623
_cell_angle_beta 148.190571
_cell_angle_gamma 150.809401
_cell_volume 695.066482
_symmetry_space_group_name_H-M "P -1"
_symmetry_group_IT_number 2
_symmetry_cell_setting 'triclinic'
loop_
_space_group_symop_operation_xyz
x,y,z
-x,-y,-z
loop_
_atom_site_type_symbol
_atom_site_label
_atom_site_fract_x
_atom_site_fract_y
_atom_site_fract_z
Si Si1 0.250175 0.957223 0.891023
Si Si2 0.111542 0.257879 0.657415
Si Si3 0.944405 0.034415 0.980802
Si Si4 0.866013 0.616140 0.749515
Si Si5 0.403094 0.709877 0.899262
Si Si6 0.475868 0.340578 0.183284
Si Si7 0.796189 0.233388 0.716944
Si Si8 0.406904 0.157411 0.523438
O O1 0.408832 0.092685 0.978002
O O2 0.310012 0.128651 0.949063
O O3 0.047735 0.807353 0.543792
O O4 0.240232 0.833364 0.117852
O O5 0.082029 0.254549 0.417540
O O6 0.309148 0.491392 0.890607
O O7 0.090175 0.096713 0.825217
O O8 0.757041 0.937195 0.640994
O O9 0.000000 0.000000 0.000000
O O10 0.086703 0.263543 0.120372
O O11 0.651482 0.410624 0.472958
O O12 0.997871 0.616982 0.026019
O O13 0.260108 0.680112 0.547304
O O14 0.439903 0.750286 0.118298
O O15 0.456450 0.310507 0.352592
O O16 0.500000 0.500000 0.000000
O O17 0.671757 0.026133 0.559797
#
# Coordination Sequence:
#
# PCOD9013621 Si02
#       8
#     2   2   2   2   2   2   2   2
#     4  10  22  41  63  97 123 165 218 257 317 372
#     4  11  23  40  64  97 128 165 210 260 324 375
#     4  11  23  41  64  90 130 165 204 273 317 377
#     4  10  21  41  65  91 124 168 217 249 322 378
#     4  12  23  42  65  95 132 165 215 267 311 377
#     4  11  21  40  66  93 126 167 211 261 315 385
#     4   9  22  44  66  88 129 173 211 264 312 372
#     4  10  24  40  64  92 128 169 211 255 328 381
#
# _framework density 23.019379000000001
#
# number of rings (size 3 to 8) (size 9 to 14) (size 15 to 20)
#    0.000    1.500    1.250    4.125    1.750    2.500 
#    4.500    0.625    0.000    0.000    0.000    0.000 
#    0.000    0.000    0.000    0.000    0.000    0.000 
#
# Total GULP energy -89445.106539 kJ/mol
# GULP energy per Si atom -5590.319159 kJ/mol
# Density = 2.296699 g / cm^3
# Si number density = 23.019379 Si / 1000 Ang^3
#
#
#
# Elastic Constant Matrix: (Units=GPa)
#
#
# Indices 1 2 3 4 5 6 
#
# 1 74.7692 13.3957 11.7788 6.3349 -1.6856 16.3202
# 2 13.3957 73.5509 16.7578 3.1265 -4.8094 -1.8270
# 3 11.7788 16.7578 86.3614 -1.3389 0.0503 9.0597
# 4 6.3349 3.1265 -1.3389 33.8083 9.4475 6.8573
# 5 -1.6856 -4.8094 0.0503 9.4475 30.6035 5.9143
# 6 16.3202 -1.8270 9.0597 6.8573 5.9143 21.3514
#
#
#
# Elastic Compliance Matrix: (Units=1/GPa)
#
#
# Indices 1 2 3 4 5 6 
#
# 1 0.017186 -0.003133 -0.000298 -0.001097 0.003477 -0.013889
# 2 -0.003133 0.015252 -0.003130 -0.002582 0.002002 0.005303
# 3 -0.000298 -0.003130 0.012910 0.002109 0.000018 -0.006200
# 4 -0.001097 -0.002582 0.002109 0.034518 -0.009435 -0.008750
# 5 0.003477 0.002002 0.000018 -0.009435 0.038027 -0.009998
# 6 -0.013889 0.005303 -0.006200 -0.008750 -0.009998 0.066115
#
#
# Mechanical properties :
#
#
# Convention : Reuss Voigt Hill
#
# Bulk Modulus (GPa) = 31.03048 35.39402 33.21225
# Shear Modulus (GPa) = 24.05333 30.00257 27.02795
#
# Velocity S-wave (km/s) = 3.23602 3.61413 3.43029
# Velocity P-wave (km/s) = 5.24136 5.72931 5.49076
#
# Compressibility (1/GPa) = 0.03222638
#
# Stress axis : x y z
#
# Youngs Moduli (GPa) = 58.18821 65.56468 77.45736
#
# Poissons Ratio (x) = 0.20542 0.02309
# Poissons Ratio (y) = 0.18231 0.24242
# Poissons Ratio (z) = 0.01734 0.20520
#
# Static dielectric constant tensor:
#      x y z
#    x 1.931350 0.036890 0.031320 
#    y 0.036890 1.831930 0.007820 
#    z 0.031320 0.007820 1.852680 
# 
# From -- ./inp_files/272806.got.cif
#   From: 2010.05.17/outbox.cif.g08.bks.cpg/sg2_137_cif.got.tgz:272806.got - 2010.06.03 11:33:40.
