data_PCOD9013613
_publ_section_title
;
Structure prediction by ZEFSAII (Michael W. Deem and Ramdas Pophale) SiO2 
 PCOD9013613
Probable space group: P -1
;
_chemical_formula_sum "Si O2"
_cell_formula_units_Z 15
_cell_length_a 9.433621
_cell_length_b 20.368387
_cell_length_c 10.806983
_cell_angle_alpha 38.630115
_cell_angle_beta 72.099713
_cell_angle_gamma 41.396530
_cell_volume 632.494669
_symmetry_space_group_name_H-M "P -1"
_symmetry_group_IT_number 2
_symmetry_cell_setting 'triclinic'
loop_
_space_group_symop_operation_xyz
x,y,z
-x,-y,-z
loop_
_atom_site_type_symbol
_atom_site_label
_atom_site_fract_x
_atom_site_fract_y
_atom_site_fract_z
Si Si1 0.348308 0.475133 0.317644
Si Si2 0.868871 0.036004 0.747093
Si Si3 0.085657 0.590119 0.484471
Si Si4 0.489419 0.078079 0.713333
Si Si5 0.496834 0.393600 0.857900
Si Si6 0.542361 0.790753 0.714267
Si Si7 0.000000 0.000000 0.500000
Si Si8 0.805016 0.711267 0.008666
O O1 0.659777 0.229254 0.605009
O O2 0.183648 0.554372 0.373702
O O3 0.395351 0.570548 0.150402
O O4 0.133663 0.556516 0.153516
O O5 0.737726 0.999136 0.824712
O O6 0.828715 0.110524 0.512564
O O7 0.217656 0.820095 0.979407
O O8 0.251088 0.565728 0.572019
O O9 0.750240 0.798950 0.300834
O O10 0.185810 0.411170 0.755978
O O11 0.344183 0.235365 0.408604
O O12 0.616138 0.901426 0.867475
O O13 0.401188 0.362974 0.026513
O O14 0.663920 0.787087 0.799317
O O15 0.193979 0.991702 0.495432
#
# Coordination Sequence:
#
# PCOD9013613 Si02
#       8
#     2   2   2   2   2   2   1   2
#     4  12  24  43  67  98 132 175 225 265 328 395
#     4  10  21  41  65  90 135 168 212 274 319 386
#     4  11  26  42  65 100 133 169 229 273 315 397
#     4  11  22  43  68  96 135 171 211 283 326 382
#     4  10  23  44  66  97 131 174 219 271 336 382
#     4   9  21  42  68  96 132 164 221 271 325 396
#     4   8  18  40  62  88 128 166 200 266 322 370
#     4  11  23  40  66  99 130 174 220 263 333 388
#
# _framework density 23.715615
#
# number of rings (size 3 to 8) (size 9 to 14) (size 15 to 20)
#    0.000    1.600    2.667    1.200    0.000    7.467 
#    2.400   10.000    0.000    0.000    0.000    0.000 
#    0.000    0.000    0.000    0.000    0.000    0.000 
#
# Total GULP energy -83569.493042 kJ/mol
# GULP energy per Si atom -5571.299536 kJ/mol
# Density = 2.366164 g / cm^3
# Si number density = 23.715615 Si / 1000 Ang^3
#
#
#
# Elastic Constant Matrix: (Units=GPa)
#
#
# Indices 1 2 3 4 5 6 
#
# 1 85.3044 -9.5647 14.5476 3.3542 4.1351 0.0673
# 2 -9.5647 64.8838 14.5091 -0.7493 -20.6773 -4.3587
# 3 14.5476 14.5091 57.5875 -2.9164 -0.0016 1.5174
# 4 3.3542 -0.7493 -2.9164 33.0192 1.8432 -0.1300
# 5 4.1351 -20.6773 -0.0016 1.8432 30.4167 -8.8191
# 6 0.0673 -4.3587 1.5174 -0.1300 -8.8191 20.2158
#
#
#
# Elastic Compliance Matrix: (Units=1/GPa)
#
#
# Indices 1 2 3 4 5 6 
#
# 1 0.012807 0.003176 -0.004154 -0.001641 0.000905 0.001338
# 2 0.003176 0.025443 -0.007697 -0.001560 0.021420 0.015387
# 3 -0.004154 -0.007697 0.020635 0.002412 -0.006565 -0.006043
# 4 -0.001641 -0.001560 0.002412 0.030802 -0.003200 -0.001710
# 5 0.000905 0.021420 -0.006565 -0.003200 0.056077 0.029551
# 6 0.001338 0.015387 -0.006043 -0.001710 0.029551 0.066114
#
#
# Mechanical properties :
#
#
# Convention : Reuss Voigt Hill
#
# Bulk Modulus (GPa) = 24.07533 27.41776 25.74654
# Shear Modulus (GPa) = 20.57016 29.28258 24.92637
#
# Velocity S-wave (km/s) = 2.94831 3.51770 3.24551
# Velocity P-wave (km/s) = 4.66516 5.29954 4.99243
#
# Compressibility (1/GPa) = 0.04153630
#
# Stress axis : x y z
#
# Youngs Moduli (GPa) = 78.08341 39.30295 48.46233
#
# Poissons Ratio (x) = -0.12484 0.20130
# Poissons Ratio (y) = -0.24801 0.37300
# Poissons Ratio (z) = 0.32434 0.30250
#
# Static dielectric constant tensor:
#      x y z
#    x 1.939040 0.035700 0.009060 
#    y 0.035700 1.801020 0.005050 
#    z 0.009060 0.005050 2.081250 
# 
# From -- ./inp_files/405393.got.cif
#   From: 2010.05.17/outbox.cif.g08.bks.cpg/sg2_203_cif.got.tgz:405393.got - 2010.06.03 11:33:40.
