data_PCOD9013753
_publ_section_title
;
Structure prediction by ZEFSAII (Michael W. Deem and Ramdas Pophale) SiO2 
 PCOD9013753
Probable space group: P -1
;
_chemical_formula_sum "Si O2"
_cell_formula_units_Z 16
_cell_length_a 21.015044
_cell_length_b 17.195855
_cell_length_c 11.177624
_cell_angle_alpha 151.121217
_cell_angle_beta 40.226038
_cell_angle_gamma 157.458954
_cell_volume 725.154067
_symmetry_space_group_name_H-M "P -1"
_symmetry_group_IT_number 2
_symmetry_cell_setting 'triclinic'
loop_
_space_group_symop_operation_xyz
x,y,z
-x,-y,-z
loop_
_atom_site_type_symbol
_atom_site_label
_atom_site_fract_x
_atom_site_fract_y
_atom_site_fract_z
Si Si1 0.269545 0.072942 0.256110
Si Si2 0.959732 0.418642 0.781817
Si Si3 0.718290 0.641186 0.727724
Si Si4 0.384081 0.166284 0.962818
Si Si5 0.754731 0.626245 0.937566
Si Si6 0.046700 0.915049 0.541657
Si Si7 0.102977 0.528168 0.481000
Si Si8 0.582181 0.941722 0.762525
O O1 0.180141 0.103120 0.493501
O O2 0.380468 0.235952 0.196413
O O3 0.373609 0.110209 0.255848
O O4 0.102145 0.746686 0.018225
O O5 0.000438 0.336039 0.710736
O O6 0.987908 0.368674 0.548745
O O7 0.765686 0.214597 0.803710
O O8 0.701526 0.809644 0.962777
O O9 0.749224 0.638589 0.818696
O O10 0.546813 0.325793 0.500022
O O11 0.873812 0.785237 0.616010
O O12 0.566851 0.375719 0.926128
O O13 0.277394 0.858880 0.703392
O O14 0.849873 0.587584 0.781280
O O15 0.852652 0.897340 0.231545
O O16 0.000000 0.500000 0.500000
O O17 0.500000 0.000000 0.000000
#
# Coordination Sequence:
#
# PCOD9013753 Si02
#       8
#     2   2   2   2   2   2   2   2
#     4  10  23  44  65  95 135 174 220 275 334 378
#     4  10  21  41  65  95 131 174 216 274 321 393
#     4  12  25  42  68 101 133 173 225 269 328 397
#     4  11  26  43  67  98 136 172 217 277 331 390
#     4  12  26  44  68  96 136 179 215 275 329 398
#     4  11  22  42  71  90 131 175 223 269 327 393
#     4  11  25  42  67  96 133 175 217 269 334 392
#     4  11  23  38  70  99 129 174 225 273 324 393
#
# _framework density 22.064278000000002
#
# number of rings (size 3 to 8) (size 9 to 14) (size 15 to 20)
#    0.000    1.000    1.250    6.375    5.250    3.500 
#    0.000    0.000    0.000    0.000    0.000    0.000 
#    0.000    0.000    0.000    0.000    0.000    0.000 
#
# Total GULP energy -89482.473071 kJ/mol
# GULP energy per Si atom -5592.654567 kJ/mol
# Density = 2.201406 g / cm^3
# Si number density = 22.064278 Si / 1000 Ang^3
#
#
#
# Elastic Constant Matrix: (Units=GPa)
#
#
# Indices 1 2 3 4 5 6 
#
# 1 60.3963 28.1350 0.3387 -16.0738 1.5457 -5.0008
# 2 28.1350 139.6502 20.9475 -34.0942 -7.6941 4.6054
# 3 0.3387 20.9475 79.0994 -4.7418 -2.1210 -1.6449
# 4 -16.0738 -34.0942 -4.7418 40.3189 4.6225 0.4312
# 5 1.5457 -7.6941 -2.1210 4.6225 31.2251 -1.3786
# 6 -5.0008 4.6054 -1.6449 0.4312 -1.3786 31.5344
#
#
#
# Elastic Compliance Matrix: (Units=1/GPa)
#
#
# Indices 1 2 3 4 5 6 
#
# 1 0.019817 -0.002998 0.001061 0.005722 -0.002342 0.003455
# 2 -0.002998 0.009893 -0.002208 0.006779 0.001341 -0.002069
# 3 0.001061 -0.002208 0.013260 0.000063 0.000348 0.001197
# 4 0.005722 0.006779 0.000063 0.033239 -0.003559 -0.000690
# 5 -0.002342 0.001341 0.000348 -0.003559 0.033064 0.000945
# 6 0.003455 -0.002069 0.001197 -0.000690 0.000945 0.032675
#
#
# Mechanical properties :
#
#
# Convention : Reuss Voigt Hill
#
# Bulk Modulus (GPa) = 28.83393 41.99870 35.41632
# Shear Modulus (GPa) = 30.90289 35.93065 33.41677
#
# Velocity S-wave (km/s) = 3.74650 4.03979 3.89590
# Velocity P-wave (km/s) = 5.64017 6.39030 6.02691
#
# Compressibility (1/GPa) = 0.03468137
#
# Stress axis : x y z
#
# Youngs Moduli (GPa) = 50.46291 101.08048 75.41236
#
# Poissons Ratio (x) = 0.30300 -0.08002
# Poissons Ratio (y) = 0.15127 0.16649
# Poissons Ratio (z) = -0.05354 0.22316
#
# Static dielectric constant tensor:
#      x y z
#    x 1.874830 -0.055330 0.026890 
#    y -0.055330 1.830500 0.011630 
#    z 0.026890 0.011630 1.833650 
# 
# From -- ./inp_files/472491.got.cif
#   From: 2010.05.17/outbox.cif.g08.bks.cpg/sg2_237_cif.got.tgz:472491.got - 2010.06.03 11:33:40.
