data_PCOD9013133
_publ_section_title
;
Structure prediction by ZEFSAII (Michael W. Deem and Ramdas Pophale) SiO2 
 PCOD9013133
Probable space group: P -1
;
_chemical_formula_sum "Si O2"
_cell_formula_units_Z 12
_cell_length_a 14.300977
_cell_length_b 9.202202
_cell_length_c 5.564500
_cell_angle_alpha 128.827341
_cell_angle_beta 60.952804
_cell_angle_gamma 125.346254
_cell_volume 456.552511
_symmetry_space_group_name_H-M "P -1"
_symmetry_group_IT_number 2
_symmetry_cell_setting 'triclinic'
loop_
_space_group_symop_operation_xyz
x,y,z
-x,-y,-z
loop_
_atom_site_type_symbol
_atom_site_label
_atom_site_fract_x
_atom_site_fract_y
_atom_site_fract_z
Si Si1 0.277339 0.798025 0.144801
Si Si2 0.465696 0.771280 0.218840
Si Si3 0.946985 0.209403 0.352805
Si Si4 0.100544 0.598324 0.782667
Si Si5 0.329096 0.371316 0.235892
Si Si6 0.770472 0.822386 0.354174
O O1 0.375518 0.742758 0.083573
O O2 0.159422 0.718751 0.372785
O O3 0.303817 0.037355 0.372139
O O4 0.226290 0.706064 0.855555
O O5 0.405103 0.608654 0.335922
O O6 0.500000 0.000000 0.500000
O O7 0.576600 0.728770 0.958679
O O8 0.929246 0.219827 0.103585
O O9 0.068426 0.390713 0.454887
O O10 0.902153 0.993294 0.314310
O O11 0.000000 0.500000 0.000000
O O12 0.249797 0.306722 0.509590
O O13 0.268722 0.290401 0.967824
#
# Coordination Sequence:
#
# PCOD9013133 Si02
#       6
#     2   2   2   2   2   2
#     4   9  19  34  60  92 121 167 211 264 307 375
#     4  11  23  45  64  93 127 171 217 266 317 381
#     4   8  17  31  58  92 126 161 209 255 318 380
#     4   9  15  30  56  99 121 160 214 257 309 386
#     4  11  25  44  62  95 130 172 214 263 324 377
#     4  10  21  41  63  91 130 168 210 263 319 377
#
# _framework density 26.283943000000001
#
# number of rings (size 3 to 8) (size 9 to 14) (size 15 to 20)
#    1.000    1.333    1.667    1.000    0.000    3.333 
#    9.000    0.000    0.000    2.000    0.000    0.000 
#    0.000    0.000    0.000    0.000    0.000    0.000 
#
# Total GULP energy -66953.285870 kJ/mol
# GULP energy per Si atom -5579.440489 kJ/mol
# Density = 2.622412 g / cm^3
# Si number density = 26.283943 Si / 1000 Ang^3
#
#
#
# Elastic Constant Matrix: (Units=GPa)
#
#
# Indices 1 2 3 4 5 6 
#
# 1 108.1033 29.2753 92.0330 5.3301 8.7267 -17.2951
# 2 29.2753 228.9518 77.7188 -8.4130 10.4843 -5.4472
# 3 92.0330 77.7188 49.6994 5.3411 26.9104 -6.3513
# 4 5.3301 -8.4130 5.3411 44.3556 0.5558 1.2992
# 5 8.7267 10.4843 26.9104 0.5558 48.5641 0.5363
# 6 -17.2951 -5.4472 -6.3513 1.2992 0.5363 30.2827
#
#
#
# Elastic Compliance Matrix: (Units=1/GPa)
#
#
# Indices 1 2 3 4 5 6 
#
# 1 -0.002098 -0.004888 0.016024 -0.002556 -0.007435 0.001525
# 2 -0.004888 0.003551 0.004574 0.000775 -0.002419 -0.001184
# 3 0.016024 0.004574 -0.019960 0.001092 0.007119 0.005615
# 4 -0.002556 0.000775 0.001092 0.022935 -0.000553 -0.002066
# 5 -0.007435 -0.002419 0.007119 -0.000553 0.018550 -0.003493
# 6 0.001525 -0.001184 0.005615 -0.002066 -0.003493 0.035008
#
#
# Mechanical properties :
#
#
# Convention : Reuss Voigt Hill
#
# Bulk Modulus (GPa) = 77.43959 87.20095 82.32027
# Shear Modulus (GPa) = 161.97073 37.15565 99.56319
#
# Velocity S-wave (km/s) = 7.85858 3.76390 6.16134
# Velocity P-wave (km/s) = 10.57684 7.22065 9.05559
#
# Compressibility (1/GPa) = 0.01291329
#
# Stress axis : x y z
#
# Youngs Moduli (GPa) = -476.69970 281.60614 -50.09897
#
# Poissons Ratio (x) = 1.37663 0.80280
# Poissons Ratio (y) = -2.33034 0.22917
# Poissons Ratio (z) = 7.63877 -1.28819
#
# Static dielectric constant tensor:
#      x y z
#    x 2.093280 -0.026850 0.021700 
#    y -0.026850 2.086150 -0.044250 
#    z 0.021700 -0.044250 2.363710 
# 
# From -- ./inp_files/91156.got.cif
#   From: 2010.05.17/outbox.cif.g08.bks.cpg/sg2_46_cif.got.tgz:91156.got - 2010.06.03 11:33:40.
