data_PCOD9013803
_publ_section_title
;
Structure prediction by ZEFSAII (Michael W. Deem and Ramdas Pophale) SiO2 
 PCOD9013803
Probable space group: P -1
;
_chemical_formula_sum "Si O2"
_cell_formula_units_Z 14
_cell_length_a 9.414550
_cell_length_b 14.689759
_cell_length_c 12.901507
_cell_angle_alpha 152.502157
_cell_angle_beta 105.909210
_cell_angle_gamma 57.060202
_cell_volume 583.085397
_symmetry_space_group_name_H-M "P -1"
_symmetry_group_IT_number 2
_symmetry_cell_setting 'triclinic'
loop_
_space_group_symop_operation_xyz
x,y,z
-x,-y,-z
loop_
_atom_site_type_symbol
_atom_site_label
_atom_site_fract_x
_atom_site_fract_y
_atom_site_fract_z
Si Si1 0.981303 0.740908 0.613634
Si Si2 0.290720 0.116854 0.873378
Si Si3 0.281389 0.290533 0.356212
Si Si4 0.365104 0.183767 0.757152
Si Si5 0.353048 0.735912 0.130899
Si Si6 0.066786 0.774462 0.965840
Si Si7 0.937533 0.675582 0.309036
O O1 0.193387 0.446282 0.386655
O O2 0.821152 0.825558 0.754634
O O3 0.893519 0.726200 0.475201
O O4 0.005153 0.951366 0.818643
O O5 0.370311 0.999053 0.654646
O O6 0.114414 0.154792 0.931598
O O7 0.484391 0.935797 0.802689
O O8 0.175104 0.418678 0.107561
O O9 0.169173 0.543638 0.667449
O O10 0.498957 0.249114 0.886418
O O11 0.158973 0.393993 0.860260
O O12 0.500000 0.000000 0.500000
O O13 0.244874 0.676504 0.977992
O O14 0.167234 0.024089 0.438434
O O15 0.500000 0.500000 0.000000
#
# Coordination Sequence:
#
# PCOD9013803 Si02
#       7
#     2   2   2   2   2   2   2
#     4  10  23  48  70 101 134 187 227 281 336 405
#     4  12  24  41  71 101 133 186 218 286 350 392
#     4  11  24  45  75  96 141 182 226 280 348 395
#     4  10  22  42  70  93 135 183 221 273 343 405
#     4  10  22  40  68  98 136 181 221 278 335 405
#     4  11  24  45  67 104 142 168 239 281 328 418
#     4  10  21  41  65  97 140 170 230 275 330 410
#
# _framework density 24.010204000000002
#
# number of rings (size 3 to 8) (size 9 to 14) (size 15 to 20)
#    0.000    1.429    1.429    4.286    4.000    1.143 
#   10.286    7.143    0.000    0.000    0.000    0.000 
#    0.000    0.000    0.000    0.000    0.000    0.000 
#
# Total GULP energy -77948.260444 kJ/mol
# GULP energy per Si atom -5567.732889 kJ/mol
# Density = 2.395556 g / cm^3
# Si number density = 24.010204 Si / 1000 Ang^3
#
#
#
# Elastic Constant Matrix: (Units=GPa)
#
#
# Indices 1 2 3 4 5 6 
#
# 1 160.7112 59.0524 59.7368 16.8285 -15.1803 -14.9346
# 2 59.0524 159.3462 45.8283 46.3905 -8.0465 -31.5880
# 3 59.7368 45.8283 74.7678 42.3191 -7.9554 -11.5250
# 4 16.8285 46.3905 42.3191 45.5221 -12.1456 -0.2214
# 5 -15.1803 -8.0465 -7.9554 -12.1456 32.0981 16.2390
# 6 -14.9346 -31.5880 -11.5250 -0.2214 16.2390 38.2396
#
#
#
# Elastic Compliance Matrix: (Units=1/GPa)
#
#
# Indices 1 2 3 4 5 6 
#
# 1 0.020555 -0.016047 -0.036430 0.050591 0.030394 -0.028822
# 2 -0.016047 0.027591 0.035217 -0.064926 -0.038274 0.043016
# 3 -0.036430 0.035217 0.102006 -0.136386 -0.073106 0.075862
# 4 0.050591 -0.064926 -0.136386 0.228799 0.124415 -0.126489
# 5 0.030394 -0.038274 -0.073106 0.124415 0.109105 -0.087392
# 6 -0.028822 0.043016 0.075862 -0.126489 -0.087392 0.109672
#
#
# Mechanical properties :
#
#
# Convention : Reuss Voigt Hill
#
# Bulk Modulus (GPa) = 8.64830 80.45112 44.54971
# Shear Modulus (GPa) = 7.45386 38.51915 22.98650
#
# Velocity S-wave (km/s) = 1.76386 4.00969 3.09749
# Velocity P-wave (km/s) = 2.78532 7.41732 5.60244
#
# Compressibility (1/GPa) = 0.11562965
#
# Stress axis : x y z
#
# Youngs Moduli (GPa) = 48.64957 36.24402 9.80332
#
# Poissons Ratio (x) = 0.58163 0.35714
# Poissons Ratio (y) = 0.78070 -0.34524
# Poissons Ratio (z) = 1.77232 -1.27639
#
# Static dielectric constant tensor:
#      x y z
#    x 1.846820 -0.675170 0.704790 
#    y -0.675170 -0.176630 2.358690 
#    z 0.704790 2.358690 -0.472900 
# 
# From -- ./inp_files/504679.got.cif
#   From: 2010.05.17/outbox.cif.g08.bks.cpg/sg2_253_cif.got.tgz:504679.got - 2010.06.03 11:33:40.
