data_PCOD9013354
_publ_section_title
;
Structure prediction by ZEFSAII (Michael W. Deem and Ramdas Pophale) SiO2 
 PCOD9013354
Probable space group: P -1
;
_chemical_formula_sum "Si O2"
_cell_formula_units_Z 16
_cell_length_a 19.889313
_cell_length_b 8.520712
_cell_length_c 14.465982
_cell_angle_alpha 98.475728
_cell_angle_beta 18.546991
_cell_angle_gamma 90.770025
_cell_volume 706.406908
_symmetry_space_group_name_H-M "P -1"
_symmetry_group_IT_number 2
_symmetry_cell_setting 'triclinic'
loop_
_space_group_symop_operation_xyz
x,y,z
-x,-y,-z
loop_
_atom_site_type_symbol
_atom_site_label
_atom_site_fract_x
_atom_site_fract_y
_atom_site_fract_z
Si Si1 0.776065 0.593790 0.238690
Si Si2 0.008640 0.416749 0.380528
Si Si3 0.250198 0.851382 0.186410
Si Si4 0.006479 0.281469 0.784901
Si Si5 0.318195 0.599111 0.925397
Si Si6 0.178935 0.068949 0.729084
Si Si7 0.371757 0.112192 0.959569
Si Si8 0.391628 0.288861 0.144836
O O1 0.568524 0.558246 0.554167
O O2 0.754718 0.792595 0.285263
O O3 0.849355 0.477919 0.040986
O O4 0.000000 0.500000 0.000000
O O5 0.000000 0.500000 0.500000
O O6 0.756672 0.506976 0.669541
O O7 0.193968 0.466108 0.085797
O O8 0.135511 0.214880 0.220939
O O9 0.294912 0.670092 0.065627
O O10 0.355549 0.807567 0.147986
O O11 0.000000 0.000000 0.500000
O O12 0.404640 0.920879 0.927408
O O13 0.072337 0.163054 0.778920
O O14 0.228892 0.265472 0.435152
O O15 0.847084 0.247047 0.912847
O O16 0.412445 0.905322 0.385136
O O17 0.000000 0.000000 0.000000
O O18 0.375151 0.198030 0.062282
#
# Coordination Sequence:
#
# PCOD9013354 Si02
#       8
#     2   2   2   2   2   2   2   2
#     4  10  21  41  64  92 125 171 223 262 316 403
#     4   9  21  40  63  93 131 177 216 270 335 391
#     4  12  22  36  67 100 130 169 226 278 324 396
#     4  10  21  41  69  94 126 176 224 265 325 403
#     4  11  22  40  66  93 131 176 230 261 325 403
#     4  11  24  42  67  96 133 171 214 278 343 386
#     4  11  22  42  67  96 138 169 215 285 335 387
#     4  10  21  42  67  93 132 176 221 267 332 401
#
# _framework density 22.649834999999999
#
# number of rings (size 3 to 8) (size 9 to 14) (size 15 to 20)
#    0.000    1.500    2.500    3.750    5.250    0.000 
#    0.000    8.750    2.750    0.000    0.000    0.000 
#    0.000    0.000    0.000    0.000    0.000    0.000 
#
# Total GULP energy -89104.649692 kJ/mol
# GULP energy per Si atom -5569.040606 kJ/mol
# Density = 2.259828 g / cm^3
# Si number density = 22.649835 Si / 1000 Ang^3
#
#
#
# Elastic Constant Matrix: (Units=GPa)
#
#
# Indices 1 2 3 4 5 6 
#
# 1 95.8823 14.5250 41.7104 8.1029 -19.9770 -19.2365
# 2 14.5250 84.0719 31.6326 -8.5417 1.2265 -18.8952
# 3 41.7104 31.6326 143.1260 -14.2802 -4.9688 -17.3396
# 4 8.1029 -8.5417 -14.2802 31.6238 -6.6767 -1.5545
# 5 -19.9770 1.2265 -4.9688 -6.6767 53.1242 11.9364
# 6 -19.2365 -18.8952 -17.3396 -1.5545 11.9364 25.0490
#
#
#
# Elastic Compliance Matrix: (Units=1/GPa)
#
#
# Indices 1 2 3 4 5 6 
#
# 1 0.014401 -0.000074 -0.003701 -0.004416 0.003002 0.006737
# 2 -0.000074 0.015681 -0.001725 0.003472 -0.002844 0.012149
# 3 -0.003701 -0.001725 0.009233 0.004677 -0.000527 0.002790
# 4 -0.004416 0.003472 0.004677 0.036503 0.002488 0.003546
# 5 0.003002 -0.002844 -0.000527 0.002488 0.022727 -0.010880
# 6 0.006737 0.012149 0.002790 0.003546 -0.010880 0.061596
#
#
# Mechanical properties :
#
#
# Convention : Reuss Voigt Hill
#
# Bulk Modulus (GPa) = 35.31523 55.42402 45.36962
# Shear Modulus (GPa) = 27.68903 37.64021 32.66462
#
# Velocity S-wave (km/s) = 3.50020 4.08098 3.80169
# Velocity P-wave (km/s) = 5.65339 6.83586 6.27255
#
# Compressibility (1/GPa) = 0.02831640
#
# Stress axis : x y z
#
# Youngs Moduli (GPa) = 69.44072 63.77135 108.30921
#
# Poissons Ratio (x) = 0.00471 0.40081
# Poissons Ratio (y) = 0.00513 0.18679
# Poissons Ratio (z) = 0.25697 0.10998
#
# Static dielectric constant tensor:
#      x y z
#    x 1.843600 0.035740 -0.113510 
#    y 0.035740 1.927150 -0.050420 
#    z -0.113510 -0.050420 1.831810 
# 
# From -- ./inp_files/540501.got.cif
#   From: 2010.05.17/outbox.cif.g08.bks.cpg/sg2_271_cif.got.tgz:540501.got - 2010.06.03 11:33:40.
