data_PCOD9013436
_publ_section_title
;
Structure prediction by ZEFSAII (Michael W. Deem and Ramdas Pophale) SiO2 
 PCOD9013436
Probable space group: P -1
;
_chemical_formula_sum "Si O2"
_cell_formula_units_Z 16
_cell_length_a 12.524559
_cell_length_b 12.084953
_cell_length_c 11.390877
_cell_angle_alpha 113.754902
_cell_angle_beta 78.452766
_cell_angle_gamma 44.464386
_cell_volume 717.562187
_symmetry_space_group_name_H-M "P -1"
_symmetry_group_IT_number 2
_symmetry_cell_setting 'triclinic'
loop_
_space_group_symop_operation_xyz
x,y,z
-x,-y,-z
loop_
_atom_site_type_symbol
_atom_site_label
_atom_site_fract_x
_atom_site_fract_y
_atom_site_fract_z
Si Si1 0.086697 0.454029 0.778209
Si Si2 0.637289 0.605033 0.397282
Si Si3 0.063434 0.641030 0.559438
Si Si4 0.260318 0.223296 0.219776
Si Si5 0.727818 0.363402 0.639681
Si Si6 0.755860 0.249425 0.090482
Si Si7 0.903808 0.174321 0.776454
Si Si8 0.856788 0.828978 0.188712
O O1 0.307030 0.321146 0.642852
O O2 0.144619 0.279569 0.765357
O O3 0.947056 0.557148 0.736085
O O4 0.920412 0.705867 0.998930
O O5 0.838836 0.390319 0.359344
O O6 0.653369 0.481081 0.248975
O O7 0.388877 0.860635 0.623860
O O8 0.228187 0.362498 0.378860
O O9 0.113953 0.679843 0.456995
O O10 0.806972 0.836774 0.726391
O O11 0.500000 0.000000 0.000000
O O12 0.453499 0.637585 0.783309
O O13 0.746485 0.331089 0.761696
O O14 0.855004 0.124888 0.448251
O O15 0.805328 0.198098 0.919078
O O16 0.000000 0.000000 0.000000
O O17 0.953199 0.259988 0.849426
#
# Coordination Sequence:
#
# PCOD9013436 Si02
#       8
#     2   2   2   2   2   2   2   2
#     4  10  22  38  63  97 126 170 218 267 331 399
#     4  11  22  40  63  94 132 168 220 275 330 391
#     4  10  23  39  65  96 128 171 219 266 333 399
#     4  10  21  41  64  95 132 167 211 274 330 399
#     4  11  25  45  66  96 135 178 224 279 336 400
#     4  12  26  42  68  99 133 180 231 276 336 398
#     4  11  24  44  67  95 134 177 225 279 338 398
#     4  11  21  39  65  92 128 171 217 272 333 397
#
# _framework density 22.297716000000001
#
# number of rings (size 3 to 8) (size 9 to 14) (size 15 to 20)
#    0.000    1.250    2.500    3.000    1.750    4.000 
#    0.000    5.000    0.000    0.000    0.000    0.000 
#    0.000    0.000    0.000    0.000    0.000    0.000 
#
# Total GULP energy -89424.171620 kJ/mol
# GULP energy per Si atom -5589.010726 kJ/mol
# Density = 2.224697 g / cm^3
# Si number density = 22.297716 Si / 1000 Ang^3
#
#
#
# Elastic Constant Matrix: (Units=GPa)
#
#
# Indices 1 2 3 4 5 6 
#
# 1 78.7871 19.3104 35.8719 -3.9077 -14.1771 3.6700
# 2 19.3104 56.5994 32.8256 -19.9689 -10.3636 5.7631
# 3 35.8719 32.8256 101.2216 -11.2962 -16.6423 -7.8989
# 4 -3.9077 -19.9689 -11.2962 35.2467 -2.9600 -1.6718
# 5 -14.1771 -10.3636 -16.6423 -2.9600 40.9003 -2.0486
# 6 3.6700 5.7631 -7.8989 -1.6718 -2.0486 20.2685
#
#
#
# Elastic Compliance Matrix: (Units=1/GPa)
#
#
# Indices 1 2 3 4 5 6 
#
# 1 0.016114 -0.001970 -0.005040 -0.000908 0.002764 -0.004117
# 2 -0.001970 0.029154 -0.007207 0.013917 0.004320 -0.009157
# 3 -0.005040 -0.007207 0.015375 0.001000 0.003224 0.009362
# 4 -0.000908 0.013917 0.001000 0.037020 0.006312 0.000289
# 5 0.002764 0.004320 0.003224 0.006312 0.028417 0.002921
# 6 -0.004117 -0.009157 0.009362 0.000289 0.002921 0.056655
#
#
# Mechanical properties :
#
#
# Convention : Reuss Voigt Hill
#
# Bulk Modulus (GPa) = 31.04794 45.84709 38.44752
# Shear Modulus (GPa) = 22.53214 29.18978 25.86096
#
# Velocity S-wave (km/s) = 3.18231 3.62206 3.40928
# Velocity P-wave (km/s) = 5.23997 6.17239 5.72519
#
# Compressibility (1/GPa) = 0.03220826
#
# Stress axis : x y z
#
# Youngs Moduli (GPa) = 62.05769 34.30103 65.03998
#
# Poissons Ratio (x) = 0.06756 0.32781
# Poissons Ratio (y) = 0.12223 0.46877
# Poissons Ratio (z) = 0.31278 0.24722
#
# Static dielectric constant tensor:
#      x y z
#    x 1.835990 0.022270 -0.036080 
#    y 0.022270 1.805310 -0.002000 
#    z -0.036080 -0.002000 1.803160 
# 
# From -- ./inp_files/428229.got.cif
#   From: 2010.05.17/outbox.cif.g08.bks.cpg/sg2_215_cif.got.tgz:428229.got - 2010.06.03 11:33:40.
