data_PCOD9013159
_publ_section_title
;
Structure prediction by ZEFSAII (Michael W. Deem and Ramdas Pophale) SiO2 
 PCOD9013159
Probable space group: P -1
;
_chemical_formula_sum "Si O2"
_cell_formula_units_Z 16
_cell_length_a 10.847434
_cell_length_b 14.081238
_cell_length_c 8.129351
_cell_angle_alpha 123.598488
_cell_angle_beta 52.735290
_cell_angle_gamma 90.914513
_cell_volume 721.475525
_symmetry_space_group_name_H-M "P -1"
_symmetry_group_IT_number 2
_symmetry_cell_setting 'triclinic'
loop_
_space_group_symop_operation_xyz
x,y,z
-x,-y,-z
loop_
_atom_site_type_symbol
_atom_site_label
_atom_site_fract_x
_atom_site_fract_y
_atom_site_fract_z
Si Si1 0.275402 0.628643 0.675508
Si Si2 0.304627 0.017352 0.175010
Si Si3 0.489264 0.377924 0.809098
Si Si4 0.870259 0.796487 0.817549
Si Si5 0.645700 0.246925 0.011557
Si Si6 0.271539 0.391975 0.277485
Si Si7 0.172476 0.844162 0.544196
Si Si8 0.891739 0.879527 0.214149
O O1 0.434264 0.626318 0.436234
O O2 0.350684 0.629385 0.795504
O O3 0.228715 0.522453 0.535587
O O4 0.087449 0.760588 0.963688
O O5 0.214197 0.101680 0.166519
O O6 0.209062 0.079450 0.488338
O O7 0.500000 0.000000 0.000000
O O8 0.319313 0.874644 0.018296
O O9 0.632481 0.234022 0.615258
O O10 0.500000 0.500000 0.000000
O O11 0.308119 0.400566 0.061504
O O12 0.858007 0.668408 0.661336
O O13 0.065217 0.780349 0.650986
O O14 0.796396 0.844555 0.107911
O O15 0.458973 0.291490 0.115166
O O16 0.802578 0.191711 0.701218
O O17 0.096094 0.997169 0.752593
#
# Coordination Sequence:
#
# PCOD9013159 Si02
#       8
#     2   2   2   2   2   2   2   2
#     4  11  21  40  67  91 127 169 223 260 312 391
#     4  11  24  43  63  97 133 163 213 266 332 378
#     4   9  20  39  61  90 124 166 214 251 306 384
#     4  12  23  41  68  95 138 165 208 278 326 372
#     4  10  21  41  66  89 127 171 216 266 311 389
#     4  10  23  41  61  96 128 170 215 264 326 374
#     4  10  21  41  63  93 128 164 216 259 318 383
#     4  11  25  41  66 101 124 171 221 259 322 392
#
# _framework density 22.176776
#
# number of rings (size 3 to 8) (size 9 to 14) (size 15 to 20)
#    0.000    1.500    2.500    2.250    1.750    4.000 
#    0.000    2.500    0.000    0.000    0.000    0.000 
#    0.000    0.000    0.000    0.000    0.000    0.000 
#
# Total GULP energy -89132.749596 kJ/mol
# GULP energy per Si atom -5570.796850 kJ/mol
# Density = 2.212630 g / cm^3
# Si number density = 22.176776 Si / 1000 Ang^3
#
#
#
# Elastic Constant Matrix: (Units=GPa)
#
#
# Indices 1 2 3 4 5 6 
#
# 1 54.5546 18.8577 24.7114 -4.2452 19.4028 9.6222
# 2 18.8577 99.4324 45.3784 10.9634 4.9251 11.6236
# 3 24.7114 45.3784 93.0765 5.8714 14.4735 16.7751
# 4 -4.2452 10.9634 5.8714 31.5011 1.6690 6.1485
# 5 19.4028 4.9251 14.4735 1.6690 29.8627 2.6249
# 6 9.6222 11.6236 16.7751 6.1485 2.6249 36.4796
#
#
#
# Elastic Compliance Matrix: (Units=1/GPa)
#
#
# Indices 1 2 3 4 5 6 
#
# 1 0.028038 -0.003462 -0.002774 0.007355 -0.016266 -0.005086
# 2 -0.003462 0.013784 -0.005976 -0.004270 0.003132 -0.000236
# 3 -0.002774 -0.005976 0.015886 -0.000173 -0.004522 -0.004315
# 4 0.007355 -0.004270 -0.000173 0.035740 -0.005449 -0.006132
# 5 -0.016266 0.003132 -0.004522 -0.005449 0.045771 0.002997
# 6 -0.005086 -0.000236 -0.004315 -0.006132 0.002997 0.031631
#
#
# Mechanical properties :
#
#
# Convention : Reuss Voigt Hill
#
# Bulk Modulus (GPa) = 30.04523 47.21763 38.63143
# Shear Modulus (GPa) = 24.22827 30.10974 27.16901
#
# Velocity S-wave (km/s) = 3.30889 3.68872 3.50396
# Velocity P-wave (km/s) = 5.30809 6.28330 5.81617
#
# Compressibility (1/GPa) = 0.03328315
#
# Stress axis : x y z
#
# Youngs Moduli (GPa) = 35.66581 72.54545 62.94936
#
# Poissons Ratio (x) = 0.25117 0.17462
# Poissons Ratio (y) = 0.12349 0.37621
# Poissons Ratio (z) = 0.09894 0.43356
#
# Static dielectric constant tensor:
#      x y z
#    x 1.885090 -0.064330 -0.006350 
#    y -0.064330 1.856890 -0.011380 
#    z -0.006350 -0.011380 1.887980 
# 
# From -- ./inp_files/175168.got.cif
#   From: 2010.05.17/outbox.cif.g08.bks.cpg/sg2_88_cif.got.tgz:175168.got - 2010.06.03 11:33:40.
