data_PCOD9013496
_publ_section_title
;
Structure prediction by ZEFSAII (Michael W. Deem and Ramdas Pophale) SiO2 
 PCOD9013496
Probable space group: P -1
;
_chemical_formula_sum "Si O2"
_cell_formula_units_Z 16
_cell_length_a 8.045777
_cell_length_b 11.403792
_cell_length_c 15.187159
_cell_angle_alpha 51.819160
_cell_angle_beta 128.758732
_cell_angle_gamma 135.603402
_cell_volume 721.979889
_symmetry_space_group_name_H-M "P -1"
_symmetry_group_IT_number 2
_symmetry_cell_setting 'triclinic'
loop_
_space_group_symop_operation_xyz
x,y,z
-x,-y,-z
loop_
_atom_site_type_symbol
_atom_site_label
_atom_site_fract_x
_atom_site_fract_y
_atom_site_fract_z
Si Si1 0.689673 0.703173 0.161174
Si Si2 0.011457 0.261172 0.597579
Si Si3 0.617513 0.002356 0.942918
Si Si4 0.680553 0.367369 0.546084
Si Si5 0.040840 0.635569 0.193417
Si Si6 0.220009 0.997947 0.500060
Si Si7 0.169586 0.908210 0.709932
Si Si8 0.882658 0.543076 0.858410
O O1 0.866881 0.799068 0.260226
O O2 0.415424 0.570066 0.172690
O O3 0.808897 0.612685 0.185333
O O4 0.667171 0.845199 0.031624
O O5 0.233823 0.429712 0.538329
O O6 0.879596 0.339838 0.573690
O O7 0.783030 0.104012 0.540194
O O8 0.421149 0.979628 0.814295
O O9 0.861897 0.188404 0.913610
O O10 0.500000 0.000000 0.000000
O O11 0.743154 0.347879 0.676676
O O12 0.417218 0.203291 0.496141
O O13 0.008171 0.497235 0.173506
O O14 0.948811 0.973922 0.401088
O O15 0.215021 0.883639 0.634354
O O16 0.970496 0.743679 0.778667
O O17 0.000000 0.500000 0.000000
#
# Coordination Sequence:
#
# PCOD9013496 Si02
#       8
#     2   2   2   2   2   2   2   2
#     4  11  24  42  69  98 134 176 227 273 334 416
#     4  10  22  39  66  99 132 181 223 273 349 391
#     4  12  21  43  66  91 135 174 222 278 329 402
#     4  10  21  41  64  98 139 172 225 284 329 412
#     4  11  24  42  70  96 132 179 221 278 343 395
#     4  11  22  40  64  94 135 174 230 278 333 407
#     4  11  24  39  61  96 124 171 228 270 336 402
#     4  12  24  44  66  95 137 172 222 280 338 404
#
# _framework density 22.161282
#
# number of rings (size 3 to 8) (size 9 to 14) (size 15 to 20)
#    0.000    1.000    3.750    3.000    0.000    0.500 
#    0.000    4.375    0.000    0.000    0.000    0.000 
#    0.000    0.000    0.000    0.000    0.000    0.000 
#
# Total GULP energy -89187.241254 kJ/mol
# GULP energy per Si atom -5574.202578 kJ/mol
# Density = 2.211084 g / cm^3
# Si number density = 22.161282 Si / 1000 Ang^3
#
#
#
# Elastic Constant Matrix: (Units=GPa)
#
#
# Indices 1 2 3 4 5 6 
#
# 1 60.9770 6.0342 31.9633 10.4336 -2.3590 -2.7809
# 2 6.0342 66.1027 34.4090 2.6656 -1.7310 9.7667
# 3 31.9633 34.4090 138.4681 22.2485 -3.9937 -1.1383
# 4 10.4336 2.6656 22.2485 39.3835 -4.6195 -10.6644
# 5 -2.3590 -1.7310 -3.9937 -4.6195 29.8024 4.7118
# 6 -2.7809 9.7667 -1.1383 -10.6644 4.7118 29.8528
#
#
#
# Elastic Compliance Matrix: (Units=1/GPa)
#
#
# Indices 1 2 3 4 5 6 
#
# 1 0.018963 0.000425 -0.004050 -0.002577 0.000509 0.000472
# 2 0.000425 0.018536 -0.004662 -0.000336 0.001470 -0.006555
# 3 -0.004050 -0.004662 0.010001 -0.004252 0.000090 -0.000004
# 4 -0.002577 -0.000336 -0.004252 0.031664 0.002433 0.010635
# 5 0.000509 0.001470 0.000090 0.002433 0.034870 -0.005064
# 6 0.000472 -0.006555 -0.000004 0.010635 -0.005064 0.040285
#
#
# Mechanical properties :
#
#
# Convention : Reuss Voigt Hill
#
# Bulk Modulus (GPa) = 32.33571 45.59565 38.96568
# Shear Modulus (GPa) = 27.59359 32.68381 30.13870
#
# Velocity S-wave (km/s) = 3.53246 3.84450 3.69178
# Velocity P-wave (km/s) = 5.59111 6.35028 5.98275
#
# Compressibility (1/GPa) = 0.03092556
#
# Stress axis : x y z
#
# Youngs Moduli (GPa) = 52.73484 53.94811 99.99021
#
# Poissons Ratio (x) = -0.02291 0.40498
# Poissons Ratio (y) = -0.02240 0.46613
# Poissons Ratio (z) = 0.21359 0.25149
#
# Static dielectric constant tensor:
#      x y z
#    x 1.988490 -0.041500 -0.039430 
#    y -0.041500 1.912540 -0.010480 
#    z -0.039430 -0.010480 1.818970 
# 
# From -- ./inp_files/377966.got.cif
#   From: 2010.05.17/outbox.cif.g08.bks.cpg/sg2_189_cif.got.tgz:377966.got - 2010.06.03 11:33:40.
