data_PCOD9013123
_publ_section_title
;
Structure prediction by ZEFSAII (Michael W. Deem and Ramdas Pophale) SiO2 
 PCOD9013123
Probable space group: P -1
;
_chemical_formula_sum "Si O2"
_cell_formula_units_Z 12
_cell_length_a 6.760915
_cell_length_b 11.137348
_cell_length_c 11.938127
_cell_angle_alpha 104.746248
_cell_angle_beta 53.557873
_cell_angle_gamma 121.109914
_cell_volume 617.349391
_symmetry_space_group_name_H-M "P -1"
_symmetry_group_IT_number 2
_symmetry_cell_setting 'triclinic'
loop_
_space_group_symop_operation_xyz
x,y,z
-x,-y,-z
loop_
_atom_site_type_symbol
_atom_site_label
_atom_site_fract_x
_atom_site_fract_y
_atom_site_fract_z
Si Si1 0.324902 0.065016 0.877609
Si Si2 0.809544 0.513475 0.816197
Si Si3 0.755357 0.279321 0.952493
Si Si4 0.632047 0.689032 0.232574
Si Si5 0.291426 0.772478 0.788422
Si Si6 0.631773 0.399955 0.460330
O O1 0.373864 0.934721 0.795155
O O2 0.519305 0.145292 0.936138
O O3 0.385196 0.182304 0.791465
O O4 0.000000 0.000000 0.000000
O O5 0.790364 0.414964 0.903601
O O6 0.522407 0.445151 0.830237
O O7 0.962306 0.675138 0.843360
O O8 0.036620 0.512977 0.651430
O O9 0.051068 0.278333 0.848788
O O10 0.678154 0.272704 0.107212
O O11 0.471133 0.657582 0.396133
O O12 0.447569 0.723208 0.634424
O O13 0.500000 0.500000 0.500000
#
# Coordination Sequence:
#
# PCOD9013123 Si02
#       6
#     2   2   2   2   2   2
#     4  11  24  42  62  90 126 163 202 249 308 360
#     4   9  22  38  64  91 121 155 210 244 307 352
#     4  11  21  41  66  90 123 158 207 255 300 357
#     4  11  21  40  66  87 126 164 197 255 301 358
#     4  10  22  40  61  93 124 160 205 246 306 362
#     4  10  21  41  63  91 125 160 201 253 305 356
#
# _framework density 19.437937999999999
#
# number of rings (size 3 to 8) (size 9 to 14) (size 15 to 20)
#    1.000    0.667    3.333    1.500    0.000    1.333 
#    6.000    0.833    0.000    0.000    0.000    0.000 
#    0.000    0.000    0.000    0.000    0.000    0.000 
#
# Total GULP energy -66971.359100 kJ/mol
# GULP energy per Si atom -5580.946592 kJ/mol
# Density = 1.939370 g / cm^3
# Si number density = 19.437938 Si / 1000 Ang^3
#
#
#
# Elastic Constant Matrix: (Units=GPa)
#
#
# Indices 1 2 3 4 5 6 
#
# 1 91.8843 45.4580 61.1973 1.2046 16.3417 23.7271
# 2 45.4580 115.7168 23.3834 15.0803 19.3379 13.8481
# 3 61.1973 23.3834 87.0792 4.6156 32.3992 -9.3171
# 4 1.2046 15.0803 4.6156 30.7089 -3.7928 0.6730
# 5 16.3417 19.3379 32.3992 -3.7928 37.8538 -7.3267
# 6 23.7271 13.8481 -9.3171 0.6730 -7.3267 33.8215
#
#
#
# Elastic Compliance Matrix: (Units=1/GPa)
#
#
# Indices 1 2 3 4 5 6 
#
# 1 0.060040 -0.012083 -0.050715 0.014203 0.015792 -0.048006
# 2 -0.012083 0.014004 0.009381 -0.009151 -0.010247 0.003289
# 3 -0.050715 0.009381 0.060433 -0.016091 -0.027981 0.042644
# 4 0.014203 -0.009151 -0.016091 0.040930 0.014818 -0.008255
# 5 0.015792 -0.010247 -0.027981 0.014818 0.049461 -0.004171
# 6 -0.048006 0.003289 0.042644 -0.008255 -0.004171 0.072906
#
#
# Mechanical properties :
#
#
# Convention : Reuss Voigt Hill
#
# Bulk Modulus (GPa) = 36.17663 61.63974 48.90818
# Shear Modulus (GPa) = 12.08245 31.45295 21.76770
#
# Velocity S-wave (km/s) = 2.49588 4.02695 3.35006
# Velocity P-wave (km/s) = 5.19207 7.30765 6.33874
#
# Compressibility (1/GPa) = 0.02764215
#
# Stress axis : x y z
#
# Youngs Moduli (GPa) = 16.65549 71.40724 16.54739
#
# Poissons Ratio (x) = 0.86281 0.83920
# Poissons Ratio (y) = 0.20125 -0.15522
# Poissons Ratio (z) = 0.84468 -0.66984
#
# Static dielectric constant tensor:
#      x y z
#    x 1.681750 0.016710 -0.008420 
#    y 0.016710 1.702550 0.000180 
#    z -0.008420 0.000180 1.674310 
# 
# From -- ./inp_files/68053.got.cif
#   From: 2010.05.17/outbox.cif.g08.bks.cpg/sg2_35_cif.got.tgz:68053.got - 2010.06.03 11:33:40.
