data_PCOD9013466
_publ_section_title
;
Structure prediction by ZEFSAII (Michael W. Deem and Ramdas Pophale) SiO2 
 PCOD9013466
Probable space group: P -1
;
_chemical_formula_sum "Si O2"
_cell_formula_units_Z 16
_cell_length_a 10.689289
_cell_length_b 9.260767
_cell_length_c 13.273057
_cell_angle_alpha 102.909124
_cell_angle_beta 144.776201
_cell_angle_gamma 91.006048
_cell_volume 690.321967
_symmetry_space_group_name_H-M "P -1"
_symmetry_group_IT_number 2
_symmetry_cell_setting 'triclinic'
loop_
_space_group_symop_operation_xyz
x,y,z
-x,-y,-z
loop_
_atom_site_type_symbol
_atom_site_label
_atom_site_fract_x
_atom_site_fract_y
_atom_site_fract_z
Si Si1 0.890137 0.064014 0.181238
Si Si2 0.502785 0.174902 0.219891
Si Si3 0.383882 0.128752 0.469895
Si Si4 0.260243 0.050322 0.716171
Si Si5 0.716401 0.344713 0.056781
Si Si6 0.366170 0.566426 0.189319
Si Si7 0.265268 0.532366 0.706255
Si Si8 0.382878 0.348503 0.329770
O O1 0.863056 0.232352 0.163666
O O2 0.147409 0.066005 0.367283
O O3 0.753621 0.003607 0.185526
O O4 0.762809 0.935857 0.991347
O O5 0.592817 0.285202 0.199756
O O6 0.554596 0.291624 0.366144
O O7 0.632278 0.053910 0.295399
O O8 0.561608 0.276095 0.671130
O O9 0.292003 0.201492 0.323382
O O10 0.500000 0.000000 0.500000
O O11 0.447455 0.226167 0.857594
O O12 0.000000 0.000000 0.500000
O O13 0.735362 0.475086 0.174556
O O14 0.783886 0.421661 0.003384
O O15 0.601016 0.554975 0.288667
O O16 0.261005 0.414878 0.170809
O O17 0.000000 0.500000 0.500000
O O18 0.500000 0.500000 0.500000
#
# Coordination Sequence:
#
# PCOD9013466 Si02
#       8
#     2   2   2   2   2   2   2   2
#     4  11  22  41  66  98 138 170 219 293 340 391
#     4  10  21  41  64  96 136 174 216 277 342 392
#     4  11  25  44  72  98 125 179 242 279 330 396
#     4  11  22  36  67 101 137 169 216 279 346 404
#     4  11  21  40  66 102 135 174 222 268 343 421
#     4  10  23  42  66  93 137 176 219 279 335 397
#     4  11  21  38  66  95 139 181 212 264 344 416
#     4   9  22  45  67  88 134 178 222 281 326 389
#
# _framework density 23.177589000000001
#
# number of rings (size 3 to 8) (size 9 to 14) (size 15 to 20)
#    0.000    1.500    2.500    2.625    7.000    0.500 
#    0.000    0.625   13.750    0.000    0.000    0.000 
#    0.000    0.000    0.000    0.000    0.000    0.000 
#
# Total GULP energy -89263.172310 kJ/mol
# GULP energy per Si atom -5578.948269 kJ/mol
# Density = 2.312484 g / cm^3
# Si number density = 23.177589 Si / 1000 Ang^3
#
#
#
# Elastic Constant Matrix: (Units=GPa)
#
#
# Indices 1 2 3 4 5 6 
#
# 1 83.8453 38.4327 15.8511 2.1455 -26.4288 -6.7174
# 2 38.4327 104.7102 22.0544 -2.5678 -16.1825 -11.9967
# 3 15.8511 22.0544 57.9988 -8.1103 -8.8921 -15.9908
# 4 2.1455 -2.5678 -8.1103 16.0576 3.5847 -17.8671
# 5 -26.4288 -16.1825 -8.8921 3.5847 39.4127 -4.5591
# 6 -6.7174 -11.9967 -15.9908 -17.8671 -4.5591 46.6835
#
#
#
# Elastic Compliance Matrix: (Units=1/GPa)
#
#
# Indices 1 2 3 4 5 6 
#
# 1 0.018054 -0.004920 -0.004067 -0.011220 0.009796 -0.003397
# 2 -0.004920 0.012575 -0.000343 0.008674 0.001679 0.005890
# 3 -0.004067 -0.000343 0.035522 0.053573 0.004021 0.032390
# 4 -0.011220 0.008674 0.053573 0.197151 0.001128 0.094530
# 5 0.009796 0.001679 0.004021 0.001128 0.034244 0.006994
# 6 -0.003397 0.005890 0.032390 0.094530 0.006994 0.070403
#
#
# Mechanical properties :
#
#
# Convention : Reuss Voigt Hill
#
# Bulk Modulus (GPa) = 21.05676 44.35898 32.70787
# Shear Modulus (GPa) = 12.42427 31.77852 22.10139
#
# Velocity S-wave (km/s) = 2.31778 3.70684 3.09134
# Velocity P-wave (km/s) = 4.03330 6.12382 5.18501
#
# Compressibility (1/GPa) = 0.04749068
#
# Stress axis : x y z
#
# Youngs Moduli (GPa) = 55.39081 79.52089 28.15182
#
# Poissons Ratio (x) = 0.39126 0.11449
# Poissons Ratio (y) = 0.27254 0.00965
# Poissons Ratio (z) = 0.22526 0.02727
#
# Static dielectric constant tensor:
#      x y z
#    x 1.953920 0.040370 -0.081780 
#    y 0.040370 1.948260 0.060190 
#    z -0.081780 0.060190 2.095540 
# 
# From -- ./inp_files/515820.got.cif
#   From: 2010.05.17/outbox.cif.g08.bks.cpg/sg2_258_cif.got.tgz:515820.got - 2010.06.03 11:33:40.
