data_PCOD9013557
_publ_section_title
;
Structure prediction by ZEFSAII (Michael W. Deem and Ramdas Pophale) SiO2 
 PCOD9013557
Probable space group: P -1
;
_chemical_formula_sum "Si O2"
_cell_formula_units_Z 14
_cell_length_a 24.191731
_cell_length_b 9.195401
_cell_length_c 8.454810
_cell_angle_alpha 134.073108
_cell_angle_beta 42.868156
_cell_angle_gamma 151.758181
_cell_volume 598.147131
_symmetry_space_group_name_H-M "P -1"
_symmetry_group_IT_number 2
_symmetry_cell_setting 'triclinic'
loop_
_space_group_symop_operation_xyz
x,y,z
-x,-y,-z
loop_
_atom_site_type_symbol
_atom_site_label
_atom_site_fract_x
_atom_site_fract_y
_atom_site_fract_z
Si Si1 0.731883 0.870550 0.021661
Si Si2 0.245956 0.342639 0.496065
Si Si3 0.399148 0.673374 0.870799
Si Si4 0.719789 0.142013 0.821248
Si Si5 0.879564 0.471147 0.054013
Si Si6 0.526502 0.414166 0.659208
Si Si7 0.100285 0.786239 0.626154
O O1 0.769601 0.798263 0.743464
O O2 0.681617 0.632712 0.085804
O O3 0.614539 0.794722 0.166347
O O4 0.847101 0.240700 0.076998
O O5 0.178081 0.427215 0.693701
O O6 0.394826 0.599143 0.412056
O O7 0.179803 0.099880 0.597021
O O8 0.465229 0.663041 0.591541
O O9 0.312671 0.685126 0.989205
O O10 0.500000 0.000000 0.000000
O O11 0.802315 0.213817 0.555556
O O12 0.600848 0.767862 0.787934
O O13 0.798931 0.266021 0.909230
O O14 0.021815 0.734924 0.893693
O O15 0.000000 0.500000 0.500000
#
# Coordination Sequence:
#
# PCOD9013557 Si02
#       7
#     2   2   2   2   2   2   2
#     4  12  25  37  61  97 127 154 212 261 303 356
#     4  11  22  38  68  94 121 162 211 259 299 363
#     4  12  26  42  62  90 128 174 199 243 321 381
#     4  10  21  41  65  88 123 168 207 246 306 377
#     4  11  22  39  66  96 122 160 209 263 300 360
#     4  11  23  41  61  89 125 168 205 249 308 373
#     4   9  18  40  65  92 123 159 207 255 309 358
#
# _framework density 23.405614
#
# number of rings (size 3 to 8) (size 9 to 14) (size 15 to 20)
#    0.000    1.143    7.143    1.286    2.000    0.571 
#    0.000    0.714    0.000    4.286    0.000    0.000 
#    0.000    0.000    0.000    0.000    0.000    0.000 
#
# Total GULP energy -78226.092430 kJ/mol
# GULP energy per Si atom -5587.578031 kJ/mol
# Density = 2.335234 g / cm^3
# Si number density = 23.405614 Si / 1000 Ang^3
#
#
#
# Elastic Constant Matrix: (Units=GPa)
#
#
# Indices 1 2 3 4 5 6 
#
# 1 44.3997 14.0674 25.6530 -2.1292 -7.4181 -11.1538
# 2 14.0674 71.3172 51.9577 -9.4652 -7.3999 -12.0423
# 3 25.6530 51.9577 200.4888 2.8885 -27.3870 -23.8526
# 4 -2.1292 -9.4652 2.8885 37.4050 5.9515 -2.8177
# 5 -7.4181 -7.3999 -27.3870 5.9515 25.1677 1.0523
# 6 -11.1538 -12.0423 -23.8526 -2.8177 1.0523 26.8190
#
#
#
# Elastic Compliance Matrix: (Units=1/GPa)
#
#
# Indices 1 2 3 4 5 6 
#
# 1 0.027146 -0.002376 -0.001007 0.000819 0.005629 0.009193
# 2 -0.002376 0.018997 -0.004376 0.005551 -0.001369 0.004287
# 3 -0.001007 -0.004376 0.007758 -0.002630 0.007316 0.003953
# 4 0.000819 0.005551 -0.002630 0.030000 -0.008249 0.003969
# 5 0.005629 -0.001369 0.007316 -0.008249 0.050677 0.005378
# 6 0.009193 0.004287 0.003953 0.003969 0.005378 0.046757
#
#
# Mechanical properties :
#
#
# Convention : Reuss Voigt Hill
#
# Bulk Modulus (GPa) = 26.05281 55.50688 40.77984
# Shear Modulus (GPa) = 23.84948 32.84684 28.34816
#
# Velocity S-wave (km/s) = 3.19559 3.75023 3.48396
# Velocity P-wave (km/s) = 4.97703 6.52066 5.80042
#
# Compressibility (1/GPa) = 0.03838358
#
# Stress axis : x y z
#
# Youngs Moduli (GPa) = 36.83738 52.63920 128.89550
#
# Poissons Ratio (x) = 0.12508 0.12977
# Poissons Ratio (y) = 0.08753 0.56406
# Poissons Ratio (z) = 0.03709 0.23035
#
# Static dielectric constant tensor:
#      x y z
#    x 1.958120 -0.005510 0.013330 
#    y -0.005510 1.898950 -0.017580 
#    z 0.013330 -0.017580 1.874980 
# 
# From -- ./inp_files/199220.got.cif
#   From: 2010.05.17/outbox.cif.g08.bks.cpg/sg2_100_cif.got.tgz:199220.got - 2010.06.03 11:33:40.
