data_PCOD9013499
_publ_section_title
;
Structure prediction by ZEFSAII (Michael W. Deem and Ramdas Pophale) SiO2 
 PCOD9013499
Probable space group: P -1
;
_chemical_formula_sum "Si O2"
_cell_formula_units_Z 16
_cell_length_a 12.368247
_cell_length_b 5.739333
_cell_length_c 10.833438
_cell_angle_alpha 99.791804
_cell_angle_beta 123.112729
_cell_angle_gamma 69.369672
_cell_volume 602.574358
_symmetry_space_group_name_H-M "P -1"
_symmetry_group_IT_number 2
_symmetry_cell_setting 'triclinic'
loop_
_space_group_symop_operation_xyz
x,y,z
-x,-y,-z
loop_
_atom_site_type_symbol
_atom_site_label
_atom_site_fract_x
_atom_site_fract_y
_atom_site_fract_z
Si Si1 0.755838 0.954711 0.438725
Si Si2 0.272526 0.292665 0.366703
Si Si3 0.438529 0.536441 0.662601
Si Si4 0.728730 0.531598 0.219753
Si Si5 0.795648 0.783215 0.075251
Si Si6 0.289952 0.852040 0.149600
Si Si7 0.026017 0.954379 0.670557
Si Si8 0.937401 0.261818 0.870643
O O1 0.625736 0.188901 0.407216
O O2 0.801604 0.770373 0.565689
O O3 0.710086 0.794017 0.296370
O O4 0.890811 0.033985 0.509216
O O5 0.391428 0.367236 0.517794
O O6 0.173581 0.526890 0.256165
O O7 0.308056 0.059371 0.275711
O O8 0.369653 0.562684 0.760040
O O9 0.595766 0.403973 0.769746
O O10 0.720967 0.605952 0.076362
O O11 0.876762 0.326785 0.306277
O O12 0.918284 0.677038 0.041639
O O13 0.879258 0.866679 0.244090
O O14 0.701892 0.029203 0.969337
O O15 0.144408 0.809380 0.074618
O O16 0.969081 0.018271 0.780374
#
# Coordination Sequence:
#
# PCOD9013499 Si02
#       8
#     2   2   2   2   2   2   2   2
#     4  11  22  42  68  97 130 163 208 267 322 374
#     4  11  21  42  66  98 125 166 210 262 318 376
#     4  11  25  42  63  97 130 169 209 260 315 375
#     4  11  24  41  67  94 129 166 212 259 318 382
#     4  10  24  42  64  96 126 170 211 263 311 371
#     4  12  25  43  66  90 133 173 211 257 311 381
#     4  10  21  41  64  99 126 157 207 267 321 367
#     4  10  23  40  67  97 126 161 207 268 320 367
#
# _framework density 26.552737
#
# number of rings (size 3 to 8) (size 9 to 14) (size 15 to 20)
#    0.750    0.500    2.500    2.625    0.000    9.000 
#    0.000    2.500    0.000    0.000    0.000    0.000 
#    0.000    0.000    0.000    0.000    0.000    0.000 
#
# Total GULP energy -89323.748527 kJ/mol
# GULP energy per Si atom -5582.734283 kJ/mol
# Density = 2.649230 g / cm^3
# Si number density = 26.552737 Si / 1000 Ang^3
#
#
#
# Elastic Constant Matrix: (Units=GPa)
#
#
# Indices 1 2 3 4 5 6 
#
# 1 63.7122 27.3498 21.9129 -6.6515 -2.0319 -9.9387
# 2 27.3498 93.4086 13.1667 -1.9665 8.3883 -15.6610
# 3 21.9129 13.1667 77.0746 5.5810 4.2594 12.3528
# 4 -6.6515 -1.9665 5.5810 40.4619 2.7314 -7.7679
# 5 -2.0319 8.3883 4.2594 2.7314 39.3507 -17.9314
# 6 -9.9387 -15.6610 12.3528 -7.7679 -17.9314 38.7708
#
#
#
# Elastic Compliance Matrix: (Units=1/GPa)
#
#
# Indices 1 2 3 4 5 6 
#
# 1 0.023377 -0.004139 -0.008835 0.006660 0.008164 0.012246
# 2 -0.004139 0.013056 -0.001849 0.001160 -0.000739 0.004692
# 3 -0.008835 -0.001849 0.018958 -0.006310 -0.008080 -0.014053
# 4 0.006660 0.001160 -0.006310 0.028734 0.004201 0.011886
# 5 0.008164 -0.000739 -0.008080 0.004201 0.036679 0.022174
# 6 0.012246 0.004692 -0.014053 0.011886 0.022174 0.047941
#
#
# Mechanical properties :
#
#
# Convention : Reuss Voigt Hill
#
# Bulk Modulus (GPa) = 38.84328 39.89490 39.36909
# Shear Modulus (GPa) = 24.15777 35.16777 29.66277
#
# Velocity S-wave (km/s) = 3.01957 3.64325 3.34597
# Velocity P-wave (km/s) = 5.17856 5.72320 5.45768
#
# Compressibility (1/GPa) = 0.02574448
#
# Stress axis : x y z
#
# Youngs Moduli (GPa) = 42.77706 76.59521 52.74861
#
# Poissons Ratio (x) = 0.31703 0.46605
# Poissons Ratio (y) = 0.17706 0.09752
# Poissons Ratio (z) = 0.37794 0.14160
#
# Static dielectric constant tensor:
#      x y z
#    x 2.228630 0.032000 -0.086940 
#    y 0.032000 2.084880 0.078870 
#    z -0.086940 0.078870 2.115260 
# 
# From -- ./inp_files/441201.got.cif
#   From: 2010.05.17/outbox.cif.g08.bks.cpg/sg2_221_cif.got.tgz:441201.got - 2010.06.03 11:33:40.
