data_PCOD9013305
_publ_section_title
;
Structure prediction by ZEFSAII (Michael W. Deem and Ramdas Pophale) SiO2 
 PCOD9013305
Probable space group: P -1
;
_chemical_formula_sum "Si O2"
_cell_formula_units_Z 15
_cell_length_a 7.045019
_cell_length_b 17.749529
_cell_length_c 7.771426
_cell_angle_alpha 94.736663
_cell_angle_beta 53.738222
_cell_angle_gamma 121.415237
_cell_volume 631.709408
_symmetry_space_group_name_H-M "P -1"
_symmetry_group_IT_number 2
_symmetry_cell_setting 'triclinic'
loop_
_space_group_symop_operation_xyz
x,y,z
-x,-y,-z
loop_
_atom_site_type_symbol
_atom_site_label
_atom_site_fract_x
_atom_site_fract_y
_atom_site_fract_z
Si Si1 0.203488 0.308586 0.885644
Si Si2 0.074353 0.888622 0.870376
Si Si3 0.000000 0.000000 0.500000
Si Si4 0.969919 0.161293 0.499895
Si Si5 0.841554 0.417431 0.709879
Si Si6 0.725713 0.517816 0.034831
Si Si7 0.619756 0.927017 0.037923
Si Si8 0.743893 0.643432 0.520577
O O1 0.501577 0.347867 0.834932
O O2 0.096132 0.372478 0.005551
O O3 0.291900 0.329809 0.643797
O O4 0.978584 0.200590 0.027252
O O5 0.160745 0.888225 0.625657
O O6 0.286592 0.983695 0.877808
O O7 0.778545 0.882137 0.017053
O O8 0.902291 0.892558 0.508113
O O9 0.759147 0.963791 0.782287
O O10 0.722028 0.143203 0.759779
O O11 0.189905 0.272089 0.377870
O O12 0.000000 0.500000 0.500000
O O13 0.987857 0.363858 0.623387
O O14 0.879357 0.472189 0.874458
O O15 0.525141 0.456580 0.289589
O O16 0.500000 0.500000 0.000000
#
# Coordination Sequence:
#
# PCOD9013305 Si02
#       8
#     2   2   1   2   2   2   2   2
#     4  11  23  42  63  95 131 167 219 271 317 390
#     4  10  22  40  63  92 129 169 217 270 323 384
#     4  10  22  38  62  90 130 162 212 274 318 374
#     4  11  22  39  67  91 131 171 216 264 327 386
#     4  11  23  41  66  88 126 173 211 264 326 376
#     4  10  21  41  64  89 129 168 210 267 325 373
#     4  10  21  41  64  93 125 173 217 262 330 386
#     4  12  24  42  65  98 129 172 215 267 325 387
#
# _framework density 23.745094999999999
#
# number of rings (size 3 to 8) (size 9 to 14) (size 15 to 20)
#    0.000    1.333    2.667    4.400    0.000    1.600 
#    0.000    1.333    0.000    0.000    0.000    0.000 
#    0.000    0.000    0.000    0.000    0.000    0.000 
#
# Total GULP energy -83666.965116 kJ/mol
# GULP energy per Si atom -5577.797674 kJ/mol
# Density = 2.369105 g / cm^3
# Si number density = 23.745095 Si / 1000 Ang^3
#
#
#
# Elastic Constant Matrix: (Units=GPa)
#
#
# Indices 1 2 3 4 5 6 
#
# 1 48.2272 20.4403 2.3669 10.1953 -8.1763 -4.8649
# 2 20.4403 167.1950 28.2607 7.6694 -7.9508 -27.3406
# 3 2.3669 28.2607 85.9108 15.4876 12.8060 8.5979
# 4 10.1953 7.6694 15.4876 31.3927 1.2809 2.4467
# 5 -8.1763 -7.9508 12.8060 1.2809 17.7707 6.7294
# 6 -4.8649 -27.3406 8.5979 2.4467 6.7294 29.9629
#
#
#
# Elastic Compliance Matrix: (Units=1/GPa)
#
#
# Indices 1 2 3 4 5 6 
#
# 1 0.025295 -0.002064 -0.000299 -0.008059 0.011353 0.000418
# 2 -0.002064 0.008269 -0.003785 -0.000190 0.002562 0.007736
# 3 -0.000299 -0.003785 0.016161 -0.006097 -0.011087 -0.005152
# 4 -0.008059 -0.000190 -0.006097 0.037773 -0.001153 -0.002558
# 5 0.011353 0.002562 -0.011087 -0.001153 0.074202 -0.009209
# 6 0.000418 0.007736 -0.005152 -0.002558 -0.009209 0.044257
#
#
# Mechanical properties :
#
#
# Convention : Reuss Voigt Hill
#
# Bulk Modulus (GPa) = 26.71783 44.82986 35.77384
# Shear Modulus (GPa) = 21.67046 32.50959 27.09003
#
# Velocity S-wave (km/s) = 3.02425 3.70416 3.38134
# Velocity P-wave (km/s) = 4.84470 6.10041 5.50846
#
# Compressibility (1/GPa) = 0.03742818
#
# Stress axis : x y z
#
# Youngs Moduli (GPa) = 39.53306 120.93746 61.87879
#
# Poissons Ratio (x) = 0.24961 0.01852
# Poissons Ratio (y) = 0.08159 0.23421
# Poissons Ratio (z) = 0.01183 0.45775
#
# Static dielectric constant tensor:
#      x y z
#    x 1.970590 0.014380 0.037950 
#    y 0.014380 1.867150 0.043760 
#    z 0.037950 0.043760 1.893140 
# 
# From -- ./inp_files/197110.got.cif
#   From: 2010.05.17/outbox.cif.g08.bks.cpg/sg2_99_cif.got.tgz:197110.got - 2010.06.03 11:33:40.
