data_PCOD9013784
_publ_section_title
;
Structure prediction by ZEFSAII (Michael W. Deem and Ramdas Pophale) SiO2 
 PCOD9013784
Probable space group: P -1
;
_chemical_formula_sum "Si O2"
_cell_formula_units_Z 14
_cell_length_a 9.447314
_cell_length_b 27.236386
_cell_length_c 9.979658
_cell_angle_alpha 154.059286
_cell_angle_beta 42.414590
_cell_angle_gamma 143.806547
_cell_volume 662.534019
_symmetry_space_group_name_H-M "P -1"
_symmetry_group_IT_number 2
_symmetry_cell_setting 'triclinic'
loop_
_space_group_symop_operation_xyz
x,y,z
-x,-y,-z
loop_
_atom_site_type_symbol
_atom_site_label
_atom_site_fract_x
_atom_site_fract_y
_atom_site_fract_z
Si Si1 0.540462 0.646771 0.077782
Si Si2 0.752593 0.492820 0.692685
Si Si3 0.527246 0.245163 0.871431
Si Si4 0.916146 0.582718 0.085599
Si Si5 0.396152 0.209897 0.348237
Si Si6 0.864446 0.815869 0.786093
Si Si7 0.595733 0.021694 0.136993
O O1 0.584947 0.705106 0.043229
O O2 0.638345 0.755237 0.390556
O O3 0.651944 0.554235 0.806035
O O4 0.250477 0.558804 0.084689
O O5 0.574445 0.345407 0.488471
O O6 0.000000 0.500000 0.500000
O O7 0.800787 0.570416 0.988878
O O8 0.545881 0.124744 0.501750
O O9 0.799338 0.358723 0.986005
O O10 0.359257 0.203984 0.017040
O O11 0.877399 0.683960 0.448095
O O12 0.171359 0.153831 0.267733
O O13 0.502885 0.112996 0.047665
O O14 0.117039 0.921351 0.926269
O O15 0.500000 0.000000 0.000000
#
# Coordination Sequence:
#
# PCOD9013784 Si02
#       7
#     2   2   2   2   2   2   2
#     4  11  21  42  68  94 135 174 207 266 328 382
#     4  11  22  40  69 102 128 172 220 261 320 392
#     4  11  25  42  67 100 130 170 217 267 322 385
#     4  10  21  41  65  96 135 169 212 262 328 383
#     4  11  21  45  65  90 133 174 210 264 322 380
#     4  11  23  43  67  94 130 171 218 267 319 383
#     4  11  25  45  67  93 129 172 219 269 322 377
#
# _framework density 21.130991000000002
#
# number of rings (size 3 to 8) (size 9 to 14) (size 15 to 20)
#    0.000    1.143    4.286    2.571    0.000    2.857 
#    5.143    0.000    0.000    0.000    0.000    0.000 
#    0.000    0.000    0.000    0.000    0.000    0.000 
#
# Total GULP energy -78240.252897 kJ/mol
# GULP energy per Si atom -5588.589493 kJ/mol
# Density = 2.108290 g / cm^3
# Si number density = 21.130991 Si / 1000 Ang^3
#
#
#
# Elastic Constant Matrix: (Units=GPa)
#
#
# Indices 1 2 3 4 5 6 
#
# 1 122.9359 30.7883 38.3702 18.3060 10.0672 0.3565
# 2 30.7883 45.8833 38.6585 -5.9265 -1.4616 11.6266
# 3 38.3702 38.6585 82.4691 9.0378 3.8953 3.3757
# 4 18.3060 -5.9265 9.0378 28.2105 -1.1837 -9.5971
# 5 10.0672 -1.4616 3.8953 -1.1837 38.0195 6.0388
# 6 0.3565 11.6266 3.3757 -9.5971 6.0388 34.4665
#
#
#
# Elastic Compliance Matrix: (Units=1/GPa)
#
#
# Indices 1 2 3 4 5 6 
#
# 1 0.012504 -0.010456 0.000347 -0.010165 -0.004269 0.001281
# 2 -0.010456 0.054218 -0.022952 0.022023 0.009717 -0.011504
# 3 0.000347 -0.022952 0.024127 -0.012010 -0.004261 0.002778
# 4 -0.010165 0.022023 -0.012010 0.053393 0.005191 0.007810
# 5 -0.004269 0.009717 -0.004261 0.005191 0.029441 -0.006530
# 6 0.001281 -0.011504 0.002778 0.007810 -0.006530 0.035928
#
#
# Mechanical properties :
#
#
# Convention : Reuss Voigt Hill
#
# Bulk Modulus (GPa) = 40.44266 51.88023 46.16144
# Shear Modulus (GPa) = 17.60716 29.70405 23.65561
#
# Velocity S-wave (km/s) = 2.88972 3.75335 3.34948
# Velocity P-wave (km/s) = 5.50586 6.58700 6.07055
#
# Compressibility (1/GPa) = 0.02472637
#
# Stress axis : x y z
#
# Youngs Moduli (GPa) = 79.97272 18.44420 41.44741
#
# Poissons Ratio (x) = 0.19286 -0.01438
# Poissons Ratio (y) = 0.83623 0.95129
# Poissons Ratio (z) = -0.02775 0.42333
#
# Static dielectric constant tensor:
#      x y z
#    x 1.785690 0.016900 0.007190 
#    y 0.016900 1.758960 0.024530 
#    z 0.007190 0.024530 1.792740 
# 
# From -- ./inp_files/226696.got.cif
#   From: 2010.05.17/outbox.cif.g08.bks.cpg/sg2_114_cif.got.tgz:226696.got - 2010.06.03 11:33:40.
