data_PCOD9013476
_publ_section_title
;
Structure prediction by ZEFSAII (Michael W. Deem and Ramdas Pophale) SiO2 
 PCOD9013476
Probable space group: P -1
;
_chemical_formula_sum "Si O2"
_cell_formula_units_Z 14
_cell_length_a 17.840211
_cell_length_b 7.759250
_cell_length_c 13.503233
_cell_angle_alpha 142.754191
_cell_angle_beta 148.364257
_cell_angle_gamma 41.294680
_cell_volume 577.236710
_symmetry_space_group_name_H-M "P -1"
_symmetry_group_IT_number 2
_symmetry_cell_setting 'triclinic'
loop_
_space_group_symop_operation_xyz
x,y,z
-x,-y,-z
loop_
_atom_site_type_symbol
_atom_site_label
_atom_site_fract_x
_atom_site_fract_y
_atom_site_fract_z
Si Si1 0.198651 0.941684 0.779262
Si Si2 0.841321 0.933538 0.800622
Si Si3 0.115638 0.724325 0.372625
Si Si4 0.371586 0.484724 0.427525
Si Si5 0.485757 0.115408 0.145730
Si Si6 0.656217 0.707693 0.322616
Si Si7 0.594882 0.131811 0.746751
O O1 0.169860 0.877659 0.600804
O O2 0.251561 0.620743 0.741184
O O3 0.321191 0.128972 0.000997
O O4 0.053252 0.112767 0.749081
O O5 0.866571 0.611549 0.729427
O O6 0.749671 0.890235 0.578233
O O7 0.737039 0.168774 0.863688
O O8 0.000000 0.000000 0.000000
O O9 0.212306 0.697542 0.368674
O O10 0.500000 0.500000 0.500000
O O11 0.351415 0.159314 0.258234
O O12 0.460930 0.583667 0.664701
O O13 0.592249 0.898002 0.242381
O O14 0.500000 0.000000 0.000000
O O15 0.518634 0.661581 0.214168
O O16 0.500000 0.000000 0.500000
#
# Coordination Sequence:
#
# PCOD9013476 Si02
#       7
#     2   2   2   2   2   2   2
#     4  10  21  41  65  91 138 178 219 275 338 408
#     4   9  19  38  67 101 134 172 217 282 351 400
#     4   9  20  41  66  95 136 177 213 279 350 395
#     4  11  21  41  67  95 132 169 226 283 332 394
#     4  12  24  40  68  98 130 184 235 273 329 403
#     4  10  21  41  64  97 135 175 227 278 328 403
#     4   9  19  36  65  91 132 170 210 279 340 384
#
# _framework density 24.253481000000001
#
# number of rings (size 3 to 8) (size 9 to 14) (size 15 to 20)
#    0.000    2.000    2.857    1.286    0.000    2.286 
#    0.000    2.857    0.000    0.000    0.000    1.000 
#    0.000    0.000    0.000    0.000    0.000    0.000 
#
# Total GULP energy -78113.853305 kJ/mol
# GULP energy per Si atom -5579.560950 kJ/mol
# Density = 2.419828 g / cm^3
# Si number density = 24.253481 Si / 1000 Ang^3
#
#
#
# Elastic Constant Matrix: (Units=GPa)
#
#
# Indices 1 2 3 4 5 6 
#
# 1 144.4331 52.8898 29.9999 -32.7487 13.8453 -21.6750
# 2 52.8898 117.9760 14.0007 -30.8532 6.4303 -20.9290
# 3 29.9999 14.0007 91.4642 -18.7078 20.4489 0.8047
# 4 -32.7487 -30.8532 -18.7078 34.8323 -10.6400 12.7813
# 5 13.8453 6.4303 20.4489 -10.6400 40.2404 -7.9562
# 6 -21.6750 -20.9290 0.8047 12.7813 -7.9562 46.8586
#
#
#
# Elastic Compliance Matrix: (Units=1/GPa)
#
#
# Indices 1 2 3 4 5 6 
#
# 1 0.009662 -0.002398 -0.001674 0.005252 -0.000318 0.001940
# 2 -0.002398 0.011955 0.000287 0.008074 0.001349 0.002252
# 3 -0.001674 0.000287 0.013900 0.005647 -0.005712 -0.003395
# 4 0.005252 0.008074 0.005647 0.047755 0.005442 -0.006163
# 5 -0.000318 0.001349 -0.005712 0.005442 0.029906 0.004147
# 6 0.001940 0.002252 -0.003395 -0.006163 0.004147 0.025688
#
#
# Mechanical properties :
#
#
# Convention : Reuss Voigt Hill
#
# Bulk Modulus (GPa) = 35.78208 60.85043 48.31625
# Shear Modulus (GPa) = 32.10242 41.51846 36.81044
#
# Velocity S-wave (km/s) = 3.64211 4.14195 3.90004
# Velocity P-wave (km/s) = 5.69842 6.92951 6.34390
#
# Compressibility (1/GPa) = 0.02794695
#
# Stress axis : x y z
#
# Youngs Moduli (GPa) = 103.50010 83.64776 71.94139
#
# Poissons Ratio (x) = 0.20057 0.12041
# Poissons Ratio (y) = 0.24818 -0.02062
# Poissons Ratio (z) = 0.17323 -0.02397
#
# Static dielectric constant tensor:
#      x y z
#    x 2.007630 0.041580 -0.047160 
#    y 0.041580 2.052620 -0.003460 
#    z -0.047160 -0.003460 1.989420 
# 
# From -- ./inp_files/205376.got.cif
#   From: 2010.05.17/outbox.cif.g08.bks.cpg/sg2_103_cif.got.tgz:205376.got - 2010.06.03 11:33:40.
