data_PCOD9013814
_publ_section_title
;
Structure prediction by ZEFSAII (Michael W. Deem and Ramdas Pophale) SiO2 
 PCOD9013814
Probable space group: P -1
;
_chemical_formula_sum "Si O2"
_cell_formula_units_Z 16
_cell_length_a 11.701440
_cell_length_b 9.335803
_cell_length_c 15.128489
_cell_angle_alpha 92.917421
_cell_angle_beta 150.203772
_cell_angle_gamma 99.120858
_cell_volume 748.653402
_symmetry_space_group_name_H-M "P -1"
_symmetry_group_IT_number 2
_symmetry_cell_setting 'triclinic'
loop_
_space_group_symop_operation_xyz
x,y,z
-x,-y,-z
loop_
_atom_site_type_symbol
_atom_site_label
_atom_site_fract_x
_atom_site_fract_y
_atom_site_fract_z
Si Si1 0.921213 0.062411 0.538666
Si Si2 0.101133 0.421316 0.745207
Si Si3 0.867979 0.324745 0.869351
Si Si4 0.326332 0.920482 0.117143
Si Si5 0.731875 0.998726 0.100103
Si Si6 0.617481 0.383333 0.536329
Si Si7 0.521151 0.367849 0.130685
Si Si8 0.676850 0.758963 0.834986
O O1 0.022482 0.247926 0.640275
O O2 0.021404 0.980443 0.679229
O O3 0.626327 0.004498 0.326429
O O4 0.000000 0.000000 0.500000
O O5 0.227328 0.548792 0.755980
O O6 0.875989 0.436051 0.651938
O O7 0.329140 0.440159 0.967227
O O8 0.751968 0.220543 0.873291
O O9 0.678027 0.306221 0.661617
O O10 0.000000 0.500000 0.000000
O O11 0.086184 0.275978 0.981366
O O12 0.244413 0.057448 0.094908
O O13 0.228490 0.882909 0.950505
O O14 0.619022 0.818236 0.986580
O O15 0.500000 0.000000 0.000000
O O16 0.500000 0.500000 0.500000
O O17 0.408226 0.277586 0.323802
O O18 0.542286 0.360194 0.250763
#
# Coordination Sequence:
#
# PCOD9013814 Si02
#       8
#     2   2   2   2   2   2   2   2
#     4  11  22  42  67 101 139 175 226 283 339 409
#     4  10  21  43  70  99 140 177 223 281 342 403
#     4  12  27  47  66  96 138 178 234 287 335 411
#     4  11  25  44  69  96 133 188 224 281 346 407
#     4  10  21  41  65  98 137 172 226 274 338 413
#     4  12  25  45  68 100 139 181 230 280 340 410
#     4   9  21  40  72 100 132 180 215 284 349 394
#     4  11  23  46  70  99 135 178 230 282 346 408
#
# _framework density 21.371704999999999
#
# number of rings (size 3 to 8) (size 9 to 14) (size 15 to 20)
#    0.000    1.250    5.000    0.375    0.000    4.000 
#    2.250    0.000    0.000    0.000    0.000    0.000 
#    0.000    0.000    0.000    0.000    0.000    0.000 
#
# Total GULP energy -89237.055162 kJ/mol
# GULP energy per Si atom -5577.315948 kJ/mol
# Density = 2.132306 g / cm^3
# Si number density = 21.371705 Si / 1000 Ang^3
#
#
#
# Elastic Constant Matrix: (Units=GPa)
#
#
# Indices 1 2 3 4 5 6 
#
# 1 94.5722 41.0212 32.3162 -11.2380 -18.4277 3.4754
# 2 41.0212 80.8329 34.0405 -19.1515 -10.2574 10.7815
# 3 32.3162 34.0405 75.8010 -34.9927 -20.2234 8.4473
# 4 -11.2380 -19.1515 -34.9927 35.2219 3.6968 -1.2521
# 5 -18.4277 -10.2574 -20.2234 3.6968 44.5350 -17.4479
# 6 3.4754 10.7815 8.4473 -1.2521 -17.4479 44.1706
#
#
#
# Elastic Compliance Matrix: (Units=1/GPa)
#
#
# Indices 1 2 3 4 5 6 
#
# 1 0.015185 -0.006532 -0.004223 -0.003246 0.004221 0.002782
# 2 -0.006532 0.018528 -0.003506 0.004572 -0.001969 -0.003986
# 3 -0.004223 -0.003506 0.031698 0.027235 0.009431 -0.000377
# 4 -0.003246 0.004572 0.027235 0.056131 0.006700 -0.001831
# 5 0.004221 -0.001969 0.009431 0.006700 0.031825 0.011106
# 6 0.002782 -0.003986 -0.000377 -0.001831 0.011106 0.027801
#
#
# Mechanical properties :
#
#
# Convention : Reuss Voigt Hill
#
# Bulk Modulus (GPa) = 27.10912 51.77353 39.44132
# Shear Modulus (GPa) = 22.52403 34.37404 28.44904
#
# Velocity S-wave (km/s) = 3.24993 4.01483 3.65246
# Velocity P-wave (km/s) = 5.17638 6.76532 6.02347
#
# Compressibility (1/GPa) = 0.03688795
#
# Stress axis : x y z
#
# Youngs Moduli (GPa) = 65.85557 53.97333 31.54761
#
# Poissons Ratio (x) = 0.35257 0.13322
# Poissons Ratio (y) = 0.43019 0.11061
# Poissons Ratio (z) = 0.27810 0.18923
#
# Static dielectric constant tensor:
#      x y z
#    x 1.836790 -0.035640 -0.026850 
#    y -0.035640 1.836610 0.042540 
#    z -0.026850 0.042540 1.779170 
# 
# From -- ./inp_files/515715.got.cif
#   From: 2010.05.17/outbox.cif.g08.bks.cpg/sg2_258_cif.got.tgz:515715.got - 2010.06.03 11:33:40.
