data_PCOD9013158
_publ_section_title
;
Structure prediction by ZEFSAII (Michael W. Deem and Ramdas Pophale) SiO2 
 PCOD9013158
Probable space group: P -1
;
_chemical_formula_sum "Si O2"
_cell_formula_units_Z 16
_cell_length_a 17.980991
_cell_length_b 19.599710
_cell_length_c 14.273149
_cell_angle_alpha 160.224603
_cell_angle_beta 152.075221
_cell_angle_gamma 37.821722
_cell_volume 769.140605
_symmetry_space_group_name_H-M "P -1"
_symmetry_group_IT_number 2
_symmetry_cell_setting 'triclinic'
loop_
_space_group_symop_operation_xyz
x,y,z
-x,-y,-z
loop_
_atom_site_type_symbol
_atom_site_label
_atom_site_fract_x
_atom_site_fract_y
_atom_site_fract_z
Si Si1 0.150764 0.832432 0.112870
Si Si2 0.900110 0.755458 0.590193
Si Si3 0.761633 0.491263 0.765662
Si Si4 0.597794 0.905377 0.409825
Si Si5 0.328678 0.885150 0.949681
Si Si6 0.009188 0.224638 0.482007
Si Si7 0.542437 0.709681 0.709995
Si Si8 0.567772 0.142945 0.411205
O O1 0.253254 0.760927 0.217792
O O2 0.279746 0.904032 0.263618
O O3 0.110306 0.049526 0.379945
O O4 0.982237 0.701647 0.706921
O O5 0.710335 0.760924 0.386836
O O6 0.947090 0.666123 0.429284
O O7 0.000000 0.000000 0.000000
O O8 0.751191 0.270445 0.422937
O O9 0.704683 0.631994 0.806209
O O10 0.616675 0.451506 0.630547
O O11 0.927158 0.602923 0.145744
O O12 0.500000 0.000000 0.500000
O O13 0.462886 0.798824 0.044534
O O14 0.181830 0.891321 0.864512
O O15 0.435254 0.089278 0.278907
O O16 0.495696 0.736185 0.585416
O O17 0.569376 0.924058 0.077869
#
# Coordination Sequence:
#
# PCOD9013158 Si02
#       8
#     2   2   2   2   2   2   2   2
#     4   9  16  28  47  70  96 127 156 197 241 278
#     4   8  16  25  43  69  97 123 157 195 243 270
#     4  10  19  30  50  72  96 128 159 196 242 281
#     4   9  15  26  43  72  97 119 158 202 234 270
#     4  10  19  28  48  74  99 125 160 196 241 282
#     4  10  17  30  45  72 104 125 154 200 236 284
#     4   9  18  31  51  69  94 125 164 199 233 286
#     4   9  17  32  49  71  93 126 163 197 237 280
#
# _framework density 20.802439
#
# number of rings (size 3 to 8) (size 9 to 14) (size 15 to 20)
#    0.000    3.000    1.250    2.625    5.250    0.000 
#    0.000    0.625    2.750    0.750    0.000    4.375 
#    0.000    0.000    0.000    0.000    0.000    0.000 
#
# Total GULP energy -89099.209156 kJ/mol
# GULP energy per Si atom -5568.700572 kJ/mol
# Density = 2.075509 g / cm^3
# Si number density = 20.802439 Si / 1000 Ang^3
#
#
#
# Elastic Constant Matrix: (Units=GPa)
#
#
# Indices 1 2 3 4 5 6 
#
# 1 80.5521 35.2649 19.6105 -22.0626 -0.0471 -1.3127
# 2 35.2649 83.7117 29.0795 -31.7007 3.0856 25.7675
# 3 19.6105 29.0795 49.8978 -33.9535 -9.3549 10.8672
# 4 -22.0626 -31.7007 -33.9535 38.1863 3.9220 -6.0118
# 5 -0.0471 3.0856 -9.3549 3.9220 23.8776 -11.8571
# 6 -1.3127 25.7675 10.8672 -6.0118 -11.8571 33.0556
#
#
#
# Elastic Compliance Matrix: (Units=1/GPa)
#
#
# Indices 1 2 3 4 5 6 
#
# 1 0.017918 -0.010223 -0.000889 0.002255 0.006446 0.011695
# 2 -0.010223 0.034847 0.000408 0.020722 -0.023913 -0.032513
# 3 -0.000889 0.000408 0.055705 0.047264 0.010958 -0.006140
# 4 0.002255 0.020722 0.047264 0.084505 -0.007419 -0.018894
# 5 0.006446 -0.023913 0.010958 -0.007419 0.069864 0.039005
# 6 0.011695 -0.032513 -0.006140 -0.018894 0.039005 0.068635
#
#
# Mechanical properties :
#
#
# Convention : Reuss Voigt Hill
#
# Bulk Modulus (GPa) = 11.48596 42.45240 26.96918
# Shear Modulus (GPa) = 13.09234 27.70433 20.39833
#
# Velocity S-wave (km/s) = 2.51144 3.65332 3.13481
# Velocity P-wave (km/s) = 3.73406 6.18445 5.10835
#
# Compressibility (1/GPa) = 0.08706284
#
# Stress axis : x y z
#
# Youngs Moduli (GPa) = 55.80911 28.69648 17.95168
#
# Poissons Ratio (x) = 0.29337 0.01595
# Poissons Ratio (y) = 0.57056 -0.00733
# Poissons Ratio (z) = 0.04959 -0.01171
#
# Static dielectric constant tensor:
#      x y z
#    x 1.810150 0.019320 -0.011970 
#    y 0.019320 1.776510 -0.023350 
#    z -0.011970 -0.023350 1.817080 
# 
# From -- ./inp_files/539231.got.cif
#   From: 2010.05.17/outbox.cif.g08.bks.cpg/sg2_270_cif.got.tgz:539231.got - 2010.06.03 11:33:40.
