data_PCOD9013734
_publ_section_title
;
Structure prediction by ZEFSAII (Michael W. Deem and Ramdas Pophale) SiO2 
 PCOD9013734
Probable space group: P -1
;
_chemical_formula_sum "Si O2"
_cell_formula_units_Z 16
_cell_length_a 8.730576
_cell_length_b 8.649511
_cell_length_c 17.234939
_cell_angle_alpha 132.065726
_cell_angle_beta 87.740414
_cell_angle_gamma 63.249169
_cell_volume 739.898789
_symmetry_space_group_name_H-M "P -1"
_symmetry_group_IT_number 2
_symmetry_cell_setting 'triclinic'
loop_
_space_group_symop_operation_xyz
x,y,z
-x,-y,-z
loop_
_atom_site_type_symbol
_atom_site_label
_atom_site_fract_x
_atom_site_fract_y
_atom_site_fract_z
Si Si1 0.917304 0.309393 0.597477
Si Si2 0.304971 0.111480 0.863375
Si Si3 0.698534 0.426073 0.005870
Si Si4 0.574374 0.547600 0.222524
Si Si5 0.601291 0.753675 0.855665
Si Si6 0.670751 0.873735 0.520503
Si Si7 0.429846 0.345082 0.412205
Si Si8 0.929150 0.061753 0.112351
O O1 0.823415 0.486844 0.738918
O O2 0.742728 0.463133 0.585646
O O3 0.103929 0.293054 0.567838
O O4 0.000000 0.000000 0.500000
O O5 0.231451 0.412548 0.974787
O O6 0.170476 0.068061 0.900711
O O7 0.521342 0.927202 0.837255
O O8 0.372506 0.944451 0.725318
O O9 0.653783 0.529086 0.129984
O O10 0.500000 0.500000 0.000000
O O11 0.872605 0.101546 0.895249
O O12 0.502601 0.373722 0.165115
O O13 0.393177 0.850441 0.348366
O O14 0.756774 0.385857 0.226490
O O15 0.500000 0.000000 0.000000
O O16 0.651176 0.722068 0.537738
O O17 0.500000 0.000000 0.500000
O O18 0.500000 0.500000 0.500000
O O19 0.000000 0.000000 0.000000
#
# Coordination Sequence:
#
# PCOD9013734 Si02
#       8
#     2   2   2   2   2   2   2   2
#     4  11  23  46  75 105 144 186 239 299 358 431
#     4  10  21  41  65  94 136 176 226 291 345 416
#     4  11  21  40  63  97 135 176 225 283 351 416
#     4  10  21  43  64  93 140 175 230 292 345 424
#     4  10  21  41  69 101 140 181 228 288 357 422
#     4  12  25  46  71 101 140 188 241 301 359 424
#     4  11  25  46  70 102 137 182 243 300 361 421
#     4   9  21  40  64  91 132 180 224 274 344 421
#
# _framework density 21.624578
#
# number of rings (size 3 to 8) (size 9 to 14) (size 15 to 20)
#    0.000    1.500    2.500    2.250    3.500    0.000 
#   18.000    0.000    0.000    0.000    0.000    0.000 
#    0.000    0.000    0.000    0.000    0.000    0.000 
#
# Total GULP energy -89087.252247 kJ/mol
# GULP energy per Si atom -5567.953265 kJ/mol
# Density = 2.157536 g / cm^3
# Si number density = 21.624578 Si / 1000 Ang^3
#
#
#
# Elastic Constant Matrix: (Units=GPa)
#
#
# Indices 1 2 3 4 5 6 
#
# 1 111.5565 44.0952 43.7132 2.5724 -9.6531 5.1980
# 2 44.0952 100.4714 26.3222 13.3800 -1.1302 0.7702
# 3 43.7132 26.3222 116.4500 10.8065 -4.3061 6.8383
# 4 2.5724 13.3800 10.8065 28.8345 2.0635 -6.9471
# 5 -9.6531 -1.1302 -4.3061 2.0635 37.2973 -0.8172
# 6 5.1980 0.7702 6.8383 -6.9471 -0.8172 37.8349
#
#
#
# Elastic Compliance Matrix: (Units=1/GPa)
#
#
# Indices 1 2 3 4 5 6 
#
# 1 0.012488 -0.004773 -0.003689 0.002182 0.002530 -0.000496
# 2 -0.004773 0.012929 -0.000622 -0.005417 -0.000627 -0.000503
# 3 -0.003689 -0.000622 0.010613 -0.003897 0.000421 -0.002105
# 4 0.002182 -0.005417 -0.003897 0.040517 -0.002118 0.007909
# 5 0.002530 -0.000627 0.000421 -0.002118 0.027609 -0.000204
# 6 -0.000496 -0.000503 -0.002105 0.007909 -0.000204 0.028337
#
#
# Mechanical properties :
#
#
# Convention : Reuss Voigt Hill
#
# Bulk Modulus (GPa) = 55.97902 61.85989 58.91945
# Shear Modulus (GPa) = 31.92558 35.08314 33.50436
#
# Velocity S-wave (km/s) = 3.84651 4.03224 3.94047
# Velocity P-wave (km/s) = 6.75799 7.09556 6.92883
#
# Compressibility (1/GPa) = 0.01786384
#
# Stress axis : x y z
#
# Youngs Moduli (GPa) = 80.07898 77.34666 94.21980
#
# Poissons Ratio (x) = 0.36915 0.34754
# Poissons Ratio (y) = 0.38219 0.05858
# Poissons Ratio (z) = 0.29538 0.04809
#
# Static dielectric constant tensor:
#      x y z
#    x 1.839750 0.001040 0.002380 
#    y 0.001040 1.899160 -0.005160 
#    z 0.002380 -0.005160 1.937450 
# 
# From -- ./inp_files/556553.got.cif
#   From: 2010.05.17/outbox.cif.g08.bks.cpg/sg2_279_cif.got.tgz:556553.got - 2010.06.03 11:33:40.
