data_PCOD9013979
_publ_section_title
;
Structure prediction by ZEFSAII (Michael W. Deem and Ramdas Pophale) SiO2 
 PCOD9013979
Probable space group: P -1
;
_chemical_formula_sum "Si O2"
_cell_formula_units_Z 14
_cell_length_a 13.454208
_cell_length_b 6.626918
_cell_length_c 13.078521
_cell_angle_alpha 84.906427
_cell_angle_beta 32.141815
_cell_angle_gamma 94.535711
_cell_volume 591.164533
_symmetry_space_group_name_H-M "P -1"
_symmetry_group_IT_number 2
_symmetry_cell_setting 'triclinic'
loop_
_space_group_symop_operation_xyz
x,y,z
-x,-y,-z
loop_
_atom_site_type_symbol
_atom_site_label
_atom_site_fract_x
_atom_site_fract_y
_atom_site_fract_z
Si Si1 0.326927 0.521718 0.720543
Si Si2 0.952577 0.740746 0.306243
Si Si3 0.020434 0.268061 0.484049
Si Si4 0.643869 0.923166 0.801059
Si Si5 0.100046 0.080554 0.018227
Si Si6 0.442710 0.133867 0.347915
Si Si7 0.178366 0.697900 0.651995
O O1 0.500000 0.500000 0.500000
O O2 0.392556 0.718459 0.731098
O O3 0.183898 0.576326 0.759516
O O4 0.262840 0.296807 0.842298
O O5 0.009441 0.811140 0.368533
O O6 0.741532 0.777241 0.469924
O O7 0.906756 0.489016 0.344953
O O8 0.109679 0.875782 0.082688
O O9 0.230336 0.239541 0.267894
O O10 0.000000 0.500000 0.500000
O O11 0.829289 0.123484 0.600481
O O12 0.530239 0.841505 0.798621
O O13 0.500000 0.000000 0.000000
O O14 0.969438 0.169137 0.205522
O O15 0.000000 0.000000 0.000000
O O16 0.377851 0.883306 0.444396
#
# Coordination Sequence:
#
# PCOD9013979 Si02
#       7
#     2   2   2   2   2   2   2
#     4  12  22  40  62  95 129 171 215 266 331 389
#     4  10  21  41  66  93 126 174 217 266 334 395
#     4  10  22  44  73  97 133 179 229 283 343 399
#     4  10  23  45  67 100 138 173 227 285 342 405
#     4  11  23  40  60  89 133 169 218 265 316 406
#     4  10  22  40  64  96 130 169 216 274 332 397
#     4  11  21  40  64  88 130 172 211 265 328 394
#
# _framework density 23.68207
#
# number of rings (size 3 to 8) (size 9 to 14) (size 15 to 20)
#    0.000    1.429    2.857    2.571    0.000    2.857 
#    2.571    0.000    0.000    0.000    0.000    0.000 
#    0.000    0.000    0.000    0.000    0.000    0.000 
#
# Total GULP energy -78114.363062 kJ/mol
# GULP energy per Si atom -5579.597362 kJ/mol
# Density = 2.362817 g / cm^3
# Si number density = 23.682070 Si / 1000 Ang^3
#
#
#
# Elastic Constant Matrix: (Units=GPa)
#
#
# Indices 1 2 3 4 5 6 
#
# 1 70.0002 11.7452 13.8058 1.7822 6.8699 19.8633
# 2 11.7452 152.9210 48.9586 8.0804 7.2945 11.5224
# 3 13.8058 48.9586 92.0155 11.2920 20.0396 -1.5504
# 4 1.7822 8.0804 11.2920 50.5993 -5.7778 -2.2357
# 5 6.8699 7.2945 20.0396 -5.7778 26.6985 4.8364
# 6 19.8633 11.5224 -1.5504 -2.2357 4.8364 48.5900
#
#
#
# Elastic Compliance Matrix: (Units=1/GPa)
#
#
# Indices 1 2 3 4 5 6 
#
# 1 0.016829 0.000051 -0.002264 -0.000573 -0.001530 -0.006838
# 2 0.000051 0.008150 -0.004731 -0.000155 0.001691 -0.002280
# 3 -0.002264 -0.004731 0.017022 -0.004227 -0.012475 0.003638
# 4 -0.000573 -0.000155 -0.004227 0.021679 0.007993 0.000338
# 5 -0.001530 0.001691 -0.012475 0.007993 0.049335 -0.004716
# 6 -0.006838 -0.002280 0.003638 0.000338 -0.004716 0.024517
#
#
# Mechanical properties :
#
#
# Convention : Reuss Voigt Hill
#
# Bulk Modulus (GPa) = 35.57303 51.55066 43.56184
# Shear Modulus (GPa) = 31.09653 41.20601 36.15127
#
# Velocity S-wave (km/s) = 3.62758 4.17582 3.91132
# Velocity P-wave (km/s) = 5.70959 6.71305 6.23155
#
# Compressibility (1/GPa) = 0.02811119
#
# Stress axis : x y z
#
# Youngs Moduli (GPa) = 59.42256 122.70677 58.74877
#
# Poissons Ratio (x) = -0.00621 0.13298
# Poissons Ratio (y) = -0.00301 0.27796
# Poissons Ratio (z) = 0.13450 0.58057
#
# Static dielectric constant tensor:
#      x y z
#    x 1.791950 0.104680 0.079310 
#    y 0.104680 1.758600 -0.198160 
#    z 0.079310 -0.198160 1.897650 
# 
# From -- ./inp_files/288141.got.cif
#   From: 2010.05.17/outbox.cif.g08.bks.cpg/sg2_145_cif.got.tgz:288141.got - 2010.06.03 11:33:40.
