data_PCOD9013150
_publ_section_title
;
Structure prediction by ZEFSAII (Michael W. Deem and Ramdas Pophale) SiO2 
 PCOD9013150
Probable space group: P -1
;
_chemical_formula_sum "Si O2"
_cell_formula_units_Z 16
_cell_length_a 19.275841
_cell_length_b 15.335368
_cell_length_c 7.918709
_cell_angle_alpha 66.219745
_cell_angle_beta 123.812320
_cell_angle_gamma 158.206344
_cell_volume 671.437286
_symmetry_space_group_name_H-M "P -1"
_symmetry_group_IT_number 2
_symmetry_cell_setting 'triclinic'
loop_
_space_group_symop_operation_xyz
x,y,z
-x,-y,-z
loop_
_atom_site_type_symbol
_atom_site_label
_atom_site_fract_x
_atom_site_fract_y
_atom_site_fract_z
Si Si1 0.364279 0.670972 0.764008
Si Si2 0.339145 0.874539 0.025891
Si Si3 0.001006 0.154154 0.612641
Si Si4 0.855207 0.656289 0.706080
Si Si5 0.879545 0.917197 0.066962
Si Si6 0.553487 0.184659 0.568715
Si Si7 0.557885 0.642940 0.598862
Si Si8 0.881578 0.389669 0.601776
O O1 0.454163 0.741920 0.645880
O O2 0.236168 0.631604 0.555725
O O3 0.189130 0.406717 0.781678
O O4 0.552652 0.908199 0.956878
O O5 0.360082 0.832261 0.256324
O O6 0.085883 0.607975 0.836652
O O7 0.500000 0.000000 0.000000
O O8 0.012390 0.211089 0.396199
O O9 0.074775 0.121943 0.714953
O O10 0.768363 0.917369 0.579681
O O11 0.719566 0.415172 0.743769
O O12 0.657458 0.523122 0.539217
O O13 0.020308 0.878095 0.891182
O O14 0.637076 0.681829 0.852341
O O15 0.000000 0.000000 0.000000
O O16 0.297244 0.883501 0.437657
O O17 0.500000 0.500000 0.500000
O O18 0.000000 0.500000 0.500000
#
# Coordination Sequence:
#
# PCOD9013150 Si02
#       8
#     2   2   2   2   2   2   2   2
#     4  10  23  42  58  90 125 156 199 253 301 357
#     4  11  21  37  63  89 120 160 201 248 303 355
#     4  10  23  43  63  91 129 161 203 256 303 369
#     4  11  23  43  64  91 127 163 203 254 309 363
#     4  10  21  41  63  93 123 159 206 253 303 365
#     4  10  24  40  61  88 124 159 197 253 303 358
#     4  11  23  41  64  91 121 166 203 251 312 355
#     4  11  21  39  60  90 117 158 204 243 299 358
#
# _framework density 23.829476
#
# number of rings (size 3 to 8) (size 9 to 14) (size 15 to 20)
#    0.000    1.500    5.000    1.875    1.750    5.500 
#    2.250    2.500    0.000    0.000    0.000    0.000 
#    0.000    0.000    0.000    0.000    0.000    0.000 
#
# Total GULP energy -89071.965338 kJ/mol
# GULP energy per Si atom -5566.997834 kJ/mol
# Density = 2.377524 g / cm^3
# Si number density = 23.829476 Si / 1000 Ang^3
#
#
#
# Elastic Constant Matrix: (Units=GPa)
#
#
# Indices 1 2 3 4 5 6 
#
# 1 0.3754 -2.2325 7.5125 -1.2784 -22.7724 -29.6852
# 2 -2.2325 134.0120 31.0371 25.0622 -22.2544 -27.4264
# 3 7.5125 31.0371 75.3264 36.2408 -7.4384 5.0110
# 4 -1.2784 25.0622 36.2408 41.0858 -7.6093 -15.5797
# 5 -22.7724 -22.2544 -7.4384 -7.6093 35.1996 13.2467
# 6 -29.6852 -27.4264 5.0110 -15.5797 13.2467 40.0244
#
#
#
# Elastic Compliance Matrix: (Units=1/GPa)
#
#
# Indices 1 2 3 4 5 6 
#
# 1 -0.016529 -0.005883 0.014649 -0.020087 -0.006735 -0.023714
# 2 -0.005883 0.008305 -0.000110 -0.005405 0.000617 -0.000967
# 3 0.014649 -0.000110 0.021283 -0.017023 0.011036 -0.002153
# 4 -0.020087 -0.005405 -0.017023 0.041101 -0.012505 0.003667
# 5 -0.006735 0.000617 0.011036 -0.012505 0.032148 -0.021462
# 6 -0.023714 -0.000967 -0.002153 0.003667 -0.021462 0.015534
#
#
# Mechanical properties :
#
#
# Convention : Reuss Voigt Hill
#
# Bulk Modulus (GPa) = 32.92503 31.37199 32.14851
# Shear Modulus (GPa) = 52.82472 34.82175 43.82323
#
# Velocity S-wave (km/s) = 4.71338 3.82683 4.29305
# Velocity P-wave (km/s) = 6.59304 5.72013 6.17204
#
# Compressibility (1/GPa) = 0.03037203
#
# Stress axis : x y z
#
# Youngs Moduli (GPa) = -60.50145 120.41459 46.98634
#
# Poissons Ratio (x) = 0.70843 -0.68832
# Poissons Ratio (y) = -0.35595 0.00515
# Poissons Ratio (z) = 0.88631 0.01319
#
# Static dielectric constant tensor:
#      x y z
#    x 2.162200 -0.224970 -0.374980 
#    y -0.224970 2.207960 0.348320 
#    z -0.374980 0.348320 2.519160 
# 
# From -- ./inp_files/354818.got.cif
#   From: 2010.05.17/outbox.cif.g08.bks.cpg/sg2_178_cif.got.tgz:354818.got - 2010.06.03 11:33:40.
