data_PCOD9013344
_publ_section_title
;
Structure prediction by ZEFSAII (Michael W. Deem and Ramdas Pophale) SiO2 
 PCOD9013344
Probable space group: P -1
;
_chemical_formula_sum "Si O2"
_cell_formula_units_Z 14
_cell_length_a 10.267961
_cell_length_b 6.998722
_cell_length_c 14.694385
_cell_angle_alpha 123.390681
_cell_angle_beta 113.289286
_cell_angle_gamma 41.289057
_cell_volume 581.464331
_symmetry_space_group_name_H-M "P -1"
_symmetry_group_IT_number 2
_symmetry_cell_setting 'triclinic'
loop_
_space_group_symop_operation_xyz
x,y,z
-x,-y,-z
loop_
_atom_site_type_symbol
_atom_site_label
_atom_site_fract_x
_atom_site_fract_y
_atom_site_fract_z
Si Si1 0.980778 0.819199 0.129396
Si Si2 0.562790 0.611664 0.846725
Si Si3 0.761113 0.810080 0.207004
Si Si4 0.542719 0.114102 0.764071
Si Si5 0.324505 0.869233 0.018786
Si Si6 0.952183 0.021961 0.363412
Si Si7 0.672817 0.490810 0.557222
O O1 0.214335 0.562055 0.125066
O O2 0.896996 0.681411 0.119964
O O3 0.874317 0.985971 0.048396
O O4 0.927877 0.062121 0.258372
O O5 0.443241 0.834194 0.785518
O O6 0.439159 0.846346 0.959445
O O7 0.551325 0.347833 0.777576
O O8 0.673511 0.684768 0.196366
O O9 0.875213 0.848585 0.317140
O O10 0.593764 0.832840 0.646940
O O11 0.699016 0.962224 0.851539
O O12 0.500000 0.500000 0.000000
O O13 0.811785 0.339726 0.466320
O O14 0.177635 0.769093 0.391126
O O15 0.500000 0.500000 0.500000
#
# Coordination Sequence:
#
# PCOD9013344 Si02
#       7
#     2   2   2   2   2   2   2
#     4   9  19  39  62  88 124 166 200 256 320 362
#     4  10  21  41  64  91 131 164 205 261 315 371
#     4   9  20  41  60  89 130 155 208 262 306 369
#     4  11  22  40  66  94 122 173 211 252 322 374
#     4   9  21  40  60  93 132 160 207 264 311 373
#     4   9  21  38  63  89 122 167 200 263 312 360
#     4  11  20  40  63  92 126 163 214 259 309 374
#
# _framework density 24.077144000000001
#
# number of rings (size 3 to 8) (size 9 to 14) (size 15 to 20)
#    0.857    1.429    1.429    0.857    0.000    4.571 
#   10.286    3.571    0.000    0.000    0.000    0.000 
#    0.000    0.000    0.000    0.000    0.000    0.000 
#
# Total GULP energy -78075.796333 kJ/mol
# GULP energy per Si atom -5576.842595 kJ/mol
# Density = 2.402234 g / cm^3
# Si number density = 24.077144 Si / 1000 Ang^3
#
#
#
# Elastic Constant Matrix: (Units=GPa)
#
#
# Indices 1 2 3 4 5 6 
#
# 1 88.9897 51.1068 11.0656 1.9269 25.9993 -16.3661
# 2 51.1068 122.4406 53.2287 -13.0963 27.0223 -20.1266
# 3 11.0656 53.2287 127.2337 -3.5714 17.4902 6.2510
# 4 1.9269 -13.0963 -3.5714 44.5977 -6.0600 13.1455
# 5 25.9993 27.0223 17.4902 -6.0600 31.9983 -5.2267
# 6 -16.3661 -20.1266 6.2510 13.1455 -5.2267 39.7546
#
#
#
# Elastic Compliance Matrix: (Units=1/GPa)
#
#
# Indices 1 2 3 4 5 6 
#
# 1 0.018771 -0.006004 0.002096 -0.005337 -0.011587 0.004600
# 2 -0.006004 0.014772 -0.005340 0.002336 -0.003481 0.004617
# 3 0.002096 -0.005340 0.010604 -0.000145 -0.003661 -0.003941
# 4 -0.005337 0.002336 -0.000145 0.026821 0.006041 -0.009066
# 5 -0.011587 -0.003481 -0.003661 0.006041 0.046449 -0.001848
# 6 0.004600 0.004617 -0.003941 -0.009066 -0.001848 0.032760
#
#
# Mechanical properties :
#
#
# Convention : Reuss Voigt Hill
#
# Bulk Modulus (GPa) = 38.98460 63.27404 51.12932
# Shear Modulus (GPa) = 28.21286 38.15432 33.18359
#
# Velocity S-wave (km/s) = 3.42683 3.98511 3.71647
# Velocity P-wave (km/s) = 5.64661 6.89286 6.30063
#
# Compressibility (1/GPa) = 0.02565116
#
# Stress axis : x y z
#
# Youngs Moduli (GPa) = 53.27229 67.69625 94.30189
#
# Poissons Ratio (x) = 0.40645 -0.19768
# Poissons Ratio (y) = 0.31985 0.50362
# Poissons Ratio (z) = -0.11167 0.36153
#
# Static dielectric constant tensor:
#      x y z
#    x 1.991770 0.008270 -0.020130 
#    y 0.008270 1.939650 0.001580 
#    z -0.020130 0.001580 2.045410 
# 
# From -- ./inp_files/565592.got.cif
#   From: 2010.05.17/outbox.cif.g08.bks.cpg/sg2_283_cif.got.tgz:565592.got - 2010.06.03 11:33:40.
