data_PCOD9013980
_publ_section_title
;
Structure prediction by ZEFSAII (Michael W. Deem and Ramdas Pophale) SiO2 
 PCOD9013980
Probable space group: P -1
;
_chemical_formula_sum "Si O2"
_cell_formula_units_Z 14
_cell_length_a 13.398415
_cell_length_b 10.245771
_cell_length_c 8.167973
_cell_angle_alpha 114.281467
_cell_angle_beta 136.652008
_cell_angle_gamma 83.632798
_cell_volume 669.120054
_symmetry_space_group_name_H-M "P -1"
_symmetry_group_IT_number 2
_symmetry_cell_setting 'triclinic'
loop_
_space_group_symop_operation_xyz
x,y,z
-x,-y,-z
loop_
_atom_site_type_symbol
_atom_site_label
_atom_site_fract_x
_atom_site_fract_y
_atom_site_fract_z
Si Si1 0.347909 0.334328 0.832692
Si Si2 0.690415 0.344979 0.742878
Si Si3 0.819753 0.923075 0.271852
Si Si4 0.822354 0.412288 0.269347
Si Si5 0.204669 0.768551 0.516712
Si Si6 0.151763 0.330763 0.036669
Si Si7 0.583000 0.595545 0.392662
O O1 0.233502 0.185252 0.691620
O O2 0.263696 0.460922 0.771206
O O3 0.414921 0.315432 0.727119
O O4 0.490449 0.420606 0.161397
O O5 0.704872 0.258120 0.549558
O O6 0.790660 0.518542 0.923214
O O7 0.519556 0.349177 0.572534
O O8 0.757254 0.307794 0.977384
O O9 0.750106 0.059049 0.280486
O O10 0.785993 0.801880 0.024270
O O11 0.000000 0.000000 0.500000
O O12 0.797490 0.326912 0.369675
O O13 0.000000 0.500000 0.500000
O O14 0.029730 0.722106 0.215259
O O15 0.243279 0.379396 0.337652
#
# Coordination Sequence:
#
# PCOD9013980 Si02
#       7
#     2   2   2   2   2   2   2
#     4  10  21  41  66  93 127 171 217 263 314 385
#     4  11  22  39  64  96 124 169 219 265 313 377
#     4  10  21  42  61  94 134 168 205 263 329 385
#     4  11  20  37  64  94 128 162 214 272 312 367
#     4  11  24  40  64  98 135 163 207 274 334 365
#     4  11  20  40  67  94 124 168 219 261 314 386
#     4  10  22  38  68  95 121 168 228 260 304 381
#
# _framework density 20.923000999999999
#
# number of rings (size 3 to 8) (size 9 to 14) (size 15 to 20)
#    0.000    1.429    4.286    2.571    2.000    0.000 
#    2.571    2.857    0.000    0.000    0.000    0.000 
#    0.000    0.000    0.000    0.000    0.000    0.000 
#
# Total GULP energy -78060.523884 kJ/mol
# GULP energy per Si atom -5575.751706 kJ/mol
# Density = 2.087538 g / cm^3
# Si number density = 20.923001 Si / 1000 Ang^3
#
#
#
# Elastic Constant Matrix: (Units=GPa)
#
#
# Indices 1 2 3 4 5 6 
#
# 1 110.7823 49.0264 13.1133 6.7704 -23.9390 13.9700
# 2 49.0264 104.9684 26.3623 8.0837 -12.8700 5.0199
# 3 13.1133 26.3623 63.4882 -16.8388 -10.5076 2.6505
# 4 6.7704 8.0837 -16.8388 28.0298 3.0488 -2.6269
# 5 -23.9390 -12.8700 -10.5076 3.0488 38.7457 5.8355
# 6 13.9700 5.0199 2.6505 -2.6269 5.8355 28.8355
#
#
#
# Elastic Compliance Matrix: (Units=1/GPa)
#
#
# Indices 1 2 3 4 5 6 
#
# 1 0.014387 -0.004911 -0.000170 -0.003884 0.008756 -0.008225
# 2 -0.004911 0.014061 -0.006571 -0.006879 0.000422 -0.000177
# 3 -0.000170 -0.006571 0.023084 0.015500 0.002759 -0.000042
# 4 -0.003884 -0.006879 0.015500 0.049180 -0.005441 0.007236
# 5 0.008756 0.000422 0.002759 -0.005441 0.034345 -0.012015
# 6 -0.008225 -0.000177 -0.000042 0.007236 -0.012015 0.041790
#
#
# Mechanical properties :
#
#
# Convention : Reuss Voigt Hill
#
# Bulk Modulus (GPa) = 35.42699 50.69366 43.06033
# Shear Modulus (GPa) = 23.85946 31.83798 27.84872
#
# Velocity S-wave (km/s) = 3.38056 3.90510 3.65226
# Velocity P-wave (km/s) = 5.67507 6.67939 6.19761
#
# Compressibility (1/GPa) = 0.02822707
#
# Stress axis : x y z
#
# Youngs Moduli (GPa) = 69.50819 71.12064 43.31975
#
# Poissons Ratio (x) = 0.34925 0.00737
# Poissons Ratio (y) = 0.34133 0.28467
# Poissons Ratio (z) = 0.01183 0.46736
#
# Static dielectric constant tensor:
#      x y z
#    x 1.828350 -0.022560 -0.043340 
#    y -0.022560 1.764460 -0.035510 
#    z -0.043340 -0.035510 1.802440 
# 
# From -- ./inp_files/304034.got.cif
#   From: 2010.05.17/outbox.cif.g08.bks.cpg/sg2_153_cif.got.tgz:304034.got - 2010.06.03 11:33:40.
