data_PCOD9013903
_publ_section_title
;
Structure prediction by ZEFSAII (Michael W. Deem and Ramdas Pophale) SiO2 
 PCOD9013903
Probable space group: P -1
;
_chemical_formula_sum "Si O2"
_cell_formula_units_Z 14
_cell_length_a 10.077141
_cell_length_b 12.421295
_cell_length_c 6.426501
_cell_angle_alpha 85.069850
_cell_angle_beta 46.022208
_cell_angle_gamma 90.741667
_cell_volume 573.754632
_symmetry_space_group_name_H-M "P -1"
_symmetry_group_IT_number 2
_symmetry_cell_setting 'triclinic'
loop_
_space_group_symop_operation_xyz
x,y,z
-x,-y,-z
loop_
_atom_site_type_symbol
_atom_site_label
_atom_site_fract_x
_atom_site_fract_y
_atom_site_fract_z
Si Si1 0.055346 0.823272 0.182093
Si Si2 0.699199 0.486493 0.878005
Si Si3 0.256355 0.671414 0.773149
Si Si4 0.651682 0.661961 0.218818
Si Si5 0.887859 0.589138 0.305423
Si Si6 0.395468 0.937718 0.929615
Si Si7 0.276636 0.111481 0.695765
O O1 0.198385 0.791940 0.849667
O O2 0.936431 0.705540 0.355453
O O3 0.909057 0.900817 0.240734
O O4 0.198925 0.865487 0.199371
O O5 0.734035 0.595126 0.960195
O O6 0.500000 0.500000 0.000000
O O7 0.698337 0.381910 0.043427
O O8 0.847129 0.494876 0.530718
O O9 0.061753 0.601210 0.955616
O O10 0.431614 0.665770 0.439374
O O11 0.700652 0.594723 0.380155
O O12 0.735842 0.782495 0.164495
O O13 0.551685 0.873894 0.656156
O O14 0.324980 0.019992 0.819945
O O15 0.500000 0.000000 0.000000
#
# Coordination Sequence:
#
# PCOD9013903 Si02
#       7
#     2   2   2   2   2   2   2
#     4   9  21  41  67  92 134 167 211 269 316 389
#     4  12  24  39  64  97 131 171 219 268 314 375
#     4  10  21  41  66  89 130 173 213 259 318 372
#     4  11  22  43  65  90 128 176 213 265 319 378
#     4   9  22  42  61  88 131 169 212 270 307 381
#     4  11  23  41  71  96 126 165 211 269 331 392
#     4  10  22  43  65  94 128 167 216 264 326 387
#
# _framework density 24.400675
#
# number of rings (size 3 to 8) (size 9 to 14) (size 15 to 20)
#    0.857    0.857    2.857    1.286    0.000    4.571 
#    2.571    5.714    0.000    0.000    0.000    0.000 
#    0.000    0.000    0.000    0.000    0.000    0.000 
#
# Total GULP energy -78019.501810 kJ/mol
# GULP energy per Si atom -5572.821558 kJ/mol
# Density = 2.434514 g / cm^3
# Si number density = 24.400675 Si / 1000 Ang^3
#
#
#
# Elastic Constant Matrix: (Units=GPa)
#
#
# Indices 1 2 3 4 5 6 
#
# 1 161.8356 32.2240 24.9403 17.6550 -20.4105 8.9447
# 2 32.2240 47.3121 4.8829 14.9477 7.8769 12.0638
# 3 24.9403 4.8829 77.7818 6.1086 -10.0785 1.7467
# 4 17.6550 14.9477 6.1086 21.0934 -0.3876 -2.9638
# 5 -20.4105 7.8769 -10.0785 -0.3876 26.4482 7.3855
# 6 8.9447 12.0638 1.7467 -2.9638 7.3855 50.7628
#
#
#
# Elastic Compliance Matrix: (Units=1/GPa)
#
#
# Indices 1 2 3 4 5 6 
#
# 1 0.009119 -0.006250 -0.001118 -0.002933 0.008860 -0.001543
# 2 -0.006250 0.036336 -0.000264 -0.021647 -0.014185 -0.006725
# 3 -0.001118 -0.000264 0.014125 -0.003034 0.004864 -0.001111
# 4 -0.002933 -0.021647 -0.003034 0.067443 0.001361 0.009505
# 5 0.008860 -0.014185 0.004864 0.001361 0.052393 -0.005901
# 6 -0.001543 -0.006725 -0.001111 0.009505 -0.005901 0.023021
#
#
# Mechanical properties :
#
#
# Convention : Reuss Voigt Hill
#
# Bulk Modulus (GPa) = 22.56579 45.66933 34.11756
# Shear Modulus (GPa) = 21.50784 34.65304 28.08044
#
# Velocity S-wave (km/s) = 2.97213 3.77260 3.39603
# Velocity P-wave (km/s) = 4.58761 6.14278 5.42125
#
# Compressibility (1/GPa) = 0.04431487
#
# Stress axis : x y z
#
# Youngs Moduli (GPa) = 109.66453 27.52099 70.79578
#
# Poissons Ratio (x) = 0.17201 0.07918
# Poissons Ratio (y) = 0.68542 0.01868
# Poissons Ratio (z) = 0.12265 0.00726
#
# Static dielectric constant tensor:
#      x y z
#    x 1.975230 0.027730 -0.011140 
#    y 0.027730 2.068270 0.052460 
#    z -0.011140 0.052460 1.999450 
# 
# From -- ./inp_files/38509.got.cif
#   From: 2010.05.17/outbox.cif.g08.bks.cpg/sg2_20_cif.got.tgz:38509.got - 2010.06.03 11:33:40.
