data_PCOD9013239
_publ_section_title
;
Structure prediction by ZEFSAII (Michael W. Deem and Ramdas Pophale) SiO2 
 PCOD9013239
Probable space group: P -1
;
_chemical_formula_sum "Si O2"
_cell_formula_units_Z 16
_cell_length_a 8.953849
_cell_length_b 25.927785
_cell_length_c 8.942726
_cell_angle_alpha 23.867819
_cell_angle_beta 47.726066
_cell_angle_gamma 45.583350
_cell_volume 596.173557
_symmetry_space_group_name_H-M "P -1"
_symmetry_group_IT_number 2
_symmetry_cell_setting 'triclinic'
loop_
_space_group_symop_operation_xyz
x,y,z
-x,-y,-z
loop_
_atom_site_type_symbol
_atom_site_label
_atom_site_fract_x
_atom_site_fract_y
_atom_site_fract_z
Si Si1 0.259726 0.510004 0.675641
Si Si2 0.543752 0.124097 0.409145
Si Si3 0.236887 0.989704 0.813664
Si Si4 0.988517 0.749480 0.878872
Si Si5 0.684103 0.613182 0.326865
Si Si6 0.614591 0.304810 0.454296
Si Si7 0.349498 0.251314 0.495481
Si Si8 0.933844 0.197237 0.984460
O O1 0.500000 0.500000 0.500000
O O2 0.186743 0.489745 0.609865
O O3 0.162119 0.657344 0.410599
O O4 0.248033 0.393022 0.104476
O O5 0.409624 0.024965 0.712638
O O6 0.504168 0.160761 0.512020
O O7 0.422923 0.260830 0.041519
O O8 0.794874 0.102468 0.278184
O O9 0.180880 0.108479 0.418905
O O10 0.331947 0.836205 0.119051
O O11 0.000000 0.000000 0.000000
O O12 0.166501 0.698502 0.765726
O O13 0.844019 0.652061 0.227475
O O14 0.092083 0.773379 0.899555
O O15 0.506001 0.587573 0.626119
O O16 0.463888 0.286251 0.470492
O O17 0.178813 0.172031 0.854390
#
# Coordination Sequence:
#
# PCOD9013239 Si02
#       8
#     2   2   2   2   2   2   2   2
#     4  11  22  45  67  94 134 176 214 275 332 384
#     4  10  22  42  66  94 136 170 218 273 323 389
#     4   9  22  42  70  97 132 177 217 265 341 384
#     4  10  21  41  63  98 134 169 215 276 317 391
#     4  10  22  40  66  94 126 169 224 260 331 382
#     4  11  21  43  68  93 136 170 217 277 324 387
#     4  11  23  41  65  99 133 173 221 267 326 395
#     4  12  22  42  68  93 138 173 216 275 327 387
#
# _framework density 26.837821999999999
#
# number of rings (size 3 to 8) (size 9 to 14) (size 15 to 20)
#    0.000    1.500    5.000    0.375    0.000    7.000 
#    2.250    3.125    0.000    0.000    0.000    0.000 
#    0.000    0.000    0.000    0.000    0.000    0.000 
#
# Total GULP energy -89474.827925 kJ/mol
# GULP energy per Si atom -5592.176745 kJ/mol
# Density = 2.677674 g / cm^3
# Si number density = 26.837822 Si / 1000 Ang^3
#
#
#
# Elastic Constant Matrix: (Units=GPa)
#
#
# Indices 1 2 3 4 5 6 
#
# 1 137.4154 19.9939 35.0036 9.8401 -22.1533 -6.7864
# 2 19.9939 75.3558 34.1842 9.7612 -8.7585 2.8054
# 3 35.0036 34.1842 86.4769 13.6320 -14.9551 -0.2208
# 4 9.8401 9.7612 13.6320 35.2638 -9.8796 -8.4031
# 5 -22.1533 -8.7585 -14.9551 -9.8796 52.5541 5.1391
# 6 -6.7864 2.8054 -0.2208 -8.4031 5.1391 31.9126
#
#
#
# Elastic Compliance Matrix: (Units=1/GPa)
#
#
# Indices 1 2 3 4 5 6 
#
# 1 0.008569 -0.000798 -0.002696 -0.000067 0.002558 0.001444
# 2 -0.000798 0.016570 -0.005733 -0.002574 0.000548 -0.002432
# 3 -0.002696 -0.005733 0.015796 -0.003530 0.001855 -0.001188
# 4 -0.000067 -0.002574 -0.003530 0.033580 0.004031 0.008381
# 5 0.002558 0.000548 0.001855 0.004031 0.021671 -0.001920
# 6 0.001444 -0.002432 -0.001188 0.008381 -0.001920 0.034364
#
#
# Mechanical properties :
#
#
# Convention : Reuss Voigt Hill
#
# Bulk Modulus (GPa) = 44.48375 53.06793 48.77584
# Shear Modulus (GPa) = 31.94929 37.95054 34.94991
#
# Velocity S-wave (km/s) = 3.45404 3.76449 3.61260
# Velocity P-wave (km/s) = 5.70248 6.22187 5.96783
#
# Compressibility (1/GPa) = 0.02248012
#
# Stress axis : x y z
#
# Youngs Moduli (GPa) = 116.70484 60.34848 63.30831
#
# Poissons Ratio (x) = 0.04817 0.17069
# Poissons Ratio (y) = 0.09315 0.36294
# Poissons Ratio (z) = 0.31466 0.34597
#
# Static dielectric constant tensor:
#      x y z
#    x 2.103910 0.042420 0.000720 
#    y 0.042420 2.183550 -0.061340 
#    z 0.000720 -0.061340 2.158570 
# 
# From -- ./inp_files/214907.got.cif
#   From: 2010.05.17/outbox.cif.g08.bks.cpg/sg2_108_cif.got.tgz:214907.got - 2010.06.03 11:33:40.
