data_PCOD9013608
_publ_section_title
;
Structure prediction by ZEFSAII (Michael W. Deem and Ramdas Pophale) SiO2 
 PCOD9013608
Probable space group: P -1
;
_chemical_formula_sum "Si O2"
_cell_formula_units_Z 16
_cell_length_a 12.200508
_cell_length_b 13.195146
_cell_length_c 19.092313
_cell_angle_alpha 23.724263
_cell_angle_beta 142.618635
_cell_angle_gamma 145.757202
_cell_volume 686.078296
_symmetry_space_group_name_H-M "P -1"
_symmetry_group_IT_number 2
_symmetry_cell_setting 'triclinic'
loop_
_space_group_symop_operation_xyz
x,y,z
-x,-y,-z
loop_
_atom_site_type_symbol
_atom_site_label
_atom_site_fract_x
_atom_site_fract_y
_atom_site_fract_z
Si Si1 0.490584 0.323933 0.955616
Si Si2 0.404241 0.235023 0.376355
Si Si3 0.268744 0.819896 0.325052
Si Si4 0.232943 0.384640 0.974332
Si Si5 0.300617 0.532246 0.389113
Si Si6 0.174230 0.852649 0.016010
Si Si7 0.934005 0.338618 0.405134
Si Si8 0.766832 0.331497 0.975955
O O1 0.524712 0.623987 0.751804
O O2 0.572258 0.394296 0.030407
O O3 0.639796 0.224409 0.050058
O O4 0.276729 0.117568 0.950213
O O5 0.580663 0.212168 0.523343
O O6 0.225178 0.939673 0.469796
O O7 0.324054 0.451210 0.232715
O O8 0.339033 0.775488 0.311326
O O9 0.054638 0.563995 0.381489
O O10 0.249404 0.104684 0.139679
O O11 0.161713 0.518313 0.789255
O O12 0.060567 0.280197 0.011991
O O13 0.500000 0.500000 0.500000
O O14 0.235815 0.623656 0.226839
O O15 0.108623 0.294329 0.477811
O O16 0.250589 0.892982 0.949895
O O17 0.000000 0.500000 0.000000
#
# Coordination Sequence:
#
# PCOD9013608 Si02
#       8
#     2   2   2   2   2   2   2   2
#     4  10  25  40  65  94 129 171 215 263 322 379
#     4  10  23  42  63  96 130 166 216 262 330 375
#     4  10  23  41  67  93 131 170 212 269 323 381
#     4  11  23  43  64  97 125 172 224 259 320 389
#     4   9  21  40  64  95 123 162 209 262 324 373
#     4  11  21  41  64  93 126 169 218 263 315 384
#     4   9  23  40  68  93 130 169 209 273 323 375
#     4  10  21  41  65  90 131 168 213 263 318 383
#
# _framework density 23.320952999999999
#
# number of rings (size 3 to 8) (size 9 to 14) (size 15 to 20)
#    1.500    0.500    1.250    1.500    1.750    5.000 
#    0.000    3.125    0.000    0.000    0.000    0.000 
#    0.000    0.000    0.000    0.000    0.000    0.000 
#
# Total GULP energy -89335.429340 kJ/mol
# GULP energy per Si atom -5583.464334 kJ/mol
# Density = 2.326787 g / cm^3
# Si number density = 23.320953 Si / 1000 Ang^3
#
#
#
# Elastic Constant Matrix: (Units=GPa)
#
#
# Indices 1 2 3 4 5 6 
#
# 1 35.4714 12.2949 16.6949 -0.5769 8.5970 -1.8739
# 2 12.2949 136.3649 20.5262 -15.1136 -5.0694 10.6089
# 3 16.6949 20.5262 63.3566 3.9255 19.0037 12.7890
# 4 -0.5769 -15.1136 3.9255 35.5739 4.7579 -0.7113
# 5 8.5970 -5.0694 19.0037 4.7579 25.6821 -15.5896
# 6 -1.8739 10.6089 12.7890 -0.7113 -15.5896 22.4074
#
#
#
# Elastic Compliance Matrix: (Units=1/GPa)
#
#
# Indices 1 2 3 4 5 6 
#
# 1 0.036925 -0.000307 -0.042676 -0.001782 0.062667 0.071134
# 2 -0.000307 0.009850 -0.025795 0.001636 0.046658 0.042547
# 3 -0.042676 -0.025795 0.432456 0.031435 -0.797342 -0.791921
# 4 -0.001782 0.001636 0.031435 0.033102 -0.068009 -0.065130
# 5 0.062667 0.046658 -0.797342 -0.068009 1.548409 1.513357
# 6 0.071134 0.042547 -0.791921 -0.065130 1.513357 1.533250
#
#
# Mechanical properties :
#
#
# Convention : Reuss Voigt Hill
#
# Bulk Modulus (GPa) = 2.92677 37.13610 20.03144
# Shear Modulus (GPa) = 1.30024 29.11114 15.20569
#
# Velocity S-wave (km/s) = 0.74750 3.53694 2.55624
# Velocity P-wave (km/s) = 1.41518 5.71300 4.16180
#
# Compressibility (1/GPa) = 0.34167408
#
# Stress axis : x y z
#
# Youngs Moduli (GPa) = 27.08220 101.52751 2.31238
#
# Poissons Ratio (x) = 0.03120 0.09868
# Poissons Ratio (y) = 0.00832 0.05965
# Poissons Ratio (z) = 1.15576 2.61888
#
# Static dielectric constant tensor:
#      x y z
#    x 1.972120 -0.011590 -0.036750 
#    y -0.011590 1.873400 -0.003230 
#    z -0.036750 -0.003230 1.875230 
# 
# From -- ./inp_files/612088.got.cif
#   From: 2010.05.17/outbox.cif.g08.bks.cpg/sg2_307_cif.got.tgz:612088.got - 2010.06.03 11:33:40.
