data_PCOD9013044
_publ_section_title
;
Structure prediction by ZEFSAII (Michael W. Deem and Ramdas Pophale) SiO2 
 PCOD9013044
Probable space group: P -1
;
_chemical_formula_sum "Si O2"
_cell_formula_units_Z 16
_cell_length_a 5.040421
_cell_length_b 9.839578
_cell_length_c 20.372100
_cell_angle_alpha 137.577711
_cell_angle_beta 95.544849
_cell_angle_gamma 72.493749
_cell_volume 637.541012
_symmetry_space_group_name_H-M "P -1"
_symmetry_group_IT_number 2
_symmetry_cell_setting 'triclinic'
loop_
_space_group_symop_operation_xyz
x,y,z
-x,-y,-z
loop_
_atom_site_type_symbol
_atom_site_label
_atom_site_fract_x
_atom_site_fract_y
_atom_site_fract_z
Si Si1 0.485816 0.175955 0.824296
Si Si2 0.978149 0.683289 0.774968
Si Si3 0.952669 0.960431 0.666374
Si Si4 0.615981 0.049828 0.089186
Si Si5 0.451429 0.091557 0.458775
Si Si6 0.127774 0.312135 0.751209
Si Si7 0.823464 0.450925 0.416284
Si Si8 0.988108 0.269693 0.932275
O O1 0.319012 0.353412 0.828944
O O2 0.685766 0.253278 0.904205
O O3 0.667508 0.859179 0.840496
O O4 0.702001 0.980202 0.719832
O O5 0.003736 0.491514 0.758522
O O6 0.034133 0.603987 0.672645
O O7 0.220244 0.780004 0.837666
O O8 0.212972 0.765684 0.632765
O O9 0.854353 0.901784 0.572856
O O10 0.922114 0.210083 0.746938
O O11 0.763730 0.875448 0.162324
O O12 0.868935 0.827124 0.031417
O O13 0.500000 0.000000 0.000000
O O14 0.439962 0.332640 0.529496
O O15 0.500000 0.000000 0.500000
O O16 0.677463 0.906942 0.357139
O O17 0.000000 0.500000 0.500000
O O18 0.000000 0.500000 0.000000
#
# Coordination Sequence:
#
# PCOD9013044 Si02
#       8
#     2   2   2   2   2   2   2   2
#     4  11  24  44  72 106 147 185 258 302 371 458
#     4  12  28  49  80 111 161 205 253 314 398 453
#     4  10  22  42  69 100 145 200 251 307 364 441
#     4  12  30  52  79 114 154 197 261 322 389 460
#     4  10  21  41  63 106 151 193 254 301 377 446
#     4  11  25  42  76 108 149 205 254 314 375 464
#     4  10  22  47  71 111 158 202 255 316 375 453
#     4  12  26  46  77 107 144 188 243 317 391 450
#
# _framework density 25.096423000000001
#
# number of rings (size 3 to 8) (size 9 to 14) (size 15 to 20)
#    0.000    1.000    2.500    3.000    7.000    1.000 
#    4.500    0.000    0.000    0.000    0.000    0.000 
#    0.000    0.000    0.000    0.000    0.000    0.000 
#
# Total GULP energy -89271.012524 kJ/mol
# GULP energy per Si atom -5579.438283 kJ/mol
# Density = 2.503930 g / cm^3
# Si number density = 25.096423 Si / 1000 Ang^3
#
#
#
# Elastic Constant Matrix: (Units=GPa)
#
#
# Indices 1 2 3 4 5 6 
#
# 1 94.8605 19.9164 30.4322 0.6705 5.6059 3.0797
# 2 19.9164 182.8033 32.3621 9.6518 18.7014 -35.9821
# 3 30.4322 32.3621 99.2570 -2.5882 7.4246 -13.0031
# 4 0.6705 9.6518 -2.5882 44.5072 1.3432 3.0722
# 5 5.6059 18.7014 7.4246 1.3432 43.6120 2.3718
# 6 3.0797 -35.9821 -13.0031 3.0722 2.3718 36.4746
#
#
#
# Elastic Compliance Matrix: (Units=1/GPa)
#
#
# Indices 1 2 3 4 5 6 
#
# 1 0.012166 -0.001394 -0.003753 0.000163 -0.000129 -0.003745
# 2 -0.001394 0.007791 -0.000883 -0.002163 -0.003374 0.007890
# 3 -0.003753 -0.000883 0.012138 0.000735 -0.001435 0.003804
# 4 0.000163 -0.002163 0.000735 0.023236 0.000276 -0.003860
# 5 -0.000129 -0.003374 -0.001435 0.000276 0.024926 -0.005473
# 6 -0.003745 0.007890 0.003804 -0.003860 -0.005473 0.037553
#
#
# Mechanical properties :
#
#
# Convention : Reuss Voigt Hill
#
# Bulk Modulus (GPa) = 49.90953 60.26025 55.08489
# Shear Modulus (GPa) = 36.61691 44.53276 40.57484
#
# Velocity S-wave (km/s) = 3.82389 4.21701 4.02525
# Velocity P-wave (km/s) = 6.27905 6.91191 6.60307
#
# Compressibility (1/GPa) = 0.02003625
#
# Stress axis : x y z
#
# Youngs Moduli (GPa) = 82.19392 128.35350 82.38457
#
# Poissons Ratio (x) = 0.17891 0.30915
# Poissons Ratio (y) = 0.11457 0.07276
# Poissons Ratio (z) = 0.30844 0.11336
#
# Static dielectric constant tensor:
#      x y z
#    x 2.725800 0.801430 0.054300 
#    y 0.801430 2.939570 0.034220 
#    z 0.054300 0.034220 2.099980 
# 
# From -- ./inp_files/582075.got.cif
#   From: 2010.05.17/outbox.cif.g08.bks.cpg/sg2_292_cif.got.tgz:582075.got - 2010.06.03 11:33:40.
