data_PCOD9013432
_publ_section_title
;
Structure prediction by ZEFSAII (Michael W. Deem and Ramdas Pophale) SiO2 
 PCOD9013432
Probable space group: P -1
;
_chemical_formula_sum "Si O2"
_cell_formula_units_Z 16
_cell_length_a 11.420008
_cell_length_b 9.761440
_cell_length_c 8.530507
_cell_angle_alpha 69.914300
_cell_angle_beta 58.627788
_cell_angle_gamma 60.888188
_cell_volume 704.152345
_symmetry_space_group_name_H-M "P -1"
_symmetry_group_IT_number 2
_symmetry_cell_setting 'triclinic'
loop_
_space_group_symop_operation_xyz
x,y,z
-x,-y,-z
loop_
_atom_site_type_symbol
_atom_site_label
_atom_site_fract_x
_atom_site_fract_y
_atom_site_fract_z
Si Si1 0.372202 0.515698 0.313557
Si Si2 0.153922 0.060493 0.013092
Si Si3 0.019698 0.648049 0.514760
Si Si4 0.457203 0.805791 0.517761
Si Si5 0.885449 0.985086 0.308052
Si Si6 0.526647 0.057821 0.202945
Si Si7 0.405093 0.352221 0.010789
Si Si8 0.871189 0.627602 0.947963
O O1 0.455688 0.381187 0.438940
O O2 0.390019 0.432720 0.161044
O O3 0.196296 0.604159 0.427009
O O4 0.460941 0.629933 0.184332
O O5 0.120641 0.051984 0.857014
O O6 0.319730 0.934393 0.968566
O O7 0.175302 0.219454 0.973491
O O8 0.021431 0.042367 0.209637
O O9 0.933772 0.815815 0.424333
O O10 0.940627 0.661636 0.728808
O O11 0.000000 0.500000 0.500000
O O12 0.489896 0.870785 0.637860
O O13 0.277204 0.881454 0.593205
O O14 0.514790 0.890522 0.307795
O O15 0.411925 0.176768 0.116153
O O16 0.257071 0.432653 0.982972
O O17 0.000000 0.500000 0.000000
#
# Coordination Sequence:
#
# PCOD9013432 Si02
#       8
#     2   2   2   2   2   2   2   2
#     4  10  22  38  68  98 126 169 220 276 317 394
#     4  10  23  40  66  95 132 167 217 271 330 388
#     4  12  24  42  69  97 131 176 227 266 325 398
#     4   9  19  33  63  94 123 157 219 270 312 374
#     4  10  22  42  69  96 125 176 223 266 323 398
#     4   9  18  36  61  90 119 162 214 265 320 388
#     4  10  21  41  64  95 130 168 218 269 332 387
#     4  12  27  41  62  95 138 173 218 273 335 385
#
# _framework density 22.722355
#
# number of rings (size 3 to 8) (size 9 to 14) (size 15 to 20)
#    0.000    1.750    1.250    2.250    8.750    3.000 
#    0.000    1.875    0.000    0.000    0.000    0.000 
#    0.000    0.000    0.000    0.000    0.000    0.000 
#
# Total GULP energy -89322.769468 kJ/mol
# GULP energy per Si atom -5582.673092 kJ/mol
# Density = 2.267064 g / cm^3
# Si number density = 22.722355 Si / 1000 Ang^3
#
#
#
# Elastic Constant Matrix: (Units=GPa)
#
#
# Indices 1 2 3 4 5 6 
#
# 1 87.9384 35.7334 50.4866 -9.3807 -27.4570 -25.4426
# 2 35.7334 79.3427 26.2176 -24.6402 -5.0608 -30.7755
# 3 50.4866 26.2176 41.7210 3.3715 -53.7741 -24.1668
# 4 -9.3807 -24.6402 3.3715 33.5273 -0.6601 5.7617
# 5 -27.4570 -5.0608 -53.7741 -0.6601 19.4264 4.0196
# 6 -25.4426 -30.7755 -24.1668 5.7617 4.0196 39.1876
#
#
#
# Elastic Compliance Matrix: (Units=1/GPa)
#
#
# Indices 1 2 3 4 5 6 
#
# 1 0.022310 -0.003949 -0.006418 0.003225 0.011657 0.005755
# 2 -0.003949 0.024184 0.002039 0.013913 0.003678 0.015263
# 3 -0.006418 0.002039 -0.007051 0.000602 -0.027166 -0.004216
# 4 0.003225 0.013913 0.000602 0.039970 0.009862 0.006503
# 5 0.011657 0.003678 -0.027166 0.009862 -0.004445 -0.007291
# 6 0.005755 0.015263 -0.004216 0.006503 -0.007291 0.038434
#
#
# Mechanical properties :
#
#
# Convention : Reuss Voigt Hill
#
# Bulk Modulus (GPa) = 43.88577 48.20858 46.04718
# Shear Modulus (GPa) = 36.32347 24.86588 30.59467
#
# Velocity S-wave (km/s) = 4.00256 3.31166 3.67339
# Velocity P-wave (km/s) = 6.38095 5.99043 6.18877
#
# Compressibility (1/GPa) = 0.02278643
#
# Stress axis : x y z
#
# Youngs Moduli (GPa) = 44.82335 41.34971 -141.81429
#
# Poissons Ratio (x) = 0.16331 -0.91016
# Poissons Ratio (y) = 0.17702 0.28922
# Poissons Ratio (z) = 0.28768 -0.08433
#
# Static dielectric constant tensor:
#      x y z
#    x 1.830480 0.052890 -0.015130 
#    y 0.052890 1.881600 0.020800 
#    z -0.015130 0.020800 1.817350 
# 
# From -- ./inp_files/261944.got.cif
#   From: 2010.05.17/outbox.cif.g08.bks.cpg/sg2_131_cif.got.tgz:261944.got - 2010.06.03 11:33:40.
