data_PCOD9013781
_publ_section_title
;
Structure prediction by ZEFSAII (Michael W. Deem and Ramdas Pophale) SiO2 
 PCOD9013781
Probable space group: P -1
;
_chemical_formula_sum "Si O2"
_cell_formula_units_Z 16
_cell_length_a 9.181165
_cell_length_b 7.258456
_cell_length_c 12.943106
_cell_angle_alpha 62.495141
_cell_angle_beta 57.082960
_cell_angle_gamma 86.416971
_cell_volume 621.313062
_symmetry_space_group_name_H-M "P -1"
_symmetry_group_IT_number 2
_symmetry_cell_setting 'triclinic'
loop_
_space_group_symop_operation_xyz
x,y,z
-x,-y,-z
loop_
_atom_site_type_symbol
_atom_site_label
_atom_site_fract_x
_atom_site_fract_y
_atom_site_fract_z
Si Si1 0.239587 0.296255 0.649141
Si Si2 0.068324 0.866287 0.896353
Si Si3 0.471276 0.224526 0.405140
Si Si4 0.292553 0.021953 0.025629
Si Si5 0.848520 0.729925 0.632968
Si Si6 0.136640 0.551056 0.803398
Si Si7 0.579124 0.355042 0.930636
Si Si8 0.916375 0.116141 0.662870
O O1 0.409765 0.345770 0.495406
O O2 0.186143 0.478331 0.690523
O O3 0.078170 0.202135 0.656817
O O4 0.232374 0.080468 0.777161
O O5 0.891189 0.952253 0.954842
O O6 0.066226 0.754670 0.812664
O O7 0.014993 0.653591 0.043140
O O8 0.308794 0.200088 0.391546
O O9 0.659611 0.365146 0.250544
O O10 0.500000 0.000000 0.500000
O O11 0.368357 0.845815 0.984320
O O12 0.251246 0.932361 0.183067
O O13 0.432678 0.247766 0.929243
O O14 0.755471 0.502068 0.774169
O O15 0.020771 0.722750 0.499162
O O16 0.903197 0.897937 0.660668
O O17 0.500000 0.500000 0.000000
#
# Coordination Sequence:
#
# PCOD9013781 Si02
#       8
#     2   2   2   2   2   2   2   2
#     4  10  21  41  65  96 132 172 224 272 326 387
#     4  10  22  41  64  98 131 170 225 270 329 392
#     4  11  22  42  65  99 135 174 221 270 328 394
#     4  10  22  40  62  95 130 163 222 273 318 400
#     4  10  21  41  68  94 134 175 216 269 332 393
#     4  11  22  40  69  95 132 180 220 270 332 390
#     4  11  22  40  65  91 131 171 214 266 337 388
#     4   9  20  41  65  95 128 170 224 271 322 389
#
# _framework density 25.751915
#
# number of rings (size 3 to 8) (size 9 to 14) (size 15 to 20)
#    0.000    1.750    2.500    1.500    0.000    2.500 
#    2.250    3.750    0.000    0.000    0.000    0.000 
#    0.000    0.000    0.000    0.000    0.000    0.000 
#
# Total GULP energy -89253.955028 kJ/mol
# GULP energy per Si atom -5578.372189 kJ/mol
# Density = 2.569330 g / cm^3
# Si number density = 25.751915 Si / 1000 Ang^3
#
#
#
# Elastic Constant Matrix: (Units=GPa)
#
#
# Indices 1 2 3 4 5 6 
#
# 1 69.5939 6.0795 -4.9605 0.8315 3.7365 8.6862
# 2 6.0795 141.6975 -2.2469 16.5767 15.7652 5.5809
# 3 -4.9605 -2.2469 92.4739 3.0830 -10.8019 6.9665
# 4 0.8315 16.5767 3.0830 40.2720 6.8295 -0.9874
# 5 3.7365 15.7652 -10.8019 6.8295 31.3222 -7.8296
# 6 8.6862 5.5809 6.9665 -0.9874 -7.8296 33.1489
#
#
#
# Elastic Compliance Matrix: (Units=1/GPa)
#
#
# Indices 1 2 3 4 5 6 
#
# 1 0.015178 -0.000160 0.000861 0.000015 -0.002624 -0.004750
# 2 -0.000160 0.007904 -0.000019 -0.002632 -0.003966 -0.002300
# 3 0.000861 -0.000019 0.011487 -0.001571 0.003762 -0.001795
# 4 0.000015 -0.002632 -0.001571 0.026889 -0.004984 0.000393
# 5 -0.002624 -0.003966 0.003762 -0.004984 0.039028 0.009634
# 6 -0.004750 -0.002300 -0.001795 0.000393 0.009634 0.034463
#
#
# Mechanical properties :
#
#
# Convention : Reuss Voigt Hill
#
# Bulk Modulus (GPa) = 27.82998 33.50103 30.66550
# Shear Modulus (GPa) = 34.34948 41.27483 37.81215
#
# Velocity S-wave (km/s) = 3.65617 4.00783 3.83603
# Velocity P-wave (km/s) = 5.35293 5.86978 5.61730
#
# Compressibility (1/GPa) = 0.03593248
#
# Stress axis : x y z
#
# Youngs Moduli (GPa) = 65.88453 126.52297 87.05761
#
# Poissons Ratio (x) = 0.02028 -0.07497
# Poissons Ratio (y) = 0.01056 0.00164
# Poissons Ratio (z) = -0.05674 0.00239
#
# Static dielectric constant tensor:
#      x y z
#    x 2.082000 0.001160 0.064460 
#    y 0.001160 2.029230 -0.009560 
#    z 0.064460 -0.009560 2.154970 
# 
# From -- ./inp_files/510804.got.cif
#   From: 2010.05.17/outbox.cif.g08.bks.cpg/sg2_256_cif.got.tgz:510804.got - 2010.06.03 11:33:40.
