data_PCOD9013045
_publ_section_title
;
Structure prediction by ZEFSAII (Michael W. Deem and Ramdas Pophale) SiO2 
 PCOD9013045
Probable space group: P -1
;
_chemical_formula_sum "Si O2"
_cell_formula_units_Z 14
_cell_length_a 8.364137
_cell_length_b 11.496304
_cell_length_c 11.649972
_cell_angle_alpha 56.241506
_cell_angle_beta 64.043846
_cell_angle_gamma 106.522795
_cell_volume 593.206108
_symmetry_space_group_name_H-M "P -1"
_symmetry_group_IT_number 2
_symmetry_cell_setting 'triclinic'
loop_
_space_group_symop_operation_xyz
x,y,z
-x,-y,-z
loop_
_atom_site_type_symbol
_atom_site_label
_atom_site_fract_x
_atom_site_fract_y
_atom_site_fract_z
Si Si1 0.139047 0.852600 0.138760
Si Si2 0.496872 0.809029 0.990390
Si Si3 0.873865 0.085625 0.544282
Si Si4 0.230421 0.415121 0.409110
Si Si5 0.228136 0.372186 0.814157
Si Si6 0.866190 0.126967 0.268443
Si Si7 0.677763 0.251894 0.418181
O O1 0.984947 0.679190 0.377854
O O2 0.936584 0.788757 0.145425
O O3 0.295457 0.054115 0.049517
O O4 0.337941 0.863240 0.008465
O O5 0.648707 0.876504 0.788308
O O6 0.311215 0.584367 0.207638
O O7 0.923153 0.085828 0.395417
O O8 0.772987 0.192178 0.514049
O O9 0.118669 0.230813 0.465801
O O10 0.484097 0.512372 0.339801
O O11 0.222807 0.537801 0.710632
O O12 0.098251 0.264201 0.035439
O O13 0.776437 0.233221 0.279035
O O14 0.623850 0.921602 0.399419
#
# Coordination Sequence:
#
# PCOD9013045 Si02
#       7
#     2   2   2   2   2   2   2
#     4  10  23  39  60  86 113 155 202 237 280 341
#     4  10  21  41  63  83 115 153 198 243 284 334
#     4   9  20  39  61  86 113 150 199 238 280 341
#     4  11  24  38  57  90 122 154 188 235 296 349
#     4  12  23  37  61  88 122 155 184 239 300 342
#     4   9  21  38  63  90 111 151 200 238 287 337
#     4   9  20  39  62  87 114 146 203 240 278 340
#
# _framework density 23.600567000000002
#
# number of rings (size 3 to 8) (size 9 to 14) (size 15 to 20)
#    0.857    1.143    0.000    3.000    0.000    8.000 
#    0.000    1.429    0.000    0.000    0.000    0.000 
#    0.000    0.000    0.000    0.000    0.000    0.000 
#
# Total GULP energy -78272.717192 kJ/mol
# GULP energy per Si atom -5590.908371 kJ/mol
# Density = 2.354685 g / cm^3
# Si number density = 23.600567 Si / 1000 Ang^3
#
#
#
# Elastic Constant Matrix: (Units=GPa)
#
#
# Indices 1 2 3 4 5 6 
#
# 1 46.8446 16.6000 3.1507 -1.7329 -13.8169 7.9725
# 2 16.6000 42.0120 26.5302 -11.3473 -3.8287 18.7402
# 3 3.1507 26.5302 142.1876 6.4759 -6.6932 -8.6930
# 4 -1.7329 -11.3473 6.4759 25.8435 9.0208 -1.0433
# 5 -13.8169 -3.8287 -6.6932 9.0208 31.3806 -10.2771
# 6 7.9725 18.7402 -8.6930 -1.0433 -10.2771 42.8664
#
#
#
# Elastic Compliance Matrix: (Units=1/GPa)
#
#
# Indices 1 2 3 4 5 6 
#
# 1 0.033571 -0.024637 0.006296 -0.017232 0.021525 0.010545
# 2 -0.024637 0.069441 -0.017930 0.042378 -0.030034 -0.035581
# 3 0.006296 -0.017930 0.012075 -0.013806 0.010857 0.011383
# 4 -0.017232 0.042378 -0.013806 0.070345 -0.033595 -0.024464
# 5 0.021525 -0.030034 0.010857 -0.033595 0.057619 0.024325
# 6 0.010545 -0.035581 0.011383 -0.024464 0.024325 0.044467
#
#
# Mechanical properties :
#
#
# Convention : Reuss Voigt Hill
#
# Bulk Modulus (GPa) = 23.50492 35.95621 29.73057
# Shear Modulus (GPa) = 13.36040 32.33566 22.84803
#
# Velocity S-wave (km/s) = 2.38188 3.70553 3.11483
# Velocity P-wave (km/s) = 4.18874 5.79451 5.05578
#
# Compressibility (1/GPa) = 0.04254428
#
# Stress axis : x y z
#
# Youngs Moduli (GPa) = 29.78767 14.40081 82.81765
#
# Poissons Ratio (x) = 0.35479 -0.52140
# Poissons Ratio (y) = 0.73387 1.48492
# Poissons Ratio (z) = -0.18754 0.25821
#
# Static dielectric constant tensor:
#      x y z
#    x 1.966280 -0.007040 0.033740 
#    y -0.007040 1.861960 0.005880 
#    z 0.033740 0.005880 1.828050 
# 
# From -- ./inp_files/397052.got.cif
#   From: 2010.05.17/outbox.cif.g08.bks.cpg/sg2_199_cif.got.tgz:397052.got - 2010.06.03 11:33:40.
