data_PCOD9013019
_publ_section_title
;
Structure prediction by ZEFSAII (Michael W. Deem and Ramdas Pophale) SiO2 
 PCOD9013019
Probable space group: P -1
;
_chemical_formula_sum "Si O2"
_cell_formula_units_Z 14
_cell_length_a 11.784436
_cell_length_b 11.222191
_cell_length_c 6.522690
_cell_angle_alpha 124.549193
_cell_angle_beta 98.666880
_cell_angle_gamma 64.216076
_cell_volume 634.361635
_symmetry_space_group_name_H-M "P -1"
_symmetry_group_IT_number 2
_symmetry_cell_setting 'triclinic'
loop_
_space_group_symop_operation_xyz
x,y,z
-x,-y,-z
loop_
_atom_site_type_symbol
_atom_site_label
_atom_site_fract_x
_atom_site_fract_y
_atom_site_fract_z
Si Si1 0.755189 0.520155 0.288793
Si Si2 0.265126 0.920810 0.186766
Si Si3 0.907191 0.711975 0.560754
Si Si4 0.710643 0.285518 0.375440
Si Si5 0.522257 0.334825 0.732515
Si Si6 0.082037 0.701846 0.259497
Si Si7 0.977227 0.130290 0.945026
O O1 0.838689 0.601203 0.489475
O O2 0.721524 0.410189 0.334544
O O3 0.617041 0.655413 0.322950
O O4 0.828370 0.425940 0.009824
O O5 0.385389 0.818541 0.260288
O O6 0.201107 0.111963 0.359683
O O7 0.289839 0.861518 0.899083
O O8 0.158896 0.859008 0.154998
O O9 0.002813 0.641288 0.327754
O O10 0.987327 0.745472 0.795524
O O11 0.590522 0.341425 0.545432
O O12 0.832576 0.245569 0.515101
O O13 0.500000 0.500000 0.000000
O O14 0.976092 0.851057 0.249166
O O15 0.000000 0.000000 0.000000
#
# Coordination Sequence:
#
# PCOD9013019 Si02
#       7
#     2   2   2   2   2   2   2
#     4  12  26  44  66 105 135 181 223 278 336 395
#     4  11  23  44  67 104 130 178 227 273 335 394
#     4  11  27  43  66 100 149 172 216 279 343 405
#     4  12  22  42  73  99 130 174 234 279 325 393
#     4  12  23  44  74  98 128 177 239 275 326 400
#     4  12  22  43  71  99 134 179 224 274 336 397
#     4  10  21  41  62  96 132 169 221 267 329 392
#
# _framework density 22.069429
#
# number of rings (size 3 to 8) (size 9 to 14) (size 15 to 20)
#    0.000    0.571    7.143    0.857    0.000    8.571 
#    0.000    0.714    0.000    0.000    0.000    0.000 
#    0.000    0.000    0.000    0.000    0.000    0.000 
#
# Total GULP energy -78033.010146 kJ/mol
# GULP energy per Si atom -5573.786439 kJ/mol
# Density = 2.201920 g / cm^3
# Si number density = 22.069429 Si / 1000 Ang^3
#
#
#
# Elastic Constant Matrix: (Units=GPa)
#
#
# Indices 1 2 3 4 5 6 
#
# 1 99.7186 37.9510 47.9793 0.1997 -4.7774 -0.2162
# 2 37.9510 120.6837 36.1082 -10.8300 4.4623 -19.7429
# 3 47.9793 36.1082 109.0414 -11.1566 -19.3627 1.3509
# 4 0.1997 -10.8300 -11.1566 40.3171 -1.4268 9.2244
# 5 -4.7774 4.4623 -19.3627 -1.4268 44.2665 -2.5925
# 6 -0.2162 -19.7429 1.3509 9.2244 -2.5925 28.9919
#
#
#
# Elastic Compliance Matrix: (Units=1/GPa)
#
#
# Indices 1 2 3 4 5 6 
#
# 1 0.013743 -0.003068 -0.005358 -0.002144 -0.000686 -0.001116
# 2 -0.003068 0.011489 -0.002908 0.000482 -0.002302 0.007577
# 3 -0.005358 -0.002908 0.013977 0.004110 0.005758 -0.003464
# 4 -0.002144 0.000482 0.004110 0.028129 0.001917 -0.008658
# 5 -0.000686 -0.002302 0.005758 0.001917 0.025318 -0.000187
# 6 -0.001116 0.007577 -0.003464 -0.008658 -0.000187 0.042543
#
#
# Mechanical properties :
#
#
# Convention : Reuss Voigt Hill
#
# Bulk Modulus (GPa) = 60.45719 63.72451 62.09085
# Shear Modulus (GPa) = 30.60305 36.54212 33.57258
#
# Velocity S-wave (km/s) = 3.72784 4.07354 3.90452
# Velocity P-wave (km/s) = 6.78105 7.14578 6.96581
#
# Compressibility (1/GPa) = 0.01654063
#
# Stress axis : x y z
#
# Youngs Moduli (GPa) = 72.76378 87.04072 71.54426
#
# Poissons Ratio (x) = 0.26706 0.38336
# Poissons Ratio (y) = 0.22325 0.20803
# Poissons Ratio (z) = 0.38990 0.25309
#
# Static dielectric constant tensor:
#      x y z
#    x 1.826930 -0.096420 -0.045820 
#    y -0.096420 1.964520 0.035690 
#    z -0.045820 0.035690 1.839730 
# 
# From -- ./inp_files/67907.got.cif
#   From: 2010.05.17/outbox.cif.g08.bks.cpg/sg2_34_cif.got.tgz:67907.got - 2010.06.03 11:33:40.
