data_PCOD9013450
_publ_section_title
;
Structure prediction by ZEFSAII (Michael W. Deem and Ramdas Pophale) SiO2 
 PCOD9013450
Probable space group: P -1
;
_chemical_formula_sum "Si O2"
_cell_formula_units_Z 16
_cell_length_a 9.945733
_cell_length_b 5.167834
_cell_length_c 14.746666
_cell_angle_alpha 77.518289
_cell_angle_beta 107.100896
_cell_angle_gamma 97.807482
_cell_volume 705.190008
_symmetry_space_group_name_H-M "P -1"
_symmetry_group_IT_number 2
_symmetry_cell_setting 'triclinic'
loop_
_space_group_symop_operation_xyz
x,y,z
-x,-y,-z
loop_
_atom_site_type_symbol
_atom_site_label
_atom_site_fract_x
_atom_site_fract_y
_atom_site_fract_z
Si Si1 0.219082 0.959415 0.548768
Si Si2 0.021160 0.371722 0.390155
Si Si3 0.691661 0.309191 0.571224
Si Si4 0.124305 0.033218 0.950928
Si Si5 0.433760 0.338843 0.632538
Si Si6 0.548290 0.360914 0.200026
Si Si7 0.139888 0.615443 0.825128
Si Si8 0.424616 0.904781 0.086040
O O1 0.318623 0.928696 0.484226
O O2 0.128432 0.682015 0.580170
O O3 0.108697 0.155172 0.473388
O O4 0.315128 0.090461 0.639098
O O5 0.139647 0.620679 0.387584
O O6 0.967918 0.330610 0.280814
O O7 0.591542 0.270540 0.641141
O O8 0.629965 0.533583 0.479534
O O9 0.120538 0.831079 0.881692
O O10 0.120223 0.325640 0.886955
O O11 0.265135 0.969902 0.036403
O O12 0.000000 0.000000 0.000000
O O13 0.440556 0.552423 0.698677
O O14 0.703374 0.379829 0.185709
O O15 0.456859 0.597983 0.126318
O O16 0.481408 0.079434 0.170347
O O17 0.500000 0.000000 0.000000
#
# Coordination Sequence:
#
# PCOD9013450 Si02
#       8
#     2   2   2   2   2   2   2   2
#     4  10  21  41  64  95 141 187 232 284 347 417
#     4  10  24  37  67 100 134 185 234 282 350 408
#     4  10  21  43  61  91 146 184 226 289 349 415
#     4  12  28  48  74 104 143 183 226 295 375 428
#     4  10  24  38  65 100 131 185 237 285 349 407
#     4  12  25  43  76 105 133 179 243 290 334 433
#     4  12  25  45  75 103 141 180 241 292 344 436
#     4  12  24  48  73 100 136 179 226 291 362 418
#
# _framework density 22.688918999999999
#
# number of rings (size 3 to 8) (size 9 to 14) (size 15 to 20)
#    0.000    1.000    2.500    3.000    7.000    3.000 
#    0.000    0.000    0.000    0.000    0.000    0.000 
#    0.000    0.000    0.000    0.000    0.000    0.000 
#
# Total GULP energy -89292.916528 kJ/mol
# GULP energy per Si atom -5580.807283 kJ/mol
# Density = 2.263728 g / cm^3
# Si number density = 22.688919 Si / 1000 Ang^3
#
#
#
# Elastic Constant Matrix: (Units=GPa)
#
#
# Indices 1 2 3 4 5 6 
#
# 1 147.6215 35.9838 69.2228 32.4900 -13.4200 -9.6123
# 2 35.9838 119.6031 45.1973 30.8079 -11.9159 -22.8742
# 3 69.2228 45.1973 128.5196 29.7277 4.2192 3.5390
# 4 32.4900 30.8079 29.7277 33.0884 2.4521 -11.5442
# 5 -13.4200 -11.9159 4.2192 2.4521 35.4002 10.0455
# 6 -9.6123 -22.8742 3.5390 -11.5442 10.0455 19.3666
#
#
#
# Elastic Compliance Matrix: (Units=1/GPa)
#
#
# Indices 1 2 3 4 5 6 
#
# 1 0.010949 0.001031 -0.004549 -0.008167 0.005703 -0.000343
# 2 0.001031 0.014012 -0.004736 -0.005167 0.002130 0.013742
# 3 -0.004549 -0.004736 0.014725 -0.010280 0.000433 -0.016895
# 4 -0.008167 -0.005167 -0.010280 0.069066 -0.020787 0.043674
# 5 0.005703 0.002130 0.000433 -0.020787 0.040498 -0.028130
# 6 -0.000343 0.013742 -0.016895 0.043674 -0.028130 0.111409
#
#
# Mechanical properties :
#
#
# Convention : Reuss Voigt Hill
#
# Bulk Modulus (GPa) = 43.14322 77.39466 60.26894
# Shear Modulus (GPa) = 17.55043 33.92704 25.73873
#
# Velocity S-wave (km/s) = 2.78425 3.87112 3.37177
# Velocity P-wave (km/s) = 5.42148 7.35976 6.46369
#
# Compressibility (1/GPa) = 0.02317861
#
# Stress axis : x y z
#
# Youngs Moduli (GPa) = 91.32955 71.36812 67.90949
#
# Poissons Ratio (x) = -0.07358 0.30891
# Poissons Ratio (y) = -0.09416 0.32163
# Poissons Ratio (z) = 0.41545 0.33801
#
# Static dielectric constant tensor:
#      x y z
#    x 1.849120 0.054720 0.012460 
#    y 0.054720 1.897990 -0.014160 
#    z 0.012460 -0.014160 1.856390 
# 
# From -- ./inp_files/488324.got.cif
#   From: 2010.05.17/outbox.cif.g08.bks.cpg/sg2_245_cif.got.tgz:488324.got - 2010.06.03 11:33:40.
