data_PCOD9013379
_publ_section_title
;
Structure prediction by ZEFSAII (Michael W. Deem and Ramdas Pophale) SiO2 
 PCOD9013379
Probable space group: P -1
;
_chemical_formula_sum "Si O2"
_cell_formula_units_Z 12
_cell_length_a 9.123464
_cell_length_b 13.198511
_cell_length_c 9.818568
_cell_angle_alpha 83.360966
_cell_angle_beta 101.554571
_cell_angle_gamma 151.752750
_cell_volume 543.483979
_symmetry_space_group_name_H-M "P -1"
_symmetry_group_IT_number 2
_symmetry_cell_setting 'triclinic'
loop_
_space_group_symop_operation_xyz
x,y,z
-x,-y,-z
loop_
_atom_site_type_symbol
_atom_site_label
_atom_site_fract_x
_atom_site_fract_y
_atom_site_fract_z
Si Si1 0.495235 0.881648 0.897535
Si Si2 0.164809 0.496186 0.244560
Si Si3 0.403389 0.052208 0.792113
Si Si4 0.698977 0.633326 0.654230
Si Si5 0.402092 0.662334 0.685055
Si Si6 0.236367 0.755286 0.504942
O O1 0.508889 0.791193 0.817015
O O2 0.118342 0.664410 0.891421
O O3 0.555275 0.029387 0.818424
O O4 0.676134 0.981503 0.056844
O O5 0.376613 0.722292 0.241572
O O6 0.353581 0.505151 0.255545
O O7 0.975469 0.370894 0.374274
O O8 0.079417 0.865200 0.676372
O O9 0.500000 0.500000 0.500000
O O10 0.593550 0.674693 0.696896
O O11 0.426009 0.762888 0.555828
O O12 0.032294 0.407418 0.636346
O O13 0.500000 0.000000 0.500000
#
# Coordination Sequence:
#
# PCOD9013379 Si02
#       6
#     2   2   2   2   2   2
#     4   9  21  41  65  94 124 165 216 261 307 369
#     4  10  21  41  64  93 124 167 211 256 315 375
#     4  10  22  41  67  91 128 170 209 258 316 369
#     4  11  23  41  58  93 130 168 210 255 317 378
#     4  10  22  39  60  92 127 161 214 258 313 372
#     4  10  22  40  61  91 126 166 211 262 315 367
#
# _framework density 22.079768999999999
#
# number of rings (size 3 to 8) (size 9 to 14) (size 15 to 20)
#    0.000    2.000    1.667    0.500    2.333   14.667 
#    0.000    0.833    0.000    0.000    0.000    0.000 
#    0.000    0.000    0.000    0.000    0.000    0.000 
#
# Total GULP energy -66872.058329 kJ/mol
# GULP energy per Si atom -5572.671527 kJ/mol
# Density = 2.202951 g / cm^3
# Si number density = 22.079769 Si / 1000 Ang^3
#
#
#
# Elastic Constant Matrix: (Units=GPa)
#
#
# Indices 1 2 3 4 5 6 
#
# 1 175.3073 49.8964 29.2284 -11.1974 2.4063 -45.8373
# 2 49.8964 194.3144 34.7412 0.5815 6.4910 -46.9711
# 3 29.2284 34.7412 69.8958 12.2105 -10.1550 -1.6990
# 4 -11.1974 0.5815 12.2105 31.1802 -6.9395 -0.2698
# 5 2.4063 6.4910 -10.1550 -6.9395 35.7791 6.6465
# 6 -45.8373 -46.9711 -1.6990 -0.2698 6.6465 35.2774
#
#
#
# Elastic Compliance Matrix: (Units=1/GPa)
#
#
# Indices 1 2 3 4 5 6 
#
# 1 0.012373 0.004000 -0.008754 0.006445 -0.006942 0.022339
# 2 0.004000 0.010863 -0.008214 0.002879 -0.007871 0.020771
# 3 -0.008754 -0.008214 0.024971 -0.010415 0.011484 -0.023351
# 4 0.006445 0.002879 -0.010415 0.038834 0.001441 0.011731
# 5 -0.006942 -0.007871 0.011484 0.001441 0.038239 -0.026141
# 6 0.022339 0.020771 -0.023351 0.011731 -0.026141 0.088919
#
#
# Mechanical properties :
#
#
# Convention : Reuss Voigt Hill
#
# Bulk Modulus (GPa) = 44.89945 74.13883 59.51914
# Shear Modulus (GPa) = 20.19743 42.15744 31.17744
#
# Velocity S-wave (km/s) = 3.02776 4.37432 3.76178
# Velocity P-wave (km/s) = 5.70985 7.69178 6.77370
#
# Compressibility (1/GPa) = 0.02227199
#
# Stress axis : x y z
#
# Youngs Moduli (GPa) = 80.82080 92.05748 40.04708
#
# Poissons Ratio (x) = -0.36827 0.35057
# Poissons Ratio (y) = -0.32332 0.32893
# Poissons Ratio (z) = 0.70751 0.75613
#
# Static dielectric constant tensor:
#      x y z
#    x 1.902260 -0.014740 -0.058090 
#    y -0.014740 1.832340 -0.005170 
#    z -0.058090 -0.005170 1.922430 
# 
# From -- ./inp_files/390067.got.cif
#   From: 2010.05.17/outbox.cif.g08.bks.cpg/sg2_196_cif.got.tgz:390067.got - 2010.06.03 11:33:40.
