data_PCOD9013498
_publ_section_title
;
Structure prediction by ZEFSAII (Michael W. Deem and Ramdas Pophale) SiO2 
 PCOD9013498
Probable space group: P -1
;
_chemical_formula_sum "Si O2"
_cell_formula_units_Z 14
_cell_length_a 9.375603
_cell_length_b 8.621775
_cell_length_c 9.061785
_cell_angle_alpha 91.348266
_cell_angle_beta 107.612901
_cell_angle_gamma 63.985714
_cell_volume 622.312622
_symmetry_space_group_name_H-M "P -1"
_symmetry_group_IT_number 2
_symmetry_cell_setting 'triclinic'
loop_
_space_group_symop_operation_xyz
x,y,z
-x,-y,-z
loop_
_atom_site_type_symbol
_atom_site_label
_atom_site_fract_x
_atom_site_fract_y
_atom_site_fract_z
Si Si1 0.423757 0.020632 0.196135
Si Si2 0.620991 0.350411 0.255868
Si Si3 0.632742 0.692388 0.616450
Si Si4 0.820182 0.522522 0.389574
Si Si5 0.750183 0.790779 0.140885
Si Si6 0.080796 0.610613 0.112360
Si Si7 0.335232 0.724112 0.062448
O O1 0.371147 0.127346 0.331835
O O2 0.621789 0.926252 0.219311
O O3 0.349593 0.884032 0.148287
O O4 0.344960 0.162986 0.043350
O O5 0.534445 0.300396 0.362151
O O6 0.789935 0.354143 0.364252
O O7 0.488128 0.546587 0.167575
O O8 0.650495 0.251547 0.107647
O O9 0.675894 0.649788 0.459199
O O10 0.782563 0.528635 0.739878
O O11 0.787187 0.606717 0.219239
O O12 0.000000 0.500000 0.500000
O O13 0.934367 0.765527 0.161699
O O14 0.172942 0.695026 0.043397
O O15 0.000000 0.500000 0.000000
#
# Coordination Sequence:
#
# PCOD9013498 Si02
#       7
#     2   2   2   2   2   2   2
#     4  11  23  42  67  98 128 174 212 276 329 373
#     4  10  21  41  64  99 125 172 226 264 312 391
#     4  11  24  40  68  95 133 172 216 266 328 387
#     4  12  24  41  68  97 132 175 215 269 322 389
#     4  11  22  40  64  92 131 167 219 262 318 381
#     4  11  21  39  65  98 128 170 221 271 309 379
#     4  10  22  38  70  96 129 166 221 275 318 374
#
# _framework density 22.496729999999999
#
# number of rings (size 3 to 8) (size 9 to 14) (size 15 to 20)
#    0.000    1.143    4.286    3.000    4.000    1.143 
#    0.000    1.429    0.000    4.286    0.000    0.000 
#    0.000    0.000    0.000    0.000    0.000    0.000 
#
# Total GULP energy -78191.864166 kJ/mol
# GULP energy per Si atom -5585.133155 kJ/mol
# Density = 2.244553 g / cm^3
# Si number density = 22.496730 Si / 1000 Ang^3
#
#
#
# Elastic Constant Matrix: (Units=GPa)
#
#
# Indices 1 2 3 4 5 6 
#
# 1 151.7932 34.9764 25.5369 -0.4877 -0.1815 17.5665
# 2 34.9764 71.4202 20.8333 16.6485 1.5631 9.0391
# 3 25.5369 20.8333 56.5022 5.7009 -12.8013 14.6248
# 4 -0.4877 16.6485 5.7009 32.8464 -1.3033 3.3478
# 5 -0.1815 1.5631 -12.8013 -1.3033 36.1425 1.1402
# 6 17.5665 9.0391 14.6248 3.3478 1.1402 40.0728
#
#
#
# Elastic Compliance Matrix: (Units=1/GPa)
#
#
# Indices 1 2 3 4 5 6 
#
# 1 0.008031 -0.003637 -0.002074 0.002526 -0.000378 -0.002143
# 2 -0.003637 0.019541 -0.005332 -0.009154 -0.003082 -0.000015
# 3 -0.002074 -0.005332 0.024548 -0.000507 0.009119 -0.007064
# 4 0.002526 -0.009154 -0.000507 0.035462 0.001567 -0.001865
# 5 -0.000378 -0.003082 0.009119 0.001567 0.031196 -0.003486
# 6 -0.002143 -0.000015 -0.007064 -0.001865 -0.003486 0.028730
#
#
# Mechanical properties :
#
#
# Convention : Reuss Voigt Hill
#
# Bulk Modulus (GPa) = 33.29713 49.15653 41.22683
# Shear Modulus (GPa) = 27.83868 35.03695 31.43781
#
# Velocity S-wave (km/s) = 3.52156 3.95070 3.74229
# Velocity P-wave (km/s) = 5.60073 6.53519 6.08592
#
# Compressibility (1/GPa) = 0.03003262
#
# Stress axis : x y z
#
# Youngs Moduli (GPa) = 124.52316 51.17337 40.73722
#
# Poissons Ratio (x) = 0.18612 0.08451
# Poissons Ratio (y) = 0.45290 0.21721
# Poissons Ratio (z) = 0.25831 0.27286
#
# Static dielectric constant tensor:
#      x y z
#    x 1.871660 0.001920 0.008130 
#    y 0.001920 1.859960 -0.003620 
#    z 0.008130 -0.003620 1.829900 
# 
# From -- ./inp_files/158440.got.cif
#   From: 2010.05.17/outbox.cif.g08.bks.cpg/sg2_80_cif.got.tgz:158440.got - 2010.06.03 11:33:40.
