data_PCOD9013538
_publ_section_title
;
Structure prediction by ZEFSAII (Michael W. Deem and Ramdas Pophale) SiO2 
 PCOD9013538
Probable space group: P -1
;
_chemical_formula_sum "Si O2"
_cell_formula_units_Z 16
_cell_length_a 11.332619
_cell_length_b 13.696138
_cell_length_c 6.606350
_cell_angle_alpha 99.611911
_cell_angle_beta 72.725544
_cell_angle_gamma 53.250834
_cell_volume 700.449151
_symmetry_space_group_name_H-M "P -1"
_symmetry_group_IT_number 2
_symmetry_cell_setting 'triclinic'
loop_
_space_group_symop_operation_xyz
x,y,z
-x,-y,-z
loop_
_atom_site_type_symbol
_atom_site_label
_atom_site_fract_x
_atom_site_fract_y
_atom_site_fract_z
Si Si1 0.998984 0.279960 0.343257
Si Si2 0.663570 0.363081 0.471448
Si Si3 0.132409 0.015926 0.395813
Si Si4 0.456227 0.854346 0.448590
Si Si5 0.094234 0.547051 0.196027
Si Si6 0.199903 0.269046 0.914614
Si Si7 0.370664 0.797593 0.851548
Si Si8 0.541469 0.608787 0.076432
O O1 0.039037 0.167537 0.433408
O O2 0.822057 0.346825 0.356237
O O3 0.963639 0.397426 0.529739
O O4 0.147367 0.216355 0.086062
O O5 0.500000 0.500000 0.500000
O O6 0.703592 0.239309 0.287298
O O7 0.600554 0.382559 0.743490
O O8 0.267940 0.968135 0.487499
O O9 0.000000 0.000000 0.500000
O O10 0.237824 0.919331 0.114369
O O11 0.605524 0.845471 0.297943
O O12 0.453708 0.836601 0.683394
O O13 0.518436 0.716949 0.269837
O O14 0.259155 0.524499 0.056878
O O15 0.934920 0.659415 0.174324
O O16 0.158546 0.399742 0.078661
O O17 0.496047 0.668441 0.893429
#
# Coordination Sequence:
#
# PCOD9013538 Si02
#       8
#     2   2   2   2   2   2   2   2
#     4  12  25  39  62  94 127 166 209 255 308 370
#     4  11  23  37  61  97 128 159 204 256 317 377
#     4  11  25  43  64  93 126 162 208 256 308 371
#     4   9  21  41  63  87 116 159 210 254 303 361
#     4  10  22  40  63  90 128 162 202 261 312 366
#     4  10  23  42  64  92 123 163 211 255 311 374
#     4  10  21  41  65  85 123 167 201 254 315 366
#     4   9  19  37  62  92 121 158 205 253 313 374
#
# _framework density 22.842487999999999
#
# number of rings (size 3 to 8) (size 9 to 14) (size 15 to 20)
#    0.000    1.750    0.000    4.125    0.000   15.500 
#    0.000    1.250    0.000    0.000    0.000    0.000 
#    0.000    0.000    0.000    0.000    0.000    0.000 
#
# Total GULP energy -89385.843307 kJ/mol
# GULP energy per Si atom -5586.615207 kJ/mol
# Density = 2.279050 g / cm^3
# Si number density = 22.842488 Si / 1000 Ang^3
#
#
#
# Elastic Constant Matrix: (Units=GPa)
#
#
# Indices 1 2 3 4 5 6 
#
# 1 114.3187 28.9467 52.5756 -10.3756 -26.6744 -14.3677
# 2 28.9467 72.5082 17.2317 -6.1833 -12.0464 -14.4421
# 3 52.5756 17.2317 111.9952 -26.2527 -21.5842 -9.4682
# 4 -10.3756 -6.1833 -26.2527 30.5776 12.4869 -2.2382
# 5 -26.6744 -12.0464 -21.5842 12.4869 33.5794 2.4724
# 6 -14.3677 -14.4421 -9.4682 -2.2382 2.4724 26.5716
#
#
#
# Elastic Compliance Matrix: (Units=1/GPa)
#
#
# Indices 1 2 3 4 5 6 
#
# 1 0.013577 -0.002608 -0.004955 -0.003025 0.007554 0.003200
# 2 -0.002608 0.016980 0.000355 0.002278 0.002821 0.007874
# 3 -0.004955 0.000355 0.014116 0.010258 0.001208 0.003296
# 4 -0.003025 0.002278 0.010258 0.046890 -0.013049 0.008422
# 5 0.007554 0.002821 0.001208 -0.013049 0.042347 0.001009
# 6 0.003200 0.007874 0.003296 0.008422 0.001009 0.045434
#
#
# Mechanical properties :
#
#
# Convention : Reuss Voigt Hill
#
# Bulk Modulus (GPa) = 33.05014 55.14781 44.09897
# Shear Modulus (GPa) = 24.52824 31.48360 28.00592
#
# Velocity S-wave (km/s) = 3.28044 3.71656 3.50529
# Velocity P-wave (km/s) = 5.37108 6.52780 5.97749
#
# Compressibility (1/GPa) = 0.03025706
#
# Stress axis : x y z
#
# Youngs Moduli (GPa) = 73.65413 58.89378 70.83926
#
# Poissons Ratio (x) = 0.15360 0.35102
# Poissons Ratio (y) = 0.19210 -0.02517
# Poissons Ratio (z) = 0.36497 -0.02092
#
# Static dielectric constant tensor:
#      x y z
#    x 1.931240 0.060180 -0.003850 
#    y 0.060180 1.895790 -0.000150 
#    z -0.003850 -0.000150 1.859040 
# 
# From -- ./inp_files/78134.got.cif
#   From: 2010.05.17/outbox.cif.g08.bks.cpg/sg2_40_cif.got.tgz:78134.got - 2010.06.03 11:33:40.
