data_PCOD9013770
_publ_section_title
;
Structure prediction by ZEFSAII (Michael W. Deem and Ramdas Pophale) SiO2 
 PCOD9013770
Probable space group: P -1
;
_chemical_formula_sum "Si O2"
_cell_formula_units_Z 10
_cell_length_a 11.366208
_cell_length_b 15.253153
_cell_length_c 6.572732
_cell_angle_alpha 115.699204
_cell_angle_beta 124.097548
_cell_angle_gamma 27.085067
_cell_volume 423.112799
_symmetry_space_group_name_H-M "P -1"
_symmetry_group_IT_number 2
_symmetry_cell_setting 'triclinic'
loop_
_space_group_symop_operation_xyz
x,y,z
-x,-y,-z
loop_
_atom_site_type_symbol
_atom_site_label
_atom_site_fract_x
_atom_site_fract_y
_atom_site_fract_z
Si Si1 0.361363 0.221096 0.141046
Si Si2 0.241853 0.728816 0.007062
Si Si3 0.123900 0.979037 0.405807
Si Si4 0.799553 0.838636 0.746085
Si Si5 0.020429 0.414498 0.625019
O O1 0.677209 0.050603 0.357929
O O2 0.224856 0.212083 0.124427
O O3 0.204983 0.412715 0.257116
O O4 0.307876 0.243783 0.871459
O O5 0.957116 0.846374 0.945184
O O6 0.500000 0.500000 0.000000
O O7 0.293073 0.797219 0.253763
O O8 0.134802 0.828458 0.785438
O O9 0.000000 0.000000 0.500000
O O10 0.007905 0.668784 0.603413
O O11 0.500000 0.000000 0.500000
O O12 0.000000 0.500000 0.500000
#
# Coordination Sequence:
#
# PCOD9013770 Si02
#       5
#     2   2   2   2   2
#     4  10  21  41  65  96 126 173 224 272 331 400
#     4  11  26  47  68  99 142 180 223 281 341 404
#     4  11  26  43  69  98 138 183 225 275 344 406
#     4  11  22  39  67  97 127 169 222 274 327 393
#     4   9  21  37  65  94 128 163 218 279 331 387
#
# _framework density 23.634360000000001
#
# number of rings (size 3 to 8) (size 9 to 14) (size 15 to 20)
#    0.000    1.600    2.000    1.200    2.800    9.600 
#    0.000    0.000    0.000    0.000    0.000    0.000 
#    0.000    0.000    0.000    0.000    0.000    0.000 
#
# Total GULP energy -55809.420675 kJ/mol
# GULP energy per Si atom -5580.942067 kJ/mol
# Density = 2.358057 g / cm^3
# Si number density = 23.634360 Si / 1000 Ang^3
#
#
#
# Elastic Constant Matrix: (Units=GPa)
#
#
# Indices 1 2 3 4 5 6 
#
# 1 107.7776 6.4969 54.3117 -17.5966 -2.9660 11.3305
# 2 6.4969 99.8776 34.4994 -12.1476 -14.4890 9.5479
# 3 54.3117 34.4994 178.2931 -14.1663 -13.3838 10.5615
# 4 -17.5966 -12.1476 -14.1663 34.9539 3.1220 -3.5192
# 5 -2.9660 -14.4890 -13.3838 3.1220 41.8185 -2.0778
# 6 11.3305 9.5479 10.5615 -3.5192 -2.0778 26.1828
#
#
#
# Elastic Compliance Matrix: (Units=1/GPa)
#
#
# Indices 1 2 3 4 5 6 
#
# 1 0.012050 0.001262 -0.003337 0.004807 -0.000319 -0.003708
# 2 0.001262 0.011788 -0.001968 0.003317 0.003130 -0.003357
# 3 -0.003337 -0.001968 0.007168 0.000365 0.001320 -0.000576
# 4 0.004807 0.003317 0.000365 0.032487 -0.000775 0.000868
# 5 -0.000319 0.003130 0.001320 -0.000775 0.025474 0.000382
# 6 -0.003708 -0.003357 -0.000576 0.000868 0.000382 0.041401
#
#
# Mechanical properties :
#
#
# Convention : Reuss Voigt Hill
#
# Bulk Modulus (GPa) = 43.63104 64.06270 53.84687
# Shear Modulus (GPa) = 34.22444 39.96707 37.09576
#
# Velocity S-wave (km/s) = 3.80949 4.11671 3.96608
# Velocity P-wave (km/s) = 6.15228 7.05415 6.61859
#
# Compressibility (1/GPa) = 0.02291946
#
# Stress axis : x y z
#
# Youngs Moduli (GPa) = 82.98856 84.83012 139.50252
#
# Poissons Ratio (x) = -0.10703 0.46554
# Poissons Ratio (y) = -0.10470 0.27455
# Poissons Ratio (z) = 0.27694 0.16695
#
# Static dielectric constant tensor:
#      x y z
#    x 1.866210 -0.042220 0.043880 
#    y -0.042220 2.072700 -0.007960 
#    z 0.043880 -0.007960 1.950190 
# 
# From -- ./inp_files/20701.got.cif
#   From: 2010.05.17/outbox.cif.g08.bks.cpg/sg2_11_cif.got.tgz:20701.got - 2010.06.03 11:33:40.
