data_PCOD9013438
_publ_section_title
;
Structure prediction by ZEFSAII (Michael W. Deem and Ramdas Pophale) SiO2 
 PCOD9013438
Probable space group: P -1
;
_chemical_formula_sum "Si O2"
_cell_formula_units_Z 14
_cell_length_a 10.027504
_cell_length_b 8.975679
_cell_length_c 11.847558
_cell_angle_alpha 132.544638
_cell_angle_beta 56.878858
_cell_angle_gamma 137.378412
_cell_volume 529.424042
_symmetry_space_group_name_H-M "P -1"
_symmetry_group_IT_number 2
_symmetry_cell_setting 'triclinic'
loop_
_space_group_symop_operation_xyz
x,y,z
-x,-y,-z
loop_
_atom_site_type_symbol
_atom_site_label
_atom_site_fract_x
_atom_site_fract_y
_atom_site_fract_z
Si Si1 0.879071 0.492287 0.416817
Si Si2 0.281055 0.031619 0.694328
Si Si3 0.469271 0.688900 0.677674
Si Si4 0.604345 0.515900 0.706106
Si Si5 0.169016 0.729593 0.210836
Si Si6 0.217066 0.101221 0.997958
Si Si7 0.948745 0.730664 0.102778
O O1 0.724457 0.367473 0.319324
O O2 0.794094 0.614263 0.591000
O O3 0.085533 0.659139 0.341067
O O4 0.842618 0.267057 0.394982
O O5 0.471038 0.213726 0.621676
O O6 0.145987 0.120745 0.770633
O O7 0.334470 0.108217 0.840625
O O8 0.500000 0.500000 0.500000
O O9 0.480163 0.608580 0.758057
O O10 0.643225 0.982458 0.733014
O O11 0.676739 0.634399 0.855601
O O12 0.006534 0.701459 0.185036
O O13 0.186155 0.520772 0.039418
O O14 0.155628 0.903575 0.025683
O O15 0.000000 0.000000 0.000000
#
# Coordination Sequence:
#
# PCOD9013438 Si02
#       7
#     2   2   2   2   2   2   2
#     4  11  25  44  70 107 142 178 235 281 355 416
#     4  11  23  44  70  98 141 180 231 286 344 416
#     4  10  24  44  69 100 140 181 230 279 346 416
#     4  11  23  44  66  99 137 184 227 290 342 411
#     4  11  22  45  73 102 140 179 236 294 339 412
#     4  10  21  41  64  95 132 173 232 275 338 406
#     4  10  22  43  71 103 133 184 237 282 348 409
#
# _framework density 26.443832
#
# number of rings (size 3 to 8) (size 9 to 14) (size 15 to 20)
#    0.000    1.429    2.857    1.714    0.000    5.714 
#   10.286    5.714    0.000    0.000    0.000    0.000 
#    0.000    0.000    0.000    0.000    0.000    0.000 
#
# Total GULP energy -78349.815029 kJ/mol
# GULP energy per Si atom -5596.415359 kJ/mol
# Density = 2.638365 g / cm^3
# Si number density = 26.443832 Si / 1000 Ang^3
#
#
#
# Elastic Constant Matrix: (Units=GPa)
#
#
# Indices 1 2 3 4 5 6 
#
# 1 81.8546 12.9804 1.4033 5.7208 2.8883 -21.9327
# 2 12.9804 190.6351 28.3810 8.9181 5.5654 -4.8210
# 3 1.4033 28.3810 61.9509 -0.8990 8.4411 4.6906
# 4 5.7208 8.9181 -0.8990 57.3051 -1.4119 5.5494
# 5 2.8883 5.5654 8.4411 -1.4119 37.5200 7.1705
# 6 -21.9327 -4.8210 4.6906 5.5494 7.1705 34.1156
#
#
#
# Elastic Compliance Matrix: (Units=1/GPa)
#
#
# Indices 1 2 3 4 5 6 
#
# 1 0.015587 -0.000475 -0.000577 -0.002650 -0.003229 0.011142
# 2 -0.000475 0.005765 -0.002667 -0.001014 -0.000475 0.001140
# 3 -0.000577 -0.002667 0.018014 0.000945 -0.003054 -0.002737
# 4 -0.002650 -0.001014 0.000945 0.018453 0.001862 -0.005370
# 5 -0.003229 -0.000475 -0.003054 0.001862 0.029292 -0.008182
# 6 0.011142 0.001140 -0.002737 -0.005370 -0.008182 0.039606
#
#
# Mechanical properties :
#
#
# Convention : Reuss Voigt Hill
#
# Bulk Modulus (GPa) = 31.32207 46.66333 38.99270
# Shear Modulus (GPa) = 34.53069 45.23321 39.88195
#
# Velocity S-wave (km/s) = 3.61752 4.14035 3.88774
# Velocity P-wave (km/s) = 5.41471 6.36720 5.91017
#
# Compressibility (1/GPa) = 0.03192637
#
# Stress axis : x y z
#
# Youngs Moduli (GPa) = 64.15696 173.45677 55.51354
#
# Poissons Ratio (x) = 0.08245 0.03206
# Poissons Ratio (y) = 0.03050 0.14804
# Poissons Ratio (z) = 0.03705 0.46256
#
# Static dielectric constant tensor:
#      x y z
#    x 2.131960 -0.019240 0.015710 
#    y -0.019240 2.110670 -0.024250 
#    z 0.015710 -0.024250 2.069770 
# 
# From -- ./inp_files/419973.got.cif
#   From: 2010.05.17/outbox.cif.g08.bks.cpg/sg2_210_cif.got.tgz:419973.got - 2010.06.03 11:33:40.
