data_PCOD9013095
_publ_section_title
;
Structure prediction by ZEFSAII (Michael W. Deem and Ramdas Pophale) SiO2 
 PCOD9013095
Probable space group: P -1
;
_chemical_formula_sum "Si O2"
_cell_formula_units_Z 12
_cell_length_a 7.163289
_cell_length_b 8.673653
_cell_length_c 11.830612
_cell_angle_alpha 84.397751
_cell_angle_beta 73.471086
_cell_angle_gamma 124.063203
_cell_volume 552.369764
_symmetry_space_group_name_H-M "P -1"
_symmetry_group_IT_number 2
_symmetry_cell_setting 'triclinic'
loop_
_space_group_symop_operation_xyz
x,y,z
-x,-y,-z
loop_
_atom_site_type_symbol
_atom_site_label
_atom_site_fract_x
_atom_site_fract_y
_atom_site_fract_z
Si Si1 0.387288 0.239076 0.225179
Si Si2 0.253923 0.317322 0.883317
Si Si3 0.292173 0.028962 0.029454
Si Si4 0.150875 0.282163 0.472358
Si Si5 0.576155 0.722104 0.371088
Si Si6 0.569545 0.020378 0.617271
O O1 0.591109 0.456541 0.124862
O O2 0.256106 0.082647 0.157772
O O3 0.205165 0.246802 0.338781
O O4 0.514585 0.173057 0.288267
O O5 0.297513 0.322356 0.741361
O O6 0.355668 0.211541 0.931699
O O7 0.960150 0.168793 0.961256
O O8 0.500000 0.000000 0.000000
O O9 0.305055 0.514839 0.448867
O O10 0.274329 0.221089 0.542604
O O11 0.866715 0.163969 0.558825
O O12 0.546903 0.880747 0.319983
O O13 0.500000 0.000000 0.500000
#
# Coordination Sequence:
#
# PCOD9013095 Si02
#       6
#     2   2   2   2   2   2
#     4  11  23  43  64  93 128 165 207 258 312 366
#     4  10  24  44  65  92 125 163 207 261 313 369
#     4  11  24  45  68  90 121 162 212 264 316 367
#     4  10  22  40  61  91 129 167 206 254 306 372
#     4  10  21  41  63  89 127 167 207 254 311 366
#     4  12  23  36  60  97 129 165 207 245 307 374
#
# _framework density 21.72458
#
# number of rings (size 3 to 8) (size 9 to 14) (size 15 to 20)
#    0.000    1.333    1.667    3.500    2.333    0.667 
#    9.000    0.000    0.000    0.000    0.000    0.000 
#    0.000    0.000    0.000    0.000    0.000    0.000 
#
# Total GULP energy -67070.739852 kJ/mol
# GULP energy per Si atom -5589.228321 kJ/mol
# Density = 2.167513 g / cm^3
# Si number density = 21.724580 Si / 1000 Ang^3
#
#
#
# Elastic Constant Matrix: (Units=GPa)
#
#
# Indices 1 2 3 4 5 6 
#
# 1 92.4244 31.9276 0.6502 -16.3055 11.1351 -5.4033
# 2 31.9276 75.2677 1.7481 -23.9559 4.7308 7.6111
# 3 0.6502 1.7481 52.6724 2.6777 17.9359 6.0767
# 4 -16.3055 -23.9559 2.6777 49.3212 -8.2088 8.6816
# 5 11.1351 4.7308 17.9359 -8.2088 28.2844 -4.0447
# 6 -5.4033 7.6111 6.0767 8.6816 -4.0447 26.9617
#
#
#
# Elastic Compliance Matrix: (Units=1/GPa)
#
#
# Indices 1 2 3 4 5 6 
#
# 1 0.013593 -0.005744 0.001190 0.000296 -0.004589 0.003294
# 2 -0.005744 0.019679 -0.000071 0.009427 0.000368 -0.009671
# 3 0.001190 -0.000071 0.026562 -0.002937 -0.019250 -0.007670
# 4 0.000296 0.009427 -0.002937 0.028003 0.006877 -0.009925
# 5 -0.004589 0.000368 -0.019250 0.006877 0.052588 0.008990
# 6 0.003294 -0.009671 -0.007670 -0.009925 0.008990 0.046753
#
#
# Mechanical properties :
#
#
# Convention : Reuss Voigt Hill
#
# Bulk Modulus (GPa) = 19.76895 32.11293 25.94094
# Shear Modulus (GPa) = 23.44227 33.31601 28.37914
#
# Velocity S-wave (km/s) = 3.28848 3.92032 3.61822
# Velocity P-wave (km/s) = 4.85163 5.94187 5.42421
#
# Compressibility (1/GPa) = 0.05058439
#
# Stress axis : x y z
#
# Youngs Moduli (GPa) = 73.56637 50.81475 37.64789
#
# Poissons Ratio (x) = 0.29189 -0.04481
# Poissons Ratio (y) = 0.42258 0.00268
# Poissons Ratio (z) = -0.08757 0.00361
#
# Static dielectric constant tensor:
#      x y z
#    x 1.761720 -0.016140 -0.002830 
#    y -0.016140 1.850980 0.013140 
#    z -0.002830 0.013140 1.823330 
# 
# From -- ./inp_files/27989.got.cif
#   From: 2010.05.17/outbox.cif.g08.bks.cpg/sg2_14_cif.got.tgz:27989.got - 2010.06.03 11:33:40.
