data_PCOD9013644
_publ_section_title
;
Structure prediction by ZEFSAII (Michael W. Deem and Ramdas Pophale) SiO2 
 PCOD9013644
Probable space group: P -1
;
_chemical_formula_sum "Si O2"
_cell_formula_units_Z 16
_cell_length_a 22.751898
_cell_length_b 5.510422
_cell_length_c 19.241664
_cell_angle_alpha 111.269434
_cell_angle_beta 162.234949
_cell_angle_gamma 63.906843
_cell_volume 647.028527
_symmetry_space_group_name_H-M "P -1"
_symmetry_group_IT_number 2
_symmetry_cell_setting 'triclinic'
loop_
_space_group_symop_operation_xyz
x,y,z
-x,-y,-z
loop_
_atom_site_type_symbol
_atom_site_label
_atom_site_fract_x
_atom_site_fract_y
_atom_site_fract_z
Si Si1 0.452822 0.046777 0.157853
Si Si2 0.087692 0.443116 0.976828
Si Si3 0.202728 0.183972 0.223155
Si Si4 0.976739 0.317895 0.691409
Si Si5 0.042343 0.253740 0.394485
Si Si6 0.421532 0.239503 0.879224
Si Si7 0.396818 0.637915 0.148955
Si Si8 0.413246 0.661450 0.325030
O O1 0.521753 0.316011 0.266919
O O2 0.499101 0.906144 0.120557
O O3 0.515884 0.819208 0.265890
O O4 0.209325 0.186205 0.911615
O O5 0.951637 0.751851 0.880047
O O6 0.989527 0.357306 0.791305
O O7 0.093535 0.276100 0.035965
O O8 0.315311 0.429482 0.210041
O O9 0.351551 0.366766 0.420850
O O10 0.341066 0.874783 0.329935
O O11 0.898308 0.606621 0.592754
O O12 0.881810 0.077787 0.546652
O O13 0.172702 0.346327 0.608878
O O14 0.796685 0.339260 0.117584
O O15 0.500000 0.500000 0.000000
O O16 0.500000 0.000000 0.000000
O O17 0.324093 0.752849 0.156223
#
# Coordination Sequence:
#
# PCOD9013644 Si02
#       8
#     2   2   2   2   2   2   2   2
#     4  10  21  41  65  92 123 162 209 258 321 378
#     4  11  21  40  60  89 132 169 231 270 340 379
#     4  10  24  36  59  90 128 182 216 280 334 402
#     4  10  21  41  67  90 123 169 220 276 307 384
#     4  10  21  41  65  92 123 162 209 258 321 378
#     4  12  26  44  65  98 138 164 198 262 328 402
#     4  10  21  41  67  90 123 169 220 276 307 384
#     4  11  21  40  60  89 132 169 231 270 340 379
#
# _framework density 24.728428999999998
#
# number of rings (size 3 to 8) (size 9 to 14) (size 15 to 20)
#    0.000    1.500    2.500    3.750    0.000    2.000 
#    0.000   15.000    0.000    0.000    0.000    0.000 
#    0.000    0.000    0.000    0.000    0.000    0.000 
#
# Total GULP energy -89300.755732 kJ/mol
# GULP energy per Si atom -5581.297233 kJ/mol
# Density = 2.467215 g / cm^3
# Si number density = 24.728429 Si / 1000 Ang^3
#
#
#
# Elastic Constant Matrix: (Units=GPa)
#
#
# Indices 1 2 3 4 5 6 
#
# 1 99.0716 39.1605 0.4281 -6.9206 -0.0925 3.0064
# 2 39.1605 102.0691 10.0959 32.1278 -1.1875 21.0946
# 3 0.4281 10.0959 97.2178 4.9513 4.4730 5.8838
# 4 -6.9206 32.1278 4.9513 25.8623 -1.7468 0.1911
# 5 -0.0925 -1.1875 4.4730 -1.7468 36.6285 -3.5210
# 6 3.0064 21.0946 5.8838 0.1911 -3.5210 49.6718
#
#
#
# Elastic Compliance Matrix: (Units=1/GPa)
#
#
# Indices 1 2 3 4 5 6 
#
# 1 0.017726 -0.015482 -0.000084 0.024034 0.001229 0.005506
# 2 -0.015482 0.032311 -0.000152 -0.044314 -0.002313 -0.012760
# 3 -0.000084 -0.000152 0.010548 -0.001946 -0.001509 -0.001279
# 4 0.024034 -0.044314 -0.001946 0.100752 0.005357 0.017587
# 5 0.001229 -0.002313 -0.001509 0.005357 0.027962 0.003048
# 6 0.005506 -0.012760 -0.001279 0.017587 0.003048 0.025518
#
#
# Mechanical properties :
#
#
# Convention : Reuss Voigt Hill
#
# Bulk Modulus (GPa) = 34.30419 44.19193 39.24806
# Shear Modulus (GPa) = 19.53358 39.01077 29.27217
#
# Velocity S-wave (km/s) = 2.81361 3.97617 3.44429
# Velocity P-wave (km/s) = 4.94547 6.24416 5.63237
#
# Compressibility (1/GPa) = 0.02915096
#
# Stress axis : x y z
#
# Youngs Moduli (GPa) = 56.41279 30.94935 94.80218
#
# Poissons Ratio (x) = 0.47914 0.00798
# Poissons Ratio (y) = 0.87336 0.01438
# Poissons Ratio (z) = 0.00475 0.00469
#
# Static dielectric constant tensor:
#      x y z
#    x 1.928920 0.007790 0.053150 
#    y 0.007790 2.128010 -0.031860 
#    z 0.053150 -0.031860 2.037480 
# 
# From -- ./inp_files/576837.got.cif
#   From: 2010.05.17/outbox.cif.g08.bks.cpg/sg2_289_cif.got.tgz:576837.got - 2010.06.03 11:33:40.
