data_PCOD9013651
_publ_section_title
;
Structure prediction by ZEFSAII (Michael W. Deem and Ramdas Pophale) SiO2 
 PCOD9013651
Probable space group: P -1
;
_chemical_formula_sum "Si O2"
_cell_formula_units_Z 10
_cell_length_a 13.105603
_cell_length_b 8.434311
_cell_length_c 7.509985
_cell_angle_alpha 58.622779
_cell_angle_beta 127.163837
_cell_angle_gamma 135.119846
_cell_volume 460.424372
_symmetry_space_group_name_H-M "P -1"
_symmetry_group_IT_number 2
_symmetry_cell_setting 'triclinic'
loop_
_space_group_symop_operation_xyz
x,y,z
-x,-y,-z
loop_
_atom_site_type_symbol
_atom_site_label
_atom_site_fract_x
_atom_site_fract_y
_atom_site_fract_z
Si Si1 0.614247 0.271197 0.446065
Si Si2 0.607032 0.631210 0.706212
Si Si3 0.892768 0.090738 0.818560
Si Si4 0.822409 0.282239 0.945339
Si Si5 0.794784 0.435034 0.177210
O O1 0.512216 0.371424 0.279765
O O2 0.720503 0.344886 0.690899
O O3 0.721765 0.338260 0.348236
O O4 0.500000 0.000000 0.500000
O O5 0.500000 0.500000 0.500000
O O6 0.743857 0.900051 0.657921
O O7 0.696041 0.525954 0.937753
O O8 0.823909 0.098796 0.933197
O O9 0.021369 0.350789 0.741281
O O10 0.000000 0.000000 0.000000
O O11 0.775494 0.252708 0.119692
O O12 0.000000 0.500000 0.000000
#
# Coordination Sequence:
#
# PCOD9013651 Si02
#       5
#     2   2   2   2   2
#     4  12  24  42  63  97 131 165 213 264 309 376
#     4  11  21  42  66  95 130 164 210 267 312 372
#     4   9  20  40  65  91 127 165 209 259 310 380
#     4  10  21  41  65  92 126 165 213 258 312 378
#     4  10  23  42  68  91 130 172 204 256 326 372
#
# _framework density 21.719094999999999
#
# number of rings (size 3 to 8) (size 9 to 14) (size 15 to 20)
#    0.000    1.600    4.000    0.600    0.000    4.000 
#    0.000    1.000    0.000    0.000    0.000    0.000 
#    0.000    0.000    0.000    0.000    0.000    0.000 
#
# Total GULP energy -55790.461813 kJ/mol
# GULP energy per Si atom -5579.046181 kJ/mol
# Density = 2.166966 g / cm^3
# Si number density = 21.719095 Si / 1000 Ang^3
#
#
#
# Elastic Constant Matrix: (Units=GPa)
#
#
# Indices 1 2 3 4 5 6 
#
# 1 151.4420 42.1639 28.1728 5.5080 -14.3719 -3.2214
# 2 42.1639 101.6800 57.7459 33.4270 -14.8796 7.5925
# 3 28.1728 57.7459 71.1748 23.2624 -9.1609 17.3469
# 4 5.5080 33.4270 23.2624 37.9170 5.3690 7.6643
# 5 -14.3719 -14.8796 -9.1609 5.3690 56.0964 -2.1558
# 6 -3.2214 7.5925 17.3469 7.6643 -2.1558 37.5343
#
#
#
# Elastic Compliance Matrix: (Units=1/GPa)
#
#
# Indices 1 2 3 4 5 6 
#
# 1 0.007772 -0.002976 -0.001630 0.002047 0.000803 0.001650
# 2 -0.002976 0.024059 -0.014430 -0.013521 0.004733 0.004580
# 3 -0.001630 -0.014430 0.030176 -0.003539 0.000622 -0.010409
# 4 0.002047 -0.013521 -0.003539 0.042193 -0.007852 -0.004520
# 5 0.000803 0.004733 0.000622 -0.007852 0.020202 0.001588
# 6 0.001650 0.004580 -0.010409 -0.004520 0.001588 0.031682
#
#
# Mechanical properties :
#
#
# Convention : Reuss Voigt Hill
#
# Bulk Modulus (GPa) = 41.77787 64.49578 53.13683
# Shear Modulus (GPa) = 24.73607 39.39049 32.06328
#
# Velocity S-wave (km/s) = 3.37843 4.26330 3.84640
# Velocity P-wave (km/s) = 5.87331 7.34807 6.65169
#
# Compressibility (1/GPa) = 0.02393612
#
# Stress axis : x y z
#
# Youngs Moduli (GPa) = 128.67091 41.56370 33.13884
#
# Poissons Ratio (x) = 0.12368 0.05401
# Poissons Ratio (y) = 0.38290 0.47819
# Poissons Ratio (z) = 0.20971 0.59976
#
# Static dielectric constant tensor:
#      x y z
#    x 1.823890 -0.030480 0.000070 
#    y -0.030480 1.798630 0.011340 
#    z 0.000070 0.011340 1.769420 
# 
# From -- ./inp_files/15331.got.cif
#   From: 2010.05.17/outbox.cif.g08.bks.cpg/sg2_8_cif.got.tgz:15331.got - 2010.06.03 11:33:40.
