data_PCOD9013090
_publ_section_title
;
Structure prediction by ZEFSAII (Michael W. Deem and Ramdas Pophale) SiO2 
 PCOD9013090
Probable space group: P -1
;
_chemical_formula_sum "Si O2"
_cell_formula_units_Z 16
_cell_length_a 20.997781
_cell_length_b 5.430028
_cell_length_c 6.053496
_cell_angle_alpha 96.734476
_cell_angle_beta 103.655067
_cell_angle_gamma 84.213824
_cell_volume 664.158631
_symmetry_space_group_name_H-M "P -1"
_symmetry_group_IT_number 2
_symmetry_cell_setting 'triclinic'
loop_
_space_group_symop_operation_xyz
x,y,z
-x,-y,-z
loop_
_atom_site_type_symbol
_atom_site_label
_atom_site_fract_x
_atom_site_fract_y
_atom_site_fract_z
Si Si1 0.282226 0.738147 0.117357
Si Si2 0.415654 0.780138 0.981033
Si Si3 0.553999 0.766386 0.269066
Si Si4 0.796084 0.846821 0.956736
Si Si5 0.966288 0.000336 0.721590
Si Si6 0.669247 0.667944 0.600764
Si Si7 0.886079 0.533138 0.705919
Si Si8 0.235023 0.349447 0.688605
O O1 0.344900 0.820658 0.039656
O O2 0.253045 0.548935 0.901528
O O3 0.317021 0.618605 0.351128
O O4 0.213008 0.890477 0.143423
O O5 0.422981 0.503541 0.849124
O O6 0.427551 0.999077 0.839321
O O7 0.475348 0.777599 0.206037
O O8 0.593552 0.758582 0.532478
O O9 0.722531 0.780919 0.814515
O O10 0.855914 0.659440 0.919531
O O11 0.792734 0.872756 0.218261
O O12 0.922319 0.262702 0.718672
O O13 0.930704 0.742800 0.669641
O O14 0.000000 0.000000 0.500000
O O15 0.000000 0.000000 0.000000
O O16 0.699640 0.728979 0.397430
O O17 0.820335 0.538624 0.507026
#
# Coordination Sequence:
#
# PCOD9013090 Si02
#       8
#     2   2   2   2   2   2   2   2
#     4  11  23  38  66  99 138 184 236 303 367 436
#     4  10  22  39  65  89 126 179 238 293 368 438
#     4  10  21  41  63  89 124 181 236 298 363 446
#     4  10  25  40  66 102 145 184 238 298 361 434
#     4  12  30  54  85 118 160 202 251 302 362 431
#     4  10  22  39  60  97 133 179 237 298 371 432
#     4  11  28  47  79 113 150 198 246 294 360 432
#     4  10  23  42  66  99 144 187 235 296 361 427
#
# _framework density 24.090629
#
# number of rings (size 3 to 8) (size 9 to 14) (size 15 to 20)
#    0.000    1.500    1.250    1.500   14.000    1.500 
#    0.000    0.625    0.000    0.000    0.000    0.000 
#    0.000    0.000    0.000    0.000    0.000    0.000 
#
# Total GULP energy -89069.733455 kJ/mol
# GULP energy per Si atom -5566.858341 kJ/mol
# Density = 2.403580 g / cm^3
# Si number density = 24.090629 Si / 1000 Ang^3
#
#
#
# Elastic Constant Matrix: (Units=GPa)
#
#
# Indices 1 2 3 4 5 6 
#
# 1 75.5979 44.9788 17.6952 3.0641 -0.4252 -1.8464
# 2 44.9788 109.2027 0.2668 -5.3616 -15.9050 -26.7977
# 3 17.6952 0.2668 54.6856 -7.7553 -3.6398 -5.5004
# 4 3.0641 -5.3616 -7.7553 26.7886 -1.5709 0.7920
# 5 -0.4252 -15.9050 -3.6398 -1.5709 33.7211 -1.7005
# 6 -1.8464 -26.7977 -5.5004 0.7920 -1.7005 41.3332
#
#
#
# Elastic Compliance Matrix: (Units=1/GPa)
#
#
# Indices 1 2 3 4 5 6 
#
# 1 0.023923 -0.013756 -0.010399 -0.008702 -0.008188 -0.009404
# 2 -0.013756 0.020237 0.007641 0.008088 0.011271 0.013831
# 3 -0.010399 0.007641 0.024269 0.009921 0.006949 0.007815
# 4 -0.008702 0.008088 0.009921 0.043063 0.007066 0.005641
# 5 -0.008188 0.011271 0.006949 0.007066 0.036412 0.009229
# 6 -0.009404 0.013831 0.007815 0.005641 0.009229 0.034052
#
#
# Mechanical properties :
#
#
# Convention : Reuss Voigt Hill
#
# Bulk Modulus (GPa) = 28.24702 40.59642 34.42172
# Shear Modulus (GPa) = 22.04720 32.13827 27.09274
#
# Velocity S-wave (km/s) = 3.02847 3.65644 3.35717
# Velocity P-wave (km/s) = 4.89690 5.89187 5.41728
#
# Compressibility (1/GPa) = 0.03540196
#
# Stress axis : x y z
#
# Youngs Moduli (GPa) = 41.80044 49.41421 41.20408
#
# Poissons Ratio (x) = 0.67972 0.42848
# Poissons Ratio (y) = 0.57499 -0.31483
# Poissons Ratio (z) = 0.43468 -0.37756
#
# Static dielectric constant tensor:
#      x y z
#    x 1.987450 0.183820 -0.024990 
#    y 0.183820 2.805850 -0.105410 
#    z -0.024990 -0.105410 2.001950 
# 
# From -- ./inp_files/14298.got.cif
#   From: 2010.05.17/outbox.cif.g08.bks.cpg/sg2_8_cif.got.tgz:14298.got - 2010.06.03 11:33:40.
