data_PCOD9013987
_publ_section_title
;
Structure prediction by ZEFSAII (Michael W. Deem and Ramdas Pophale) SiO2 
 PCOD9013987
Probable space group: P -1
;
_chemical_formula_sum "Si O2"
_cell_formula_units_Z 16
_cell_length_a 6.731551
_cell_length_b 10.559356
_cell_length_c 23.697415
_cell_angle_alpha 150.969976
_cell_angle_beta 118.932166
_cell_angle_gamma 64.319347
_cell_volume 715.170700
_symmetry_space_group_name_H-M "P -1"
_symmetry_group_IT_number 2
_symmetry_cell_setting 'triclinic'
loop_
_space_group_symop_operation_xyz
x,y,z
-x,-y,-z
loop_
_atom_site_type_symbol
_atom_site_label
_atom_site_fract_x
_atom_site_fract_y
_atom_site_fract_z
Si Si1 0.095647 0.256120 0.882536
Si Si2 0.712020 0.434101 0.067564
Si Si3 0.404294 0.798982 0.238504
Si Si4 0.105435 0.280044 0.134924
Si Si5 0.425425 0.297894 0.363522
Si Si6 0.355978 0.061500 0.558865
Si Si7 0.481591 0.893816 0.819287
Si Si8 0.946702 0.435934 0.644913
O O1 0.270861 0.378597 0.910451
O O2 0.236570 0.032710 0.848682
O O3 0.867426 0.168868 0.786874
O O4 0.000000 0.500000 0.000000
O O5 0.523358 0.537608 0.126879
O O6 0.965458 0.446493 0.134364
O O7 0.650256 0.138819 0.927525
O O8 0.500796 0.851042 0.333610
O O9 0.475508 0.021350 0.291041
O O10 0.032043 0.396117 0.230221
O O11 0.380016 0.254641 0.169090
O O12 0.000000 0.000000 0.000000
O O13 0.500000 0.500000 0.500000
O O14 0.165829 0.381924 0.347001
O O15 0.527954 0.279042 0.306505
O O16 0.181237 0.292912 0.608059
O O17 0.500000 0.000000 0.500000
O O18 0.221681 0.803225 0.458295
#
# Coordination Sequence:
#
# PCOD9013987 Si02
#       8
#     2   2   2   2   2   2   2   2
#     4  12  24  38  65 100 130 166 210 270 328 379
#     4  11  21  43  69  92 127 168 217 266 322 384
#     4  12  24  41  67  97 127 169 222 264 320 386
#     4   9  20  38  70  90 120 169 209 262 321 373
#     4  11  22  42  65  90 128 177 210 257 319 380
#     4  11  25  42  67  96 127 167 218 266 316 384
#     4  10  21  41  66  93 130 166 211 265 320 382
#     4  10  22  44  68  89 129 170 211 265 325 373
#
# _framework density 22.372284000000001
#
# number of rings (size 3 to 8) (size 9 to 14) (size 15 to 20)
#    0.000    1.250    5.000    1.125    1.750    1.000 
#    4.500    1.875    0.000    0.000    0.000    0.000 
#    0.000    0.000    0.000    0.000    0.000    0.000 
#
# Total GULP energy -89302.703825 kJ/mol
# GULP energy per Si atom -5581.418989 kJ/mol
# Density = 2.232136 g / cm^3
# Si number density = 22.372284 Si / 1000 Ang^3
#
#
#
# Elastic Constant Matrix: (Units=GPa)
#
#
# Indices 1 2 3 4 5 6 
#
# 1 70.2014 21.4429 22.2511 -6.8935 -11.4452 -33.3568
# 2 21.4429 126.6383 17.8599 -15.9578 -20.3580 -43.6732
# 3 22.2511 17.8599 125.8607 -13.5559 -21.8468 -17.5229
# 4 -6.8935 -15.9578 -13.5559 37.7344 -5.5236 -2.4310
# 5 -11.4452 -20.3580 -21.8468 -5.5236 26.4180 7.3676
# 6 -33.3568 -43.6732 -17.5229 -2.4310 7.3676 40.5870
#
#
#
# Elastic Compliance Matrix: (Units=1/GPa)
#
#
# Indices 1 2 3 4 5 6 
#
# 1 0.033956 0.013848 0.003457 0.019001 0.020584 0.041702
# 2 0.013848 0.023270 0.005272 0.019859 0.022457 0.035810
# 3 0.003457 0.005272 0.011708 0.009875 0.014070 0.011607
# 4 0.019001 0.019859 0.009875 0.048966 0.031197 0.038519
# 5 0.020584 0.022457 0.014070 0.031197 0.072219 0.035916
# 6 0.041702 0.035810 0.011607 0.038519 0.035916 0.098243
#
#
# Mechanical properties :
#
#
# Convention : Reuss Voigt Hill
#
# Bulk Modulus (GPa) = 8.76511 49.53424 29.14967
# Shear Modulus (GPa) = 17.77862 38.35764 28.06813
#
# Velocity S-wave (km/s) = 2.82205 4.14516 3.54587
# Velocity P-wave (km/s) = 3.81379 6.71556 5.46094
#
# Compressibility (1/GPa) = 0.11408875
#
# Stress axis : x y z
#
# Youngs Moduli (GPa) = 29.45006 42.97300 85.41366
#
# Poissons Ratio (x) = -0.59508 -0.29530
# Poissons Ratio (y) = -0.40782 -0.45034
# Poissons Ratio (z) = -0.10182 -0.22657
#
# Static dielectric constant tensor:
#      x y z
#    x 1.632280 -0.201540 0.064840 
#    y -0.201540 1.795650 0.063370 
#    z 0.064840 0.063370 1.859310 
# 
# From -- ./inp_files/95503.got.cif
#   From: 2010.05.17/outbox.cif.g08.bks.cpg/sg2_48_cif.got.tgz:95503.got - 2010.06.03 11:33:40.
