data_PCOD9013840
_publ_section_title
;
Structure prediction by ZEFSAII (Michael W. Deem and Ramdas Pophale) SiO2 
 PCOD9013840
Probable space group: P -1
;
_chemical_formula_sum "Si O2"
_cell_formula_units_Z 16
_cell_length_a 9.632699
_cell_length_b 6.495669
_cell_length_c 15.707431
_cell_angle_alpha 95.597175
_cell_angle_beta 132.412283
_cell_angle_gamma 72.799025
_cell_volume 685.900654
_symmetry_space_group_name_H-M "P -1"
_symmetry_group_IT_number 2
_symmetry_cell_setting 'triclinic'
loop_
_space_group_symop_operation_xyz
x,y,z
-x,-y,-z
loop_
_atom_site_type_symbol
_atom_site_label
_atom_site_fract_x
_atom_site_fract_y
_atom_site_fract_z
Si Si1 0.693610 0.039766 0.544660
Si Si2 0.963789 0.581459 0.586297
Si Si3 0.614382 0.413200 0.231554
Si Si4 0.664540 0.112437 0.829122
Si Si5 0.028694 0.219653 0.738908
Si Si6 0.475079 0.935920 0.892896
Si Si7 0.930775 0.372552 0.888355
Si Si8 0.457548 0.252429 0.314291
O O1 0.865358 0.092113 0.671497
O O2 0.588258 0.245161 0.449730
O O3 0.500000 0.000000 0.500000
O O4 0.800394 0.816289 0.529515
O O5 0.938898 0.411183 0.639952
O O6 0.000000 0.500000 0.500000
O O7 0.166072 0.615107 0.703579
O O8 0.506978 0.657401 0.225045
O O9 0.604836 0.254356 0.298393
O O10 0.499143 0.320902 0.110341
O O11 0.633431 0.991549 0.898153
O O12 0.859255 0.179526 0.892378
O O13 0.618136 0.957024 0.732622
O O14 0.055430 0.296445 0.849871
O O15 0.242833 0.074205 0.785154
O O16 0.500000 0.000000 0.000000
O O17 0.732315 0.543007 0.773004
O O18 0.000000 0.500000 0.000000
#
# Coordination Sequence:
#
# PCOD9013840 Si02
#       8
#     2   2   2   2   2   2   2   2
#     4  12  26  45  69 101 146 192 236 298 357 430
#     4  12  25  42  72 107 145 188 237 295 364 426
#     4  10  21  41  66 100 133 178 230 283 352 422
#     4  10  22  45  69  98 139 183 230 289 356 419
#     4  12  27  46  71 107 144 184 246 295 353 433
#     4  11  25  43  71 103 139 180 235 300 353 415
#     4  11  27  47  71 104 143 192 239 291 360 433
#     4  10  23  43  70  97 138 181 236 284 354 421
#
# _framework density 23.326993000000002
#
# number of rings (size 3 to 8) (size 9 to 14) (size 15 to 20)
#    0.000    1.000    2.500    3.000    7.000    7.000 
#    2.250    0.000    0.000    0.000    0.000    0.000 
#    0.000    0.000    0.000    0.000    0.000    0.000 
#
# Total GULP energy -89286.401645 kJ/mol
# GULP energy per Si atom -5580.400103 kJ/mol
# Density = 2.327390 g / cm^3
# Si number density = 23.326993 Si / 1000 Ang^3
#
#
#
# Elastic Constant Matrix: (Units=GPa)
#
#
# Indices 1 2 3 4 5 6 
#
# 1 114.9621 28.6101 15.9289 13.9422 2.1817 5.2219
# 2 28.6101 91.6480 24.4868 8.2682 5.0161 12.5598
# 3 15.9289 24.4868 75.4568 1.1599 -8.6770 3.4605
# 4 13.9422 8.2682 1.1599 37.6137 -5.1343 14.5057
# 5 2.1817 5.0161 -8.6770 -5.1343 33.7078 6.4794
# 6 5.2219 12.5598 3.4605 14.5057 6.4794 37.1414
#
#
#
# Elastic Compliance Matrix: (Units=1/GPa)
#
#
# Indices 1 2 3 4 5 6 
#
# 1 0.009947 -0.002467 -0.001473 -0.003813 -0.001491 0.001322
# 2 -0.002467 0.013374 -0.003948 -0.001099 -0.002447 -0.002952
# 3 -0.001473 -0.003948 0.015507 0.002345 0.005369 -0.001755
# 4 -0.003813 -0.001099 0.002345 0.035048 0.009158 -0.014597
# 5 -0.001491 -0.002447 0.005369 0.009158 0.034651 -0.009085
# 6 0.001322 -0.002952 -0.001755 -0.014597 -0.009085 0.035186
#
#
# Mechanical properties :
#
#
# Convention : Reuss Voigt Hill
#
# Bulk Modulus (GPa) = 43.38159 46.67984 45.03071
# Shear Modulus (GPa) = 29.90921 35.89531 32.90226
#
# Velocity S-wave (km/s) = 3.58463 3.92700 3.75971
# Velocity P-wave (km/s) = 5.98083 6.37309 6.18007
#
# Compressibility (1/GPa) = 0.02305125
#
# Stress axis : x y z
#
# Youngs Moduli (GPa) = 100.53040 74.77125 64.48865
#
# Poissons Ratio (x) = 0.18450 0.09496
# Poissons Ratio (y) = 0.24806 0.25462
# Poissons Ratio (z) = 0.14804 0.29522
#
# Static dielectric constant tensor:
#      x y z
#    x 1.869320 0.002690 0.015120 
#    y 0.002690 1.935220 0.030380 
#    z 0.015120 0.030380 1.889890 
# 
# From -- ./inp_files/521781.got.cif
#   From: 2010.05.17/outbox.cif.g08.bks.cpg/sg2_261_cif.got.tgz:521781.got - 2010.06.03 11:33:40.
