data_PCOD9013722
_publ_section_title
;
Structure prediction by ZEFSAII (Michael W. Deem and Ramdas Pophale) SiO2 
 PCOD9013722
Probable space group: P -1
;
_chemical_formula_sum "Si O2"
_cell_formula_units_Z 16
_cell_length_a 9.056756
_cell_length_b 13.807504
_cell_length_c 13.871322
_cell_angle_alpha 148.143030
_cell_angle_beta 106.632349
_cell_angle_gamma 92.663517
_cell_volume 719.172177
_symmetry_space_group_name_H-M "P -1"
_symmetry_group_IT_number 2
_symmetry_cell_setting 'triclinic'
loop_
_space_group_symop_operation_xyz
x,y,z
-x,-y,-z
loop_
_atom_site_type_symbol
_atom_site_label
_atom_site_fract_x
_atom_site_fract_y
_atom_site_fract_z
Si Si1 0.701291 0.814481 0.313463
Si Si2 0.711109 0.441026 0.017497
Si Si3 0.073048 0.467600 0.380096
Si Si4 0.348512 0.152773 0.443129
Si Si5 0.279701 0.888862 0.889018
Si Si6 0.684263 0.699620 0.649445
Si Si7 0.728625 0.246744 0.662537
Si Si8 0.026972 0.640552 0.930835
O O1 0.505950 0.672029 0.097310
O O2 0.667014 0.776253 0.391065
O O3 0.777268 0.065909 0.515449
O O4 0.798361 0.688469 0.202463
O O5 0.694905 0.276491 0.792177
O O6 0.834754 0.439735 0.122511
O O7 0.170028 0.729291 0.640928
O O8 0.165454 0.363226 0.369219
O O9 0.848719 0.312446 0.227854
O O10 0.103702 0.432048 0.246647
O O11 0.353249 0.272942 0.446534
O O12 0.540856 0.165254 0.498002
O O13 0.160251 0.904010 0.188400
O O14 0.500000 0.000000 0.000000
O O15 0.262288 0.082015 0.092922
O O16 0.500000 0.500000 0.500000
O O17 0.894991 0.491915 0.867444
#
# Coordination Sequence:
#
# PCOD9013722 Si02
#       8
#     2   2   2   2   2   2   2   2
#     4  10  21  41  68  94 130 172 218 265 330 392
#     4  10  21  41  65  94 132 173 211 272 324 390
#     4  11  26  45  68 101 136 181 228 277 338 408
#     4  11  23  43  68  94 131 175 219 273 331 391
#     4  11  24  45  69  93 133 177 224 284 340 391
#     4  12  24  47  73  97 138 186 226 282 346 399
#     4  11  22  42  65  96 132 170 218 265 330 395
#     4  12  23  41  69  96 133 174 217 268 332 392
#
# _framework density 22.247803000000001
#
# number of rings (size 3 to 8) (size 9 to 14) (size 15 to 20)
#    0.000    1.000    5.000    2.250    0.000    2.500 
#    0.000    2.500    0.000    0.000    0.000    0.000 
#    0.000    0.000    0.000    0.000    0.000    0.000 
#
# Total GULP energy -89116.061684 kJ/mol
# GULP energy per Si atom -5569.753855 kJ/mol
# Density = 2.219717 g / cm^3
# Si number density = 22.247803 Si / 1000 Ang^3
#
#
#
# Elastic Constant Matrix: (Units=GPa)
#
#
# Indices 1 2 3 4 5 6 
#
# 1 59.6230 17.4327 28.9080 3.1451 6.9909 -3.7210
# 2 17.4327 122.2529 29.5756 -3.9800 14.0584 -8.1839
# 3 28.9080 29.5756 131.1242 12.1309 -2.9189 -0.0362
# 4 3.1451 -3.9800 12.1309 30.2142 4.6831 7.2001
# 5 6.9909 14.0584 -2.9189 4.6831 35.6367 10.4717
# 6 -3.7210 -8.1839 -0.0362 7.2001 10.4717 28.4193
#
#
#
# Elastic Compliance Matrix: (Units=1/GPa)
#
#
# Indices 1 2 3 4 5 6 
#
# 1 0.020022 -0.000977 -0.004234 -0.000775 -0.005081 0.004403
# 2 -0.000977 0.009850 -0.002327 0.002182 -0.005387 0.004138
# 3 -0.004234 -0.002327 0.009519 -0.003866 0.003482 -0.001516
# 4 -0.000775 0.002182 -0.003866 0.037400 -0.003711 -0.007586
# 5 -0.005081 -0.005387 0.003482 -0.003711 0.036255 -0.014631
# 6 0.004403 0.004138 -0.001516 -0.007586 -0.014631 0.044266
#
#
# Mechanical properties :
#
#
# Convention : Reuss Voigt Hill
#
# Bulk Modulus (GPa) = 41.12629 51.64807 46.38718
# Shear Modulus (GPa) = 27.70183 34.65964 31.18073
#
# Velocity S-wave (km/s) = 3.53249 3.95129 3.74775
# Velocity P-wave (km/s) = 5.92990 6.63945 6.29468
#
# Compressibility (1/GPa) = 0.02431535
#
# Stress axis : x y z
#
# Youngs Moduli (GPa) = 49.94511 101.52790 105.04859
#
# Poissons Ratio (x) = 0.09918 0.44477
# Poissons Ratio (y) = 0.04879 0.24444
# Poissons Ratio (z) = 0.21147 0.23625
#
# Static dielectric constant tensor:
#      x y z
#    x 1.926020 0.004450 -0.008550 
#    y 0.004450 1.855810 -0.009240 
#    z -0.008550 -0.009240 1.870950 
# 
# From -- ./inp_files/505915.got.cif
#   From: 2010.05.17/outbox.cif.g08.bks.cpg/sg2_253_cif.got.tgz:505915.got - 2010.06.03 11:33:40.
