data_PCOD9013483
_publ_section_title
;
Structure prediction by ZEFSAII (Michael W. Deem and Ramdas Pophale) SiO2 
 PCOD9013483
Probable space group: P -1
;
_chemical_formula_sum "Si O2"
_cell_formula_units_Z 16
_cell_length_a 8.552032
_cell_length_b 21.512510
_cell_length_c 9.569013
_cell_angle_alpha 29.104393
_cell_angle_beta 67.469250
_cell_angle_gamma 69.327760
_cell_volume 790.286133
_symmetry_space_group_name_H-M "P -1"
_symmetry_group_IT_number 2
_symmetry_cell_setting 'triclinic'
loop_
_space_group_symop_operation_xyz
x,y,z
-x,-y,-z
loop_
_atom_site_type_symbol
_atom_site_label
_atom_site_fract_x
_atom_site_fract_y
_atom_site_fract_z
Si Si1 0.168511 0.576996 0.789803
Si Si2 0.221597 0.733265 0.737152
Si Si3 0.529237 0.470953 0.882476
Si Si4 0.915510 0.872747 0.719431
Si Si5 0.292252 0.280388 0.681331
Si Si6 0.964248 0.798308 0.310021
Si Si7 0.602677 0.096073 0.868300
Si Si8 0.831188 0.959308 0.286650
O O1 0.181568 0.625355 0.849772
O O2 0.339485 0.500899 0.832072
O O3 0.124210 0.700701 0.466419
O O4 0.000000 0.500000 0.000000
O O5 0.263685 0.850709 0.391389
O O6 0.069084 0.778183 0.799601
O O7 0.386730 0.671130 0.881333
O O8 0.663492 0.574432 0.583390
O O9 0.500000 0.500000 0.000000
O O10 0.803316 0.913797 0.542104
O O11 0.805036 0.798390 0.014302
O O12 0.000000 0.000000 0.500000
O O13 0.177983 0.264228 0.613111
O O14 0.475498 0.212292 0.725479
O O15 0.893890 0.839035 0.406448
O O16 0.027170 0.932455 0.965572
O O17 0.683794 0.027229 0.110611
O O18 0.500000 0.000000 0.000000
#
# Coordination Sequence:
#
# PCOD9013483 Si02
#       8
#     2   2   2   2   2   2   2   2
#     4  11  21  36  68  99 125 162 226 282 326 376
#     4  11  22  43  65  95 137 170 222 279 326 402
#     4  10  21  41  64  98 127 167 221 283 327 385
#     4  12  25  43  64 100 141 181 214 270 348 401
#     4  12  23  39  68  97 132 175 224 273 336 395
#     4  11  19  36  63  95 122 172 226 271 315 390
#     4  12  22  38  67  99 127 179 229 280 328 385
#     4  11  21  38  62  90 136 172 219 273 323 395
#
# _framework density 20.245833000000001
#
# number of rings (size 3 to 8) (size 9 to 14) (size 15 to 20)
#    0.000    0.750    7.500    3.000    0.000    1.000 
#    0.000    0.000    0.000    1.500    0.000    0.000 
#    0.000    0.000    0.000    0.000    0.000    0.000 
#
# Total GULP energy -89327.241962 kJ/mol
# GULP energy per Si atom -5582.952623 kJ/mol
# Density = 2.019975 g / cm^3
# Si number density = 20.245833 Si / 1000 Ang^3
#
#
#
# Elastic Constant Matrix: (Units=GPa)
#
#
# Indices 1 2 3 4 5 6 
#
# 1 112.0469 15.3313 34.9074 -8.0245 22.1766 4.4055
# 2 15.3313 31.7548 18.7129 1.7808 4.5438 2.5886
# 3 34.9074 18.7129 96.5790 9.9659 7.3174 0.4388
# 4 -8.0245 1.7808 9.9659 29.3011 -9.2247 3.1813
# 5 22.1766 4.5438 7.3174 -9.2247 51.9111 -8.8867
# 6 4.4055 2.5886 0.4388 3.1813 -8.8867 30.7099
#
#
#
# Elastic Compliance Matrix: (Units=1/GPa)
#
#
# Indices 1 2 3 4 5 6 
#
# 1 0.011651 -0.002817 -0.003723 0.003670 -0.004056 -0.002935
# 2 -0.002817 0.036891 -0.005832 -0.001316 -0.001960 -0.003053
# 3 -0.003723 -0.005832 0.013440 -0.005550 -0.000567 0.001245
# 4 0.003670 -0.001316 -0.005550 0.039233 0.005837 -0.002711
# 5 -0.004056 -0.001960 -0.000567 0.005837 0.023474 0.006943
# 6 -0.002935 -0.003053 0.001245 -0.002711 0.006943 0.035513
#
#
# Mechanical properties :
#
#
# Convention : Reuss Voigt Hill
#
# Bulk Modulus (GPa) = 26.85435 42.03155 34.44295
# Shear Modulus (GPa) = 25.33438 33.81301 29.57369
#
# Velocity S-wave (km/s) = 3.54126 4.09115 3.82610
# Velocity P-wave (km/s) = 5.47847 6.56676 6.04715
#
# Compressibility (1/GPa) = 0.03723791
#
# Stress axis : x y z
#
# Youngs Moduli (GPa) = 85.82653 27.10678 74.40538
#
# Poissons Ratio (x) = 0.07637 0.27705
# Poissons Ratio (y) = 0.24180 0.43390
# Poissons Ratio (z) = 0.31957 0.15807
#
# Static dielectric constant tensor:
#      x y z
#    x 1.831720 -0.004070 0.038630 
#    y -0.004070 1.703440 -0.055650 
#    z 0.038630 -0.055650 1.792340 
# 
# From -- ./inp_files/221543.got.cif
#   From: 2010.05.17/outbox.cif.g08.bks.cpg/sg2_111_cif.got.tgz:221543.got - 2010.06.03 11:33:40.
