data_PCOD9013247
_publ_section_title
;
Structure prediction by ZEFSAII (Michael W. Deem and Ramdas Pophale) SiO2 
 PCOD9013247
Probable space group: P -1
;
_chemical_formula_sum "Si O2"
_cell_formula_units_Z 16
_cell_length_a 13.721632
_cell_length_b 5.691804
_cell_length_c 17.911677
_cell_angle_alpha 89.750439
_cell_angle_beta 147.541884
_cell_angle_gamma 104.570976
_cell_volume 665.870933
_symmetry_space_group_name_H-M "P -1"
_symmetry_group_IT_number 2
_symmetry_cell_setting 'triclinic'
loop_
_space_group_symop_operation_xyz
x,y,z
-x,-y,-z
loop_
_atom_site_type_symbol
_atom_site_label
_atom_site_fract_x
_atom_site_fract_y
_atom_site_fract_z
Si Si1 0.247292 0.135322 0.647635
Si Si2 0.066934 0.271734 0.945928
Si Si3 0.821158 0.405412 0.447566
Si Si4 0.320392 0.243892 0.239289
Si Si5 0.802818 0.496810 0.727403
Si Si6 0.602522 0.811027 0.089169
Si Si7 0.002777 0.001373 0.753378
Si Si8 0.286362 0.801911 0.476755
O O1 0.291970 0.415919 0.640034
O O2 0.362718 0.181990 0.800188
O O3 0.289238 0.913440 0.633944
O O4 0.000000 0.000000 0.500000
O O5 0.093970 0.232337 0.875670
O O6 0.973832 0.476243 0.889543
O O7 0.257735 0.323252 0.120634
O O8 0.881373 0.000617 0.857072
O O9 0.873164 0.427204 0.569487
O O10 0.000000 0.500000 0.500000
O O11 0.360017 0.470909 0.325762
O O12 0.497536 0.158125 0.353028
O O13 0.707587 0.261193 0.606936
O O14 0.925032 0.740572 0.751740
O O15 0.823283 0.945450 0.192830
O O16 0.500000 0.500000 0.000000
O O17 0.500000 0.000000 0.000000
O O18 0.806276 0.994899 0.585786
#
# Coordination Sequence:
#
# PCOD9013247 Si02
#       8
#     2   2   2   2   2   2   2   2
#     4  10  22  43  69  95 135 179 231 285 347 406
#     4   9  21  41  66  91 139 175 223 282 352 430
#     4  10  22  39  65  98 135 180 226 288 345 405
#     4  10  21  41  63  99 131 178 224 288 350 419
#     4  10  22  39  67  96 132 178 225 292 348 426
#     4  12  28  46  74 105 144 192 242 298 357 430
#     4  10  24  43  65  95 135 179 231 285 359 415
#     4  11  24  38  68  97 136 173 240 286 352 414
#
# _framework density 24.028683000000001
#
# number of rings (size 3 to 8) (size 9 to 14) (size 15 to 20)
#    0.000    1.750    0.000    3.000    8.750    7.500 
#    0.000    0.000    0.000    0.000    0.000    0.000 
#    0.000    0.000    0.000    0.000    0.000    0.000 
#
# Total GULP energy -89340.715931 kJ/mol
# GULP energy per Si atom -5583.794746 kJ/mol
# Density = 2.397399 g / cm^3
# Si number density = 24.028683 Si / 1000 Ang^3
#
#
#
# Elastic Constant Matrix: (Units=GPa)
#
#
# Indices 1 2 3 4 5 6 
#
# 1 88.4882 30.8365 34.1292 -1.1523 -0.2255 -16.8839
# 2 30.8365 159.1869 58.2775 -37.2096 -3.8301 -16.4702
# 3 34.1292 58.2775 117.7067 -33.3722 -7.8991 -8.2077
# 4 -1.1523 -37.2096 -33.3722 42.1167 4.9232 -2.2886
# 5 -0.2255 -3.8301 -7.8991 4.9232 42.6362 -8.0503
# 6 -16.8839 -16.4702 -8.2077 -2.2886 -8.0503 36.7294
#
#
#
# Elastic Compliance Matrix: (Units=1/GPa)
#
#
# Indices 1 2 3 4 5 6 
#
# 1 0.014356 -0.001756 -0.004126 -0.004234 0.000538 0.004744
# 2 -0.001756 0.009262 -0.001893 0.006782 0.000335 0.003419
# 3 -0.004126 -0.001893 0.013238 0.008591 0.001471 0.001070
# 4 -0.004234 0.006782 0.008591 0.036832 -0.001118 0.005064
# 5 0.000538 0.000335 0.001471 -0.001118 0.025049 0.006147
# 6 0.004744 0.003419 0.001070 0.005064 0.006147 0.032842
#
#
# Mechanical properties :
#
#
# Convention : Reuss Voigt Hill
#
# Bulk Modulus (GPa) = 46.93673 67.98537 57.46105
# Shear Modulus (GPa) = 32.41863 40.43902 36.42883
#
# Velocity S-wave (km/s) = 3.67708 4.10683 3.89788
# Velocity P-wave (km/s) = 6.13220 7.13042 6.65007
#
# Compressibility (1/GPa) = 0.02130528
#
# Stress axis : x y z
#
# Youngs Moduli (GPa) = 69.65824 107.96704 75.53819
#
# Poissons Ratio (x) = 0.18960 0.31170
# Poissons Ratio (y) = 0.12232 0.14299
# Poissons Ratio (z) = 0.28744 0.20438
#
# Static dielectric constant tensor:
#      x y z
#    x 2.216850 -0.037860 -0.190700 
#    y -0.037860 2.039190 0.068990 
#    z -0.190700 0.068990 2.022540 
# 
# From -- ./inp_files/488262.got.cif
#   From: 2010.05.17/outbox.cif.g08.bks.cpg/sg2_245_cif.got.tgz:488262.got - 2010.06.03 11:33:40.
