data_PCOD9013854
_publ_section_title
;
Structure prediction by ZEFSAII (Michael W. Deem and Ramdas Pophale) SiO2 
 PCOD9013854
Probable space group: P -1
;
_chemical_formula_sum "Si O2"
_cell_formula_units_Z 16
_cell_length_a 13.344084
_cell_length_b 5.109522
_cell_length_c 12.994376
_cell_angle_alpha 69.821061
_cell_angle_beta 62.011649
_cell_angle_gamma 69.843115
_cell_volume 716.274171
_symmetry_space_group_name_H-M "P -1"
_symmetry_group_IT_number 2
_symmetry_cell_setting 'triclinic'
loop_
_space_group_symop_operation_xyz
x,y,z
-x,-y,-z
loop_
_atom_site_type_symbol
_atom_site_label
_atom_site_fract_x
_atom_site_fract_y
_atom_site_fract_z
Si Si1 0.131959 0.873188 0.485728
Si Si2 0.617509 0.722000 0.421233
Si Si3 0.481839 0.313849 0.322201
Si Si4 0.915632 0.341755 0.814217
Si Si5 0.894203 0.722851 0.966660
Si Si6 0.283360 0.543609 0.801652
Si Si7 0.836967 0.964650 0.325646
Si Si8 0.237519 0.412696 0.334261
O O1 0.140941 0.866960 0.605547
O O2 0.176793 0.585356 0.439733
O O3 0.206573 0.103715 0.386255
O O4 0.000000 0.000000 0.500000
O O5 0.564801 0.561907 0.559173
O O6 0.679670 0.540935 0.321488
O O7 0.525160 0.981993 0.378510
O O8 0.717315 0.858685 0.407132
O O9 0.596411 0.410660 0.215172
O O10 0.374996 0.376909 0.287655
O O11 0.895947 0.606139 0.865424
O O12 0.822163 0.410962 0.758718
O O13 0.904522 0.049693 0.916175
O O14 0.046717 0.275914 0.715568
O O15 0.776594 0.680602 0.083631
O O16 0.000000 0.500000 0.000000
O O17 0.187525 0.836553 0.791263
#
# Coordination Sequence:
#
# PCOD9013854 Si02
#       8
#     2   2   2   2   2   2   2   2
#     4  12  25  41  67 103 142 184 219 265 344 422
#     4  10  21  41  66 101 136 174 230 273 342 406
#     4  10  23  40  66 102 133 185 218 279 338 414
#     4  12  27  44  69 101 136 178 231 276 346 400
#     4  12  26  47  71 100 131 178 234 293 337 389
#     4  11  24  40  71  94 136 176 232 290 339 392
#     4  11  23  38  67 104 135 175 219 283 344 413
#     4  12  26  45  67  99 149 181 219 279 337 415
#
# _framework density 22.337812
#
# number of rings (size 3 to 8) (size 9 to 14) (size 15 to 20)
#    0.000    0.750    3.750    3.375    5.250    0.000 
#    0.000    1.250    0.000    0.000    0.000    0.000 
#    0.000    0.000    0.000    0.000    0.000    0.000 
#
# Total GULP energy -89565.227297 kJ/mol
# GULP energy per Si atom -5597.826706 kJ/mol
# Density = 2.228697 g / cm^3
# Si number density = 22.337812 Si / 1000 Ang^3
#
#
#
# Elastic Constant Matrix: (Units=GPa)
#
#
# Indices 1 2 3 4 5 6 
#
# 1 165.6455 14.6735 30.6084 -0.9909 1.2925 -31.3571
# 2 14.6735 39.6323 -0.0280 -1.6560 10.3441 -6.5326
# 3 30.6084 -0.0280 58.9626 -3.4688 -10.5625 -5.0835
# 4 -0.9909 -1.6560 -3.4688 30.9700 8.6240 4.3612
# 5 1.2925 10.3441 -10.5625 8.6240 38.2351 -5.1957
# 6 -31.3571 -6.5326 -5.0835 4.3612 -5.1957 40.3602
#
#
#
# Elastic Compliance Matrix: (Units=1/GPa)
#
#
# Indices 1 2 3 4 5 6 
#
# 1 0.007940 -0.002161 -0.003658 -0.001136 0.000312 0.005521
# 2 -0.002161 0.028583 -0.000006 0.003547 -0.008257 0.001500
# 3 -0.003658 -0.000006 0.019912 0.000521 0.005552 0.000324
# 4 -0.001136 0.003547 0.000521 0.035932 -0.009610 -0.005363
# 5 0.000312 -0.008257 0.005552 -0.009610 0.032739 0.004859
# 6 0.005521 0.001500 0.000324 -0.005363 0.004859 0.030555
#
#
# Mechanical properties :
#
#
# Convention : Reuss Voigt Hill
#
# Bulk Modulus (GPa) = 22.32867 39.41648 30.87258
# Shear Modulus (GPa) = 27.43637 36.51215 31.97426
#
# Velocity S-wave (km/s) = 3.50844 4.04734 3.78748
# Velocity P-wave (km/s) = 5.14099 6.28691 5.74260
#
# Compressibility (1/GPa) = 0.04478548
#
# Stress axis : x y z
#
# Youngs Moduli (GPa) = 125.93913 34.98604 50.22116
#
# Poissons Ratio (x) = 0.07561 0.18370
# Poissons Ratio (y) = 0.27219 0.00029
# Poissons Ratio (z) = 0.46066 0.00020
#
# Static dielectric constant tensor:
#      x y z
#    x 1.838480 0.014830 -0.017490 
#    y 0.014830 1.899420 -0.006570 
#    z -0.017490 -0.006570 1.856010 
# 
# From -- ./inp_files/81136.got.cif
#   From: 2010.05.17/outbox.cif.g08.bks.cpg/sg2_41_cif.got.tgz:81136.got - 2010.06.03 11:33:40.
