data_PCOD9013915
_publ_section_title
;
Structure prediction by ZEFSAII (Michael W. Deem and Ramdas Pophale) SiO2 
 PCOD9013915
Probable space group: P -1
;
_chemical_formula_sum "Si O2"
_cell_formula_units_Z 16
_cell_length_a 8.745313
_cell_length_b 16.430617
_cell_length_c 11.301269
_cell_angle_alpha 126.578793
_cell_angle_beta 36.976057
_cell_angle_gamma 128.935923
_cell_volume 744.307873
_symmetry_space_group_name_H-M "P -1"
_symmetry_group_IT_number 2
_symmetry_cell_setting 'triclinic'
loop_
_space_group_symop_operation_xyz
x,y,z
-x,-y,-z
loop_
_atom_site_type_symbol
_atom_site_label
_atom_site_fract_x
_atom_site_fract_y
_atom_site_fract_z
Si Si1 0.149236 0.980743 0.275985
Si Si2 0.684431 0.257924 0.732649
Si Si3 0.132393 0.626540 0.522931
Si Si4 0.406512 0.629826 0.593212
Si Si5 0.696757 0.170292 0.088124
Si Si6 0.932059 0.556894 0.206981
Si Si7 0.187562 0.933842 0.620947
Si Si8 0.074869 0.198735 0.107749
O O1 0.441753 0.067146 0.179763
O O2 0.988331 0.004069 0.282369
O O3 0.000000 0.000000 0.500000
O O4 0.174303 0.863258 0.137769
O O5 0.728927 0.328476 0.646676
O O6 0.823829 0.168157 0.542311
O O7 0.822500 0.341247 0.820629
O O8 0.373462 0.201209 0.899475
O O9 0.347472 0.659179 0.523127
O O10 0.000000 0.500000 0.500000
O O11 0.921397 0.688783 0.737717
O O12 0.409242 0.728334 0.761385
O O13 0.672782 0.596849 0.393753
O O14 0.159093 0.531157 0.708370
O O15 0.905115 0.187229 0.082228
O O16 0.000000 0.500000 0.000000
O O17 0.069271 0.890660 0.784713
O O18 0.500000 0.000000 0.500000
#
# Coordination Sequence:
#
# PCOD9013915 Si02
#       8
#     2   2   2   2   2   2   2   2
#     4  11  24  41  68  93 129 171 220 266 330 394
#     4  11  24  41  66  99 129 174 219 269 336 388
#     4  10  21  41  66  90 128 169 215 270 319 381
#     4  10  23  43  63  90 132 168 220 275 318 393
#     4  10  23  43  63  94 125 171 214 272 327 381
#     4  11  25  40  63  94 131 177 218 266 332 392
#     4  11  24  43  68  97 133 171 216 277 330 391
#     4  10  24  41  66  97 130 166 221 270 326 392
#
# _framework density 21.496480999999999
#
# number of rings (size 3 to 8) (size 9 to 14) (size 15 to 20)
#    0.000    1.500    1.250    2.250    1.750   12.500 
#    0.000    0.000    0.000    0.000    0.000    0.000 
#    0.000    0.000    0.000    0.000    0.000    0.000 
#
# Total GULP energy -89443.336105 kJ/mol
# GULP energy per Si atom -5590.208507 kJ/mol
# Density = 2.144755 g / cm^3
# Si number density = 21.496481 Si / 1000 Ang^3
#
#
#
# Elastic Constant Matrix: (Units=GPa)
#
#
# Indices 1 2 3 4 5 6 
#
# 1 35.6779 6.8169 22.6299 7.2705 4.0311 11.2919
# 2 6.8169 83.9575 42.6325 17.4255 4.4892 12.9070
# 3 22.6299 42.6325 137.1651 14.3828 11.7753 7.0155
# 4 7.2705 17.4255 14.3828 41.5717 6.6601 -1.6246
# 5 4.0311 4.4892 11.7753 6.6601 29.0322 -0.6843
# 6 11.2919 12.9070 7.0155 -1.6246 -0.6843 34.2348
#
#
#
# Elastic Compliance Matrix: (Units=1/GPa)
#
#
# Indices 1 2 3 4 5 6 
#
# 1 0.036277 0.003079 -0.005507 -0.005855 -0.002227 -0.012320
# 2 0.003079 0.016238 -0.004605 -0.006030 0.000160 -0.006477
# 3 -0.005507 -0.004605 0.009767 -0.000036 -0.002441 0.001501
# 4 -0.005855 -0.006030 -0.000036 0.028581 -0.004667 0.005475
# 5 -0.002227 0.000160 -0.002441 -0.004667 0.036830 0.001689
# 6 -0.012320 -0.006477 0.001501 0.005475 0.001689 0.035702
#
#
# Mechanical properties :
#
#
# Convention : Reuss Voigt Hill
#
# Bulk Modulus (GPa) = 20.73992 44.55101 32.64547
# Shear Modulus (GPa) = 25.83553 33.28247 29.55900
#
# Velocity S-wave (km/s) = 3.47053 3.93908 3.71221
# Velocity P-wave (km/s) = 5.07232 6.43881 5.79598
#
# Compressibility (1/GPa) = 0.04821618
#
# Stress axis : x y z
#
# Youngs Moduli (GPa) = 27.56552 61.58410 102.38634
#
# Poissons Ratio (x) = -0.18962 0.56383
# Poissons Ratio (y) = -0.08488 0.47150
# Poissons Ratio (z) = 0.15180 0.28360
#
# Static dielectric constant tensor:
#      x y z
#    x 1.781710 -0.010920 0.008120 
#    y -0.010920 1.812610 0.037590 
#    z 0.008120 0.037590 1.785190 
# 
# From -- ./inp_files/46305.got.cif
#   From: 2010.05.17/outbox.cif.g08.bks.cpg/sg2_24_cif.got.tgz:46305.got - 2010.06.03 11:33:40.
