data_PCOD9013713
_publ_section_title
;
Structure prediction by ZEFSAII (Michael W. Deem and Ramdas Pophale) SiO2 
 PCOD9013713
Probable space group: P -1
;
_chemical_formula_sum "Si O2"
_cell_formula_units_Z 14
_cell_length_a 12.973726
_cell_length_b 11.321000
_cell_length_c 15.883621
_cell_angle_alpha 37.520204
_cell_angle_beta 152.790947
_cell_angle_gamma 133.458818
_cell_volume 648.373449
_symmetry_space_group_name_H-M "P -1"
_symmetry_group_IT_number 2
_symmetry_cell_setting 'triclinic'
loop_
_space_group_symop_operation_xyz
x,y,z
-x,-y,-z
loop_
_atom_site_type_symbol
_atom_site_label
_atom_site_fract_x
_atom_site_fract_y
_atom_site_fract_z
Si Si1 0.422927 0.770639 0.800708
Si Si2 0.266027 0.450696 0.739351
Si Si3 0.866041 0.307720 0.031808
Si Si4 0.388028 0.701952 0.548009
Si Si5 0.952767 0.228375 0.332348
Si Si6 0.396962 0.459944 0.538958
Si Si7 0.232782 0.037036 0.369093
O O1 0.380817 0.609810 0.790499
O O2 0.233009 0.731531 0.753784
O O3 0.367537 0.961965 0.594853
O O4 0.654574 0.740771 0.040396
O O5 0.375068 0.496837 0.702644
O O6 0.000000 0.500000 0.500000
O O7 0.877181 0.276977 0.156191
O O8 0.994489 0.128696 0.176638
O O9 0.607960 0.340873 0.801064
O O10 0.000000 0.500000 0.000000
O O11 0.334861 0.652331 0.441081
O O12 0.630767 0.793007 0.670097
O O13 0.237655 0.863240 0.401786
O O14 0.177163 0.340099 0.445970
O O15 0.000000 0.000000 0.500000
O O16 0.500000 0.500000 0.500000
#
# Coordination Sequence:
#
# PCOD9013713 Si02
#       7
#     2   2   2   2   2   2   2
#     4  10  22  40  64  93 134 170 215 281 339 402
#     4  10  21  41  65  94 129 172 219 272 342 410
#     4  12  23  45  72  99 143 185 230 294 342 413
#     4  10  21  41  69  94 133 179 228 278 340 417
#     4  12  25  44  70 102 137 180 235 287 348 409
#     4  12  25  43  72 100 133 187 239 279 351 422
#     4  10  21  42  66 101 136 180 227 284 348 401
#
# _framework density 21.592493000000001
#
# number of rings (size 3 to 8) (size 9 to 14) (size 15 to 20)
#    0.000    1.143    4.286    1.714    0.000    0.571 
#    5.143    1.429    0.000    0.000    0.000    0.000 
#    0.000    0.000    0.000    0.000    0.000    0.000 
#
# Total GULP energy -78059.510948 kJ/mol
# GULP energy per Si atom -5575.679353 kJ/mol
# Density = 2.154335 g / cm^3
# Si number density = 21.592493 Si / 1000 Ang^3
#
#
#
# Elastic Constant Matrix: (Units=GPa)
#
#
# Indices 1 2 3 4 5 6 
#
# 1 155.0733 30.1845 47.7508 -0.0126 -2.3264 -12.2325
# 2 30.1845 65.6979 29.8242 9.2722 1.9126 -9.3728
# 3 47.7508 29.8242 142.2731 16.7119 -1.0612 1.3863
# 4 -0.0126 9.2722 16.7119 29.5400 4.2794 0.3119
# 5 -2.3264 1.9126 -1.0612 4.2794 39.4184 -6.2078
# 6 -12.2325 -9.3728 1.3863 0.3119 -6.2078 35.1898
#
#
#
# Elastic Compliance Matrix: (Units=1/GPa)
#
#
# Indices 1 2 3 4 5 6 
#
# 1 0.007853 -0.002518 -0.002361 0.002010 0.000658 0.002251
# 2 -0.002518 0.018806 -0.002613 -0.004475 0.000029 0.004281
# 3 -0.002361 -0.002613 0.008888 -0.004250 0.000412 -0.001757
# 4 0.002010 -0.004475 -0.004250 0.038279 -0.004155 -0.001398
# 5 0.000658 0.000029 0.000412 -0.004155 0.026649 0.004958
# 6 0.002251 0.004281 -0.001757 -0.001398 0.004958 0.031296
#
#
# Mechanical properties :
#
#
# Convention : Reuss Voigt Hill
#
# Bulk Modulus (GPa) = 48.63039 64.28481 56.45760
# Shear Modulus (GPa) = 32.54981 37.84864 35.19922
#
# Velocity S-wave (km/s) = 3.88681 4.19126 4.04190
# Velocity P-wave (km/s) = 6.53559 7.29785 6.92721
#
# Compressibility (1/GPa) = 0.02056327
#
# Stress axis : x y z
#
# Youngs Moduli (GPa) = 127.33480 53.17507 112.50659
#
# Poissons Ratio (x) = 0.13390 0.26564
# Poissons Ratio (y) = 0.32065 0.29397
# Poissons Ratio (z) = 0.30065 0.13894
#
# Static dielectric constant tensor:
#      x y z
#    x 1.761230 0.024420 -0.003260 
#    y 0.024420 1.905910 -0.055870 
#    z -0.003260 -0.055870 1.863470 
# 
# From -- ./inp_files/518702.got.cif
#   From: 2010.05.17/outbox.cif.g08.bks.cpg/sg2_260_cif.got.tgz:518702.got - 2010.06.03 11:33:40.
