data_PCOD9013824
_publ_section_title
;
Structure prediction by ZEFSAII (Michael W. Deem and Ramdas Pophale) SiO2 
 PCOD9013824
Probable space group: P -1
;
_chemical_formula_sum "Si O2"
_cell_formula_units_Z 15
_cell_length_a 13.273001
_cell_length_b 16.081952
_cell_length_c 23.545745
_cell_angle_alpha 161.741369
_cell_angle_beta 21.769235
_cell_angle_gamma 149.533059
_cell_volume 575.276616
_symmetry_space_group_name_H-M "P -1"
_symmetry_group_IT_number 2
_symmetry_cell_setting 'triclinic'
loop_
_space_group_symop_operation_xyz
x,y,z
-x,-y,-z
loop_
_atom_site_type_symbol
_atom_site_label
_atom_site_fract_x
_atom_site_fract_y
_atom_site_fract_z
Si Si1 0.968151 0.438455 0.368668
Si Si2 0.470621 0.187785 0.581148
Si Si3 0.354772 0.655435 0.122475
Si Si4 0.000000 0.500000 0.500000
Si Si5 0.236866 0.884114 0.925239
Si Si6 0.534942 0.855449 0.572399
Si Si7 0.930065 0.582599 0.978913
Si Si8 0.135229 0.387460 0.579969
O O1 0.716342 0.301328 0.392099
O O2 0.042931 0.565570 0.354081
O O3 0.891492 0.656360 0.598321
O O4 0.147295 0.203956 0.163803
O O5 0.469916 0.053673 0.432168
O O6 0.704610 0.371925 0.575103
O O7 0.500000 0.000000 0.500000
O O8 0.177415 0.356465 0.862162
O O9 0.314824 0.507645 0.989375
O O10 0.041354 0.745798 0.368474
O O11 0.497270 0.915700 0.214542
O O12 0.500000 0.500000 0.000000
O O13 0.162486 0.679520 0.782451
O O14 0.563008 0.788306 0.701691
O O15 0.051825 0.809180 0.025798
O O16 0.815369 0.658376 0.308431
#
# Coordination Sequence:
#
# PCOD9013824 Si02
#       8
#     2   2   2   1   2   2   2   2
#     4  11  22  43  67  91 133 173 219 279 330 394
#     4  11  24  45  71  93 136 185 223 282 340 404
#     4  11  24  41  64  99 133 176 226 273 343 404
#     4  10  26  42  66 100 128 174 240 264 330 418
#     4  10  21  41  65  99 128 176 218 269 346 399
#     4  11  23  42  66  97 130 179 222 271 345 401
#     4  11  22  42  66  98 136 171 225 284 330 407
#     4  10  22  40  65  94 135 166 221 277 327 410
#
# _framework density 26.074414000000001
#
# number of rings (size 3 to 8) (size 9 to 14) (size 15 to 20)
#    0.000    1.333    1.333    5.200    3.733    1.067 
#    0.000    0.667    0.000    0.000    0.000    0.000 
#    0.000    0.000    0.000    0.000    0.000    0.000 
#
# Total GULP energy -83657.581442 kJ/mol
# GULP energy per Si atom -5577.172096 kJ/mol
# Density = 2.601507 g / cm^3
# Si number density = 26.074414 Si / 1000 Ang^3
#
#
#
# Elastic Constant Matrix: (Units=GPa)
#
#
# Indices 1 2 3 4 5 6 
#
# 1 123.7943 49.7069 8.9620 -2.4240 2.9814 -22.2947
# 2 49.7069 62.8805 15.9999 -12.6321 12.2352 1.7402
# 3 8.9620 15.9999 69.0638 -5.6069 -13.5671 -2.7380
# 4 -2.4240 -12.6321 -5.6069 40.1391 -10.9042 11.7001
# 5 2.9814 12.2352 -13.5671 -10.9042 41.7534 -6.3152
# 6 -22.2947 1.7402 -2.7380 11.7001 -6.3152 44.0302
#
#
#
# Elastic Compliance Matrix: (Units=1/GPa)
#
#
# Indices 1 2 3 4 5 6 
#
# 1 0.015813 -0.015347 0.002333 -0.005538 0.004321 0.010850
# 2 -0.015347 0.034594 -0.007962 0.009857 -0.011149 -0.013852
# 3 0.002333 -0.007962 0.018050 0.001577 0.008971 0.003486
# 4 -0.005538 0.009857 0.001577 0.032423 0.004820 -0.011020
# 5 0.004321 -0.011149 0.008971 0.004820 0.032066 0.006505
# 6 0.010850 -0.013852 0.003486 -0.011020 0.006505 0.032831
#
#
# Mechanical properties :
#
#
# Convention : Reuss Voigt Hill
#
# Bulk Modulus (GPa) = 37.73024 45.00848 41.36936
# Shear Modulus (GPa) = 23.08789 37.25586 30.17187
#
# Velocity S-wave (km/s) = 2.97890 3.78409 3.40537
# Velocity P-wave (km/s) = 5.13161 6.03253 5.60022
#
# Compressibility (1/GPa) = 0.02650394
#
# Stress axis : x y z
#
# Youngs Moduli (GPa) = 63.23987 28.90679 55.40276
#
# Poissons Ratio (x) = 0.44364 -0.12925
# Poissons Ratio (y) = 0.97055 0.44112
# Poissons Ratio (z) = -0.14753 0.23016
#
# Static dielectric constant tensor:
#      x y z
#    x 1.577860 -0.060910 -0.384400 
#    y -0.060910 2.066870 -0.028550 
#    z -0.384400 -0.028550 1.831920 
# 
# From -- ./inp_files/619702.got.cif
#   From: 2010.05.17/outbox.cif.g08.bks.cpg/sg2_310_cif.got.tgz:619702.got - 2010.06.03 11:33:40.
