data_PCOD9013974
_publ_section_title
;
Structure prediction by ZEFSAII (Michael W. Deem and Ramdas Pophale) SiO2 
 PCOD9013974
Probable space group: P -1
;
_chemical_formula_sum "Si O2"
_cell_formula_units_Z 14
_cell_length_a 8.145094
_cell_length_b 13.218247
_cell_length_c 11.480726
_cell_angle_alpha 126.068783
_cell_angle_beta 107.796003
_cell_angle_gamma 116.131472
_cell_volume 563.015277
_symmetry_space_group_name_H-M "P -1"
_symmetry_group_IT_number 2
_symmetry_cell_setting 'triclinic'
loop_
_space_group_symop_operation_xyz
x,y,z
-x,-y,-z
loop_
_atom_site_type_symbol
_atom_site_label
_atom_site_fract_x
_atom_site_fract_y
_atom_site_fract_z
Si Si1 0.376228 0.331756 0.264075
Si Si2 0.305087 0.040379 0.180751
Si Si3 0.098297 0.688476 0.804636
Si Si4 0.658460 0.340932 0.671584
Si Si5 0.313553 0.246010 0.751965
Si Si6 0.106026 0.395327 0.799352
Si Si7 0.896682 0.600613 0.444595
O O1 0.500000 0.500000 0.500000
O O2 0.437474 0.227514 0.255776
O O3 0.575425 0.469780 0.290348
O O4 0.039890 0.144384 0.036025
O O5 0.418167 0.135036 0.397284
O O6 0.351156 0.926496 0.068828
O O7 0.133258 0.564644 0.696253
O O8 0.861972 0.539230 0.759343
O O9 0.022695 0.700298 0.667433
O O10 0.493011 0.322271 0.721828
O O11 0.871247 0.353610 0.772766
O O12 0.206602 0.321614 0.822343
O O13 0.572270 0.350971 0.966383
O O14 0.000000 0.000000 0.500000
O O15 0.969356 0.277393 0.564399
#
# Coordination Sequence:
#
# PCOD9013974 Si02
#       7
#     2   2   2   2   2   2   2
#     4  11  22  38  57  95 144 182 222 267 328 400
#     4  11  23  36  63  99 132 188 224 260 338 408
#     4  10  22  42  62 102 138 178 219 270 342 412
#     4  11  24  46  70 101 140 179 221 288 347 404
#     4  11  27  48  71 100 127 174 243 288 341 405
#     4  10  26  46  70 100 133 182 223 287 348 398
#     4  10  21  41  66  92 141 176 215 276 334 407
#
# _framework density 24.866109999999999
#
# number of rings (size 3 to 8) (size 9 to 14) (size 15 to 20)
#    0.000    1.429    2.857    0.429    6.000    4.571 
#    0.000    0.000    0.000    0.000    0.000    0.000 
#    0.000    0.000    0.000    0.000    0.000    0.000 
#
# Total GULP energy -77971.933353 kJ/mol
# GULP energy per Si atom -5569.423811 kJ/mol
# Density = 2.480951 g / cm^3
# Si number density = 24.866110 Si / 1000 Ang^3
#
#
#
# Elastic Constant Matrix: (Units=GPa)
#
#
# Indices 1 2 3 4 5 6 
#
# 1 126.8548 47.0755 44.6899 -1.7399 6.1735 19.8189
# 2 47.0755 43.7600 31.7344 -13.5736 -5.6933 22.2834
# 3 44.6899 31.7344 164.0652 -16.3885 -9.3989 6.4308
# 4 -1.7399 -13.5736 -16.3885 37.2911 1.5041 -5.5499
# 5 6.1735 -5.6933 -9.3989 1.5041 50.9072 -2.6739
# 6 19.8189 22.2834 6.4308 -5.5499 -2.6739 47.0160
#
#
#
# Elastic Compliance Matrix: (Units=1/GPa)
#
#
# Indices 1 2 3 4 5 6 
#
# 1 0.015094 -0.018458 -0.001453 -0.006254 -0.003893 0.001625
# 2 -0.018458 0.060897 -0.003990 0.016567 0.006867 -0.018190
# 3 -0.001453 -0.003990 0.007455 0.001976 0.001142 0.001782
# 4 -0.006254 0.016567 0.001976 0.033127 0.001920 -0.001466
# 5 -0.003893 0.006867 0.001142 0.001920 0.021020 -0.000348
# 6 0.001625 -0.018190 0.001782 -0.001466 -0.000348 0.028769
#
#
# Mechanical properties :
#
#
# Convention : Reuss Voigt Hill
#
# Bulk Modulus (GPa) = 28.05428 64.63106 46.34267
# Shear Modulus (GPa) = 22.11944 41.12154 31.62049
#
# Velocity S-wave (km/s) = 2.98575 4.07100 3.56986
# Velocity P-wave (km/s) = 4.81590 6.93870 5.97237
#
# Compressibility (1/GPa) = 0.03564519
#
# Stress axis : x y z
#
# Youngs Moduli (GPa) = 66.24949 16.42122 134.12937
#
# Poissons Ratio (x) = 0.30311 0.19485
# Poissons Ratio (y) = 1.22285 0.53516
# Poissons Ratio (z) = 0.09624 0.06552
#
# Static dielectric constant tensor:
#      x y z
#    x 2.052760 -0.038930 0.001200 
#    y -0.038930 2.051470 0.006500 
#    z 0.001200 0.006500 2.031300 
# 
# From -- ./inp_files/397786.got.cif
#   From: 2010.05.17/outbox.cif.g08.bks.cpg/sg2_199_cif.got.tgz:397786.got - 2010.06.03 11:33:40.
