data_PCOD9013478
_publ_section_title
;
Structure prediction by ZEFSAII (Michael W. Deem and Ramdas Pophale) SiO2 
 PCOD9013478
Probable space group: P -1
;
_chemical_formula_sum "Si O2"
_cell_formula_units_Z 13
_cell_length_a 21.228706
_cell_length_b 5.011464
_cell_length_c 11.716203
_cell_angle_alpha 101.424528
_cell_angle_beta 24.088908
_cell_angle_gamma 101.641289
_cell_volume 497.978781
_symmetry_space_group_name_H-M "P -1"
_symmetry_group_IT_number 2
_symmetry_cell_setting 'triclinic'
loop_
_space_group_symop_operation_xyz
x,y,z
-x,-y,-z
loop_
_atom_site_type_symbol
_atom_site_label
_atom_site_fract_x
_atom_site_fract_y
_atom_site_fract_z
Si Si1 0.817771 0.663376 0.888910
Si Si2 0.363852 0.595454 0.505289
Si Si3 0.332041 0.240362 0.086987
Si Si4 0.915796 0.221355 0.857199
Si Si5 0.339810 0.830681 0.225538
Si Si6 0.141403 0.512986 0.679223
Si Si7 0.500000 0.500000 0.500000
O O1 0.646929 0.687587 0.225776
O O2 0.790256 0.695930 0.803442
O O3 0.872619 0.383486 0.827328
O O4 0.922195 0.908254 0.789146
O O5 0.282320 0.434719 0.521268
O O6 0.450157 0.425866 0.442792
O O7 0.230185 0.733719 0.812018
O O8 0.498324 0.797809 0.250348
O O9 0.362355 0.514081 0.134655
O O10 0.284710 0.976439 0.215542
O O11 0.065536 0.347791 0.684670
O O12 0.209362 0.800708 0.537936
O O13 0.500000 0.000000 0.000000
O O14 0.000000 0.500000 0.000000
#
# Coordination Sequence:
#
# PCOD9013478 Si02
#       7
#     2   2   2   2   2   2   1
#     4  10  21  41  64  97 137 181 225 278 336 395
#     4   9  19  39  65 100 133 176 224 279 335 394
#     4  11  24  42  70 101 135 178 230 283 343 394
#     4  10  22  41  64  97 140 180 226 273 333 411
#     4  12  25  45  69 102 139 175 231 281 339 409
#     4  10  23  46  67 101 136 184 224 279 342 411
#     4   8  18  34  62  94 130 168 222 272 320 388
#
# _framework density 26.105532
#
# number of rings (size 3 to 8) (size 9 to 14) (size 15 to 20)
#    0.000    1.846    1.538    1.385    0.000   10.462 
#    0.000   11.538    0.000    0.000    0.000    0.000 
#    0.000    0.000    0.000    0.000    0.000    0.000 
#
# Total GULP energy -72436.778726 kJ/mol
# GULP energy per Si atom -5572.059902 kJ/mol
# Density = 2.604612 g / cm^3
# Si number density = 26.105532 Si / 1000 Ang^3
#
#
#
# Elastic Constant Matrix: (Units=GPa)
#
#
# Indices 1 2 3 4 5 6 
#
# 1 186.8545 11.4841 51.3775 -26.8574 7.1006 0.6435
# 2 11.4841 72.9874 39.1434 -18.9256 10.4151 2.8733
# 3 51.3775 39.1434 174.1956 -33.1438 -4.8861 -3.5387
# 4 -26.8574 -18.9256 -33.1438 32.8508 -3.7449 -1.8236
# 5 7.1006 10.4151 -4.8861 -3.7449 41.2676 -24.1706
# 6 0.6435 2.8733 -3.5387 -1.8236 -24.1706 31.0370
#
#
#
# Elastic Compliance Matrix: (Units=1/GPa)
#
#
# Indices 1 2 3 4 5 6 
#
# 1 0.006368 0.001290 -0.001515 0.004021 -0.002475 -0.002115
# 2 0.001290 0.019324 -0.004080 0.006189 -0.011296 -0.010714
# 3 -0.001515 -0.004080 0.008676 0.006401 0.007240 0.007413
# 4 0.004021 0.006189 0.006401 0.045115 0.007711 0.008729
# 5 -0.002475 -0.011296 0.007240 0.007711 0.056000 0.045987
# 6 -0.002115 -0.010714 0.007413 0.008729 0.045987 0.070426
#
#
# Mechanical properties :
#
#
# Convention : Reuss Voigt Hill
#
# Bulk Modulus (GPa) = 38.82276 70.89417 54.85847
# Shear Modulus (GPa) = 22.41074 43.16660 32.78867
#
# Velocity S-wave (km/s) = 2.93314 4.07079 3.54786
# Velocity P-wave (km/s) = 5.13564 7.02217 6.15165
#
# Compressibility (1/GPa) = 0.02575809
#
# Stress axis : x y z
#
# Youngs Moduli (GPa) = 157.02348 51.74794 115.26152
#
# Poissons Ratio (x) = -0.06674 0.17467
# Poissons Ratio (y) = -0.20252 0.47023
# Poissons Ratio (z) = 0.23796 0.21112
#
# Static dielectric constant tensor:
#      x y z
#    x 2.071850 -0.000770 0.024340 
#    y -0.000770 2.001500 0.113380 
#    z 0.024340 0.113380 2.142780 
# 
# From -- ./inp_files/468096.got.cif
#   From: 2010.05.17/outbox.cif.g08.bks.cpg/sg2_235_cif.got.tgz:468096.got - 2010.06.03 11:33:40.
