data_PCOD9013634
_publ_section_title
;
Structure prediction by ZEFSAII (Michael W. Deem and Ramdas Pophale) SiO2 
 PCOD9013634
Probable space group: P -1
;
_chemical_formula_sum "Si O2"
_cell_formula_units_Z 16
_cell_length_a 17.685130
_cell_length_b 9.201006
_cell_length_c 17.732675
_cell_angle_alpha 139.027300
_cell_angle_beta 24.870000
_cell_angle_gamma 144.427748
_cell_volume 704.219213
_symmetry_space_group_name_H-M "P -1"
_symmetry_group_IT_number 2
_symmetry_cell_setting 'triclinic'
loop_
_space_group_symop_operation_xyz
x,y,z
-x,-y,-z
loop_
_atom_site_type_symbol
_atom_site_label
_atom_site_fract_x
_atom_site_fract_y
_atom_site_fract_z
Si Si1 0.778638 0.817669 0.101277
Si Si2 0.678427 0.951492 0.783702
Si Si3 0.981852 0.076890 0.286208
Si Si4 0.404727 0.203169 0.369600
Si Si5 0.648498 0.666417 0.843310
Si Si6 0.804504 0.456356 0.822093
Si Si7 0.507930 0.908421 0.269126
Si Si8 0.352676 0.224448 0.630821
O O1 0.700557 0.919261 0.142228
O O2 0.648531 0.777008 0.278391
O O3 0.785009 0.577483 0.965825
O O4 0.000000 0.000000 0.000000
O O5 0.604967 0.811458 0.716822
O O6 0.726966 0.803063 0.745528
O O7 0.845857 0.227180 0.715247
O O8 0.500000 0.000000 0.000000
O O9 0.197279 0.160082 0.164468
O O10 0.031675 0.334489 0.297877
O O11 0.814342 0.975539 0.464670
O O12 0.870291 0.863273 0.239624
O O13 0.493458 0.494506 0.422542
O O14 0.540921 0.087505 0.238120
O O15 0.622493 0.384898 0.749763
O O16 0.419623 0.632957 0.046969
O O17 0.412055 0.022595 0.462052
#
# Coordination Sequence:
#
# PCOD9013634 Si02
#       8
#     2   2   2   2   2   2   2   2
#     4  11  22  43  65  99 126 167 220 261 316 392
#     4  10  22  42  64  89 127 169 209 268 324 374
#     4  11  22  39  63  94 126 166 217 257 319 385
#     4  11  24  43  65  92 133 171 216 265 319 385
#     4  10  22  40  66  95 126 167 217 265 324 377
#     4  10  21  41  65  91 130 168 209 272 320 376
#     4  10  22  40  69  93 128 172 211 265 326 373
#     4  11  23  44  65  93 136 170 214 265 323 377
#
# _framework density 22.720198
#
# number of rings (size 3 to 8) (size 9 to 14) (size 15 to 20)
#    0.000    1.500    1.250    5.250    0.000    8.000 
#    4.500    0.625    0.000    0.000    0.000    0.000 
#    0.000    0.000    0.000    0.000    0.000    0.000 
#
# Total GULP energy -89294.044915 kJ/mol
# GULP energy per Si atom -5580.877807 kJ/mol
# Density = 2.266849 g / cm^3
# Si number density = 22.720198 Si / 1000 Ang^3
#
#
#
# Elastic Constant Matrix: (Units=GPa)
#
#
# Indices 1 2 3 4 5 6 
#
# 1 113.2440 32.0428 10.7246 -2.1246 17.5436 6.8056
# 2 32.0428 131.3974 33.8196 -10.3727 -7.0679 -10.3666
# 3 10.7246 33.8196 58.9809 -4.4603 11.9608 1.8994
# 4 -2.1246 -10.3727 -4.4603 35.7928 -2.3272 4.2152
# 5 17.5436 -7.0679 11.9608 -2.3272 31.8084 -7.4180
# 6 6.8056 -10.3666 1.8994 4.2152 -7.4180 49.3363
#
#
#
# Elastic Compliance Matrix: (Units=1/GPa)
#
#
# Indices 1 2 3 4 5 6 
#
# 1 0.011420 -0.004181 0.002241 -0.000385 -0.008998 -0.003860
# 2 -0.004181 0.011626 -0.007706 0.002218 0.008994 0.004479
# 3 0.002241 -0.007706 0.023800 0.000592 -0.012985 -0.004848
# 4 -0.000385 0.002218 0.000592 0.028970 0.002218 -0.001645
# 5 -0.008998 0.008994 -0.012985 0.002218 0.045855 0.010336
# 6 -0.003860 0.004479 -0.004848 -0.001645 0.010336 0.023624
#
#
# Mechanical properties :
#
#
# Convention : Reuss Voigt Hill
#
# Bulk Modulus (GPa) = 36.29341 50.75514 43.52428
# Shear Modulus (GPa) = 28.77340 38.52320 33.64830
#
# Velocity S-wave (km/s) = 3.56255 4.12217 3.85253
# Velocity P-wave (km/s) = 5.73856 6.71149 6.24400
#
# Compressibility (1/GPa) = 0.02755321
#
# Stress axis : x y z
#
# Youngs Moduli (GPa) = 87.56604 86.01665 42.01667
#
# Poissons Ratio (x) = 0.35959 -0.09414
# Poissons Ratio (y) = 0.36607 0.32379
# Poissons Ratio (z) = -0.19620 0.66287
#
# Static dielectric constant tensor:
#      x y z
#    x 1.895280 -0.000730 0.000560 
#    y -0.000730 1.864950 -0.012980 
#    z 0.000560 -0.012980 1.924110 
# 
# From -- ./inp_files/575594.got.cif
#   From: 2010.05.17/outbox.cif.g08.bks.cpg/sg2_288_cif.got.tgz:575594.got - 2010.06.03 11:33:40.
