data_PCOD9013415
_publ_section_title
;
Structure prediction by ZEFSAII (Michael W. Deem and Ramdas Pophale) SiO2 
 PCOD9013415
Probable space group: P -1
;
_chemical_formula_sum "Si O2"
_cell_formula_units_Z 14
_cell_length_a 8.803267
_cell_length_b 9.229036
_cell_length_c 15.350035
_cell_angle_alpha 83.489331
_cell_angle_beta 41.138990
_cell_angle_gamma 59.337729
_cell_volume 619.786460
_symmetry_space_group_name_H-M "P -1"
_symmetry_group_IT_number 2
_symmetry_cell_setting 'triclinic'
loop_
_space_group_symop_operation_xyz
x,y,z
-x,-y,-z
loop_
_atom_site_type_symbol
_atom_site_label
_atom_site_fract_x
_atom_site_fract_y
_atom_site_fract_z
Si Si1 0.887120 0.963506 0.637822
Si Si2 0.974882 0.440181 0.919964
Si Si3 0.571520 0.616096 0.385526
Si Si4 0.225340 0.811532 0.975436
Si Si5 0.438633 0.853613 0.057381
Si Si6 0.296036 0.249606 0.339027
Si Si7 0.632165 0.592962 0.555808
O O1 0.663363 0.926468 0.706050
O O2 0.211451 0.773729 0.546395
O O3 0.727174 0.100774 0.780787
O O4 0.000000 0.000000 0.500000
O O5 0.299344 0.322282 0.741527
O O6 0.864770 0.319937 0.978165
O O7 0.748748 0.634662 0.947884
O O8 0.000000 0.500000 0.000000
O O9 0.713722 0.582614 0.420836
O O10 0.612310 0.437242 0.339260
O O11 0.554219 0.699224 0.796165
O O12 0.247953 0.865876 0.059018
O O13 0.000000 0.000000 0.000000
O O14 0.500000 0.000000 0.000000
O O15 0.438949 0.232241 0.371668
O O16 0.930712 0.410837 0.488645
#
# Coordination Sequence:
#
# PCOD9013415 Si02
#       7
#     2   2   2   2   2   2   2
#     4  11  25  43  68  98 140 182 231 289 356 419
#     4  12  26  45  72 103 143 187 238 292 353 432
#     4  10  22  39  67  97 131 174 233 276 350 409
#     4  12  27  44  72 102 142 185 244 290 355 423
#     4  12  26  47  73 104 147 189 234 297 360 421
#     4  10  21  41  64  94 133 176 227 283 349 408
#     4   9  20  38  66  93 128 173 224 284 340 417
#
# _framework density 22.588424
#
# number of rings (size 3 to 8) (size 9 to 14) (size 15 to 20)
#    0.000    1.143    1.429    3.857    8.000    3.429 
#    0.000    1.429    0.000    0.000    0.000    0.000 
#    0.000    0.000    0.000    0.000    0.000    0.000 
#
# Total GULP energy -78188.964887 kJ/mol
# GULP energy per Si atom -5584.926063 kJ/mol
# Density = 2.253701 g / cm^3
# Si number density = 22.588424 Si / 1000 Ang^3
#
#
#
# Elastic Constant Matrix: (Units=GPa)
#
#
# Indices 1 2 3 4 5 6 
#
# 1 193.4760 52.5446 42.7191 -13.2157 28.7444 28.1221
# 2 52.5446 99.6725 16.2453 -16.4564 -7.4330 9.0571
# 3 42.7191 16.2453 105.5541 -25.4315 5.6669 22.5499
# 4 -13.2157 -16.4564 -25.4315 40.1694 -0.4305 -12.0661
# 5 28.7444 -7.4330 5.6669 -0.4305 40.2563 -1.7089
# 6 28.1221 9.0571 22.5499 -12.0661 -1.7089 43.7669
#
#
#
# Elastic Compliance Matrix: (Units=1/GPa)
#
#
# Indices 1 2 3 4 5 6 
#
# 1 0.008254 -0.004435 -0.001787 -0.001552 -0.006654 -0.004152
# 2 -0.004435 0.013398 0.000241 0.004684 0.005719 0.001468
# 3 -0.001787 0.000241 0.012483 0.006324 -0.000522 -0.003610
# 4 -0.001552 0.004684 0.006324 0.032026 0.001665 0.005664
# 5 -0.006654 0.005719 -0.000522 0.001665 0.030952 0.005028
# 6 -0.004152 0.001468 -0.003610 0.005664 0.005028 0.028830
#
#
# Mechanical properties :
#
#
# Convention : Reuss Voigt Hill
#
# Bulk Modulus (GPa) = 45.10189 69.08006 57.09098
# Shear Modulus (GPa) = 34.41232 43.98477 39.19854
#
# Velocity S-wave (km/s) = 3.90737 4.41753 4.17026
# Velocity P-wave (km/s) = 6.35350 7.52780 6.96544
#
# Compressibility (1/GPa) = 0.02217202
#
# Stress axis : x y z
#
# Youngs Moduli (GPa) = 121.15709 74.63753 80.10929
#
# Poissons Ratio (x) = 0.33101 0.14319
# Poissons Ratio (y) = 0.53732 -0.01930
# Poissons Ratio (z) = 0.21656 -0.01798
#
# Static dielectric constant tensor:
#      x y z
#    x 1.872700 0.014340 0.024520 
#    y 0.014340 1.958380 0.088920 
#    z 0.024520 0.088920 1.865510 
# 
# From -- ./inp_files/245759.got.cif
#   From: 2010.05.17/outbox.cif.g08.bks.cpg/sg2_123_cif.got.tgz:245759.got - 2010.06.03 11:33:40.
