data_PCOD9013785
_publ_section_title
;
Structure prediction by ZEFSAII (Michael W. Deem and Ramdas Pophale) SiO2 
 PCOD9013785
Probable space group: P -1
;
_chemical_formula_sum "Si O2"
_cell_formula_units_Z 12
_cell_length_a 8.250143
_cell_length_b 7.035182
_cell_length_c 15.035978
_cell_angle_alpha 48.136773
_cell_angle_beta 70.552219
_cell_angle_gamma 102.059974
_cell_volume 483.767195
_symmetry_space_group_name_H-M "P -1"
_symmetry_group_IT_number 2
_symmetry_cell_setting 'triclinic'
loop_
_space_group_symop_operation_xyz
x,y,z
-x,-y,-z
loop_
_atom_site_type_symbol
_atom_site_label
_atom_site_fract_x
_atom_site_fract_y
_atom_site_fract_z
Si Si1 0.444454 0.655140 0.859104
Si Si2 0.456553 0.017319 0.897458
Si Si3 0.199777 0.333517 0.317381
Si Si4 0.010662 0.276461 0.995972
Si Si5 0.516059 0.226909 0.549516
Si Si6 0.161621 0.657689 0.679112
O O1 0.473925 0.766721 0.920274
O O2 0.455277 0.948824 0.717165
O O3 0.637216 0.685551 0.764632
O O4 0.207436 0.301592 0.000783
O O5 0.656698 0.388292 0.723354
O O6 0.238480 0.961507 0.918657
O O7 0.500000 0.000000 0.000000
O O8 0.070663 0.422066 0.255406
O O9 0.000000 0.000000 0.500000
O O10 0.134667 0.426544 0.832608
O O11 0.000000 0.500000 0.000000
O O12 0.500000 0.500000 0.500000
O O13 0.751339 0.381275 0.415524
O O14 0.341487 0.023589 0.565471
#
# Coordination Sequence:
#
# PCOD9013785 Si02
#       6
#     2   2   2   2   2   2
#     4  10  24  42  69 101 134 176 229 278 337 400
#     4  11  24  44  68  97 137 183 226 271 337 403
#     4  12  25  42  68 101 141 174 219 286 339 397
#     4   9  20  45  67  92 133 177 231 273 321 405
#     4  10  22  40  67  95 132 180 227 273 333 401
#     4  10  21  41  65  96 135 171 225 281 331 393
#
# _framework density 24.805318
#
# number of rings (size 3 to 8) (size 9 to 14) (size 15 to 20)
#    0.000    1.667    3.333    0.000    2.333    3.333 
#    0.000    3.333    0.000    0.000    0.000    0.000 
#    0.000    0.000    0.000    0.000    0.000    0.000 
#
# Total GULP energy -66931.130996 kJ/mol
# GULP energy per Si atom -5577.594250 kJ/mol
# Density = 2.474886 g / cm^3
# Si number density = 24.805318 Si / 1000 Ang^3
#
#
#
# Elastic Constant Matrix: (Units=GPa)
#
#
# Indices 1 2 3 4 5 6 
#
# 1 169.0929 75.3448 21.8072 -6.0546 -38.4684 2.3312
# 2 75.3448 135.2828 9.2421 1.2188 -18.7993 -5.6414
# 3 21.8072 9.2421 59.2033 1.0833 -19.0994 4.7987
# 4 -6.0546 1.2188 1.0833 40.3386 3.8563 -9.4543
# 5 -38.4684 -18.7993 -19.0994 3.8563 51.7247 -1.8272
# 6 2.3312 -5.6414 4.7987 -9.4543 -1.8272 52.4537
#
#
#
# Elastic Compliance Matrix: (Units=1/GPa)
#
#
# Indices 1 2 3 4 5 6 
#
# 1 0.009117 -0.004376 -0.001149 0.000984 0.004677 -0.000431
# 2 -0.004376 0.009944 0.000145 -0.000744 0.000509 0.001134
# 3 -0.001149 0.000145 0.019564 -0.001747 0.006488 -0.001812
# 4 0.000984 -0.000744 -0.001747 0.026300 -0.001979 0.004707
# 5 0.004677 0.000509 0.006488 -0.001979 0.025532 -0.000214
# 6 -0.000431 0.001134 -0.001812 0.004707 -0.000214 0.020212
#
#
# Mechanical properties :
#
#
# Convention : Reuss Voigt Hill
#
# Bulk Modulus (GPa) = 35.88779 64.04081 49.96430
# Shear Modulus (GPa) = 38.25044 46.04907 42.14975
#
# Velocity S-wave (km/s) = 3.93112 4.31329 4.12663
# Velocity P-wave (km/s) = 5.92488 7.11895 6.54918
#
# Compressibility (1/GPa) = 0.02786463
#
# Stress axis : x y z
#
# Youngs Moduli (GPa) = 109.68181 100.56365 51.11537
#
# Poissons Ratio (x) = 0.44008 0.05875
# Poissons Ratio (y) = 0.47998 -0.00743
# Poissons Ratio (z) = 0.12606 -0.01462
#
# Static dielectric constant tensor:
#      x y z
#    x 2.127330 0.038000 0.161600 
#    y 0.038000 2.044370 -0.050920 
#    z 0.161600 -0.050920 2.269960 
# 
# From -- ./inp_files/326932.got.cif
#   From: 2010.05.17/outbox.cif.g08.bks.cpg/sg2_164_cif.got.tgz:326932.got - 2010.06.03 11:33:40.
