data_PCOD9013479
_publ_section_title
;
Structure prediction by ZEFSAII (Michael W. Deem and Ramdas Pophale) SiO2 
 PCOD9013479
Probable space group: P -1
;
_chemical_formula_sum "Si O2"
_cell_formula_units_Z 14
_cell_length_a 5.874847
_cell_length_b 12.571201
_cell_length_c 23.325053
_cell_angle_alpha 150.772626
_cell_angle_beta 48.480009
_cell_angle_gamma 132.610317
_cell_volume 606.474311
_symmetry_space_group_name_H-M "P -1"
_symmetry_group_IT_number 2
_symmetry_cell_setting 'triclinic'
loop_
_space_group_symop_operation_xyz
x,y,z
-x,-y,-z
loop_
_atom_site_type_symbol
_atom_site_label
_atom_site_fract_x
_atom_site_fract_y
_atom_site_fract_z
Si Si1 0.480940 0.324425 0.868172
Si Si2 0.519729 0.038191 0.215835
Si Si3 0.182892 0.533536 0.823179
Si Si4 0.306794 0.741664 0.404793
Si Si5 0.843089 0.617379 0.530178
Si Si6 0.027305 0.635225 0.785756
Si Si7 0.608725 0.331383 0.034678
O O1 0.295992 0.419079 0.893676
O O2 0.830879 0.370498 0.804747
O O3 0.398522 0.079177 0.795213
O O4 0.500000 0.500000 0.000000
O O5 0.241551 0.158462 0.327243
O O6 0.825393 0.218473 0.224273
O O7 0.416397 0.849296 0.095186
O O8 0.431796 0.389369 0.714414
O O9 0.184465 0.675794 0.947647
O O10 0.263145 0.676738 0.819407
O O11 0.057360 0.629305 0.343304
O O12 0.109350 0.673658 0.463549
O O13 0.500000 0.000000 0.500000
O O14 0.500000 0.500000 0.500000
O O15 0.000000 0.500000 0.500000
O O16 0.733106 0.702546 0.894767
#
# Coordination Sequence:
#
# PCOD9013479 Si02
#       7
#     2   2   2   2   2   2   2
#     4   9  20  39  62  98 139 178 235 292 355 440
#     4  11  21  42  68 100 140 190 232 302 375 428
#     4  10  21  42  63  96 142 178 241 301 355 444
#     4  11  24  44  70  98 136 195 247 302 365 433
#     4  12  27  52  72 108 153 192 252 315 370 440
#     4  10  21  41  64  97 138 178 238 301 359 445
#     4   9  21  40  66 100 139 181 236 290 364 447
#
# _framework density 23.084242
#
# number of rings (size 3 to 8) (size 9 to 14) (size 15 to 20)
#    0.000    1.714    1.429    2.143    0.000    3.429 
#   18.000    0.000    0.000    0.000    0.000    0.000 
#    0.000    0.000    0.000    0.000    0.000    0.000 
#
# Total GULP energy -78054.356488 kJ/mol
# GULP energy per Si atom -5575.311178 kJ/mol
# Density = 2.303170 g / cm^3
# Si number density = 23.084242 Si / 1000 Ang^3
#
#
#
# Elastic Constant Matrix: (Units=GPa)
#
#
# Indices 1 2 3 4 5 6 
#
# 1 75.6866 38.7582 29.6719 3.8676 8.4994 -12.0519
# 2 38.7582 130.8044 35.3483 -7.3365 9.5818 -16.3045
# 3 29.6719 35.3483 125.7564 -12.3844 5.5364 -3.7799
# 4 3.8676 -7.3365 -12.3844 38.3643 1.2114 -0.2564
# 5 8.4994 9.5818 5.5364 1.2114 31.9286 -4.9764
# 6 -12.0519 -16.3045 -3.7799 -0.2564 -4.9764 34.5379
#
#
#
# Elastic Compliance Matrix: (Units=1/GPa)
#
#
# Indices 1 2 3 4 5 6 
#
# 1 0.017437 -0.003901 -0.003150 -0.003426 -0.002242 0.003550
# 2 -0.003901 0.009764 -0.001501 0.001835 -0.001246 0.002918
# 3 -0.003150 -0.001501 0.009422 0.003085 -0.000593 -0.000839
# 4 -0.003426 0.001835 0.003085 0.027797 -0.001222 0.000039
# 5 -0.002242 -0.001246 -0.000593 -0.001222 0.032955 0.003304
# 6 0.003550 0.002918 -0.000839 0.000039 0.003304 0.031954
#
#
# Mechanical properties :
#
#
# Convention : Reuss Voigt Hill
#
# Bulk Modulus (GPa) = 51.23022 59.97826 55.60424
# Shear Modulus (GPa) = 32.69282 36.19742 34.44512
#
# Velocity S-wave (km/s) = 3.76738 3.96417 3.86702
# Velocity P-wave (km/s) = 6.41600 6.85504 6.63915
#
# Compressibility (1/GPa) = 0.01951973
#
# Stress axis : x y z
#
# Youngs Moduli (GPa) = 57.34977 102.41232 106.13883
#
# Poissons Ratio (x) = 0.39951 0.33431
# Poissons Ratio (y) = 0.22372 0.15931
# Poissons Ratio (z) = 0.18063 0.15372
#
# Static dielectric constant tensor:
#      x y z
#    x 2.093830 0.025360 0.031920 
#    y 0.025360 1.884150 0.050400 
#    z 0.031920 0.050400 1.864330 
# 
# From -- ./inp_files/299802.got.cif
#   From: 2010.05.17/outbox.cif.g08.bks.cpg/sg2_150_cif.got.tgz:299802.got - 2010.06.03 11:33:40.
