data_PCOD9013779
_publ_section_title
;
Structure prediction by ZEFSAII (Michael W. Deem and Ramdas Pophale) SiO2 
 PCOD9013779
Probable space group: P -1
;
_chemical_formula_sum "Si O2"
_cell_formula_units_Z 13
_cell_length_a 9.026607
_cell_length_b 6.109330
_cell_length_c 11.655478
_cell_angle_alpha 101.288703
_cell_angle_beta 72.164402
_cell_angle_gamma 106.952662
_cell_volume 581.266703
_symmetry_space_group_name_H-M "P -1"
_symmetry_group_IT_number 2
_symmetry_cell_setting 'triclinic'
loop_
_space_group_symop_operation_xyz
x,y,z
-x,-y,-z
loop_
_atom_site_type_symbol
_atom_site_label
_atom_site_fract_x
_atom_site_fract_y
_atom_site_fract_z
Si Si1 0.134394 0.430194 0.735046
Si Si2 0.000000 0.500000 0.000000
Si Si3 0.400926 0.178976 0.654455
Si Si4 0.886579 0.096847 0.622403
Si Si5 0.434053 0.038714 0.205365
Si Si6 0.373549 0.634151 0.992735
Si Si7 0.728436 0.289545 0.491993
O O1 0.279166 0.326628 0.731362
O O2 0.186604 0.559869 0.617120
O O3 0.074340 0.571973 0.861900
O O4 0.989157 0.210591 0.718004
O O5 0.812391 0.493616 0.997228
O O6 0.558142 0.332880 0.571157
O O7 0.461739 0.054459 0.734000
O O8 0.314852 0.976938 0.567169
O O9 0.830872 0.293288 0.582745
O O10 0.723373 0.923629 0.687998
O O11 0.000000 0.000000 0.500000
O O12 0.373621 0.838094 0.105186
O O13 0.542689 0.248852 0.131878
O O14 0.500000 0.500000 0.000000
#
# Coordination Sequence:
#
# PCOD9013779 Si02
#       7
#     2   1   2   2   2   2   2
#     4  12  23  42  64  99 133 174 230 275 339 402
#     4  12  26  44  70 102 136 176 236 280 324 418
#     4  10  21  41  65  96 131 173 221 281 344 402
#     4  11  22  43  66  96 137 175 221 281 344 402
#     4  10  23  45  66  94 140 174 225 282 335 408
#     4  11  24  47  70  98 135 186 227 279 339 402
#     4  10  22  39  66  96 132 173 222 282 337 407
#
# _framework density 22.364947999999998
#
# number of rings (size 3 to 8) (size 9 to 14) (size 15 to 20)
#    0.000    1.231    3.077    2.769    0.000    1.231 
#   11.077    4.615    0.000    0.000    0.000    0.000 
#    0.000    0.000    0.000    0.000    0.000    0.000 
#
# Total GULP energy -72395.193325 kJ/mol
# GULP energy per Si atom -5568.861025 kJ/mol
# Density = 2.231404 g / cm^3
# Si number density = 22.364948 Si / 1000 Ang^3
#
#
#
# Elastic Constant Matrix: (Units=GPa)
#
#
# Indices 1 2 3 4 5 6 
#
# 1 168.7809 37.2541 49.9390 -21.2529 -29.8998 8.1628
# 2 37.2541 32.5457 19.2598 -14.0084 -19.0224 3.9469
# 3 49.9390 19.2598 115.7848 -35.7338 -23.5150 0.9963
# 4 -21.2529 -14.0084 -35.7338 37.5716 11.4523 5.2928
# 5 -29.8998 -19.0224 -23.5150 11.4523 44.2629 -1.2804
# 6 8.1628 3.9469 0.9963 5.2928 -1.2804 16.9254
#
#
#
# Elastic Compliance Matrix: (Units=1/GPa)
#
#
# Indices 1 2 3 4 5 6 
#
# 1 0.008555 -0.007516 -0.002199 -0.000177 0.001366 -0.002085
# 2 -0.007516 0.055390 0.002058 0.015498 0.015432 -0.013092
# 3 -0.002199 0.002058 0.013682 0.012007 0.003453 -0.003718
# 4 -0.000177 0.015498 0.012007 0.046213 0.000423 -0.018655
# 5 0.001366 0.015432 0.003453 0.000423 0.031809 -0.002187
# 6 -0.002085 -0.013092 -0.003718 -0.018655 -0.002187 0.069028
#
#
# Mechanical properties :
#
#
# Convention : Reuss Voigt Hill
#
# Bulk Modulus (GPa) = 16.04823 58.89081 37.46952
# Shear Modulus (GPa) = 19.17456 33.79590 26.48523
#
# Velocity S-wave (km/s) = 2.93123 3.89152 3.44500
# Velocity P-wave (km/s) = 4.31825 6.82501 5.71087
#
# Compressibility (1/GPa) = 0.06231219
#
# Stress axis : x y z
#
# Youngs Moduli (GPa) = 116.89036 18.05382 73.08953
#
# Poissons Ratio (x) = 0.13570 0.16071
# Poissons Ratio (y) = 0.87860 -0.15042
# Poissons Ratio (z) = 0.25703 -0.03715
#
# Static dielectric constant tensor:
#      x y z
#    x 1.852170 0.043550 0.000290 
#    y 0.043550 1.832000 0.047410 
#    z 0.000290 0.047410 1.808430 
# 
# From -- ./inp_files/24406.got.cif
#   From: 2010.05.17/outbox.cif.g08.bks.cpg/sg2_13_cif.got.tgz:24406.got - 2010.06.03 11:33:40.
