data_PCOD9013668
_publ_section_title
;
Structure prediction by ZEFSAII (Michael W. Deem and Ramdas Pophale) SiO2 
 PCOD9013668
Probable space group: P -1
;
_chemical_formula_sum "Si O2"
_cell_formula_units_Z 16
_cell_length_a 14.266257
_cell_length_b 9.327326
_cell_length_c 12.046211
_cell_angle_alpha 35.564416
_cell_angle_beta 60.585373
_cell_angle_gamma 81.353467
_cell_volume 707.107849
_symmetry_space_group_name_H-M "P -1"
_symmetry_group_IT_number 2
_symmetry_cell_setting 'triclinic'
loop_
_space_group_symop_operation_xyz
x,y,z
-x,-y,-z
loop_
_atom_site_type_symbol
_atom_site_label
_atom_site_fract_x
_atom_site_fract_y
_atom_site_fract_z
Si Si1 0.536860 0.326271 0.254755
Si Si2 0.759785 0.831539 0.909106
Si Si3 0.802489 0.309167 0.752781
Si Si4 0.416310 0.651334 0.032951
Si Si5 0.092554 0.738471 0.069898
Si Si6 0.171053 0.344121 0.698962
Si Si7 0.868460 0.443723 0.070738
Si Si8 0.301432 0.858893 0.439075
O O1 0.611878 0.423641 0.032967
O O2 0.500000 0.000000 0.500000
O O3 0.627317 0.541299 0.159859
O O4 0.428275 0.404330 0.246952
O O5 0.780638 0.025867 0.881041
O O6 0.762437 0.017176 0.684967
O O7 0.858450 0.726372 0.908241
O O8 0.828300 0.529642 0.501083
O O9 0.678883 0.269545 0.908120
O O10 0.906456 0.420434 0.718043
O O11 0.554495 0.918451 0.782994
O O12 0.143612 0.655280 0.986630
O O13 0.177284 0.063117 0.851445
O O14 0.959796 0.711886 0.138342
O O15 0.275397 0.570517 0.575030
O O16 0.764178 0.216980 0.356162
O O17 0.000000 0.500000 0.000000
#
# Coordination Sequence:
#
# PCOD9013668 Si02
#       8
#     2   2   2   2   2   2   2   2
#     4  10  21  41  65  92 132 169 217 260 316 380
#     4  10  24  41  64  95 131 169 218 265 319 392
#     4  11  24  43  66  96 135 173 215 264 327 386
#     4  10  23  40  67  98 131 172 214 263 323 390
#     4  11  24  42  66  95 128 170 222 267 324 383
#     4  10  23  43  65  92 129 174 216 272 318 383
#     4  12  24  42  67  93 127 171 217 270 327 377
#     4  10  22  45  65  96 131 166 217 270 317 391
#
# _framework density 22.627381
#
# number of rings (size 3 to 8) (size 9 to 14) (size 15 to 20)
#    0.000    1.500    1.250    2.625    1.750   11.000 
#    0.000    4.375    0.000    0.000    0.000    0.000 
#    0.000    0.000    0.000    0.000    0.000    0.000 
#
# Total GULP energy -89497.987248 kJ/mol
# GULP energy per Si atom -5593.624203 kJ/mol
# Density = 2.257588 g / cm^3
# Si number density = 22.627381 Si / 1000 Ang^3
#
#
#
# Elastic Constant Matrix: (Units=GPa)
#
#
# Indices 1 2 3 4 5 6 
#
# 1 70.8742 34.4998 -7.5934 8.1280 7.5113 -4.1339
# 2 34.4998 145.5287 17.3883 11.7387 11.2189 -7.2902
# 3 -7.5934 17.3883 43.4531 -0.9851 8.0350 4.2726
# 4 8.1280 11.7387 -0.9851 37.2988 2.5973 2.4827
# 5 7.5113 11.2189 8.0350 2.5973 27.9454 4.6519
# 6 -4.1339 -7.2902 4.2726 2.4827 4.6519 46.5382
#
#
#
# Elastic Compliance Matrix: (Units=1/GPa)
#
#
# Indices 1 2 3 4 5 6 
#
# 1 0.017537 -0.004243 0.005462 -0.002089 -0.004546 0.000958
# 2 -0.004243 0.008712 -0.004201 -0.001949 -0.001234 0.001601
# 3 0.005462 -0.004201 0.027253 0.001503 -0.007422 -0.002013
# 4 -0.002089 -0.001949 0.001503 0.028147 -0.001372 -0.001993
# 5 -0.004546 -0.001234 -0.007422 -0.001372 0.040409 -0.003882
# 6 0.000958 0.001601 -0.002013 -0.001993 -0.003882 0.022503
#
#
# Mechanical properties :
#
#
# Convention : Reuss Voigt Hill
#
# Bulk Modulus (GPa) = 21.03599 38.71615 29.87607
# Shear Modulus (GPa) = 30.05311 36.72725 33.39018
#
# Velocity S-wave (km/s) = 3.64837 4.03318 3.84559
# Velocity P-wave (km/s) = 5.20234 6.23187 5.74023
#
# Compressibility (1/GPa) = 0.04753758
#
# Stress axis : x y z
#
# Youngs Moduli (GPa) = 57.02121 114.78568 36.69287
#
# Poissons Ratio (x) = 0.48705 -0.20040
# Poissons Ratio (y) = 0.24195 0.15415
# Poissons Ratio (z) = -0.31143 0.48221
#
# Static dielectric constant tensor:
#      x y z
#    x 1.885660 0.018600 0.026350 
#    y 0.018600 1.818370 -0.025280 
#    z 0.026350 -0.025280 1.870860 
# 
# From -- ./inp_files/284984.got.cif
#   From: 2010.05.17/outbox.cif.g08.bks.cpg/sg2_143_cif.got.tgz:284984.got - 2010.06.03 11:33:40.
