data_PCOD9013017
_publ_section_title
;
Structure prediction by ZEFSAII (Michael W. Deem and Ramdas Pophale) SiO2 
 PCOD9013017
Probable space group: P -1
;
_chemical_formula_sum "Si O2"
_cell_formula_units_Z 14
_cell_length_a 12.581662
_cell_length_b 9.649344
_cell_length_c 8.906359
_cell_angle_alpha 71.121019
_cell_angle_beta 72.541099
_cell_angle_gamma 130.223827
_cell_volume 554.391673
_symmetry_space_group_name_H-M "P -1"
_symmetry_group_IT_number 2
_symmetry_cell_setting 'triclinic'
loop_
_space_group_symop_operation_xyz
x,y,z
-x,-y,-z
loop_
_atom_site_type_symbol
_atom_site_label
_atom_site_fract_x
_atom_site_fract_y
_atom_site_fract_z
Si Si1 0.286225 0.804325 0.593020
Si Si2 0.132103 0.958225 0.636312
Si Si3 0.738123 0.497670 0.134425
Si Si4 0.899745 0.665164 0.561710
Si Si5 0.491974 0.663654 0.987341
Si Si6 0.701194 0.164766 0.778070
Si Si7 0.169622 0.238962 0.730835
O O1 0.209622 0.879199 0.645519
O O2 0.172527 0.554432 0.817301
O O3 0.289503 0.787725 0.418966
O O4 0.500000 0.000000 0.500000
O O5 0.079919 0.919515 0.496156
O O6 0.251336 0.201271 0.600704
O O7 0.916767 0.749959 0.871182
O O8 0.683709 0.530355 0.293343
O O9 0.562449 0.313136 0.154676
O O10 0.693936 0.509258 0.764785
O O11 0.869505 0.455941 0.670635
O O12 0.911907 0.729866 0.362986
O O13 0.500000 0.500000 0.000000
O O14 0.674151 0.958268 0.872040
O O15 0.500000 0.000000 0.000000
O O16 0.000000 0.000000 0.000000
#
# Coordination Sequence:
#
# PCOD9013017 Si02
#       7
#     2   2   2   2   2   2   2
#     4  12  23  42  67  91 132 168 217 269 324 381
#     4  10  24  41  64  96 129 173 218 264 324 381
#     4  10  21  44  64  95 131 171 212 269 321 387
#     4  10  21  42  66  88 134 172 215 262 321 388
#     4  10  22  41  66  97 129 168 214 264 325 387
#     4  10  22  42  63  95 129 169 213 259 323 384
#     4  10  21  41  62  96 129 168 215 270 320 374
#
# _framework density 25.252904999999998
#
# number of rings (size 3 to 8) (size 9 to 14) (size 15 to 20)
#    0.000    1.714    2.857    0.857    2.000    0.571 
#    5.143    1.429    0.000    0.000    0.000    0.000 
#    0.000    0.000    0.000    0.000    0.000    0.000 
#
# Total GULP energy -78109.348977 kJ/mol
# GULP energy per Si atom -5579.239213 kJ/mol
# Density = 2.519543 g / cm^3
# Si number density = 25.252905 Si / 1000 Ang^3
#
#
#
# Elastic Constant Matrix: (Units=GPa)
#
#
# Indices 1 2 3 4 5 6 
#
# 1 90.0565 51.7336 38.0743 3.2494 0.4673 -20.9733
# 2 51.7336 132.4279 39.4979 19.2260 0.0815 -29.0887
# 3 38.0743 39.4979 98.6076 17.0335 18.0014 -2.7517
# 4 3.2494 19.2260 17.0335 33.9334 -7.1284 7.7257
# 5 0.4673 0.0815 18.0014 -7.1284 32.1265 1.1977
# 6 -20.9733 -29.0887 -2.7517 7.7257 1.1977 45.4188
#
#
#
# Elastic Compliance Matrix: (Units=1/GPa)
#
#
# Indices 1 2 3 4 5 6 
#
# 1 0.016998 -0.004597 -0.006003 0.003944 0.003863 0.003769
# 2 -0.004597 0.012480 -0.001483 -0.007743 -0.001117 0.007127
# 3 -0.006003 -0.001483 0.016651 -0.009104 -0.011227 -0.000869
# 4 0.003944 -0.007743 -0.009104 0.043879 0.015230 -0.011555
# 5 0.003863 -0.001117 -0.011227 0.015230 0.040866 -0.003280
# 6 0.003769 0.007127 -0.000869 -0.011555 -0.003280 0.030321
#
#
# Mechanical properties :
#
#
# Convention : Reuss Voigt Hill
#
# Bulk Modulus (GPa) = 45.53333 64.41152 54.97242
# Shear Modulus (GPa) = 25.94923 35.08149 30.51536
#
# Velocity S-wave (km/s) = 3.20906 3.73125 3.47996
# Velocity P-wave (km/s) = 5.63922 6.64266 6.16140
#
# Compressibility (1/GPa) = 0.02196194
#
# Stress axis : x y z
#
# Youngs Moduli (GPa) = 58.82896 80.12887 60.05575
#
# Poissons Ratio (x) = 0.36836 0.36053
# Poissons Ratio (y) = 0.27044 0.08909
# Poissons Ratio (z) = 0.35317 0.11887
#
# Static dielectric constant tensor:
#      x y z
#    x 2.064000 -0.106670 0.093410 
#    y -0.106670 2.223050 -0.164740 
#    z 0.093410 -0.164740 2.148730 
# 
# From -- ./inp_files/184273.got.cif
#   From: 2010.05.17/outbox.cif.g08.bks.cpg/sg2_93_cif.got.tgz:184273.got - 2010.06.03 11:33:40.
