data_PCOD9013626
_publ_section_title
;
Structure prediction by ZEFSAII (Michael W. Deem and Ramdas Pophale) SiO2 
 PCOD9013626
Probable space group: P -1
;
_chemical_formula_sum "Si O2"
_cell_formula_units_Z 14
_cell_length_a 12.089013
_cell_length_b 12.061099
_cell_length_c 9.247869
_cell_angle_alpha 92.825899
_cell_angle_beta 63.417638
_cell_angle_gamma 144.628358
_cell_volume 553.346999
_symmetry_space_group_name_H-M "P -1"
_symmetry_group_IT_number 2
_symmetry_cell_setting 'triclinic'
loop_
_space_group_symop_operation_xyz
x,y,z
-x,-y,-z
loop_
_atom_site_type_symbol
_atom_site_label
_atom_site_fract_x
_atom_site_fract_y
_atom_site_fract_z
Si Si1 0.974029 0.134695 0.102523
Si Si2 0.020125 0.642071 0.680532
Si Si3 0.448139 0.112003 0.343486
Si Si4 0.601569 0.417316 0.695805
Si Si5 0.061148 0.146574 0.364900
Si Si6 0.225981 0.754711 0.064119
Si Si7 0.202603 0.411106 0.722890
O O1 0.996180 0.275074 0.177998
O O2 0.686128 0.866684 0.187995
O O3 0.018382 0.092311 0.215312
O O4 0.182764 0.306595 0.857132
O O5 0.786953 0.479950 0.686478
O O6 0.978861 0.483359 0.740833
O O7 0.324873 0.901754 0.466922
O O8 0.163756 0.941762 0.456874
O O9 0.580004 0.319310 0.360768
O O10 0.680182 0.254759 0.114024
O O11 0.732064 0.564860 0.477909
O O12 0.645779 0.563899 0.773698
O O13 0.000000 0.000000 0.500000
O O14 0.083745 0.755012 0.108736
O O15 0.500000 0.000000 0.000000
#
# Coordination Sequence:
#
# PCOD9013626 Si02
#       7
#     2   2   2   2   2   2   2
#     4  10  21  41  65  91 129 162 209 259 315 371
#     4  10  22  39  60  89 131 169 214 250 307 363
#     4  10  22  41  61  90 127 163 209 261 306 371
#     4  10  21  41  65  91 126 168 203 262 310 374
#     4  10  23  46  70  91 124 165 208 265 322 372
#     4  12  24  37  61  95 130 173 214 250 306 378
#     4  12  22  39  65  93 131 168 208 256 313 370
#
# _framework density 25.300581000000001
#
# number of rings (size 3 to 8) (size 9 to 14) (size 15 to 20)
#    0.000    1.714    4.286    3.000    0.000    4.571 
#    0.000    1.429    0.000    0.000    0.000    0.000 
#    0.000    0.000    0.000    0.000    0.000    0.000 
#
# Total GULP energy -78086.643266 kJ/mol
# GULP energy per Si atom -5577.617376 kJ/mol
# Density = 2.524300 g / cm^3
# Si number density = 25.300581 Si / 1000 Ang^3
#
#
#
# Elastic Constant Matrix: (Units=GPa)
#
#
# Indices 1 2 3 4 5 6 
#
# 1 78.1103 17.1020 33.9232 -8.3781 19.4888 17.0834
# 2 17.1020 167.0746 44.7699 -16.0740 11.4965 27.4230
# 3 33.9232 44.7699 114.3265 -10.3526 27.2936 8.6693
# 4 -8.3781 -16.0740 -10.3526 43.2981 -5.8740 -2.0267
# 5 19.4888 11.4965 27.2936 -5.8740 45.6426 1.4143
# 6 17.0834 27.4230 8.6693 -2.0267 1.4143 34.7640
#
#
#
# Elastic Compliance Matrix: (Units=1/GPa)
#
#
# Indices 1 2 3 4 5 6 
#
# 1 0.017365 0.001041 -0.003570 0.001826 -0.005054 -0.008152
# 2 0.001041 0.007774 -0.002626 0.002135 -0.000376 -0.005849
# 3 -0.003570 -0.002626 0.011985 0.000580 -0.004940 0.001072
# 4 0.001826 0.002135 0.000580 0.024525 0.001534 -0.001358
# 5 -0.005054 -0.000376 -0.004940 0.001534 0.027221 0.002994
# 6 -0.008152 -0.005849 0.001072 -0.001358 0.002994 0.036917
#
#
# Mechanical properties :
#
#
# Convention : Reuss Voigt Hill
#
# Bulk Modulus (GPa) = 37.29647 61.23351 49.26499
# Shear Modulus (GPa) = 34.47449 42.32202 38.39825
#
# Velocity S-wave (km/s) = 3.69534 4.09439 3.89997
# Velocity P-wave (km/s) = 5.74289 6.82693 6.30824
#
# Compressibility (1/GPa) = 0.02681219
#
# Stress axis : x y z
#
# Youngs Moduli (GPa) = 57.58799 128.63598 83.43668
#
# Poissons Ratio (x) = -0.13385 0.29786
# Poissons Ratio (y) = -0.05992 0.21914
# Poissons Ratio (z) = 0.20558 0.33785
#
# Static dielectric constant tensor:
#      x y z
#    x 2.070850 0.019670 0.124800 
#    y 0.019670 2.040530 -0.049720 
#    z 0.124800 -0.049720 1.988450 
# 
# From -- ./inp_files/315066.got.cif
#   From: 2010.05.17/outbox.cif.g08.bks.cpg/sg2_158_cif.got.tgz:315066.got - 2010.06.03 11:33:40.
