data_PCOD9013746
_publ_section_title
;
Structure prediction by ZEFSAII (Michael W. Deem and Ramdas Pophale) SiO2 
 PCOD9013746
Probable space group: P -1
;
_chemical_formula_sum "Si O2"
_cell_formula_units_Z 16
_cell_length_a 21.391398
_cell_length_b 8.539816
_cell_length_c 12.502834
_cell_angle_alpha 116.904085
_cell_angle_beta 36.997322
_cell_angle_gamma 144.341970
_cell_volume 663.858213
_symmetry_space_group_name_H-M "P -1"
_symmetry_group_IT_number 2
_symmetry_cell_setting 'triclinic'
loop_
_space_group_symop_operation_xyz
x,y,z
-x,-y,-z
loop_
_atom_site_type_symbol
_atom_site_label
_atom_site_fract_x
_atom_site_fract_y
_atom_site_fract_z
Si Si1 0.697028 0.270498 0.078519
Si Si2 0.555167 0.480142 0.580279
Si Si3 0.899991 0.802108 0.683957
Si Si4 0.304918 0.829970 0.185493
Si Si5 0.381579 0.077514 0.487056
Si Si6 0.011585 0.017337 0.833284
Si Si7 0.495894 0.549316 0.896368
Si Si8 0.012184 0.396306 0.052884
O O1 0.482817 0.040352 0.308323
O O2 0.712821 0.184452 0.922604
O O3 0.784789 0.308704 0.074837
O O4 0.843206 0.642733 0.977303
O O5 0.436121 0.193218 0.571747
O O6 0.528422 0.639465 0.619985
O O7 0.777724 0.745249 0.346766
O O8 0.503378 0.408159 0.753796
O O9 0.859861 0.534785 0.660501
O O10 0.697913 0.616270 0.906473
O O11 0.000000 0.000000 0.500000
O O12 0.010290 0.020093 0.707050
O O13 0.333492 0.072191 0.253629
O O14 0.500000 0.000000 0.000000
O O15 0.154456 0.772815 0.692697
O O16 0.972881 0.145512 0.984360
O O17 0.500000 0.500000 0.000000
O O18 0.000000 0.500000 0.000000
#
# Coordination Sequence:
#
# PCOD9013746 Si02
#       8
#     2   2   2   2   2   2   2   2
#     4  11  22  44  72  95 133 176 226 278 334 404
#     4  11  21  39  71  99 124 178 226 272 336 405
#     4  10  21  41  65  95 129 180 226 282 338 391
#     4   9  21  42  68  95 131 180 227 276 336 408
#     4  11  22  40  70  99 129 173 223 274 340 405
#     4  11  21  43  67  94 133 170 224 279 331 407
#     4  11  23  42  65  98 134 177 232 277 336 411
#     4  12  26  43  60 102 138 171 224 278 342 404
#
# _framework density 24.101531999999999
#
# number of rings (size 3 to 8) (size 9 to 14) (size 15 to 20)
#    0.000    1.250    2.500    5.625    0.000    2.500 
#    9.000    5.625    0.000    0.000    0.000    0.000 
#    0.000    0.000    0.000    0.000    0.000    0.000 
#
# Total GULP energy -89571.188247 kJ/mol
# GULP energy per Si atom -5598.199265 kJ/mol
# Density = 2.404668 g / cm^3
# Si number density = 24.101532 Si / 1000 Ang^3
#
#
#
# Elastic Constant Matrix: (Units=GPa)
#
#
# Indices 1 2 3 4 5 6 
#
# 1 114.3884 15.5802 17.5117 7.9941 11.0470 16.0599
# 2 15.5802 84.0647 18.8131 7.6056 6.8006 9.9665
# 3 17.5117 18.8131 90.6025 2.8610 2.3296 -5.7784
# 4 7.9941 7.6056 2.8610 18.5280 10.1691 7.2685
# 5 11.0470 6.8006 2.3296 10.1691 56.0258 4.4953
# 6 16.0599 9.9665 -5.7784 7.2685 4.4953 25.0929
#
#
#
# Elastic Compliance Matrix: (Units=1/GPa)
#
#
# Indices 1 2 3 4 5 6 
#
# 1 0.010220 -0.000468 -0.002237 -0.000665 -0.001226 -0.006458
# 2 -0.000468 0.013500 -0.002924 -0.002680 -0.000548 -0.004861
# 3 -0.002237 -0.002924 0.012533 -0.002272 0.000198 0.006102
# 4 -0.000665 -0.002680 -0.002272 0.068067 -0.010449 -0.016877
# 5 -0.001226 -0.000548 0.000198 -0.010449 0.020006 0.000491
# 6 -0.006458 -0.004861 0.006102 -0.016877 0.000491 0.052122
#
#
# Mechanical properties :
#
#
# Convention : Reuss Voigt Hill
#
# Bulk Modulus (GPa) = 40.01099 43.65174 41.83136
# Shear Modulus (GPa) = 25.50528 35.73936 30.62232
#
# Velocity S-wave (km/s) = 3.25659 3.85498 3.56835
# Velocity P-wave (km/s) = 5.54776 6.16161 5.86272
#
# Compressibility (1/GPa) = 0.02499313
#
# Stress axis : x y z
#
# Youngs Moduli (GPa) = 97.84672 74.07453 79.79158
#
# Poissons Ratio (x) = 0.03470 0.17853
# Poissons Ratio (y) = 0.04583 0.23331
# Poissons Ratio (z) = 0.21892 0.21659
#
# Static dielectric constant tensor:
#      x y z
#    x 1.928690 -0.019020 0.008260 
#    y -0.019020 1.945320 -0.029270 
#    z 0.008260 -0.029270 1.923050 
# 
# From -- ./inp_files/470050.got.cif
#   From: 2010.05.17/outbox.cif.g08.bks.cpg/sg2_236_cif.got.tgz:470050.got - 2010.06.03 11:33:40.
