data_PCOD9013653
_publ_section_title
;
Structure prediction by ZEFSAII (Michael W. Deem and Ramdas Pophale) SiO2 
 PCOD9013653
Probable space group: P -1
;
_chemical_formula_sum "Si O2"
_cell_formula_units_Z 14
_cell_length_a 15.113763
_cell_length_b 5.557961
_cell_length_c 22.703525
_cell_angle_alpha 93.371808
_cell_angle_beta 20.610679
_cell_angle_gamma 81.648460
_cell_volume 550.656345
_symmetry_space_group_name_H-M "P -1"
_symmetry_group_IT_number 2
_symmetry_cell_setting 'triclinic'
loop_
_space_group_symop_operation_xyz
x,y,z
-x,-y,-z
loop_
_atom_site_type_symbol
_atom_site_label
_atom_site_fract_x
_atom_site_fract_y
_atom_site_fract_z
Si Si1 0.262362 0.702359 0.364607
Si Si2 0.709432 0.561067 0.995531
Si Si3 0.144734 0.709652 0.736849
Si Si4 0.223495 0.869191 0.135697
Si Si5 0.630674 0.698501 0.242398
Si Si6 0.257497 0.856209 0.786567
Si Si7 0.780858 0.832016 0.744805
O O1 0.512604 0.486638 0.157601
O O2 0.456552 0.757092 0.290221
O O3 0.000000 0.000000 0.500000
O O4 0.077065 0.609373 0.518089
O O5 0.467620 0.904293 0.138339
O O6 0.803653 0.388097 0.873142
O O7 0.999351 0.532226 0.842826
O O8 0.500000 0.500000 0.500000
O O9 0.105956 0.913481 0.818039
O O10 0.978679 0.882438 0.783344
O O11 0.134884 0.009107 0.257171
O O12 0.582943 0.740976 0.900444
O O13 0.567734 0.491546 0.316380
O O14 0.555836 0.998239 0.321650
O O15 0.000000 0.500000 0.000000
O O16 0.000000 0.000000 0.000000
#
# Coordination Sequence:
#
# PCOD9013653 Si02
#       7
#     2   2   2   2   2   2   2
#     4  10  22  42  67 100 134 170 233 283 344 405
#     4  10  21  41  65  92 126 169 222 281 343 403
#     4  11  26  41  61  98 129 175 228 282 342 413
#     4  10  22  40  66  87 133 170 217 277 342 411
#     4  10  22  42  67  99 137 181 224 282 348 412
#     4  10  23  42  68  94 136 179 229 278 347 411
#     4   9  21  42  60  95 126 170 219 272 344 411
#
# _framework density 25.424206000000002
#
# number of rings (size 3 to 8) (size 9 to 14) (size 15 to 20)
#    0.000    2.000    0.000    2.143    8.000    2.286 
#    5.143    0.000    0.000    0.000    0.000    0.000 
#    0.000    0.000    0.000    0.000    0.000    0.000 
#
# Total GULP energy -78250.730077 kJ/mol
# GULP energy per Si atom -5589.337863 kJ/mol
# Density = 2.536634 g / cm^3
# Si number density = 25.424206 Si / 1000 Ang^3
#
#
#
# Elastic Constant Matrix: (Units=GPa)
#
#
# Indices 1 2 3 4 5 6 
#
# 1 116.8389 14.3765 53.5083 -0.5723 -7.3422 11.5722
# 2 14.3765 105.6729 9.3262 -1.8139 -10.5710 10.6231
# 3 53.5083 9.3262 130.2025 -2.8381 -2.2515 -7.3980
# 4 -0.5723 -1.8139 -2.8381 7.4884 -1.1121 -5.0012
# 5 -7.3422 -10.5710 -2.2515 -1.1121 44.0262 0.3024
# 6 11.5722 10.6231 -7.3980 -5.0012 0.3024 40.2023
#
#
#
# Elastic Compliance Matrix: (Units=1/GPa)
#
#
# Indices 1 2 3 4 5 6 
#
# 1 0.011433 -0.000582 -0.004978 -0.003985 0.001443 -0.004560
# 2 -0.000582 0.010094 -0.000568 0.000852 0.002336 -0.002516
# 3 -0.004978 -0.000568 0.010133 0.006084 -0.000324 0.004207
# 4 -0.003985 0.000852 0.006084 0.150083 0.003500 0.020685
# 5 0.001443 0.002336 -0.000324 0.003500 0.023593 -0.000834
# 6 -0.004560 -0.002516 0.004207 0.020685 -0.000834 0.030205
#
#
# Mechanical properties :
#
#
# Convention : Reuss Voigt Hill
#
# Bulk Modulus (GPa) = 51.53464 56.34846 53.94155
# Shear Modulus (GPa) = 19.66469 36.71026 28.18747
#
# Velocity S-wave (km/s) = 2.78414 3.80400 3.33331
# Velocity P-wave (km/s) = 5.53617 6.44246 6.00643
#
# Compressibility (1/GPa) = 0.01940442
#
# Stress axis : x y z
#
# Youngs Moduli (GPa) = 87.46763 99.07196 98.69007
#
# Poissons Ratio (x) = 0.05763 0.49126
# Poissons Ratio (y) = 0.05088 0.05605
# Poissons Ratio (z) = 0.43539 0.05626
#
# Static dielectric constant tensor:
#      x y z
#    x 2.015070 -0.026700 0.025130 
#    y -0.026700 2.095570 -0.009460 
#    z 0.025130 -0.009460 2.018370 
# 
# From -- ./inp_files/112755.got.cif
#   From: 2010.05.17/outbox.cif.g08.bks.cpg/sg2_57_cif.got.tgz:112755.got - 2010.06.03 11:33:40.
