data_PCOD9013636
_publ_section_title
;
Structure prediction by ZEFSAII (Michael W. Deem and Ramdas Pophale) SiO2 
 PCOD9013636
Probable space group: P -1
;
_chemical_formula_sum "Si O2"
_cell_formula_units_Z 16
_cell_length_a 5.129926
_cell_length_b 12.418086
_cell_length_c 10.365144
_cell_angle_alpha 64.271556
_cell_angle_beta 84.925422
_cell_angle_gamma 86.576400
_cell_volume 592.339883
_symmetry_space_group_name_H-M "P -1"
_symmetry_group_IT_number 2
_symmetry_cell_setting 'triclinic'
loop_
_space_group_symop_operation_xyz
x,y,z
-x,-y,-z
loop_
_atom_site_type_symbol
_atom_site_label
_atom_site_fract_x
_atom_site_fract_y
_atom_site_fract_z
Si Si1 0.180713 0.060539 0.099263
Si Si2 0.726367 0.394287 0.927889
Si Si3 0.788765 0.657225 0.913974
Si Si4 0.194405 0.773118 0.646285
Si Si5 0.117462 0.160213 0.790996
Si Si6 0.655292 0.039141 0.267417
Si Si7 0.525259 0.558431 0.644265
Si Si8 0.938075 0.339715 0.530398
O O1 0.263840 0.131113 0.932495
O O2 0.376189 0.067170 0.204768
O O3 0.888665 0.093231 0.142725
O O4 0.138207 0.921441 0.140028
O O5 0.760837 0.523043 0.929945
O O6 0.588294 0.434945 0.778809
O O7 0.508321 0.313784 0.046461
O O8 0.017734 0.343160 0.969340
O O9 0.943835 0.731595 0.760934
O O10 0.304974 0.896092 0.631582
O O11 0.394494 0.657506 0.697389
O O12 0.126688 0.775218 0.496570
O O13 0.018619 0.291351 0.690942
O O14 0.284253 0.101329 0.695065
O O15 0.806375 0.603785 0.568814
O O16 0.308641 0.572228 0.532636
#
# Coordination Sequence:
#
# PCOD9013636 Si02
#       8
#     2   2   2   2   2   2   2   2
#     4   9  21  36  58  74  88 131 174 227 245 279
#     4  10  17  30  47  66  96 144 169 194 235 285
#     4  10  18  26  49  67  96 142 167 197 233 290
#     4  10  22  32  46  77 113 134 161 197 252 304
#     4   9  21  38  57  71  98 128 179 212 253 281
#     4  10  21  33  56  72 103 131 165 211 253 298
#     4  10  20  32  44  74 107 137 163 200 241 299
#     4  10  22  31  50  72 105 139 160 207 243 302
#
# _framework density 27.011519
#
# number of rings (size 3 to 8) (size 9 to 14) (size 15 to 20)
#    1.500    0.750    1.250    3.375    3.500    0.500 
#    0.000    1.250    0.000    0.000    0.000    0.000 
#    0.000   20.000    0.000    0.000    0.000    0.000 
#
# Total GULP energy -89323.172016 kJ/mol
# GULP energy per Si atom -5582.698251 kJ/mol
# Density = 2.695004 g / cm^3
# Si number density = 27.011519 Si / 1000 Ang^3
#
#
#
# Elastic Constant Matrix: (Units=GPa)
#
#
# Indices 1 2 3 4 5 6 
#
# 1 176.2548 17.9444 18.9621 -1.8112 9.1839 10.2435
# 2 17.9444 57.4608 -13.5797 9.0132 -1.0520 -6.9408
# 3 18.9621 -13.5797 86.0100 -3.8173 20.8492 5.7010
# 4 -1.8112 9.0132 -3.8173 32.6464 9.1283 3.2606
# 5 9.1839 -1.0520 20.8492 9.1283 23.1265 7.3920
# 6 10.2435 -6.9408 5.7010 3.2606 7.3920 34.4207
#
#
#
# Elastic Compliance Matrix: (Units=1/GPa)
#
#
# Indices 1 2 3 4 5 6 
#
# 1 0.006307 -0.002796 -0.001273 0.001584 -0.001448 -0.002069
# 2 -0.002796 0.020591 0.003331 -0.005886 -0.000245 0.005042
# 3 -0.001273 0.003331 0.016731 0.005603 -0.017091 0.001419
# 4 0.001584 -0.005886 0.005603 0.038984 -0.020753 -0.001822
# 5 -0.001448 -0.000245 -0.017091 -0.020753 0.070595 -0.009982
# 6 -0.002069 0.005042 0.001419 -0.001822 -0.009982 0.032766
#
#
# Mechanical properties :
#
#
# Convention : Reuss Voigt Hill
#
# Bulk Modulus (GPa) = 23.72252 40.70881 32.21567
# Shear Modulus (GPa) = 24.81373 37.79862 31.30618
#
# Velocity S-wave (km/s) = 3.03419 3.74485 3.40809
# Velocity P-wave (km/s) = 4.59091 5.81396 5.23826
#
# Compressibility (1/GPa) = 0.04215403
#
# Stress axis : x y z
#
# Youngs Moduli (GPa) = 158.54937 48.56421 59.76952
#
# Poissons Ratio (x) = 0.13576 0.07612
# Poissons Ratio (y) = 0.44323 -0.19911
# Poissons Ratio (z) = 0.20191 -0.16178
#
# Static dielectric constant tensor:
#      x y z
#    x 2.054200 -0.084900 0.002660 
#    y -0.084900 2.257300 0.080850 
#    z 0.002660 0.080850 2.135470 
# 
# From -- ./inp_files/369824.got.cif
#   From: 2010.05.17/outbox.cif.g08.bks.cpg/sg2_185_cif.got.tgz:369824.got - 2010.06.03 11:33:40.
