data_PCOD9013400
_publ_section_title
;
Structure prediction by ZEFSAII (Michael W. Deem and Ramdas Pophale) SiO2 
 PCOD9013400
Probable space group: P -1
;
_chemical_formula_sum "Si O2"
_cell_formula_units_Z 16
_cell_length_a 14.561279
_cell_length_b 8.959954
_cell_length_c 13.571671
_cell_angle_alpha 29.712823
_cell_angle_beta 130.373219
_cell_angle_gamma 120.082543
_cell_volume 659.738914
_symmetry_space_group_name_H-M "P -1"
_symmetry_group_IT_number 2
_symmetry_cell_setting 'triclinic'
loop_
_space_group_symop_operation_xyz
x,y,z
-x,-y,-z
loop_
_atom_site_type_symbol
_atom_site_label
_atom_site_fract_x
_atom_site_fract_y
_atom_site_fract_z
Si Si1 0.771929 0.541398 0.184665
Si Si2 0.403694 0.690032 0.676496
Si Si3 0.316429 0.588719 0.333038
Si Si4 0.816580 0.886355 0.818378
Si Si5 0.917647 0.273438 0.154197
Si Si6 0.171283 0.083271 0.524628
Si Si7 0.468092 0.331769 0.416185
Si Si8 0.073341 0.033774 0.874694
O O1 0.643972 0.558905 0.143980
O O2 0.880088 0.642412 0.267132
O O3 0.802448 0.187856 0.379811
O O4 0.773999 0.721570 0.979986
O O5 0.504716 0.573562 0.730913
O O6 0.285409 0.843847 0.443497
O O7 0.442493 0.983729 0.589517
O O8 0.283665 0.255906 0.519424
O O9 0.365258 0.565054 0.268182
O O10 0.416121 0.666976 0.432861
O O11 0.190817 0.816325 0.126547
O O12 0.944782 0.007572 0.850303
O O13 0.841054 0.612655 0.911377
O O14 0.932038 0.094342 0.165509
O O15 0.050656 0.300490 0.276380
O O16 0.861799 0.063701 0.312899
#
# Coordination Sequence:
#
# PCOD9013400 Si02
#       8
#     2   2   2   2   2   2   2   2
#     4  11  25  41  64 102 138 173 212 272 333 397
#     4  11  23  46  69  95 133 179 221 273 329 386
#     4  11  22  44  70  92 132 176 218 277 325 385
#     4  11  23  43  69 101 138 170 210 273 341 399
#     4  10  22  37  66 100 132 174 212 267 328 406
#     4  10  21  41  64  93 140 174 211 263 336 399
#     4  10  24  42  71  92 124 184 232 264 320 386
#     4  12  24  40  68 105 133 165 218 272 337 399
#
# _framework density 24.252019000000001
#
# number of rings (size 3 to 8) (size 9 to 14) (size 15 to 20)
#    0.000    1.250    2.500    3.000    1.750    2.000 
#    0.000    6.250    2.750    0.000    0.000    0.000 
#    0.000    0.000    0.000    0.000    0.000    0.000 
#
# Total GULP energy -89581.519154 kJ/mol
# GULP energy per Si atom -5598.844947 kJ/mol
# Density = 2.419682 g / cm^3
# Si number density = 24.252019 Si / 1000 Ang^3
#
#
#
# Elastic Constant Matrix: (Units=GPa)
#
#
# Indices 1 2 3 4 5 6 
#
# 1 148.4727 52.1470 21.2496 -18.3404 -31.8665 1.5328
# 2 52.1470 144.6974 13.5716 -18.9112 -12.6479 18.9258
# 3 21.2496 13.5716 35.0047 -8.0019 -2.9938 1.4728
# 4 -18.3404 -18.9112 -8.0019 22.0947 2.8057 1.2354
# 5 -31.8665 -12.6479 -2.9938 2.8057 37.2823 -2.5293
# 6 1.5328 18.9258 1.4728 1.2354 -2.5293 41.4391
#
#
#
# Elastic Compliance Matrix: (Units=1/GPa)
#
#
# Indices 1 2 3 4 5 6 
#
# 1 0.010149 -0.002269 -0.003756 0.004124 0.007369 0.001121
# 2 -0.002269 0.009144 -0.000606 0.005911 0.000383 -0.004224
# 3 -0.003756 -0.000606 0.032956 0.008550 -0.001487 -0.001101
# 4 0.004124 0.005911 0.008550 0.056900 0.001612 -0.004754
# 5 0.007369 0.000383 -0.001487 0.001612 0.033117 0.001579
# 6 0.001121 -0.004224 -0.001101 -0.004754 0.001579 0.026296
#
#
# Mechanical properties :
#
#
# Convention : Reuss Voigt Hill
#
# Bulk Modulus (GPa) = 25.64898 55.79011 40.71955
# Shear Modulus (GPa) = 25.66472 36.24366 30.95419
#
# Velocity S-wave (km/s) = 3.25661 3.87002 3.57649
# Velocity P-wave (km/s) = 4.97389 6.55924 5.82079
#
# Compressibility (1/GPa) = 0.03898790
#
# Stress axis : x y z
#
# Youngs Moduli (GPa) = 98.53054 109.36223 30.34349
#
# Poissons Ratio (x) = 0.24813 0.11396
# Poissons Ratio (y) = 0.22355 0.01839
# Poissons Ratio (z) = 0.37004 0.06629
#
# Static dielectric constant tensor:
#      x y z
#    x 1.994840 0.011110 0.002600 
#    y 0.011110 1.924290 -0.006150 
#    z 0.002600 -0.006150 1.951500 
# 
# From -- ./inp_files/529236.got.cif
#   From: 2010.05.17/outbox.cif.g08.bks.cpg/sg2_265_cif.got.tgz:529236.got - 2010.06.03 11:33:40.
