data_PCOD9013544
_publ_section_title
;
Structure prediction by ZEFSAII (Michael W. Deem and Ramdas Pophale) SiO2 
 PCOD9013544
Probable space group: P -1
;
_chemical_formula_sum "Si O2"
_cell_formula_units_Z 16
_cell_length_a 8.810831
_cell_length_b 9.348974
_cell_length_c 14.237177
_cell_angle_alpha 94.649427
_cell_angle_beta 118.424221
_cell_angle_gamma 123.356002
_cell_volume 761.929032
_symmetry_space_group_name_H-M "P -1"
_symmetry_group_IT_number 2
_symmetry_cell_setting 'triclinic'
loop_
_space_group_symop_operation_xyz
x,y,z
-x,-y,-z
loop_
_atom_site_type_symbol
_atom_site_label
_atom_site_fract_x
_atom_site_fract_y
_atom_site_fract_z
Si Si1 0.018005 0.849453 0.538670
Si Si2 0.520876 0.167132 0.701738
Si Si3 0.550326 0.446333 0.111306
Si Si4 0.831466 0.002295 0.013994
Si Si5 0.017221 0.474292 0.781425
Si Si6 0.463159 0.464303 0.680872
Si Si7 0.775287 0.293000 0.962551
Si Si8 0.911560 0.739539 0.714879
O O1 0.801694 0.638726 0.422718
O O2 0.971033 0.829426 0.634929
O O3 0.283940 0.947322 0.602919
O O4 0.000000 0.000000 0.500000
O O5 0.477633 0.302548 0.659417
O O6 0.559266 0.202698 0.827240
O O7 0.775890 0.272822 0.740424
O O8 0.822840 0.562173 0.214158
O O9 0.470352 0.477169 0.187055
O O10 0.500000 0.500000 0.000000
O O11 0.400808 0.217904 0.055732
O O12 0.928243 0.098634 0.149794
O O13 0.801533 0.137479 0.961593
O O14 0.000000 0.000000 0.000000
O O15 0.950670 0.587138 0.716914
O O16 0.200843 0.636237 0.922217
O O17 0.653009 0.630377 0.672807
O O18 0.000000 0.500000 0.000000
#
# Coordination Sequence:
#
# PCOD9013544 Si02
#       8
#     2   2   2   2   2   2   2   2
#     4  10  22  37  65  91 114 160 224 265 306 373
#     4   9  19  37  63  85 120 164 217 257 303 374
#     4  12  26  38  62  96 140 165 204 263 327 379
#     4  11  24  38  62 101 130 162 210 258 328 383
#     4   9  21  37  59  89 124 169 203 252 321 375
#     4  10  21  42  60  93 123 167 209 261 320 369
#     4   9  19  36  63  87 126 167 208 252 316 376
#     4  10  21  41  65  87 126 161 211 264 311 381
#
# _framework density 20.999331999999999
#
# number of rings (size 3 to 8) (size 9 to 14) (size 15 to 20)
#    0.000    2.000    1.250    1.875   10.500    1.000 
#    0.000    1.250    0.000    0.000    0.000    0.000 
#    0.000    0.000    0.000    0.000    0.000    0.000 
#
# Total GULP energy -89071.289080 kJ/mol
# GULP energy per Si atom -5566.955567 kJ/mol
# Density = 2.095154 g / cm^3
# Si number density = 20.999332 Si / 1000 Ang^3
#
#
#
# Elastic Constant Matrix: (Units=GPa)
#
#
# Indices 1 2 3 4 5 6 
#
# 1 97.7222 41.8592 18.4753 1.3913 14.7952 30.7753
# 2 41.8592 99.3130 31.6678 -6.4247 3.4957 28.0605
# 3 18.4753 31.6678 77.3736 -1.6812 19.1085 22.2908
# 4 1.3913 -6.4247 -1.6812 34.9921 15.1707 1.2243
# 5 14.7952 3.4957 19.1085 15.1707 31.8872 7.7028
# 6 30.7753 28.0605 22.2908 1.2243 7.7028 26.6570
#
#
#
# Elastic Compliance Matrix: (Units=1/GPa)
#
#
# Indices 1 2 3 4 5 6 
#
# 1 0.017736 -0.003087 0.004302 0.002718 -0.007205 -0.018867
# 2 -0.003087 0.015554 -0.003253 0.001655 0.003596 -0.011203
# 3 0.004302 -0.003253 0.021318 0.006819 -0.013872 -0.015673
# 4 0.002718 0.001655 0.006819 0.039174 -0.022764 -0.005804
# 5 -0.007205 0.003596 -0.013872 -0.022764 0.053003 0.001863
# 6 -0.018867 -0.011203 -0.015673 -0.005804 0.001863 0.083923
#
#
# Mechanical properties :
#
#
# Convention : Reuss Voigt Hill
#
# Bulk Modulus (GPa) = 19.78967 50.93481 35.36224
# Shear Modulus (GPa) = 19.87077 30.86769 25.36923
#
# Velocity S-wave (km/s) = 3.07947 3.83813 3.47954
# Velocity P-wave (km/s) = 4.69985 6.62946 5.74623
#
# Compressibility (1/GPa) = 0.05053142
#
# Stress axis : x y z
#
# Youngs Moduli (GPa) = 56.38321 64.29376 46.90878
#
# Poissons Ratio (x) = 0.19848 -0.20181
# Poissons Ratio (y) = 0.17406 0.15260
# Poissons Ratio (z) = -0.24258 0.20916
#
# Static dielectric constant tensor:
#      x y z
#    x 1.874040 0.037820 0.017270 
#    y 0.037820 1.735660 -0.015660 
#    z 0.017270 -0.015660 1.811490 
# 
# From -- ./inp_files/495286.got.cif
#   From: 2010.05.17/outbox.cif.g08.bks.cpg/sg2_248_cif.got.tgz:495286.got - 2010.06.03 11:33:40.
