data_PCOD9013906
_publ_section_title
;
Structure prediction by ZEFSAII (Michael W. Deem and Ramdas Pophale) SiO2 
 PCOD9013906
Probable space group: P -1
;
_chemical_formula_sum "Si O2"
_cell_formula_units_Z 15
_cell_length_a 14.105865
_cell_length_b 15.439533
_cell_length_c 10.687727
_cell_angle_alpha 144.682054
_cell_angle_beta 35.033494
_cell_angle_gamma 150.881037
_cell_volume 606.576445
_symmetry_space_group_name_H-M "P -1"
_symmetry_group_IT_number 2
_symmetry_cell_setting 'triclinic'
loop_
_space_group_symop_operation_xyz
x,y,z
-x,-y,-z
loop_
_atom_site_type_symbol
_atom_site_label
_atom_site_fract_x
_atom_site_fract_y
_atom_site_fract_z
Si Si1 0.274209 0.423096 0.099713
Si Si2 0.660701 0.462730 0.323354
Si Si3 0.715279 0.107232 0.192614
Si Si4 0.963044 0.007600 0.904288
Si Si5 0.889670 0.632910 0.511925
Si Si6 0.926008 0.132358 0.733794
Si Si7 0.000000 0.500000 0.500000
Si Si8 0.311816 0.836142 0.178340
O O1 0.132323 0.386556 0.336620
O O2 0.215682 0.543822 0.239769
O O3 0.500000 0.500000 0.000000
O O4 0.162994 0.224486 0.912236
O O5 0.500000 0.500000 0.500000
O O6 0.695412 0.471598 0.447141
O O7 0.882085 0.649829 0.252587
O O8 0.607421 0.271536 0.099104
O O9 0.840380 0.304222 0.360760
O O10 0.476460 0.999788 0.288752
O O11 0.833440 0.128737 0.962392
O O12 0.748992 0.978336 0.086905
O O13 0.930692 0.830425 0.667971
O O14 0.000000 0.000000 0.000000
O O15 0.098126 0.671268 0.285776
O O16 0.749110 0.076572 0.757693
O O17 0.000000 0.000000 0.500000
#
# Coordination Sequence:
#
# PCOD9013906 Si02
#       8
#     2   2   2   2   2   2   1   2
#     4  10  23  43  65  93 131 177 229 285 348 402
#     4  11  24  41  65 103 136 184 233 276 366 421
#     4  11  23  43  68  97 142 177 235 294 356 420
#     4   9  20  42  62  91 124 178 233 279 339 418
#     4  10  21  41  66  89 137 171 225 285 336 423
#     4  11  23  42  70 103 143 179 235 298 350 432
#     4  10  26  42  64 100 134 172 238 282 352 412
#     4  11  24  42  69 105 137 189 230 288 365 425
#
# _framework density 24.728954000000002
#
# number of rings (size 3 to 8) (size 9 to 14) (size 15 to 20)
#    0.000    1.600    0.000    5.200    5.600    2.133 
#    4.800    2.000    0.000    0.000    0.000    0.000 
#    0.000    0.000    0.000    0.000    0.000    0.000 
#
# Total GULP energy -83632.856407 kJ/mol
# GULP energy per Si atom -5575.523760 kJ/mol
# Density = 2.467267 g / cm^3
# Si number density = 24.728954 Si / 1000 Ang^3
#
#
#
# Elastic Constant Matrix: (Units=GPa)
#
#
# Indices 1 2 3 4 5 6 
#
# 1 147.2604 25.3455 22.1698 2.0829 -8.2028 32.6406
# 2 25.3455 59.8071 21.6663 9.6837 -2.7183 28.6362
# 3 22.1698 21.6663 111.9511 29.6017 -12.0458 10.1560
# 4 2.0829 9.6837 29.6017 41.5204 3.0200 1.1249
# 5 -8.2028 -2.7183 -12.0458 3.0200 45.1650 -2.1262
# 6 32.6406 28.6362 10.1560 1.1249 -2.1262 53.5139
#
#
#
# Elastic Compliance Matrix: (Units=1/GPa)
#
#
# Indices 1 2 3 4 5 6 
#
# 1 0.008101 -0.001144 -0.001101 0.000693 0.000870 -0.004100
# 2 -0.001144 0.024312 -0.002433 -0.003581 0.000292 -0.011764
# 3 -0.001101 -0.002433 0.012198 -0.008325 0.003462 -0.000029
# 4 0.000693 -0.003581 -0.008325 0.031070 -0.004281 0.002250
# 5 0.000870 0.000292 0.003462 -0.004281 0.023511 -0.000320
# 6 -0.004100 -0.011764 -0.000029 0.002250 -0.000320 0.027428
#
#
# Mechanical properties :
#
#
# Convention : Reuss Voigt Hill
#
# Bulk Modulus (GPa) = 28.36462 50.82021 39.59241
# Shear Modulus (GPa) = 33.84626 44.69566 39.27096
#
# Velocity S-wave (km/s) = 3.70359 4.25599 3.98937
# Velocity P-wave (km/s) = 5.45746 6.68930 6.10454
#
# Compressibility (1/GPa) = 0.03525519
#
# Stress axis : x y z
#
# Youngs Moduli (GPa) = 123.44676 41.13162 81.98318
#
# Poissons Ratio (x) = 0.04705 0.09022
# Poissons Ratio (y) = 0.14120 0.19949
# Poissons Ratio (z) = 0.13585 0.10009
#
# Static dielectric constant tensor:
#      x y z
#    x 1.679760 -0.024230 0.031640 
#    y -0.024230 1.645120 -0.332690 
#    z 0.031640 -0.332690 1.724060 
# 
# From -- ./inp_files/456835.got.cif
#   From: 2010.05.17/outbox.cif.g08.bks.cpg/sg2_229_cif.got.tgz:456835.got - 2010.06.03 11:33:40.
