data_PCOD9013989
_publ_section_title
;
Structure prediction by ZEFSAII (Michael W. Deem and Ramdas Pophale) SiO2 
 PCOD9013989
Probable space group: P -1
;
_chemical_formula_sum "Si O2"
_cell_formula_units_Z 10
_cell_length_a 6.384439
_cell_length_b 11.570817
_cell_length_c 14.742579
_cell_angle_alpha 28.184318
_cell_angle_beta 51.324946
_cell_angle_gamma 61.945632
_cell_volume 391.893500
_symmetry_space_group_name_H-M "P -1"
_symmetry_group_IT_number 2
_symmetry_cell_setting 'triclinic'
loop_
_space_group_symop_operation_xyz
x,y,z
-x,-y,-z
loop_
_atom_site_type_symbol
_atom_site_label
_atom_site_fract_x
_atom_site_fract_y
_atom_site_fract_z
Si Si1 0.218597 0.087845 0.589294
Si Si2 0.685037 0.023651 0.074447
Si Si3 0.224084 0.746054 0.296218
Si Si4 0.831731 0.200958 0.369285
Si Si5 0.721062 0.470416 0.884230
O O1 0.512340 0.131576 0.527581
O O2 0.251491 0.325380 0.346292
O O3 0.970211 0.082469 0.727669
O O4 0.168426 0.842511 0.708782
O O5 0.459115 0.767669 0.294905
O O6 0.639545 0.177105 0.890571
O O7 0.650706 0.199203 0.045580
O O8 0.000000 0.000000 0.000000
O O9 0.000000 0.500000 0.500000
O O10 0.987182 0.459850 0.191218
O O11 0.000000 0.000000 0.500000
O O12 0.500000 0.500000 0.000000
#
# Coordination Sequence:
#
# PCOD9013989 Si02
#       5
#     2   2   2   2   2
#     4  10  21  41  66  93 130 179 217 272 335 398
#     4  11  27  43  67 104 135 175 229 278 330 399
#     4  11  24  45  68  92 137 179 222 269 337 401
#     4   9  21  38  64  95 125 167 223 269 333 394
#     4  11  23  40  63  95 135 172 223 276 334 395
#
# _framework density 25.517140000000001
#
# number of rings (size 3 to 8) (size 9 to 14) (size 15 to 20)
#    0.000    1.600    2.000    1.200    2.800    9.600 
#    0.000    0.000    0.000    0.000    0.000    0.000 
#    0.000    0.000    0.000    0.000    0.000    0.000 
#
# Total GULP energy -55905.000212 kJ/mol
# GULP energy per Si atom -5590.500021 kJ/mol
# Density = 2.545906 g / cm^3
# Si number density = 25.517140 Si / 1000 Ang^3
#
#
#
# Elastic Constant Matrix: (Units=GPa)
#
#
# Indices 1 2 3 4 5 6 
#
# 1 186.2027 68.8437 56.8714 -12.0166 -66.7297 15.8355
# 2 68.8437 160.0657 41.4756 16.3439 -25.5212 29.1541
# 3 56.8714 41.4756 86.5606 1.3681 0.5117 22.6851
# 4 -12.0166 16.3439 1.3681 42.3620 5.9935 -16.0618
# 5 -66.7297 -25.5212 0.5117 5.9935 52.6033 -8.8392
# 6 15.8355 29.1541 22.6851 -16.0618 -8.8392 49.9906
#
#
#
# Elastic Compliance Matrix: (Units=1/GPa)
#
#
# Indices 1 2 3 4 5 6 
#
# 1 0.018057 -0.003045 -0.012690 0.006545 0.022122 0.007829
# 2 -0.003045 0.009813 -0.000870 -0.007200 0.000624 -0.006566
# 3 -0.012690 -0.000870 0.023413 -0.005687 -0.017966 -0.011101
# 4 0.006545 -0.007200 -0.005687 0.034083 0.003724 0.016315
# 5 0.022122 0.000624 -0.017966 0.003724 0.048911 0.010626
# 6 0.007829 -0.006566 -0.011101 0.016315 0.010626 0.033511
#
#
# Mechanical properties :
#
#
# Convention : Reuss Voigt Hill
#
# Bulk Modulus (GPa) = 55.33805 85.24560 70.29182
# Shear Modulus (GPa) = 24.15179 46.70041 35.42610
#
# Velocity S-wave (km/s) = 3.07985 4.28268 3.73007
# Velocity P-wave (km/s) = 5.86353 7.61149 6.79396
#
# Compressibility (1/GPa) = 0.01807075
#
# Stress axis : x y z
#
# Youngs Moduli (GPa) = 55.38134 101.90364 42.71173
#
# Poissons Ratio (x) = 0.31030 0.54203
# Poissons Ratio (y) = 0.16864 0.03718
# Poissons Ratio (z) = 0.70282 0.08870
#
# Static dielectric constant tensor:
#      x y z
#    x 2.147680 0.042090 -0.078550 
#    y 0.042090 1.999200 -0.065510 
#    z -0.078550 -0.065510 2.213440 
# 
# From -- ./inp_files/23781.got.cif
#   From: 2010.05.17/outbox.cif.g08.bks.cpg/sg2_12_cif.got.tgz:23781.got - 2010.06.03 11:33:40.
