data_PCOD9013487
_publ_section_title
;
Structure prediction by ZEFSAII (Michael W. Deem and Ramdas Pophale) SiO2 
 PCOD9013487
Probable space group: P -1
;
_chemical_formula_sum "Si O2"
_cell_formula_units_Z 14
_cell_length_a 11.768229
_cell_length_b 8.690759
_cell_length_c 10.440485
_cell_angle_alpha 43.113306
_cell_angle_beta 91.055258
_cell_angle_gamma 67.810999
_cell_volume 598.321437
_symmetry_space_group_name_H-M "P -1"
_symmetry_group_IT_number 2
_symmetry_cell_setting 'triclinic'
loop_
_space_group_symop_operation_xyz
x,y,z
-x,-y,-z
loop_
_atom_site_type_symbol
_atom_site_label
_atom_site_fract_x
_atom_site_fract_y
_atom_site_fract_z
Si Si1 0.619922 0.042630 0.437272
Si Si2 0.359210 0.003476 0.123585
Si Si3 0.075866 0.439847 0.736869
Si Si4 0.267708 0.715949 0.431226
Si Si5 0.085368 0.224792 0.253902
Si Si6 0.551965 0.629010 0.131810
Si Si7 0.807561 0.590135 0.525981
O O1 0.559610 0.367930 0.234972
O O2 0.500000 0.000000 0.500000
O O3 0.758457 0.881178 0.630675
O O4 0.693950 0.889128 0.398160
O O5 0.374895 0.794555 0.356347
O O6 0.424930 0.842881 0.089789
O O7 0.197313 0.203147 0.968760
O O8 0.415342 0.182004 0.061770
O O9 0.137302 0.418802 0.610522
O O10 0.004575 0.712739 0.657822
O O11 0.943079 0.432461 0.713090
O O12 0.324654 0.511438 0.675389
O O13 0.259986 0.575913 0.390203
O O14 0.120062 0.975882 0.315403
O O15 0.000000 0.500000 0.000000
#
# Coordination Sequence:
#
# PCOD9013487 Si02
#       7
#     2   2   2   2   2   2   2
#     4  10  22  44  69  94 134 175 218 268 338 391
#     4  11  21  39  66  93 131 164 228 264 318 395
#     4  10  21  42  61  92 136 168 215 270 323 395
#     4  11  21  39  69  94 126 173 217 273 329 383
#     4  10  21  41  64  98 128 168 224 270 318 393
#     4  10  23  41  64  96 127 176 215 272 324 390
#     4  10  22  41  66  96 132 175 215 267 338 391
#
# _framework density 23.398796000000001
#
# number of rings (size 3 to 8) (size 9 to 14) (size 15 to 20)
#    0.000    1.714    2.857    1.286    0.000    2.286 
#    7.714    0.714    3.143    0.000    0.000    0.000 
#    0.000    0.000    0.000    0.000    0.000    0.000 
#
# Total GULP energy -78056.704704 kJ/mol
# GULP energy per Si atom -5575.478907 kJ/mol
# Density = 2.334554 g / cm^3
# Si number density = 23.398796 Si / 1000 Ang^3
#
#
#
# Elastic Constant Matrix: (Units=GPa)
#
#
# Indices 1 2 3 4 5 6 
#
# 1 83.6280 61.9881 36.3035 -22.6239 -8.2040 -9.0390
# 2 61.9881 160.9303 29.0664 -40.2765 -14.0255 -9.8067
# 3 36.3035 29.0664 67.1751 -19.5721 2.0086 -0.9289
# 4 -22.6239 -40.2765 -19.5721 45.3333 -1.0403 -3.3740
# 5 -8.2040 -14.0255 2.0086 -1.0403 44.3472 -5.0923
# 6 -9.0390 -9.8067 -0.9289 -3.3740 -5.0923 39.5061
#
#
#
# Elastic Compliance Matrix: (Units=1/GPa)
#
#
# Indices 1 2 3 4 5 6 
#
# 1 0.020990 -0.005497 -0.008316 0.002355 0.003016 0.003832
# 2 -0.005497 0.010335 0.000450 0.006861 0.002650 0.002246
# 3 -0.008316 0.000450 0.020711 0.005050 -0.002351 -0.001176
# 4 0.002355 0.006861 0.005050 0.032012 0.003769 0.005580
# 5 0.003016 0.002650 -0.002351 0.003769 0.024691 0.004797
# 6 0.003832 0.002246 -0.001176 0.005580 0.004797 0.027814
#
#
# Mechanical properties :
#
#
# Convention : Reuss Voigt Hill
#
# Bulk Modulus (GPa) = 39.51076 62.93881 51.22479
# Shear Modulus (GPa) = 29.11780 38.12900 33.62340
#
# Velocity S-wave (km/s) = 3.53145 4.04112 3.79485
# Velocity P-wave (km/s) = 5.79229 6.98075 6.41411
#
# Compressibility (1/GPa) = 0.02530956
#
# Stress axis : x y z
#
# Youngs Moduli (GPa) = 47.64261 96.75889 48.28266
#
# Poissons Ratio (x) = 0.53189 0.40151
# Poissons Ratio (y) = 0.26189 -0.02171
# Poissons Ratio (z) = 0.39619 -0.04351
#
# Static dielectric constant tensor:
#      x y z
#    x 1.942860 0.020930 -0.044480 
#    y 0.020930 1.950370 -0.011240 
#    z -0.044480 -0.011240 1.899800 
# 
# From -- ./inp_files/261292.got.cif
#   From: 2010.05.17/outbox.cif.g08.bks.cpg/sg2_131_cif.got.tgz:261292.got - 2010.06.03 11:33:40.
