data_PCOD9013876
_publ_section_title
;
Structure prediction by ZEFSAII (Michael W. Deem and Ramdas Pophale) SiO2 
 PCOD9013876
Probable space group: P -1
;
_chemical_formula_sum "Si O2"
_cell_formula_units_Z 16
_cell_length_a 15.940523
_cell_length_b 18.445010
_cell_length_c 8.592943
_cell_angle_alpha 47.144638
_cell_angle_beta 44.175619
_cell_angle_gamma 23.268905
_cell_volume 693.451850
_symmetry_space_group_name_H-M "P -1"
_symmetry_group_IT_number 2
_symmetry_cell_setting 'triclinic'
loop_
_space_group_symop_operation_xyz
x,y,z
-x,-y,-z
loop_
_atom_site_type_symbol
_atom_site_label
_atom_site_fract_x
_atom_site_fract_y
_atom_site_fract_z
Si Si1 0.932294 0.016352 0.239923
Si Si2 0.769466 0.902481 0.635133
Si Si3 0.727499 0.319975 0.547421
Si Si4 0.524580 0.571280 0.739915
Si Si5 0.851405 0.504801 0.374594
Si Si6 0.555307 0.996907 0.260102
Si Si7 0.019292 0.254001 0.087054
Si Si8 0.215930 0.402406 0.035648
O O1 0.727873 0.224557 0.269113
O O2 0.829796 0.975618 0.433024
O O3 0.162308 0.853725 0.271145
O O4 0.000000 0.000000 0.000000
O O5 0.531483 0.029568 0.703150
O O6 0.823490 0.834160 0.840995
O O7 0.946455 0.714417 0.578350
O O8 0.500000 0.500000 0.500000
O O9 0.682941 0.421455 0.609237
O O10 0.916941 0.221108 0.316890
O O11 0.648207 0.587449 0.605236
O O12 0.500000 0.500000 0.000000
O O13 0.983959 0.510603 0.242334
O O14 0.781190 0.581574 0.178155
O O15 0.417959 0.191425 0.117225
O O16 0.500000 0.000000 0.500000
O O17 0.815533 0.844108 0.128975
O O18 0.806410 0.474085 0.042822
#
# Coordination Sequence:
#
# PCOD9013876 Si02
#       8
#     2   2   2   2   2   2   2   2
#     4  11  22  41  67  95 123 170 221 267 321 379
#     4   9  19  39  64  89 123 157 212 255 304 381
#     4  11  25  47  61  95 134 168 220 274 324 385
#     4  12  22  40  68  96 129 166 220 275 318 382
#     4   9  17  35  62  93 116 158 207 259 302 369
#     4  11  24  39  56  97 133 157 197 261 326 383
#     4  10  21  41  66  86 117 169 214 254 310 386
#     4   9  19  36  61  86 124 157 204 250 311 376
#
# _framework density 23.072980000000001
#
# number of rings (size 3 to 8) (size 9 to 14) (size 15 to 20)
#    0.000    1.750    5.000    1.125    5.250    1.000 
#    9.000    0.000    0.000    0.000    0.000    0.000 
#    0.000    0.000    0.000    0.000    0.000    0.000 
#
# Total GULP energy -89190.933471 kJ/mol
# GULP energy per Si atom -5574.433342 kJ/mol
# Density = 2.302046 g / cm^3
# Si number density = 23.072980 Si / 1000 Ang^3
#
#
#
# Elastic Constant Matrix: (Units=GPa)
#
#
# Indices 1 2 3 4 5 6 
#
# 1 17.5034 -0.3971 15.7442 -3.1704 -2.4220 -9.7518
# 2 -0.3971 94.4056 17.0871 -10.5392 -0.1886 -4.9136
# 3 15.7442 17.0871 124.5703 1.7984 -17.4906 0.2424
# 4 -3.1704 -10.5392 1.7984 48.1383 2.0531 -6.1333
# 5 -2.4220 -0.1886 -17.4906 2.0531 8.9834 1.6431
# 6 -9.7518 -4.9136 0.2424 -6.1333 1.6431 27.0029
#
#
#
# Elastic Compliance Matrix: (Units=1/GPa)
#
#
# Indices 1 2 3 4 5 6 
#
# 1 0.092822 0.006600 -0.014879 0.013657 -0.014025 0.038812
# 2 0.006600 0.012032 -0.003527 0.004259 -0.006905 0.005992
# 3 -0.014879 -0.003527 0.014133 -0.004507 0.026063 -0.008752
# 4 0.013657 0.004259 -0.004507 0.024877 -0.012917 0.012184
# 5 -0.014025 -0.006905 0.026063 -0.012917 0.164655 -0.019508
# 6 0.038812 0.005992 -0.008752 0.012184 -0.019508 0.056173
#
#
# Mechanical properties :
#
#
# Convention : Reuss Voigt Hill
#
# Bulk Modulus (GPa) = 10.48487 33.48308 21.98398
# Shear Modulus (GPa) = 11.90204 30.42794 21.16499
#
# Velocity S-wave (km/s) = 2.27368 3.63543 3.03199
# Velocity P-wave (km/s) = 3.38333 5.67143 4.66969
#
# Compressibility (1/GPa) = 0.09537554
#
# Stress axis : x y z
#
# Youngs Moduli (GPa) = 10.77335 83.10977 70.75407
#
# Poissons Ratio (x) = -0.54853 1.05273
# Poissons Ratio (y) = -0.07111 0.24957
# Poissons Ratio (z) = 0.16029 0.29315
#
# Static dielectric constant tensor:
#      x y z
#    x 2.008630 -0.022210 -0.101630 
#    y -0.022210 1.895940 0.013280 
#    z -0.101630 0.013280 1.940660 
# 
# From -- ./inp_files/338074.got.cif
#   From: 2010.05.17/outbox.cif.g08.bks.cpg/sg2_170_cif.got.tgz:338074.got - 2010.06.03 11:33:40.
