data_PCOD9013660
_publ_section_title
;
Structure prediction by ZEFSAII (Michael W. Deem and Ramdas Pophale) SiO2 
 PCOD9013660
Probable space group: P -1
;
_chemical_formula_sum "Si O2"
_cell_formula_units_Z 14
_cell_length_a 9.623243
_cell_length_b 13.633232
_cell_length_c 7.767149
_cell_angle_alpha 125.944516
_cell_angle_beta 75.613737
_cell_angle_gamma 64.805669
_cell_volume 547.163150
_symmetry_space_group_name_H-M "P -1"
_symmetry_group_IT_number 2
_symmetry_cell_setting 'triclinic'
loop_
_space_group_symop_operation_xyz
x,y,z
-x,-y,-z
loop_
_atom_site_type_symbol
_atom_site_label
_atom_site_fract_x
_atom_site_fract_y
_atom_site_fract_z
Si Si1 0.798810 0.414086 0.755306
Si Si2 0.635301 0.299254 0.198132
Si Si3 0.578926 0.065880 0.647677
Si Si4 0.963722 0.256500 0.190960
Si Si5 0.654558 0.017274 0.950218
Si Si6 0.902514 0.586954 0.805371
Si Si7 0.668677 0.252793 0.730750
O O1 0.799101 0.410202 0.542534
O O2 0.937975 0.449543 0.778726
O O3 0.832508 0.251188 0.616060
O O4 0.571100 0.573651 0.077897
O O5 0.500000 0.500000 0.500000
O O6 0.863898 0.195426 0.091034
O O7 0.570655 0.206677 0.193293
O O8 0.658690 0.272376 0.959352
O O9 0.711004 0.968597 0.680009
O O10 0.695610 0.094003 0.525287
O O11 0.500000 0.000000 0.500000
O O12 0.349362 0.256619 0.971879
O O13 0.011876 0.329162 0.105388
O O14 0.166254 0.113851 0.100317
O O15 0.500000 0.000000 0.000000
O O16 0.000000 0.500000 0.500000
#
# Coordination Sequence:
#
# PCOD9013660 Si02
#       7
#     2   2   2   2   2   2   2
#     4   9  18  36  64  88 124 170 208 271 330 384
#     4  11  23  41  66  99 126 174 223 270 331 402
#     4  10  21  41  65  92 129 177 222 273 337 395
#     4  11  21  39  65  97 132 165 220 273 330 395
#     4  11  24  43  64  95 134 174 219 277 334 393
#     4   9  19  37  68  91 127 169 219 277 328 387
#     4   9  19  39  62  90 131 165 217 271 329 391
#
# _framework density 25.586518999999999
#
# number of rings (size 3 to 8) (size 9 to 14) (size 15 to 20)
#    0.000    2.000    2.857    0.429    2.000    1.143 
#    7.714    2.143    0.000    0.000    0.000    0.000 
#    0.000    0.000    0.000    0.000    0.000    0.000 
#
# Total GULP energy -78067.582695 kJ/mol
# GULP energy per Si atom -5576.255907 kJ/mol
# Density = 2.552828 g / cm^3
# Si number density = 25.586519 Si / 1000 Ang^3
#
#
#
# Elastic Constant Matrix: (Units=GPa)
#
#
# Indices 1 2 3 4 5 6 
#
# 1 197.0478 83.8383 38.4667 15.2744 22.1227 53.7232
# 2 83.8383 103.7332 23.7728 13.6522 10.8982 54.0636
# 3 38.4667 23.7728 65.5691 12.4956 5.3453 5.6345
# 4 15.2744 13.6522 12.4956 23.9305 9.2807 -0.4924
# 5 22.1227 10.8982 5.3453 9.2807 44.0813 3.8360
# 6 53.7232 54.0636 5.6345 -0.4924 3.8360 73.9244
#
#
#
# Elastic Compliance Matrix: (Units=1/GPa)
#
#
# Indices 1 2 3 4 5 6 
#
# 1 0.008625 -0.004705 -0.002859 -0.000403 -0.002518 -0.002481
# 2 -0.004705 0.021352 -0.002386 -0.008242 0.000158 -0.012078
# 3 -0.002859 -0.002386 0.018849 -0.007003 0.001014 0.002286
# 4 -0.000403 -0.008242 -0.007003 0.054035 -0.008955 0.007679
# 5 -0.002518 0.000158 0.001014 -0.008955 0.025651 0.000246
# 6 -0.002481 -0.012078 0.002286 0.007679 0.000246 0.024028
#
#
# Mechanical properties :
#
#
# Convention : Reuss Voigt Hill
#
# Bulk Modulus (GPa) = 34.56965 73.16728 53.86846
# Shear Modulus (GPa) = 27.46031 43.07207 35.26619
#
# Velocity S-wave (km/s) = 3.27958 4.10736 3.71659
# Velocity P-wave (km/s) = 5.28025 7.15206 6.28622
#
# Compressibility (1/GPa) = 0.02892711
#
# Stress axis : x y z
#
# Youngs Moduli (GPa) = 115.93699 46.83328 53.05450
#
# Poissons Ratio (x) = 0.22035 0.15168
# Poissons Ratio (y) = 0.54549 0.12656
# Poissons Ratio (z) = 0.33146 0.11172
#
# Static dielectric constant tensor:
#      x y z
#    x 2.085710 0.061090 0.024590 
#    y 0.061090 2.106800 0.137890 
#    z 0.024590 0.137890 2.131950 
# 
# From -- ./inp_files/208948.got.cif
#   From: 2010.05.17/outbox.cif.g08.bks.cpg/sg2_105_cif.got.tgz:208948.got - 2010.06.03 11:33:40.
