data_PCOD9013106
_publ_section_title
;
Structure prediction by ZEFSAII (Michael W. Deem and Ramdas Pophale) SiO2 
 PCOD9013106
Probable space group: P -1
;
_chemical_formula_sum "Si O2"
_cell_formula_units_Z 16
_cell_length_a 12.209302
_cell_length_b 12.125958
_cell_length_c 11.917296
_cell_angle_alpha 69.245783
_cell_angle_beta 47.112229
_cell_angle_gamma 107.353071
_cell_volume 745.306404
_symmetry_space_group_name_H-M "P -1"
_symmetry_group_IT_number 2
_symmetry_cell_setting 'triclinic'
loop_
_space_group_symop_operation_xyz
x,y,z
-x,-y,-z
loop_
_atom_site_type_symbol
_atom_site_label
_atom_site_fract_x
_atom_site_fract_y
_atom_site_fract_z
Si Si1 0.183504 0.519271 0.738231
Si Si2 0.087360 0.728734 0.676437
Si Si3 0.412970 0.269125 0.455149
Si Si4 0.508488 0.584534 0.316115
Si Si5 0.246958 0.800688 0.297212
Si Si6 0.941987 0.154924 0.123985
Si Si7 0.565005 0.423908 0.054497
Si Si8 0.269254 0.550367 0.293002
O O1 0.094958 0.594240 0.746613
O O2 0.319317 0.600915 0.734637
O O3 0.384895 0.600215 0.479968
O O4 0.980785 0.290964 0.966265
O O5 0.239145 0.835845 0.418505
O O6 0.160182 0.850440 0.688372
O O7 0.818984 0.602645 0.874914
O O8 0.376410 0.375919 0.494575
O O9 0.398759 0.276619 0.326884
O O10 0.234759 0.061034 0.703403
O O11 0.451946 0.590604 0.227664
O O12 0.790753 0.734754 0.084015
O O13 0.234022 0.651379 0.345008
O O14 0.990861 0.676515 0.460962
O O15 0.500000 0.000000 0.000000
O O16 0.621068 0.364141 0.938627
O O17 0.500000 0.500000 0.000000
#
# Coordination Sequence:
#
# PCOD9013106 Si02
#       8
#     2   2   2   2   2   2   2   2
#     4  11  24  45  67  93 134 172 216 276 328 381
#     4  11  22  44  68  95 134 173 210 274 330 384
#     4  11  24  41  66 100 127 172 225 266 325 389
#     4  11  22  45  67  91 134 173 216 268 326 389
#     4  10  23  40  61  96 131 163 219 267 323 387
#     4  11  24  41  66  97 130 171 222 265 326 387
#     4  11  21  42  68  92 133 170 210 265 327 393
#     4  10  21  41  63  90 126 175 207 261 331 380
#
# _framework density 21.467680999999999
#
# number of rings (size 3 to 8) (size 9 to 14) (size 15 to 20)
#    0.000    1.250    5.000    1.875    1.750    3.500 
#    2.250    1.250    0.000    0.000    0.000    0.000 
#    0.000    0.000    0.000    0.000    0.000    0.000 
#
# Total GULP energy -89293.913455 kJ/mol
# GULP energy per Si atom -5580.869591 kJ/mol
# Density = 2.141882 g / cm^3
# Si number density = 21.467681 Si / 1000 Ang^3
#
#
#
# Elastic Constant Matrix: (Units=GPa)
#
#
# Indices 1 2 3 4 5 6 
#
# 1 83.1983 -0.5661 15.4234 -1.9343 8.0033 -10.7318
# 2 -0.5661 70.0548 29.1421 8.5168 -11.8084 -3.8773
# 3 15.4234 29.1421 96.9182 0.3770 1.9403 1.2016
# 4 -1.9343 8.5168 0.3770 44.8086 1.7864 7.9289
# 5 8.0033 -11.8084 1.9403 1.7864 15.1781 10.7496
# 6 -10.7318 -3.8773 1.2016 7.9289 10.7496 26.9469
#
#
#
# Elastic Compliance Matrix: (Units=1/GPa)
#
#
# Indices 1 2 3 4 5 6 
#
# 1 0.016029 -0.001456 -0.001900 -0.000755 -0.019295 0.014178
# 2 -0.001456 0.020769 -0.006371 -0.003978 0.021566 -0.004740
# 3 -0.001900 -0.006371 0.012645 0.001322 -0.005390 -0.000476
# 4 -0.000755 -0.003978 0.001322 0.024469 0.000019 -0.008139
# 5 -0.019295 0.021566 -0.005390 0.000019 0.134642 -0.058058
# 6 0.014178 -0.004740 -0.000476 -0.008139 -0.058058 0.067651
#
#
# Mechanical properties :
#
#
# Convention : Reuss Voigt Hill
#
# Bulk Modulus (GPa) = 33.34447 37.57445 35.45946
# Shear Modulus (GPa) = 16.35831 31.13150 23.74491
#
# Velocity S-wave (km/s) = 2.76342 3.81222 3.32938
# Velocity P-wave (km/s) = 5.07426 6.07603 5.59760
#
# Compressibility (1/GPa) = 0.02998998
#
# Stress axis : x y z
#
# Youngs Moduli (GPa) = 62.38661 48.14775 79.08530
#
# Poissons Ratio (x) = 0.07011 0.15023
# Poissons Ratio (y) = 0.09084 0.50384
# Poissons Ratio (z) = 0.11851 0.30674
#
# Static dielectric constant tensor:
#      x y z
#    x 1.812040 0.003390 0.021920 
#    y 0.003390 1.792090 0.048160 
#    z 0.021920 0.048160 1.821810 
# 
# From -- ./inp_files/427748.got.cif
#   From: 2010.05.17/outbox.cif.g08.bks.cpg/sg2_214_cif.got.tgz:427748.got - 2010.06.03 11:33:40.
