data_PCOD9013745
_publ_section_title
;
Structure prediction by ZEFSAII (Michael W. Deem and Ramdas Pophale) SiO2 
 PCOD9013745
Probable space group: P -1
;
_chemical_formula_sum "Si O2"
_cell_formula_units_Z 16
_cell_length_a 9.086104
_cell_length_b 8.634651
_cell_length_c 10.771266
_cell_angle_alpha 88.294582
_cell_angle_beta 117.601983
_cell_angle_gamma 116.188820
_cell_volume 655.586581
_symmetry_space_group_name_H-M "P -1"
_symmetry_group_IT_number 2
_symmetry_cell_setting 'triclinic'
loop_
_space_group_symop_operation_xyz
x,y,z
-x,-y,-z
loop_
_atom_site_type_symbol
_atom_site_label
_atom_site_fract_x
_atom_site_fract_y
_atom_site_fract_z
Si Si1 0.305339 0.506244 0.927475
Si Si2 0.198123 0.673169 0.082168
Si Si3 0.074140 0.153190 0.708675
Si Si4 0.330108 0.379601 0.574066
Si Si5 0.559923 0.263208 0.239321
Si Si6 0.318975 0.903119 0.522067
Si Si7 0.704416 0.396560 0.617254
Si Si8 0.162864 0.005203 0.974172
O O1 0.135269 0.312504 0.831065
O O2 0.290979 0.627641 0.811005
O O3 0.500000 0.500000 0.000000
O O4 0.326346 0.611131 0.058913
O O5 0.240291 0.679214 0.241666
O O6 0.000000 0.500000 0.000000
O O7 0.185911 0.834507 0.014142
O O8 0.204803 0.244895 0.636146
O O9 0.119366 0.023765 0.812862
O O10 0.855555 0.064045 0.579147
O O11 0.433099 0.578810 0.672535
O O12 0.487283 0.340530 0.573752
O O13 0.220195 0.406869 0.412695
O O14 0.596426 0.106182 0.311175
O O15 0.356856 0.168191 0.095640
O O16 0.237825 0.696291 0.465194
O O17 0.500000 0.000000 0.500000
O O18 0.000000 0.000000 0.000000
#
# Coordination Sequence:
#
# PCOD9013745 Si02
#       8
#     2   2   2   2   2   2   2   2
#     4  11  22  43  69 101 134 176 222 280 345 403
#     4  12  26  40  66  99 136 176 228 279 333 408
#     4  11  23  44  71  99 132 178 231 277 344 407
#     4   9  22  41  70  94 130 176 221 279 338 409
#     4  10  22  40  69  93 131 175 220 275 344 399
#     4  11  23  43  64  93 133 181 227 281 338 400
#     4  10  21  41  65  95 129 176 224 272 339 409
#     4  12  25  42  66 103 137 178 227 282 343 403
#
# _framework density 24.405625000000001
#
# number of rings (size 3 to 8) (size 9 to 14) (size 15 to 20)
#    0.000    1.250    1.250    5.250    1.750    6.000 
#    4.500    0.625    0.000    0.000    0.000    0.000 
#    0.000    0.000    0.000    0.000    0.000    0.000 
#
# Total GULP energy -89195.899566 kJ/mol
# GULP energy per Si atom -5574.743723 kJ/mol
# Density = 2.435008 g / cm^3
# Si number density = 24.405625 Si / 1000 Ang^3
#
#
#
# Elastic Constant Matrix: (Units=GPa)
#
#
# Indices 1 2 3 4 5 6 
#
# 1 74.9589 15.5104 31.0329 -8.9620 7.0174 -9.6282
# 2 15.5104 109.3927 50.8849 -28.5363 14.4544 5.9368
# 3 31.0329 50.8849 107.3719 -41.7877 26.8042 7.6839
# 4 -8.9620 -28.5363 -41.7877 56.7736 -0.5109 -5.8547
# 5 7.0174 14.4544 26.8042 -0.5109 39.7102 -2.6234
# 6 -9.6282 5.9368 7.6839 -5.8547 -2.6234 31.4564
#
#
#
# Elastic Compliance Matrix: (Units=1/GPa)
#
#
# Indices 1 2 3 4 5 6 
#
# 1 0.016399 -0.000498 -0.005897 -0.001322 0.001673 0.006447
# 2 -0.000498 0.012100 -0.003929 0.002987 -0.001696 -0.001062
# 3 -0.005897 -0.003929 0.020712 0.011727 -0.011682 -0.004914
# 4 -0.001322 0.002987 0.011727 0.027524 -0.008376 0.000591
# 5 0.001673 -0.001696 -0.011682 -0.008376 0.033608 0.004930
# 6 0.006447 -0.001062 -0.004914 0.000591 0.004930 0.035685
#
#
# Mechanical properties :
#
#
# Convention : Reuss Voigt Hill
#
# Bulk Modulus (GPa) = 35.00999 54.06444 44.53722
# Shear Modulus (GPa) = 28.37751 38.54104 33.45927
#
# Velocity S-wave (km/s) = 3.41360 3.97821 3.70667
# Velocity P-wave (km/s) = 5.46929 6.58043 6.05042
#
# Compressibility (1/GPa) = 0.02856327
#
# Stress axis : x y z
#
# Youngs Moduli (GPa) = 60.98109 82.64190 48.28181
#
# Poissons Ratio (x) = 0.04114 0.28473
# Poissons Ratio (y) = 0.03036 0.18968
# Poissons Ratio (z) = 0.35962 0.32467
#
# Static dielectric constant tensor:
#      x y z
#    x 1.879220 0.021590 -0.007030 
#    y 0.021590 2.004400 0.011510 
#    z -0.007030 0.011510 2.087840 
# 
# From -- ./inp_files/382073.got.cif
#   From: 2010.05.17/outbox.cif.g08.bks.cpg/sg2_192_cif.got.tgz:382073.got - 2010.06.03 11:33:40.
