data_PCOD9013100
_publ_section_title
;
Structure prediction by ZEFSAII (Michael W. Deem and Ramdas Pophale) SiO2 
 PCOD9013100
Probable space group: P -1
;
_chemical_formula_sum "Si O2"
_cell_formula_units_Z 14
_cell_length_a 6.352945
_cell_length_b 13.877604
_cell_length_c 10.043932
_cell_angle_alpha 73.996516
_cell_angle_beta 49.302588
_cell_angle_gamma 71.937742
_cell_volume 634.947734
_symmetry_space_group_name_H-M "P -1"
_symmetry_group_IT_number 2
_symmetry_cell_setting 'triclinic'
loop_
_space_group_symop_operation_xyz
x,y,z
-x,-y,-z
loop_
_atom_site_type_symbol
_atom_site_label
_atom_site_fract_x
_atom_site_fract_y
_atom_site_fract_z
Si Si1 0.508769 0.634343 0.338201
Si Si2 0.391837 0.242172 0.992098
Si Si3 0.538024 0.878423 0.536951
Si Si4 0.312125 0.438912 0.419837
Si Si5 0.944493 0.919628 0.859808
Si Si6 0.986008 0.140842 0.838279
Si Si7 0.149594 0.284246 0.352142
O O1 0.650969 0.702892 0.152807
O O2 0.505909 0.525212 0.309260
O O3 0.656658 0.609878 0.428063
O O4 0.179730 0.684576 0.485186
O O5 0.723219 0.230276 0.891152
O O6 0.317041 0.128991 0.060622
O O7 0.207195 0.296211 0.168554
O O8 0.721285 0.836914 0.349335
O O9 0.720452 0.829484 0.606625
O O10 0.217984 0.862793 0.688017
O O11 0.500000 0.000000 0.500000
O O12 0.338277 0.351955 0.331365
O O13 0.000000 0.500000 0.500000
O O14 0.994032 0.889330 0.005165
O O15 0.929107 0.040870 0.817456
#
# Coordination Sequence:
#
# PCOD9013100 Si02
#       7
#     2   2   2   2   2   2   2
#     4  10  23  44  67  95 124 165 212 261 327 383
#     4  12  24  37  65 100 127 165 215 266 319 376
#     4  10  21  41  63  89 130 178 214 255 312 369
#     4   9  22  46  69  90 125 164 209 264 320 393
#     4  10  23  38  59  91 132 170 219 261 306 373
#     4  10  21  42  59  86 131 179 212 259 312 367
#     4  11  23  40  65  96 133 165 212 266 315 377
#
# _framework density 22.049060000000001
#
# number of rings (size 3 to 8) (size 9 to 14) (size 15 to 20)
#    0.000    1.714    2.857    0.429    4.000    0.571 
#    0.000    7.857    0.000    0.000    0.000    0.000 
#    0.000    0.000    0.000    0.000    0.000    0.000 
#
# Total GULP energy -78172.014084 kJ/mol
# GULP energy per Si atom -5583.715292 kJ/mol
# Density = 2.199887 g / cm^3
# Si number density = 22.049060 Si / 1000 Ang^3
#
#
#
# Elastic Constant Matrix: (Units=GPa)
#
#
# Indices 1 2 3 4 5 6 
#
# 1 65.0073 25.2878 23.6214 8.6705 -1.9339 -4.4926
# 2 25.2878 62.6536 29.7945 -2.0916 2.4053 4.3554
# 3 23.6214 29.7945 132.2576 6.8038 -15.6007 -1.9805
# 4 8.6705 -2.0916 6.8038 15.6729 -1.6021 7.3898
# 5 -1.9339 2.4053 -15.6007 -1.6021 24.7084 2.7052
# 6 -4.4926 4.3554 -1.9805 7.3898 2.7052 41.5958
#
#
#
# Elastic Compliance Matrix: (Units=1/GPa)
#
#
# Indices 1 2 3 4 5 6 
#
# 1 0.021891 -0.009405 -0.000837 -0.015835 0.000406 0.006096
# 2 -0.009405 0.023005 -0.004768 0.012506 -0.004564 -0.005577
# 3 -0.000837 -0.004768 0.009752 -0.004369 0.006136 0.001250
# 4 -0.015835 0.012506 -0.004369 0.085089 0.002327 -0.018496
# 5 0.000406 -0.004564 0.006136 0.002327 0.045251 -0.002542
# 6 0.006096 -0.005577 0.001250 -0.018496 -0.002542 0.028794
#
#
# Mechanical properties :
#
#
# Convention : Reuss Voigt Hill
#
# Bulk Modulus (GPa) = 40.60624 46.36952 43.48788
# Shear Modulus (GPa) = 19.84036 28.47641 24.15839
#
# Velocity S-wave (km/s) = 3.00297 3.59765 3.31367
# Velocity P-wave (km/s) = 5.52087 6.19138 5.86572
#
# Compressibility (1/GPa) = 0.02462676
#
# Stress axis : x y z
#
# Youngs Moduli (GPa) = 45.68043 43.46958 102.54512
#
# Poissons Ratio (x) = 0.40885 0.08585
# Poissons Ratio (y) = 0.42964 0.48892
# Poissons Ratio (z) = 0.03824 0.20725
#
# Static dielectric constant tensor:
#      x y z
#    x 1.792180 0.031390 -0.015630 
#    y 0.031390 1.859120 0.002420 
#    z -0.015630 0.002420 1.798620 
# 
# From -- ./inp_files/91144.got.cif
#   From: 2010.05.17/outbox.cif.g08.bks.cpg/sg2_46_cif.got.tgz:91144.got - 2010.06.03 11:33:40.
