data_PCOD9013155
_publ_section_title
;
Structure prediction by ZEFSAII (Michael W. Deem and Ramdas Pophale) SiO2 
 PCOD9013155
Probable space group: P -1
;
_chemical_formula_sum "Si O2"
_cell_formula_units_Z 16
_cell_length_a 15.330116
_cell_length_b 6.258370
_cell_length_c 7.637857
_cell_angle_alpha 102.052045
_cell_angle_beta 78.111949
_cell_angle_gamma 92.865790
_cell_volume 701.246786
_symmetry_space_group_name_H-M "P -1"
_symmetry_group_IT_number 2
_symmetry_cell_setting 'triclinic'
loop_
_space_group_symop_operation_xyz
x,y,z
-x,-y,-z
loop_
_atom_site_type_symbol
_atom_site_label
_atom_site_fract_x
_atom_site_fract_y
_atom_site_fract_z
Si Si1 0.401510 0.423620 0.979380
Si Si2 0.676173 0.013608 0.169916
Si Si3 0.926700 0.908691 0.384665
Si Si4 0.265697 0.783089 0.184219
Si Si5 0.732596 0.830691 0.481289
Si Si6 0.398363 0.546917 0.599703
Si Si7 0.079582 0.600735 0.156243
Si Si8 0.962096 0.217457 0.141161
O O1 0.389110 0.482814 0.793578
O O2 0.385070 0.164224 0.938112
O O3 0.500000 0.500000 0.000000
O O4 0.329851 0.573155 0.134176
O O5 0.624733 0.197367 0.336094
O O6 0.728417 0.890926 0.284451
O O7 0.727627 0.122200 0.002271
O O8 0.836915 0.802037 0.474082
O O9 0.986520 0.724735 0.240133
O O10 0.906439 0.118558 0.306918
O O11 0.000000 0.000000 0.500000
O O12 0.163860 0.701406 0.236766
O O13 0.292728 0.968357 0.345495
O O14 0.670115 0.617865 0.497825
O O15 0.500000 0.500000 0.500000
O O16 0.050408 0.357314 0.178042
O O17 0.094726 0.643675 0.950239
O O18 0.000000 0.000000 0.000000
#
# Coordination Sequence:
#
# PCOD9013155 Si02
#       8
#     2   2   2   2   2   2   2   2
#     4  10  25  42  67  99 130 169 219 274 334 399
#     4  10  25  45  65  94 136 171 213 279 327 392
#     4  11  22  41  59  94 132 168 218 268 322 380
#     4  11  24  42  67  99 130 174 226 264 330 395
#     4  11  25  43  67  99 133 175 224 269 329 398
#     4  10  25  44  70  99 129 172 218 273 337 395
#     4  10  21  41  63  93 126 171 224 268 319 391
#     4   9  21  37  63  87 125 174 211 272 323 379
#
# _framework density 22.816504999999999
#
# number of rings (size 3 to 8) (size 9 to 14) (size 15 to 20)
#    0.000    1.750    1.250    0.750    5.250   14.500 
#    2.250    0.000    0.000    0.000    0.000    0.000 
#    0.000    0.000    0.000    0.000    0.000    0.000 
#
# Total GULP energy -89190.899320 kJ/mol
# GULP energy per Si atom -5574.431207 kJ/mol
# Density = 2.276457 g / cm^3
# Si number density = 22.816505 Si / 1000 Ang^3
#
#
#
# Elastic Constant Matrix: (Units=GPa)
#
#
# Indices 1 2 3 4 5 6 
#
# 1 131.4205 57.3569 32.7108 29.0063 -4.1836 37.5818
# 2 57.3569 111.9679 34.1812 37.0084 -1.4473 32.7342
# 3 32.7108 34.1812 89.3602 23.2550 5.6483 13.2010
# 4 29.0063 37.0084 23.2550 40.3416 4.7184 13.8052
# 5 -4.1836 -1.4473 5.6483 4.7184 33.4016 6.1447
# 6 37.5818 32.7342 13.2010 13.8052 6.1447 34.9088
#
#
#
# Elastic Compliance Matrix: (Units=1/GPa)
#
#
# Indices 1 2 3 4 5 6 
#
# 1 0.012804 -0.001589 -0.001835 -0.003433 0.004355 -0.011009
# 2 -0.001589 0.016604 -0.001951 -0.010069 0.004086 -0.009858
# 3 -0.001835 -0.001951 0.013903 -0.004959 -0.002127 0.000882
# 4 -0.003433 -0.010069 -0.004959 0.039944 -0.005711 0.000221
# 5 0.004355 0.004086 -0.002127 -0.005711 0.033930 -0.011430
# 6 -0.011009 -0.009858 0.000882 0.000221 -0.011430 0.051333
#
#
# Mechanical properties :
#
#
# Convention : Reuss Voigt Hill
#
# Bulk Modulus (GPa) = 30.71186 64.58294 47.64740
# Shear Modulus (GPa) = 26.29888 35.63039 30.96464
#
# Velocity S-wave (km/s) = 3.39872 3.95600 3.68790
# Velocity P-wave (km/s) = 5.37506 7.01665 6.24999
#
# Compressibility (1/GPa) = 0.03256072
#
# Stress axis : x y z
#
# Youngs Moduli (GPa) = 78.09999 60.22729 71.92664
#
# Poissons Ratio (x) = 0.09573 0.13196
# Poissons Ratio (y) = 0.12414 0.14033
# Poissons Ratio (z) = 0.14328 0.11750
#
# Static dielectric constant tensor:
#      x y z
#    x 1.891480 -0.023480 -0.014160 
#    y -0.023480 2.013650 0.036050 
#    z -0.014160 0.036050 2.005150 
# 
# From -- ./inp_files/289161.got.cif
#   From: 2010.05.17/outbox.cif.g08.bks.cpg/sg2_145_cif.got.tgz:289161.got - 2010.06.03 11:33:40.
