data_PCOD9013072
_publ_section_title
;
Structure prediction by ZEFSAII (Michael W. Deem and Ramdas Pophale) SiO2 
 PCOD9013072
Probable space group: P -1
;
_chemical_formula_sum "Si O2"
_cell_formula_units_Z 14
_cell_length_a 19.527219
_cell_length_b 8.528285
_cell_length_c 5.968401
_cell_angle_alpha 134.277965
_cell_angle_beta 106.151700
_cell_angle_gamma 60.449616
_cell_volume 615.556563
_symmetry_space_group_name_H-M "P -1"
_symmetry_group_IT_number 2
_symmetry_cell_setting 'triclinic'
loop_
_space_group_symop_operation_xyz
x,y,z
-x,-y,-z
loop_
_atom_site_type_symbol
_atom_site_label
_atom_site_fract_x
_atom_site_fract_y
_atom_site_fract_z
Si Si1 0.902131 0.364208 0.326155
Si Si2 0.669088 0.002287 0.723054
Si Si3 0.184507 0.188647 0.630075
Si Si4 0.757592 0.556784 0.683999
Si Si5 0.528067 0.292482 0.628651
Si Si6 0.952927 0.935198 0.583784
Si Si7 0.620662 0.431231 0.469911
O O1 0.865871 0.615932 0.410331
O O2 0.834601 0.366977 0.435918
O O3 0.980975 0.307599 0.482707
O O4 0.923937 0.149405 0.953499
O O5 0.589785 0.046750 0.557174
O O6 0.736817 0.997710 0.610550
O O7 0.706517 0.753859 0.647356
O O8 0.647062 0.220119 0.096817
O O9 0.124927 0.092430 0.584651
O O10 0.212694 0.317849 0.974556
O O11 0.698225 0.460062 0.635828
O O12 0.579975 0.357794 0.562004
O O13 0.448998 0.325479 0.459944
O O14 0.500000 0.500000 0.000000
O O15 0.000000 0.000000 0.500000
#
# Coordination Sequence:
#
# PCOD9013072 Si02
#       7
#     2   2   2   2   2   2   2
#     4  10  24  42  62  89 120 159 200 247 301 356
#     4  10  22  40  62  89 122 160 201 249 299 352
#     4  11  24  41  61  91 125 156 198 250 301 357
#     4  11  24  39  63  93 121 157 201 249 300 356
#     4   9  20  39  63  88 121 161 201 247 295 352
#     4  11  24  42  65  89 119 160 202 246 299 358
#     4  10  21  41  63  88 122 160 202 247 298 354
#
# _framework density 22.743642999999999
#
# number of rings (size 3 to 8) (size 9 to 14) (size 15 to 20)
#    0.000    1.714    0.000    3.000    0.000   16.571 
#    0.000   10.000    0.000    0.000    0.000    0.000 
#    0.000    0.000    0.000    0.000    0.000    0.000 
#
# Total GULP energy -78302.101618 kJ/mol
# GULP energy per Si atom -5593.007258 kJ/mol
# Density = 2.269188 g / cm^3
# Si number density = 22.743643 Si / 1000 Ang^3
#
#
#
# Elastic Constant Matrix: (Units=GPa)
#
#
# Indices 1 2 3 4 5 6 
#
# 1 160.6153 -1.5236 67.4383 -8.3363 -33.7420 -2.9707
# 2 -1.5236 77.7364 4.7854 0.4893 -25.0362 -15.5114
# 3 67.4383 4.7854 96.9138 -15.6595 -36.9531 -3.7915
# 4 -8.3363 0.4893 -15.6595 24.2808 -3.4113 -7.8834
# 5 -33.7420 -25.0362 -36.9531 -3.4113 35.1305 1.3677
# 6 -2.9707 -15.5114 -3.7915 -7.8834 1.3677 31.2607
#
#
#
# Elastic Compliance Matrix: (Units=1/GPa)
#
#
# Indices 1 2 3 4 5 6 
#
# 1 0.009637 0.004392 -0.002022 0.004548 0.010564 0.003535
# 2 0.004392 0.032657 0.020261 0.028875 0.050668 0.024144
# 3 -0.002022 0.020261 0.040056 0.040073 0.057655 0.022303
# 4 0.004548 0.028875 0.040073 0.091249 0.074426 0.039375
# 5 0.010564 0.050668 0.057655 0.074426 0.140813 0.045746
# 6 0.003535 0.024144 0.022303 0.039375 0.045746 0.054938
#
#
# Mechanical properties :
#
#
# Convention : Reuss Voigt Hill
#
# Bulk Modulus (GPa) = 7.83617 52.96288 30.39952
# Shear Modulus (GPa) = 13.63785 35.77207 24.70496
#
# Velocity S-wave (km/s) = 2.45140 3.97021 3.29938
# Velocity P-wave (km/s) = 3.38606 6.65989 5.28297
#
# Compressibility (1/GPa) = 0.12761340
#
# Stress axis : x y z
#
# Youngs Moduli (GPa) = 103.76263 30.62111 24.96494
#
# Poissons Ratio (x) = -0.13450 0.05048
# Poissons Ratio (y) = -0.45576 -0.50582
# Poissons Ratio (z) = 0.20981 -0.62042
#
# Static dielectric constant tensor:
#      x y z
#    x 1.826750 -0.007910 -0.003860 
#    y -0.007910 1.913960 0.003760 
#    z -0.003860 0.003760 1.779160 
# 
# From -- ./inp_files/8051.got.cif
#   From: 2010.05.17/outbox.cif.g08.bks.cpg/sg2_5_cif.got.tgz:8051.got - 2010.06.03 11:33:40.
