data_PCOD9013736
_publ_section_title
;
Structure prediction by ZEFSAII (Michael W. Deem and Ramdas Pophale) SiO2 
 PCOD9013736
Probable space group: P -1
;
_chemical_formula_sum "Si O2"
_cell_formula_units_Z 16
_cell_length_a 5.184847
_cell_length_b 8.556948
_cell_length_c 13.971808
_cell_angle_alpha 107.154769
_cell_angle_beta 92.846750
_cell_angle_gamma 78.375595
_cell_volume 580.122230
_symmetry_space_group_name_H-M "P -1"
_symmetry_group_IT_number 2
_symmetry_cell_setting 'triclinic'
loop_
_space_group_symop_operation_xyz
x,y,z
-x,-y,-z
loop_
_atom_site_type_symbol
_atom_site_label
_atom_site_fract_x
_atom_site_fract_y
_atom_site_fract_z
Si Si1 0.465813 0.476425 0.833264
Si Si2 0.786892 0.667005 0.736797
Si Si3 0.112254 0.397320 0.579709
Si Si4 0.527886 0.853383 0.577368
Si Si5 0.778242 0.801123 0.180016
Si Si6 0.338627 0.011695 0.096898
Si Si7 0.045806 0.911163 0.372165
Si Si8 0.858013 0.317864 0.980275
O O1 0.617803 0.553476 0.769151
O O2 0.350275 0.315447 0.773385
O O3 0.670804 0.410711 0.910421
O O4 0.240435 0.606793 0.906947
O O5 0.623580 0.751807 0.657668
O O6 0.815142 0.812295 0.837774
O O7 0.053349 0.549198 0.682178
O O8 0.388984 0.286265 0.529371
O O9 0.967125 0.251935 0.592958
O O10 0.000000 0.500000 0.500000
O O11 0.227138 0.951665 0.593533
O O12 0.714678 0.991677 0.596183
O O13 0.014119 0.853310 0.251699
O O14 0.857260 0.693049 0.064764
O O15 0.559379 0.953221 0.170997
O O16 0.161177 0.875147 0.057244
O O17 0.500000 0.000000 0.000000
#
# Coordination Sequence:
#
# PCOD9013736 Si02
#       8
#     2   2   2   2   2   2   2   2
#     4  10  22  41  65  98 143 189 243 317 369 437
#     4  11  22  46  69 109 150 192 254 313 375 440
#     4  10  25  48  78 115 147 196 244 320 378 456
#     4  11  26  51  79 112 150 201 251 310 384 460
#     4  11  24  40  69 103 141 200 250 308 374 455
#     4  11  22  42  67  96 145 195 249 306 370 444
#     4  12  25  50  82 110 154 198 252 308 382 460
#     4  10  21  41  65  94 138 194 252 299 375 445
#
# _framework density 27.580394999999999
#
# number of rings (size 3 to 8) (size 9 to 14) (size 15 to 20)
#    0.000    1.250    2.500    2.625    3.500    0.500 
#    9.000    3.750    0.000    0.000    0.000    0.000 
#    0.000    0.000    0.000    0.000    0.000    0.000 
#
# Total GULP energy -89690.292501 kJ/mol
# GULP energy per Si atom -5605.643281 kJ/mol
# Density = 2.751762 g / cm^3
# Si number density = 27.580395 Si / 1000 Ang^3
#
#
#
# Elastic Constant Matrix: (Units=GPa)
#
#
# Indices 1 2 3 4 5 6 
#
# 1 95.9430 47.6604 25.3553 13.0498 -8.2585 -8.6934
# 2 47.6604 166.3429 76.5878 1.9848 -18.5158 -25.4716
# 3 25.3553 76.5878 182.3198 36.7617 -27.2430 0.9481
# 4 13.0498 1.9848 36.7617 77.7141 -5.2022 -6.1792
# 5 -8.2585 -18.5158 -27.2430 -5.2022 41.8981 3.5453
# 6 -8.6934 -25.4716 0.9481 -6.1792 3.5453 49.5392
#
#
#
# Elastic Compliance Matrix: (Units=1/GPa)
#
#
# Indices 1 2 3 4 5 6 
#
# 1 0.012488 -0.003611 0.000326 -0.002104 0.000816 0.000008
# 2 -0.003611 0.009669 -0.003989 0.002679 0.000904 0.004684
# 3 0.000326 -0.003989 0.008457 -0.003946 0.003556 -0.002902
# 4 -0.002104 0.002679 -0.003946 0.015247 -0.000157 0.002997
# 5 0.000816 0.000904 0.003556 -0.000157 0.026839 -0.001401
# 6 0.000008 0.004684 -0.002902 0.002997 -0.001401 0.023125
#
#
# Mechanical properties :
#
#
# Convention : Reuss Voigt Hill
#
# Bulk Modulus (GPa) = 62.24227 82.64583 72.44405
# Shear Modulus (GPa) = 43.20500 53.49709 48.35105
#
# Velocity S-wave (km/s) = 3.96221 4.40896 4.19154
# Velocity P-wave (km/s) = 6.59915 7.47991 7.05329
#
# Compressibility (1/GPa) = 0.01606625
#
# Stress axis : x y z
#
# Youngs Moduli (GPa) = 80.07998 103.42649 118.24104
#
# Poissons Ratio (x) = 0.37348 -0.03859
# Poissons Ratio (y) = 0.28918 0.47165
# Poissons Ratio (z) = -0.02613 0.41256
#
# Static dielectric constant tensor:
#      x y z
#    x 2.132050 -0.000590 0.020440 
#    y -0.000590 2.143900 -0.017510 
#    z 0.020440 -0.017510 2.233640 
# 
# From -- ./inp_files/480633.got.cif
#   From: 2010.05.17/outbox.cif.g08.bks.cpg/sg2_241_cif.got.tgz:480633.got - 2010.06.03 11:33:40.
