data_PCOD9013182
_publ_section_title
;
Structure prediction by ZEFSAII (Michael W. Deem and Ramdas Pophale) SiO2 
 PCOD9013182
Probable space group: P -1
;
_chemical_formula_sum "Si O2"
_cell_formula_units_Z 16
_cell_length_a 18.197323
_cell_length_b 19.206534
_cell_length_c 8.440423
_cell_angle_alpha 54.731270
_cell_angle_beta 43.973693
_cell_angle_gamma 21.531490
_cell_volume 701.006782
_symmetry_space_group_name_H-M "P -1"
_symmetry_group_IT_number 2
_symmetry_cell_setting 'triclinic'
loop_
_space_group_symop_operation_xyz
x,y,z
-x,-y,-z
loop_
_atom_site_type_symbol
_atom_site_label
_atom_site_fract_x
_atom_site_fract_y
_atom_site_fract_z
Si Si1 0.968795 0.604974 0.018839
Si Si2 0.233323 0.820340 0.750912
Si Si3 0.498250 0.216640 0.264133
Si Si4 0.423813 0.018726 0.421463
Si Si5 0.026315 0.066434 0.270999
Si Si6 0.198199 0.028738 0.359137
Si Si7 0.289678 0.286467 0.178780
Si Si8 0.763538 0.462825 0.522102
O O1 0.678535 0.840740 0.159161
O O2 0.057923 0.508558 0.177913
O O3 0.138594 0.556880 0.756608
O O4 0.000000 0.500000 0.000000
O O5 0.500473 0.608505 0.699131
O O6 0.180466 0.788862 0.737272
O O7 0.247130 0.902688 0.534184
O O8 0.000000 0.000000 0.000000
O O9 0.622471 0.047793 0.394046
O O10 0.313202 0.408815 0.402194
O O11 0.365760 0.270250 0.249695
O O12 0.714451 0.118143 0.986339
O O13 0.500000 0.000000 0.500000
O O14 0.240103 0.222090 0.360723
O O15 0.055749 0.116663 0.294766
O O16 0.000000 0.000000 0.500000
O O17 0.999244 0.229956 0.503266
O O18 0.468452 0.873040 0.102574
#
# Coordination Sequence:
#
# PCOD9013182 Si02
#       8
#     2   2   2   2   2   2   2   2
#     4  12  24  42  63  96 132 166 211 261 316 383
#     4  11  22  41  65  92 130 165 207 269 321 361
#     4  10  21  41  63  94 131 163 212 263 313 380
#     4  10  22  41  66  93 128 169 210 257 309 385
#     4   9  20  41  66  89 123 172 206 255 317 372
#     4  10  22  41  66  91 126 166 214 256 313 384
#     4  10  22  43  66  88 128 177 206 253 323 376
#     4  12  23  41  64  97 129 162 214 265 314 378
#
# _framework density 22.824314999999999
#
# number of rings (size 3 to 8) (size 9 to 14) (size 15 to 20)
#    0.000    1.500    5.000    0.000    0.000    3.500 
#    2.250    2.500    0.000    0.000    0.000    0.000 
#    0.000    0.000    0.000    0.000    0.000    0.000 
#
# Total GULP energy -89406.331554 kJ/mol
# GULP energy per Si atom -5587.895722 kJ/mol
# Density = 2.277237 g / cm^3
# Si number density = 22.824315 Si / 1000 Ang^3
#
#
#
# Elastic Constant Matrix: (Units=GPa)
#
#
# Indices 1 2 3 4 5 6 
#
# 1 63.2477 10.6246 3.9963 3.9680 -2.1214 -1.7778
# 2 10.6246 70.5522 15.1672 -2.2748 0.2511 7.2863
# 3 3.9963 15.1672 116.4079 8.2167 -4.1206 3.2509
# 4 3.9680 -2.2748 8.2167 27.8575 1.1924 4.2808
# 5 -2.1214 0.2511 -4.1206 1.1924 21.9693 5.5795
# 6 -1.7778 7.2863 3.2509 4.2808 5.5795 33.3273
#
#
#
# Elastic Compliance Matrix: (Units=1/GPa)
#
#
# Indices 1 2 3 4 5 6 
#
# 1 0.016547 -0.002758 -0.000002 -0.002891 0.001373 0.001627
# 2 -0.002758 0.015497 -0.002022 0.002824 -0.000038 -0.003694
# 3 -0.000002 -0.002022 0.009140 -0.002883 0.001999 -0.000414
# 4 -0.002891 0.002824 -0.002883 0.038248 -0.001625 -0.005131
# 5 0.001373 -0.000038 0.001999 -0.001625 0.048137 -0.007964
# 6 0.001627 -0.003694 -0.000414 -0.005131 -0.007964 0.032933
#
#
# Mechanical properties :
#
#
# Convention : Reuss Voigt Hill
#
# Bulk Modulus (GPa) = 31.62430 34.42046 33.02238
# Shear Modulus (GPa) = 27.68499 31.32546 29.50522
#
# Velocity S-wave (km/s) = 3.48654 3.70869 3.59933
# Velocity P-wave (km/s) = 5.48576 5.78382 5.63676
#
# Compressibility (1/GPa) = 0.03162125
#
# Stress axis : x y z
#
# Youngs Moduli (GPa) = 60.43270 64.53036 109.41203
#
# Poissons Ratio (x) = 0.17796 0.00017
# Poissons Ratio (y) = 0.16666 0.22122
# Poissons Ratio (z) = 0.00010 0.13048
#
# Static dielectric constant tensor:
#      x y z
#    x 1.914470 -0.049300 0.005260 
#    y -0.049300 1.838390 -0.028140 
#    z 0.005260 -0.028140 1.834810 
# 
# From -- ./inp_files/138513.got.cif
#   From: 2010.05.17/outbox.cif.g08.bks.cpg/sg2_70_cif.got.tgz:138513.got - 2010.06.03 11:33:40.
