data_PCOD9013961
_publ_section_title
;
Structure prediction by ZEFSAII (Michael W. Deem and Ramdas Pophale) SiO2 
 PCOD9013961
Probable space group: P -1
;
_chemical_formula_sum "Si O2"
_cell_formula_units_Z 16
_cell_length_a 20.496633
_cell_length_b 7.725692
_cell_length_c 14.600085
_cell_angle_alpha 93.055691
_cell_angle_beta 18.695663
_cell_angle_gamma 99.003647
_cell_volume 698.257498
_symmetry_space_group_name_H-M "P -1"
_symmetry_group_IT_number 2
_symmetry_cell_setting 'triclinic'
loop_
_space_group_symop_operation_xyz
x,y,z
-x,-y,-z
loop_
_atom_site_type_symbol
_atom_site_label
_atom_site_fract_x
_atom_site_fract_y
_atom_site_fract_z
Si Si1 0.779470 0.883979 0.938053
Si Si2 0.190641 0.749808 0.414342
Si Si3 0.302437 0.352063 0.707216
Si Si4 0.011275 0.447886 0.878150
Si Si5 0.613420 0.925610 0.963471
Si Si6 0.247540 0.959839 0.840297
Si Si7 0.702753 0.573140 0.800133
Si Si8 0.526299 0.492982 0.706685
O O1 0.714115 0.953300 0.931356
O O2 0.978749 0.808479 0.686957
O O3 0.808347 0.037563 0.979245
O O4 0.570804 0.700371 0.222901
O O5 0.144539 0.536456 0.443959
O O6 0.338207 0.878146 0.142039
O O7 0.357370 0.819253 0.280863
O O8 0.500000 0.500000 0.500000
O O9 0.221231 0.139585 0.835130
O O10 0.383503 0.365399 0.493076
O O11 0.110747 0.425003 0.998511
O O12 0.256593 0.491258 0.526853
O O13 0.000000 0.500000 0.000000
O O14 0.884121 0.234312 0.030985
O O15 0.742439 0.791830 0.748631
O O16 0.500000 0.000000 0.500000
O O17 0.500000 0.500000 0.000000
O O18 0.641133 0.516626 0.987816
#
# Coordination Sequence:
#
# PCOD9013961 Si02
#       8
#     2   2   2   2   2   2   2   2
#     4  11  23  41  67  98 131 174 227 271 337 404
#     4  10  21  41  66  92 131 175 217 277 333 393
#     4  11  21  43  67  93 133 170 216 273 329 394
#     4  10  23  43  67  94 133 172 217 279 332 396
#     4   9  21  40  62  94 133 167 219 279 329 392
#     4  12  24  41  66  96 132 173 217 272 336 397
#     4   9  20  39  62  90 129 169 216 269 329 393
#     4  10  22  41  63  96 131 171 222 271 333 398
#
# _framework density 22.914183000000001
#
# number of rings (size 3 to 8) (size 9 to 14) (size 15 to 20)
#    0.000    1.750    2.500    1.125    0.000   11.000 
#    0.000    2.500    0.000    0.000    0.000    0.000 
#    0.000    0.000    0.000    0.000    0.000    0.000 
#
# Total GULP energy -89114.768308 kJ/mol
# GULP energy per Si atom -5569.673019 kJ/mol
# Density = 2.286203 g / cm^3
# Si number density = 22.914183 Si / 1000 Ang^3
#
#
#
# Elastic Constant Matrix: (Units=GPa)
#
#
# Indices 1 2 3 4 5 6 
#
# 1 122.0707 38.8455 14.0829 2.8173 -1.1461 6.5422
# 2 38.8455 132.2029 3.1169 -1.2166 -11.5043 14.6554
# 3 14.0829 3.1169 66.2079 9.2230 -32.5242 10.7116
# 4 2.8173 -1.2166 9.2230 30.7127 -1.2113 1.3699
# 5 -1.1461 -11.5043 -32.5242 -1.2113 35.6673 1.6120
# 6 6.5422 14.6554 10.7116 1.3699 1.6120 41.5552
#
#
#
# Elastic Compliance Matrix: (Units=1/GPa)
#
#
# Indices 1 2 3 4 5 6 
#
# 1 0.009640 -0.003253 -0.004433 0.000085 -0.004822 0.000956
# 2 -0.003253 0.009523 0.004562 -0.000214 0.007314 -0.004299
# 3 -0.004433 0.004562 0.035374 -0.008208 0.033808 -0.011070
# 4 0.000085 -0.000214 -0.008208 0.034698 -0.006431 0.001284
# 5 -0.004822 0.007314 0.033808 -0.006431 0.061426 -0.012706
# 6 0.000956 -0.004299 -0.011070 0.001284 -0.012706 0.028734
#
#
# Mechanical properties :
#
#
# Convention : Reuss Voigt Hill
#
# Bulk Modulus (GPa) = 20.70775 48.06357 34.38566
# Shear Modulus (GPa) = 24.78448 39.21612 32.00030
#
# Velocity S-wave (km/s) = 3.29237 4.14144 3.74107
# Velocity P-wave (km/s) = 4.84867 6.62493 5.80514
#
# Compressibility (1/GPa) = 0.04829110
#
# Stress axis : x y z
#
# Youngs Moduli (GPa) = 103.73465 105.00366 28.26902
#
# Poissons Ratio (x) = 0.34156 0.12531
# Poissons Ratio (y) = 0.33743 -0.12897
# Poissons Ratio (z) = 0.45981 -0.47903
#
# Static dielectric constant tensor:
#      x y z
#    x 1.942240 -0.004380 0.025430 
#    y -0.004380 1.442700 -0.183810 
#    z 0.025430 -0.183810 1.841250 
# 
# From -- ./inp_files/540055.got.cif
#   From: 2010.05.17/outbox.cif.g08.bks.cpg/sg2_271_cif.got.tgz:540055.got - 2010.06.03 11:33:40.
