data_PCOD9013699
_publ_section_title
;
Structure prediction by ZEFSAII (Michael W. Deem and Ramdas Pophale) SiO2 
 PCOD9013699
Probable space group: P -1
;
_chemical_formula_sum "Si O2"
_cell_formula_units_Z 15
_cell_length_a 26.779443
_cell_length_b 14.531679
_cell_length_c 12.178040
_cell_angle_alpha 150.401840
_cell_angle_beta 151.034128
_cell_angle_gamma 15.361177
_cell_volume 595.496275
_symmetry_space_group_name_H-M "P -1"
_symmetry_group_IT_number 2
_symmetry_cell_setting 'triclinic'
loop_
_space_group_symop_operation_xyz
x,y,z
-x,-y,-z
loop_
_atom_site_type_symbol
_atom_site_label
_atom_site_fract_x
_atom_site_fract_y
_atom_site_fract_z
Si Si1 0.669783 0.961927 0.119070
Si Si2 0.590679 0.943754 0.304795
Si Si3 0.588887 0.521470 0.046657
Si Si4 0.009436 0.542847 0.190700
Si Si5 0.530892 0.201374 0.669821
Si Si6 0.203567 0.070021 0.449203
Si Si7 0.000000 0.000000 0.000000
Si Si8 0.049749 0.841065 0.708618
O O1 0.709572 0.037041 0.373709
O O2 0.870784 0.633451 0.096236
O O3 0.557650 0.954833 0.943080
O O4 0.520731 0.260702 0.049333
O O5 0.655262 0.039851 0.477754
O O6 0.794499 0.516357 0.281179
O O7 0.472343 0.159986 0.414803
O O8 0.545895 0.718379 0.273552
O O9 0.819214 0.201217 0.139322
O O10 0.495579 0.468989 0.847108
O O11 0.969388 0.818756 0.440568
O O12 0.235258 0.170788 0.267197
O O13 0.000000 0.500000 0.000000
O O14 0.000000 0.500000 0.500000
O O15 0.144298 0.950946 0.189914
O O16 0.090399 0.869276 0.166288
#
# Coordination Sequence:
#
# PCOD9013699 Si02
#       8
#     2   2   2   2   2   2   1   2
#     4  11  23  41  67 100 132 174 232 284 333 407
#     4  10  22  41  66  97 133 181 226 281 338 415
#     4  10  22  41  64  96 135 176 228 281 347 407
#     4  11  21  39  66  98 130 177 228 282 338 417
#     4  10  21  41  65  93 137 179 218 284 346 413
#     4  12  23  45  68  99 137 182 230 278 350 411
#     4  12  22  42  70  94 136 182 222 286 328 418
#     4  10  22  39  65  95 132 181 227 274 349 403
#
# _framework density 25.189074999999999
#
# number of rings (size 3 to 8) (size 9 to 14) (size 15 to 20)
#    0.000    1.333    4.000    2.000    1.867    1.600 
#    2.400    5.333    0.000    0.000    0.000    0.000 
#    0.000    0.000    0.000    0.000    0.000    0.000 
#
# Total GULP energy -83585.584475 kJ/mol
# GULP energy per Si atom -5572.372298 kJ/mol
# Density = 2.513174 g / cm^3
# Si number density = 25.189075 Si / 1000 Ang^3
#
#
#
# Elastic Constant Matrix: (Units=GPa)
#
#
# Indices 1 2 3 4 5 6 
#
# 1 126.3339 7.5531 54.1032 -5.3563 -4.3281 -5.1625
# 2 7.5531 22.9526 6.4871 0.0798 0.5525 -6.7657
# 3 54.1032 6.4871 161.0680 -27.9221 1.6516 8.6845
# 4 -5.3563 0.0798 -27.9221 19.4735 -2.0350 8.8505
# 5 -4.3281 0.5525 1.6516 -2.0350 46.0259 -6.4828
# 6 -5.1625 -6.7657 8.6845 8.8505 -6.4828 21.7238
#
#
#
# Elastic Compliance Matrix: (Units=1/GPa)
#
#
# Indices 1 2 3 4 5 6 
#
# 1 0.010348 0.000973 -0.005674 -0.009381 0.002085 0.009474
# 2 0.000973 0.055959 -0.009403 -0.028570 0.003289 0.034040
# 3 -0.005674 -0.009403 0.015095 0.030558 -0.002941 -0.023639
# 4 -0.009381 -0.028570 0.030558 0.127054 -0.006887 -0.077162
# 5 0.002085 0.003289 -0.002941 -0.006887 0.023445 0.012497
# 6 0.009474 0.034040 -0.023639 -0.077162 0.012497 0.103501
#
#
# Mechanical properties :
#
#
# Convention : Reuss Voigt Hill
#
# Bulk Modulus (GPa) = 18.79814 49.62680 34.21247
# Shear Modulus (GPa) = 13.11164 33.59205 23.35185
#
# Velocity S-wave (km/s) = 2.28398 3.65581 3.04807
# Velocity P-wave (km/s) = 3.79927 6.12898 5.09896
#
# Compressibility (1/GPa) = 0.05319675
#
# Stress axis : x y z
#
# Youngs Moduli (GPa) = 96.63794 17.87015 66.24622
#
# Poissons Ratio (x) = -0.01740 0.37585
# Poissons Ratio (y) = -0.09407 0.62289
# Poissons Ratio (z) = 0.54828 0.16803
#
# Static dielectric constant tensor:
#      x y z
#    x 2.111830 -0.059110 -0.088450 
#    y -0.059110 2.172500 0.258570 
#    z -0.088450 0.258570 2.284550 
# 
# From -- ./inp_files/476856.got.cif
#   From: 2010.05.17/outbox.cif.g08.bks.cpg/sg2_239_cif.got.tgz:476856.got - 2010.06.03 11:33:40.
