data_PCOD9013648
_publ_section_title
;
Structure prediction by ZEFSAII (Michael W. Deem and Ramdas Pophale) SiO2 
 PCOD9013648
Probable space group: P -1
;
_chemical_formula_sum "Si O2"
_cell_formula_units_Z 16
_cell_length_a 11.224883
_cell_length_b 14.072839
_cell_length_c 5.854658
_cell_angle_alpha 63.826569
_cell_angle_beta 84.250212
_cell_angle_gamma 60.430210
_cell_volume 713.678888
_symmetry_space_group_name_H-M "P -1"
_symmetry_group_IT_number 2
_symmetry_cell_setting 'triclinic'
loop_
_space_group_symop_operation_xyz
x,y,z
-x,-y,-z
loop_
_atom_site_type_symbol
_atom_site_label
_atom_site_fract_x
_atom_site_fract_y
_atom_site_fract_z
Si Si1 0.979268 0.630593 0.125124
Si Si2 0.995978 0.847401 0.129915
Si Si3 0.748969 0.047500 0.703237
Si Si4 0.781998 0.541855 0.433606
Si Si5 0.120621 0.685344 0.656223
Si Si6 0.506867 0.254442 0.840403
Si Si7 0.736868 0.227359 0.138983
Si Si8 0.434459 0.059837 0.202292
O O1 0.957935 0.743984 0.167221
O O2 0.122280 0.510312 0.305900
O O3 0.856326 0.602806 0.211896
O O4 0.012551 0.661073 0.839231
O O5 0.030838 0.819345 0.418397
O O6 0.139712 0.812840 0.020669
O O7 0.879649 0.976533 0.919795
O O8 0.623589 0.158750 0.747042
O O9 0.763241 0.109678 0.406360
O O10 0.704665 0.946991 0.761447
O O11 0.804768 0.421236 0.428256
O O12 0.619833 0.635744 0.384711
O O13 0.237177 0.685576 0.791266
O O14 0.591216 0.285809 0.975077
O O15 0.440458 0.183275 0.058677
O O16 0.500000 0.000000 0.500000
O O17 0.500000 0.000000 0.000000
#
# Coordination Sequence:
#
# PCOD9013648 Si02
#       8
#     2   2   2   2   2   2   2   2
#     4   9  20  41  67  92 120 156 211 271 321 388
#     4  10  22  41  64  91 123 164 216 268 320 390
#     4  11  23  41  65  93 128 169 214 265 329 391
#     4  10  21  41  65  92 125 160 214 263 328 387
#     4  10  22  41  63  91 122 165 214 271 322 376
#     4  11  24  39  62  95 131 170 207 266 327 403
#     4  11  23  40  60  89 129 166 218 261 324 389
#     4  10  21  43  64  94 136 172 214 269 333 404
#
# _framework density 22.419046000000002
#
# number of rings (size 3 to 8) (size 9 to 14) (size 15 to 20)
#    0.000    1.750    1.250    2.250    0.000    5.500 
#    4.500    8.750    0.000    0.000    0.000    0.000 
#    0.000    0.000    0.000    0.000    0.000    0.000 
#
# Total GULP energy -89335.060367 kJ/mol
# GULP energy per Si atom -5583.441273 kJ/mol
# Density = 2.236802 g / cm^3
# Si number density = 22.419046 Si / 1000 Ang^3
#
#
#
# Elastic Constant Matrix: (Units=GPa)
#
#
# Indices 1 2 3 4 5 6 
#
# 1 109.4926 25.8001 45.9134 -14.5254 8.8968 -1.3508
# 2 25.8001 44.5955 13.3998 -12.7188 16.7200 -6.4605
# 3 45.9134 13.3998 124.8343 -6.1980 1.8198 -25.0413
# 4 -14.5254 -12.7188 -6.1980 23.9652 -2.6091 10.2766
# 5 8.8968 16.7200 1.8198 -2.6091 47.4036 -11.9277
# 6 -1.3508 -6.4605 -25.0413 10.2766 -11.9277 29.3188
#
#
#
# Elastic Compliance Matrix: (Units=1/GPa)
#
#
# Indices 1 2 3 4 5 6 
#
# 1 0.013927 -0.004093 -0.006161 0.008514 -0.002903 -0.009687
# 2 -0.004093 0.033355 -0.002063 0.015427 -0.011219 -0.004572
# 3 -0.006161 -0.002063 0.013055 -0.007329 0.004730 0.014905
# 4 0.008514 0.015427 -0.007329 0.064651 -0.010609 -0.029445
# 5 -0.002903 -0.011219 0.004730 -0.010609 0.029108 0.016994
# 6 -0.009687 -0.004572 0.014905 -0.029445 0.016994 0.062619
#
#
# Mechanical properties :
#
#
# Convention : Reuss Voigt Hill
#
# Bulk Modulus (GPa) = 28.00814 49.90546 38.95680
# Shear Modulus (GPa) = 19.74336 33.05813 26.40074
#
# Velocity S-wave (km/s) = 2.97080 3.84416 3.43535
# Velocity P-wave (km/s) = 4.92825 6.48167 5.75759
#
# Compressibility (1/GPa) = 0.03570390
#
# Stress axis : x y z
#
# Youngs Moduli (GPa) = 71.80423 29.98024 76.59810
#
# Poissons Ratio (x) = 0.12271 0.47193
# Poissons Ratio (y) = 0.29389 0.15800
# Poissons Ratio (z) = 0.44239 0.06184
#
# Static dielectric constant tensor:
#      x y z
#    x 1.818090 0.035270 0.017970 
#    y 0.035270 1.866400 0.022780 
#    z 0.017970 0.022780 1.878600 
# 
# From -- ./inp_files/69718.got.cif
#   From: 2010.05.17/outbox.cif.g08.bks.cpg/sg2_35_cif.got.tgz:69718.got - 2010.06.03 11:33:40.
