data_PCOD9013758
_publ_section_title
;
Structure prediction by ZEFSAII (Michael W. Deem and Ramdas Pophale) SiO2 
 PCOD9013758
Probable space group: P -1
;
_chemical_formula_sum "Si O2"
_cell_formula_units_Z 12
_cell_length_a 12.317805
_cell_length_b 10.654475
_cell_length_c 16.610200
_cell_angle_alpha 52.647393
_cell_angle_beta 150.316510
_cell_angle_gamma 144.045994
_cell_volume 597.859687
_symmetry_space_group_name_H-M "P -1"
_symmetry_group_IT_number 2
_symmetry_cell_setting 'triclinic'
loop_
_space_group_symop_operation_xyz
x,y,z
-x,-y,-z
loop_
_atom_site_type_symbol
_atom_site_label
_atom_site_fract_x
_atom_site_fract_y
_atom_site_fract_z
Si Si1 0.642727 0.119699 0.630526
Si Si2 0.716667 0.585950 0.985224
Si Si3 0.841551 0.290294 0.922021
Si Si4 0.685614 0.437815 0.628975
Si Si5 0.637165 0.216821 0.134246
Si Si6 0.294837 0.679586 0.678321
O O1 0.591080 0.277707 0.555295
O O2 0.010931 0.272627 0.825442
O O3 0.500000 0.000000 0.500000
O O4 0.473384 0.921382 0.663090
O O5 0.525042 0.326838 0.982561
O O6 0.513247 0.637269 0.833793
O O7 0.902072 0.659691 0.991366
O O8 0.641284 0.295925 0.730153
O O9 0.631167 0.053374 0.925089
O O10 0.000000 0.500000 0.000000
O O11 0.500000 0.500000 0.500000
O O12 0.056719 0.667153 0.766890
O O13 0.763206 0.311729 0.269238
O O14 0.000000 0.500000 0.500000
#
# Coordination Sequence:
#
# PCOD9013758 Si02
#       6
#     2   2   2   2   2   2
#     4  10  21  41  65  95 133 168 216 268 321 386
#     4  10  23  41  65  95 130 168 214 270 326 384
#     4  10  22  42  63  91 127 172 216 261 322 386
#     4  10  23  43  61  93 132 169 215 268 322 386
#     4  10  21  42  65  90 128 166 218 267 314 397
#     4  12  22  40  64  97 131 167 214 268 334 387
#
# _framework density 20.071601000000001
#
# number of rings (size 3 to 8) (size 9 to 14) (size 15 to 20)
#    0.000    2.000    3.333    3.000    0.000    6.000 
#    6.000    0.000    0.000    0.000    0.000    0.000 
#    0.000    0.000    0.000    0.000    0.000    0.000 
#
# Total GULP energy -66961.692526 kJ/mol
# GULP energy per Si atom -5580.141044 kJ/mol
# Density = 2.002592 g / cm^3
# Si number density = 20.071601 Si / 1000 Ang^3
#
#
#
# Elastic Constant Matrix: (Units=GPa)
#
#
# Indices 1 2 3 4 5 6 
#
# 1 67.9336 54.9077 48.9918 -14.8406 9.5226 -10.9349
# 2 54.9077 179.2316 45.0622 -12.9084 2.2773 8.2541
# 3 48.9918 45.0622 68.8335 -4.0147 17.2715 -19.6015
# 4 -14.8406 -12.9084 -4.0147 37.4949 -8.9339 -16.9100
# 5 9.5226 2.2773 17.2715 -8.9339 31.3175 -9.7328
# 6 -10.9349 8.2541 -19.6015 -16.9100 -9.7328 45.5176
#
#
#
# Elastic Compliance Matrix: (Units=1/GPa)
#
#
# Indices 1 2 3 4 5 6 
#
# 1 0.040572 -0.005695 -0.023805 0.017826 0.009120 0.009101
# 2 -0.005695 0.008121 -0.002844 -0.001565 0.000877 -0.004459
# 3 -0.023805 -0.002844 0.037959 -0.007123 -0.013797 0.005547
# 4 0.017826 -0.001565 -0.007123 0.047582 0.019447 0.023334
# 5 0.009120 0.000877 -0.013797 0.019447 0.046362 0.013228
# 6 0.009101 -0.004459 0.005547 0.023334 0.013228 0.038850
#
#
# Mechanical properties :
#
#
# Convention : Reuss Voigt Hill
#
# Bulk Modulus (GPa) = 45.53224 68.21355 56.87289
# Shear Modulus (GPa) = 17.15525 34.00180 25.57853
#
# Velocity S-wave (km/s) = 2.92670 4.12032 3.57370
# Velocity P-wave (km/s) = 5.84422 7.52960 6.73980
#
# Compressibility (1/GPa) = 0.02196246
#
# Stress axis : x y z
#
# Youngs Moduli (GPa) = 24.64743 123.14298 26.34418
#
# Poissons Ratio (x) = 0.70134 0.62714
# Poissons Ratio (y) = 0.14037 0.07492
# Poissons Ratio (z) = 0.58674 0.35021
#
# Static dielectric constant tensor:
#      x y z
#    x 1.771800 -0.011480 -0.049200 
#    y -0.011480 1.769450 0.037580 
#    z -0.049200 0.037580 1.723780 
# 
# From -- ./inp_files/512851.got.cif
#   From: 2010.05.17/outbox.cif.g08.bks.cpg/sg2_257_cif.got.tgz:512851.got - 2010.06.03 11:33:40.
