data_PCOD9013492
_publ_section_title
;
Structure prediction by ZEFSAII (Michael W. Deem and Ramdas Pophale) SiO2 
 PCOD9013492
Probable space group: P -1
;
_chemical_formula_sum "Si O2"
_cell_formula_units_Z 14
_cell_length_a 11.452316
_cell_length_b 19.201361
_cell_length_c 8.936293
_cell_angle_alpha 36.779707
_cell_angle_beta 62.626831
_cell_angle_gamma 38.339778
_cell_volume 650.494870
_symmetry_space_group_name_H-M "P -1"
_symmetry_group_IT_number 2
_symmetry_cell_setting 'triclinic'
loop_
_space_group_symop_operation_xyz
x,y,z
-x,-y,-z
loop_
_atom_site_type_symbol
_atom_site_label
_atom_site_fract_x
_atom_site_fract_y
_atom_site_fract_z
Si Si1 0.947730 0.550975 0.690355
Si Si2 0.514298 0.476239 0.352722
Si Si3 0.624568 0.179651 0.235501
Si Si4 0.823334 0.458200 0.684287
Si Si5 0.106835 0.039467 0.290481
Si Si6 0.696215 0.777977 0.735427
Si Si7 0.048175 0.919212 0.272554
O O1 0.811259 0.557629 0.656600
O O2 0.814922 0.709622 0.623791
O O3 0.059601 0.560176 0.491781
O O4 0.127921 0.352785 0.014179
O O5 0.500000 0.500000 0.500000
O O6 0.392130 0.447618 0.414076
O O7 0.757422 0.302627 0.462569
O O8 0.404599 0.662361 0.021066
O O9 0.419688 0.266241 0.134540
O O10 0.677884 0.093744 0.515538
O O11 0.836260 0.009691 0.307796
O O12 0.966079 0.251296 0.012165
O O13 0.121190 0.981860 0.214710
O O14 0.000000 0.000000 0.500000
O O15 0.500000 0.000000 0.500000
O O16 0.000000 0.000000 0.000000
#
# Coordination Sequence:
#
# PCOD9013492 Si02
#       7
#     2   2   2   2   2   2   2
#     4  10  26  46  70 101 133 192 230 286 332 413
#     4  12  23  40  69 102 136 177 216 284 350 407
#     4  11  24  43  66 101 134 175 225 278 350 403
#     4  11  22  47  71  99 146 175 237 283 342 408
#     4  10  21  41  64  98 137 170 217 280 337 402
#     4  11  25  47  70  97 138 182 239 279 347 406
#     4  11  23  39  63  99 133 172 218 276 345 405
#
# _framework density 21.522076999999999
#
# number of rings (size 3 to 8) (size 9 to 14) (size 15 to 20)
#    0.000    1.143    4.286    1.714    2.000    7.429 
#    0.000    2.143    0.000    0.000    0.000    0.000 
#    0.000    0.000    0.000    0.000    0.000    0.000 
#
# Total GULP energy -78223.763147 kJ/mol
# GULP energy per Si atom -5587.411653 kJ/mol
# Density = 2.147309 g / cm^3
# Si number density = 21.522077 Si / 1000 Ang^3
#
#
#
# Elastic Constant Matrix: (Units=GPa)
#
#
# Indices 1 2 3 4 5 6 
#
# 1 94.3697 29.0414 5.6974 13.5926 20.9593 6.2850
# 2 29.0414 100.0571 44.2165 -7.0844 14.9726 4.1179
# 3 5.6974 44.2165 95.6602 -2.5313 11.4999 5.2388
# 4 13.5926 -7.0844 -2.5313 35.2015 2.7099 11.0841
# 5 20.9593 14.9726 11.4999 2.7099 37.2043 2.5827
# 6 6.2850 4.1179 5.2388 11.0841 2.5827 31.0102
#
#
#
# Elastic Compliance Matrix: (Units=1/GPa)
#
#
# Indices 1 2 3 4 5 6 
#
# 1 0.014034 -0.004311 0.001766 -0.005669 -0.006303 -0.000019
# 2 -0.004311 0.014602 -0.006059 0.004815 -0.001814 -0.001612
# 3 0.001766 -0.006059 0.013541 -0.000242 -0.002618 -0.001536
# 4 -0.005669 0.004815 -0.000242 0.035377 -0.000409 -0.012061
# 5 -0.006303 -0.001814 -0.002618 -0.000409 0.032037 -0.000562
# 6 -0.000019 -0.001612 -0.001536 -0.012061 -0.000562 0.037083
#
#
# Mechanical properties :
#
#
# Convention : Reuss Voigt Hill
#
# Bulk Modulus (GPa) = 40.04986 49.77751 44.91368
# Shear Modulus (GPa) = 29.03498 34.75865 31.89682
#
# Velocity S-wave (km/s) = 3.67697 4.02309 3.85392
# Velocity P-wave (km/s) = 6.05606 6.69023 6.38103
#
# Compressibility (1/GPa) = 0.02496888
#
# Stress axis : x y z
#
# Youngs Moduli (GPa) = 71.25387 68.48541 73.84733
#
# Poissons Ratio (x) = 0.29524 -0.13038
# Poissons Ratio (y) = 0.30718 0.44742
# Poissons Ratio (z) = -0.12580 0.41494
#
# Static dielectric constant tensor:
#      x y z
#    x 1.826880 0.008820 0.025730 
#    y 0.008820 1.815280 -0.046340 
#    z 0.025730 -0.046340 1.871000 
# 
# From -- ./inp_files/278780.got.cif
#   From: 2010.05.17/outbox.cif.g08.bks.cpg/sg2_140_cif.got.tgz:278780.got - 2010.06.03 11:33:40.
