data_PCOD9013117
_publ_section_title
;
Structure prediction by ZEFSAII (Michael W. Deem and Ramdas Pophale) SiO2 
 PCOD9013117
Probable space group: P -1
;
_chemical_formula_sum "Si O2"
_cell_formula_units_Z 16
_cell_length_a 7.338692
_cell_length_b 23.471345
_cell_length_c 5.242267
_cell_angle_alpha 83.566288
_cell_angle_beta 87.972235
_cell_angle_gamma 120.042060
_cell_volume 772.339916
_symmetry_space_group_name_H-M "P -1"
_symmetry_group_IT_number 2
_symmetry_cell_setting 'triclinic'
loop_
_space_group_symop_operation_xyz
x,y,z
-x,-y,-z
loop_
_atom_site_type_symbol
_atom_site_label
_atom_site_fract_x
_atom_site_fract_y
_atom_site_fract_z
Si Si1 0.600380 0.057206 0.758212
Si Si2 0.423718 0.685854 0.925679
Si Si3 0.656020 0.679885 0.416429
Si Si4 0.968391 0.561826 0.904166
Si Si5 0.747648 0.965411 0.548002
Si Si6 0.059325 0.167747 0.691412
Si Si7 0.293587 0.159765 0.174759
Si Si8 0.265180 0.439872 0.587160
O O1 0.408991 0.065998 0.667439
O O2 0.809075 0.126470 0.770014
O O3 0.699770 0.023944 0.585245
O O4 0.500000 0.000000 0.000000
O O5 0.494006 0.671158 0.202135
O O6 0.729868 0.627174 0.416650
O O7 0.551535 0.675076 0.697771
O O8 0.503885 0.765030 0.873837
O O9 0.852096 0.754109 0.340867
O O10 0.180558 0.632623 0.908969
O O11 0.887664 0.557138 0.621634
O O12 0.801440 0.556854 0.123713
O O13 0.000000 0.500000 0.000000
O O14 0.668987 0.901993 0.767312
O O15 0.000000 0.000000 0.500000
O O16 0.147856 0.155568 0.426994
O O17 0.166534 0.150686 0.926610
O O18 0.500000 0.500000 0.500000
#
# Coordination Sequence:
#
# PCOD9013117 Si02
#       8
#     2   2   2   2   2   2   2   2
#     4  11  25  39  61  94 121 166 210 267 312 379
#     4  10  21  41  63  91 123 159 207 246 313 363
#     4  10  21  41  64  89 123 164 198 254 304 375
#     4  12  24  40  63  92 126 162 206 261 297 367
#     4  11  23  41  63  88 126 163 213 260 319 377
#     4  10  22  41  64  89 125 161 208 250 317 374
#     4  10  22  40  66  89 120 170 200 255 313 382
#     4  12  24  40  63  92 124 166 207 250 313 360
#
# _framework density 20.716266000000001
#
# number of rings (size 3 to 8) (size 9 to 14) (size 15 to 20)
#    0.000    1.250    1.250    4.500    3.500    2.000 
#    2.250    0.000    0.000    0.000    0.000    0.000 
#    0.000    0.000    0.000    0.000    0.000    0.000 
#
# Total GULP energy -89338.520578 kJ/mol
# GULP energy per Si atom -5583.657536 kJ/mol
# Density = 2.066911 g / cm^3
# Si number density = 20.716266 Si / 1000 Ang^3
#
#
#
# Elastic Constant Matrix: (Units=GPa)
#
#
# Indices 1 2 3 4 5 6 
#
# 1 65.8449 36.8737 6.5367 -12.1136 7.8000 16.5197
# 2 36.8737 67.8938 6.0643 -15.0626 10.9427 19.2773
# 3 6.5367 6.0643 68.6019 -1.2241 7.7406 4.8180
# 4 -12.1136 -15.0626 -1.2241 32.2907 -7.6120 -1.7904
# 5 7.8000 10.9427 7.7406 -7.6120 32.5630 -6.3322
# 6 16.5197 19.2773 4.8180 -1.7904 -6.3322 51.4273
#
#
#
# Elastic Compliance Matrix: (Units=1/GPa)
#
#
# Indices 1 2 3 4 5 6 
#
# 1 0.022669 -0.010301 -0.000755 0.003068 -0.001744 -0.003458
# 2 -0.010301 0.024290 0.000006 0.005808 -0.005560 -0.006279
# 3 -0.000755 0.000006 0.015198 -0.000725 -0.003933 -0.001693
# 4 0.003068 0.005808 -0.000725 0.036082 0.005699 -0.001137
# 5 -0.001744 -0.005560 -0.003933 0.005699 0.036768 0.007739
# 6 -0.003458 -0.006279 -0.001693 -0.001137 0.007739 0.023981
#
#
# Mechanical properties :
#
#
# Convention : Reuss Voigt Hill
#
# Bulk Modulus (GPa) = 24.96360 33.47669 29.22014
# Shear Modulus (GPa) = 25.71480 33.44728 29.58104
#
# Velocity S-wave (km/s) = 3.52701 4.02250 3.78287
# Velocity P-wave (km/s) = 5.35377 6.14562 5.76331
#
# Compressibility (1/GPa) = 0.04005832
#
# Stress axis : x y z
#
# Youngs Moduli (GPa) = 44.11254 41.16863 65.79828
#
# Poissons Ratio (x) = 0.42407 0.04968
# Poissons Ratio (y) = 0.45440 -0.00041
# Poissons Ratio (z) = 0.03331 -0.00026
#
# Static dielectric constant tensor:
#      x y z
#    x 1.746450 -0.003130 -0.021160 
#    y -0.003130 1.820830 0.047460 
#    z -0.021160 0.047460 1.792010 
# 
# From -- ./inp_files/14401.got.cif
#   From: 2010.05.17/outbox.cif.g08.bks.cpg/sg2_8_cif.got.tgz:14401.got - 2010.06.03 11:33:40.
