data_PCOD9013261
_publ_section_title
;
Structure prediction by ZEFSAII (Michael W. Deem and Ramdas Pophale) SiO2 
 PCOD9013261
Probable space group: P -1
;
_chemical_formula_sum "Si O2"
_cell_formula_units_Z 13
_cell_length_a 10.756790
_cell_length_b 14.179631
_cell_length_c 7.059371
_cell_angle_alpha 105.039500
_cell_angle_beta 62.841691
_cell_angle_gamma 148.501839
_cell_volume 480.665198
_symmetry_space_group_name_H-M "P -1"
_symmetry_group_IT_number 2
_symmetry_cell_setting 'triclinic'
loop_
_space_group_symop_operation_xyz
x,y,z
-x,-y,-z
loop_
_atom_site_type_symbol
_atom_site_label
_atom_site_fract_x
_atom_site_fract_y
_atom_site_fract_z
Si Si1 0.023738 0.226746 0.594805
Si Si2 0.000000 0.000000 0.500000
Si Si3 0.013971 0.760197 0.922407
Si Si4 0.336278 0.628493 0.945423
Si Si5 0.589060 0.113178 0.809790
Si Si6 0.258162 0.211008 0.000145
Si Si7 0.469028 0.632733 0.466761
O O1 0.995339 0.219733 0.837107
O O2 0.845643 0.206282 0.609889
O O3 0.325046 0.441865 0.455362
O O4 0.906201 0.054141 0.520433
O O5 0.771734 0.809907 0.425497
O O6 0.882006 0.574375 0.917966
O O7 0.822800 0.724205 0.930037
O O8 0.332216 0.961353 0.770041
O O9 0.316775 0.605670 0.718822
O O10 0.334110 0.734493 0.085816
O O11 0.641216 0.768089 0.855217
O O12 0.500000 0.000000 0.000000
O O13 0.493642 0.316539 0.750127
O O14 0.000000 0.000000 0.000000
#
# Coordination Sequence:
#
# PCOD9013261 Si02
#       7
#     2   1   2   2   2   2   2
#     4  10  23  39  68 101 135 178 230 278 335 415
#     4  12  20  38  66 100 132 172 218 284 340 382
#     4  10  21  41  64 101 133 178 228 277 334 410
#     4  11  24  41  71  99 135 184 219 282 347 394
#     4  10  21  42  65 100 136 177 231 273 336 415
#     4  12  23  43  67 103 141 176 227 291 334 399
#     4  11  24  42  67 104 132 173 231 278 337 406
#
# _framework density 27.045852
#
# number of rings (size 3 to 8) (size 9 to 14) (size 15 to 20)
#    0.000    1.231    3.077    3.692    2.154    6.769 
#    2.769    0.769    0.000    4.615    0.000    0.000 
#    0.000    0.000    0.000    0.000    0.000    0.000 
#
# Total GULP energy -72598.260639 kJ/mol
# GULP energy per Si atom -5584.481588 kJ/mol
# Density = 2.698429 g / cm^3
# Si number density = 27.045852 Si / 1000 Ang^3
#
#
#
# Elastic Constant Matrix: (Units=GPa)
#
#
# Indices 1 2 3 4 5 6 
#
# 1 135.7721 69.3686 47.0705 23.0849 -23.2886 -17.0918
# 2 69.3686 226.9643 44.7257 21.6081 -29.7675 -35.5201
# 3 47.0705 44.7257 74.2576 16.3851 9.2071 -4.8614
# 4 23.0849 21.6081 16.3851 34.8976 -1.4649 -6.0243
# 5 -23.2886 -29.7675 9.2071 -1.4649 45.9042 10.3895
# 6 -17.0918 -35.5201 -4.8614 -6.0243 10.3895 67.2522
#
#
#
# Elastic Compliance Matrix: (Units=1/GPa)
#
#
# Indices 1 2 3 4 5 6 
#
# 1 0.012202 -0.000987 -0.007103 -0.003724 0.006698 0.000698
# 2 -0.000987 0.006274 -0.003204 -0.001201 0.003684 0.002154
# 3 -0.007103 -0.003204 0.022028 -0.004208 -0.010069 -0.000726
# 4 -0.003724 -0.001201 -0.004208 0.034023 -0.001037 0.001323
# 5 0.006698 0.003684 -0.010069 -0.001037 0.029966 -0.001802
# 6 0.000698 0.002154 -0.000726 0.001323 -0.001802 0.016529
#
#
# Mechanical properties :
#
#
# Convention : Reuss Voigt Hill
#
# Bulk Modulus (GPa) = 55.81668 84.36928 70.09298
# Shear Modulus (GPa) = 33.42640 47.99940 40.71290
#
# Velocity S-wave (km/s) = 3.51937 4.21734 3.88407
# Velocity P-wave (km/s) = 6.09896 7.41466 6.78876
#
# Compressibility (1/GPa) = 0.01791579
#
# Stress axis : x y z
#
# Youngs Moduli (GPa) = 81.95176 159.39510 45.39630
#
# Poissons Ratio (x) = 0.15740 0.32246
# Poissons Ratio (y) = 0.08093 0.14543
# Poissons Ratio (z) = 0.58212 0.51063
#
# Static dielectric constant tensor:
#      x y z
#    x 2.223280 -0.016630 0.059680 
#    y -0.016630 1.963880 -0.000590 
#    z 0.059680 -0.000590 2.036060 
# 
# From -- ./inp_files/268292.got.cif
#   From: 2010.05.17/outbox.cif.g08.bks.cpg/sg2_135_cif.got.tgz:268292.got - 2010.06.03 11:33:40.
