data_PCOD9013345
_publ_section_title
;
Structure prediction by ZEFSAII (Michael W. Deem and Ramdas Pophale) SiO2 
 PCOD9013345
Probable space group: P -1
;
_chemical_formula_sum "Si O2"
_cell_formula_units_Z 16
_cell_length_a 14.768165
_cell_length_b 11.841792
_cell_length_c 9.191769
_cell_angle_alpha 38.437497
_cell_angle_beta 104.985612
_cell_angle_gamma 122.631877
_cell_volume 799.311446
_symmetry_space_group_name_H-M "P -1"
_symmetry_group_IT_number 2
_symmetry_cell_setting 'triclinic'
loop_
_space_group_symop_operation_xyz
x,y,z
-x,-y,-z
loop_
_atom_site_type_symbol
_atom_site_label
_atom_site_fract_x
_atom_site_fract_y
_atom_site_fract_z
Si Si1 0.816982 0.585072 0.071986
Si Si2 0.504122 0.956247 0.215654
Si Si3 0.840390 0.910636 0.950170
Si Si4 0.697955 0.121286 0.337925
Si Si5 0.379448 0.112240 0.180732
Si Si6 0.957245 0.020533 0.191945
Si Si7 0.526304 0.561326 0.617925
Si Si8 0.219912 0.160754 0.450770
O O1 0.791188 0.656389 0.143808
O O2 0.758133 0.339774 0.239820
O O3 0.785668 0.709282 0.818194
O O4 0.953867 0.721378 0.996698
O O5 0.625505 0.129454 0.168426
O O6 0.410070 0.969001 0.246042
O O7 0.490298 0.728094 0.461716
O O8 0.500000 0.000000 0.000000
O O9 0.877178 0.968661 0.073249
O O10 0.747880 0.957536 0.825022
O O11 0.954728 0.038152 0.770285
O O12 0.610064 0.923562 0.609317
O O13 0.779517 0.050180 0.385466
O O14 0.460927 0.355190 0.905782
O O15 0.882046 0.903043 0.419034
O O16 0.500000 0.500000 0.500000
O O17 0.659851 0.686458 0.574078
#
# Coordination Sequence:
#
# PCOD9013345 Si02
#       8
#     2   2   2   2   2   2   2   2
#     4  10  21  41  64  91 132 165 219 263 323 387
#     4  11  25  41  61  94 135 171 219 265 314 392
#     4   9  21  41  67  94 125 168 219 260 335 375
#     4  11  25  41  61 100 133 173 219 262 327 392
#     4  12  23  43  67  92 137 170 215 272 321 391
#     4   9  20  41  70  92 127 168 218 275 316 389
#     4  11  24  41  67  96 129 174 215 263 332 382
#     4  11  22  41  67  93 130 171 218 265 325 388
#
# _framework density 20.017227999999999
#
# number of rings (size 3 to 8) (size 9 to 14) (size 15 to 20)
#    0.750    0.750    2.500    2.250    3.500    2.500 
#    0.000    0.625    0.000    0.000    0.000    0.000 
#    0.000    0.000    0.000    0.000    0.000    0.000 
#
# Total GULP energy -89225.788120 kJ/mol
# GULP energy per Si atom -5576.611758 kJ/mol
# Density = 1.997167 g / cm^3
# Si number density = 20.017228 Si / 1000 Ang^3
#
#
#
# Elastic Constant Matrix: (Units=GPa)
#
#
# Indices 1 2 3 4 5 6 
#
# 1 80.8656 19.0482 14.7460 -7.8691 -0.3227 -13.0428
# 2 19.0482 131.3881 40.0386 -5.0034 15.6337 6.8546
# 3 14.7460 40.0386 69.6755 -4.0901 1.5026 1.2689
# 4 -7.8691 -5.0034 -4.0901 18.6971 -4.8382 1.5413
# 5 -0.3227 15.6337 1.5026 -4.8382 22.8623 1.6656
# 6 -13.0428 6.8546 1.2689 1.5413 1.6656 23.6637
#
#
#
# Elastic Compliance Matrix: (Units=1/GPa)
#
#
# Indices 1 2 3 4 5 6 
#
# 1 0.015110 -0.002141 -0.001864 0.005268 0.002292 0.008544
# 2 -0.002141 0.010535 -0.005436 -0.000745 -0.006786 -0.003414
# 3 -0.001864 -0.005436 0.017968 0.002563 0.003111 -0.000802
# 4 0.005268 -0.000745 0.002563 0.059620 0.013166 -0.001828
# 5 0.002292 -0.006786 0.003111 0.013166 0.051096 -0.001392
# 6 0.008544 -0.003414 -0.000802 -0.001828 -0.001392 0.048217
#
#
# Mechanical properties :
#
#
# Convention : Reuss Voigt Hill
#
# Bulk Modulus (GPa) = 40.43179 47.73273 44.08226
# Shear Modulus (GPa) = 21.77023 26.91772 24.34398
#
# Velocity S-wave (km/s) = 3.30142 3.67103 3.49112
# Velocity P-wave (km/s) = 5.89702 6.47041 6.19036
#
# Compressibility (1/GPa) = 0.02473302
#
# Stress axis : x y z
#
# Youngs Moduli (GPa) = 66.18124 94.92050 55.65309
#
# Poissons Ratio (x) = 0.20318 0.10372
# Poissons Ratio (y) = 0.14166 0.30254
# Poissons Ratio (z) = 0.12334 0.51600
#
# Static dielectric constant tensor:
#      x y z
#    x 1.713050 0.000980 -0.014210 
#    y 0.000980 1.758780 -0.003700 
#    z -0.014210 -0.003700 1.716410 
# 
# From -- ./inp_files/304570.got.cif
#   From: 2010.05.17/outbox.cif.g08.bks.cpg/sg2_153_cif.got.tgz:304570.got - 2010.06.03 11:33:40.
