data_PCOD9013124
_publ_section_title
;
Structure prediction by ZEFSAII (Michael W. Deem and Ramdas Pophale) SiO2 
 PCOD9013124
Probable space group: P -1
;
_chemical_formula_sum "Si O2"
_cell_formula_units_Z 14
_cell_length_a 5.972104
_cell_length_b 6.583601
_cell_length_c 21.253363
_cell_angle_alpha 48.922035
_cell_angle_beta 94.434043
_cell_angle_gamma 72.698268
_cell_volume 556.560699
_symmetry_space_group_name_H-M "P -1"
_symmetry_group_IT_number 2
_symmetry_cell_setting 'triclinic'
loop_
_space_group_symop_operation_xyz
x,y,z
-x,-y,-z
loop_
_atom_site_type_symbol
_atom_site_label
_atom_site_fract_x
_atom_site_fract_y
_atom_site_fract_z
Si Si1 0.605061 0.830888 0.941458
Si Si2 0.867344 0.418953 0.684371
Si Si3 0.900676 0.772094 0.071392
Si Si4 0.681539 0.051469 0.542762
Si Si5 0.496222 0.693551 0.377829
Si Si6 0.633828 0.436152 0.798457
Si Si7 0.615334 0.118388 0.200356
O O1 0.343478 0.014526 0.936293
O O2 0.673728 0.096093 0.868786
O O3 0.554664 0.710366 0.899061
O O4 0.812701 0.636299 0.038085
O O5 0.758659 0.334302 0.637751
O O6 0.642761 0.515184 0.710867
O O7 0.110379 0.114898 0.771956
O O8 0.912632 0.712923 0.622003
O O9 0.129321 0.545730 0.165898
O O10 0.000000 0.000000 0.000000
O O11 0.709659 0.343467 0.461553
O O12 0.547233 0.149018 0.587738
O O13 0.500000 0.000000 0.500000
O O14 0.539249 0.893564 0.284690
O O15 0.399597 0.641488 0.796215
#
# Coordination Sequence:
#
# PCOD9013124 Si02
#       7
#     2   2   2   2   2   2   2
#     4  10  21  41  63  91 125 165 206 255 309 364
#     4  11  22  39  61  92 128 160 204 262 302 362
#     4   9  20  41  66  87 127 165 203 257 307 361
#     4   9  20  41  66  87 127 165 203 257 307 361
#     4  10  21  41  63  91 125 165 206 255 309 364
#     4  11  22  39  61  92 128 160 204 262 302 362
#     4  12  24  36  66  96 120 168 214 242 316 370
#
# _framework density 25.154485999999999
#
# number of rings (size 3 to 8) (size 9 to 14) (size 15 to 20)
#    0.000    1.714    4.286    0.000    0.000    3.429 
#    0.000   12.857    0.000    0.000    0.000    0.000 
#    0.000    0.000    0.000    0.000    0.000    0.000 
#
# Total GULP energy -78207.524280 kJ/mol
# GULP energy per Si atom -5586.251734 kJ/mol
# Density = 2.509723 g / cm^3
# Si number density = 25.154486 Si / 1000 Ang^3
#
#
#
# Elastic Constant Matrix: (Units=GPa)
#
#
# Indices 1 2 3 4 5 6 
#
# 1 39.3513 10.2930 10.5391 10.8466 -12.9079 -6.2564
# 2 10.2930 128.6883 31.4156 22.2629 4.4199 3.5202
# 3 10.5391 31.4156 72.3845 23.5758 -1.6575 0.0526
# 4 10.8466 22.2629 23.5758 54.0238 -5.4190 -2.7134
# 5 -12.9079 4.4199 -1.6575 -5.4190 29.8619 3.2950
# 6 -6.2564 3.5202 0.0526 -2.7134 3.2950 24.0078
#
#
#
# Elastic Compliance Matrix: (Units=1/GPa)
#
#
# Indices 1 2 3 4 5 6 
#
# 1 0.032838 -0.002116 -0.002614 -0.002929 0.013087 0.006746
# 2 -0.002116 0.009228 -0.002960 -0.002446 -0.002689 -0.001805
# 3 -0.002614 -0.002960 0.017408 -0.005967 -0.000713 -0.000862
# 4 -0.002929 -0.002446 -0.005967 0.023079 0.002750 0.001840
# 5 0.013087 -0.002689 -0.000713 0.002750 0.040156 -0.001394
# 6 0.006746 -0.001805 -0.000862 0.001840 -0.001394 0.044077
#
#
# Mechanical properties :
#
#
# Convention : Reuss Voigt Hill
#
# Bulk Modulus (GPa) = 22.67903 38.32438 30.50171
# Shear Modulus (GPa) = 25.39828 34.12378 29.76103
#
# Velocity S-wave (km/s) = 3.18101 3.68716 3.44340
# Velocity P-wave (km/s) = 4.74629 5.77889 5.28785
#
# Compressibility (1/GPa) = 0.04409360
#
# Stress axis : x y z
#
# Youngs Moduli (GPa) = 30.45238 108.37080 57.44395
#
# Poissons Ratio (x) = 0.22928 0.15017
# Poissons Ratio (y) = 0.06443 0.17005
# Poissons Ratio (z) = 0.07961 0.32081
#
# Static dielectric constant tensor:
#      x y z
#    x 1.999060 0.009280 0.038770 
#    y 0.009280 1.993330 -0.024650 
#    z 0.038770 -0.024650 2.068320 
# 
# From -- ./inp_files/7834.got.cif
#   From: 2010.05.17/outbox.cif.g08.bks.cpg/sg2_4_cif.got.tgz:7834.got - 2010.06.03 11:33:40.
