data_PCOD9013172
_publ_section_title
;
Structure prediction by ZEFSAII (Michael W. Deem and Ramdas Pophale) SiO2 
 PCOD9013172
Probable space group: P -1
;
_chemical_formula_sum "Si O2"
_cell_formula_units_Z 12
_cell_length_a 9.113651
_cell_length_b 9.789480
_cell_length_c 8.459242
_cell_angle_alpha 119.551451
_cell_angle_beta 130.052791
_cell_angle_gamma 70.712072
_cell_volume 502.452733
_symmetry_space_group_name_H-M "P -1"
_symmetry_group_IT_number 2
_symmetry_cell_setting 'triclinic'
loop_
_space_group_symop_operation_xyz
x,y,z
-x,-y,-z
loop_
_atom_site_type_symbol
_atom_site_label
_atom_site_fract_x
_atom_site_fract_y
_atom_site_fract_z
Si Si1 0.005927 0.639268 0.954959
Si Si2 0.117737 0.134491 0.569872
Si Si3 0.808254 0.520752 0.273346
Si Si4 0.403080 0.402379 0.516796
Si Si5 0.096357 0.018701 0.910310
Si Si6 0.493031 0.945226 0.644173
O O1 0.177450 0.610657 0.930618
O O2 0.809907 0.631186 0.714194
O O3 0.000000 0.500000 0.000000
O O4 0.988569 0.813396 0.117259
O O5 0.169044 0.317222 0.719257
O O6 0.320398 0.045111 0.651950
O O7 0.000000 0.000000 0.500000
O O8 0.983105 0.130713 0.319621
O O9 0.637272 0.533697 0.294653
O O10 0.000000 0.500000 0.500000
O O11 0.500000 0.500000 0.500000
O O12 0.523556 0.240550 0.497253
O O13 0.321272 0.026614 0.102071
O O14 0.000000 0.000000 0.000000
O O15 0.500000 0.000000 0.500000
#
# Coordination Sequence:
#
# PCOD9013172 Si02
#       6
#     2   2   2   2   2   2
#     4  10  22  40  64  91 129 163 216 267 320 395
#     4  12  25  41  71  94 130 177 215 272 338 378
#     4  10  21  41  63  94 127 166 218 263 321 398
#     4  10  22  38  64  91 124 172 210 264 330 380
#     4  11  22  41  68  96 124 174 217 264 329 389
#     4  11  22  42  65  96 131 168 224 270 321 397
#
# _framework density 23.882843000000001
#
# number of rings (size 3 to 8) (size 9 to 14) (size 15 to 20)
#    0.000    1.333    3.333    3.000    7.000    0.667 
#    0.000    0.833    0.000    0.000    0.000    0.000 
#    0.000    0.000    0.000    0.000    0.000    0.000 
#
# Total GULP energy -66860.069167 kJ/mol
# GULP energy per Si atom -5571.672431 kJ/mol
# Density = 2.382848 g / cm^3
# Si number density = 23.882843 Si / 1000 Ang^3
#
#
#
# Elastic Constant Matrix: (Units=GPa)
#
#
# Indices 1 2 3 4 5 6 
#
# 1 91.2765 39.0620 3.4103 3.8317 15.2668 -6.4337
# 2 39.0620 172.6079 3.3974 -11.1687 6.4061 2.8490
# 3 3.4103 3.3974 56.0251 10.9236 1.9132 -22.4332
# 4 3.8317 -11.1687 10.9236 32.7677 -5.1969 -2.2788
# 5 15.2668 6.4061 1.9132 -5.1969 27.7227 -11.9665
# 6 -6.4337 2.8490 -22.4332 -2.2788 -11.9665 46.6751
#
#
#
# Elastic Compliance Matrix: (Units=1/GPa)
#
#
# Indices 1 2 3 4 5 6 
#
# 1 0.013702 -0.003091 0.000457 -0.003992 -0.007538 0.000170
# 2 -0.003091 0.006727 -0.001327 0.003052 0.000269 -0.001257
# 3 0.000457 -0.001327 0.024017 -0.007345 0.002148 0.011879
# 4 -0.003992 0.003052 -0.007345 0.035811 0.008575 -0.000320
# 5 -0.007538 0.000269 0.002148 0.008575 0.046991 0.012443
# 6 0.000170 -0.001257 0.011879 -0.000320 0.012443 0.030409
#
#
# Mechanical properties :
#
#
# Convention : Reuss Voigt Hill
#
# Bulk Modulus (GPa) = 27.37940 45.73876 36.55908
# Shear Modulus (GPa) = 28.12866 39.70244 33.91555
#
# Velocity S-wave (km/s) = 3.43560 4.08166 3.77248
# Velocity P-wave (km/s) = 5.21792 6.43476 5.85802
#
# Compressibility (1/GPa) = 0.03652381
#
# Stress axis : x y z
#
# Youngs Moduli (GPa) = 72.98314 148.64618 41.63665
#
# Poissons Ratio (x) = 0.45948 -0.01903
# Poissons Ratio (y) = 0.22560 0.05526
# Poissons Ratio (z) = -0.03335 0.19729
#
# Static dielectric constant tensor:
#      x y z
#    x 1.961310 -0.040740 -0.029660 
#    y -0.040740 1.724640 0.157800 
#    z -0.029660 0.157800 1.825610 
# 
# From -- ./inp_files/154532.got.cif
#   From: 2010.05.17/outbox.cif.g08.bks.cpg/sg2_78_cif.got.tgz:154532.got - 2010.06.03 11:33:40.
