data_PCOD9013563
_publ_section_title
;
Structure prediction by ZEFSAII (Michael W. Deem and Ramdas Pophale) SiO2 
 PCOD9013563
Probable space group: P -1
;
_chemical_formula_sum "Si O2"
_cell_formula_units_Z 12
_cell_length_a 9.204310
_cell_length_b 14.030094
_cell_length_c 13.959113
_cell_angle_alpha 159.078283
_cell_angle_beta 87.930948
_cell_angle_gamma 103.034564
_cell_volume 542.458998
_symmetry_space_group_name_H-M "P -1"
_symmetry_group_IT_number 2
_symmetry_cell_setting 'triclinic'
loop_
_space_group_symop_operation_xyz
x,y,z
-x,-y,-z
loop_
_atom_site_type_symbol
_atom_site_label
_atom_site_fract_x
_atom_site_fract_y
_atom_site_fract_z
Si Si1 0.694823 0.111805 0.607352
Si Si2 0.889656 0.659503 0.428328
Si Si3 0.180813 0.263829 0.289371
Si Si4 0.123429 0.165610 0.746130
Si Si5 0.284246 0.981831 0.258392
Si Si6 0.493853 0.170175 0.256650
O O1 0.724824 0.098523 0.706526
O O2 0.500000 0.000000 0.500000
O O3 0.719771 0.868984 0.318618
O O4 0.820394 0.473154 0.909244
O O5 0.880466 0.635817 0.520789
O O6 0.734568 0.716476 0.462088
O O7 0.868389 0.343252 0.090876
O O8 0.041073 0.962346 0.653340
O O9 0.326986 0.195916 0.260563
O O10 0.308238 0.536654 0.468763
O O11 0.000000 0.000000 0.000000
O O12 0.000000 0.000000 0.500000
O O13 0.443172 0.038136 0.241704
O O14 0.500000 0.000000 0.000000
#
# Coordination Sequence:
#
# PCOD9013563 Si02
#       6
#     2   2   2   2   2   2
#     4  12  25  41  61  98 131 163 206 270 316 370
#     4  11  22  39  67  93 120 171 212 258 316 379
#     4  10  23  42  63  96 128 162 219 270 314 382
#     4  12  22  41  67  89 124 168 216 251 310 385
#     4  11  21  40  65  90 127 169 210 252 324 385
#     4  10  21  41  65  88 126 173 207 260 330 376
#
# _framework density 22.121489
#
# number of rings (size 3 to 8) (size 9 to 14) (size 15 to 20)
#    0.000    1.000    5.000    2.000    0.000    2.000 
#    3.000    0.000    0.000    0.000    0.000    0.000 
#    0.000    0.000    0.000    0.000    0.000    0.000 
#
# Total GULP energy -66824.321835 kJ/mol
# GULP energy per Si atom -5568.693486 kJ/mol
# Density = 2.207114 g / cm^3
# Si number density = 22.121489 Si / 1000 Ang^3
#
#
#
# Elastic Constant Matrix: (Units=GPa)
#
#
# Indices 1 2 3 4 5 6 
#
# 1 69.9740 9.7852 9.8381 -6.9387 10.9017 26.7044
# 2 9.7852 133.1380 17.8573 16.9533 4.3973 48.1257
# 3 9.8381 17.8573 65.5524 11.1254 11.8466 4.2269
# 4 -6.9387 16.9533 11.1254 39.5081 12.1160 -0.6161
# 5 10.9017 4.3973 11.8466 12.1160 37.7745 -0.3299
# 6 26.7044 48.1257 4.2269 -0.6161 -0.3299 28.4168
#
#
#
# Elastic Compliance Matrix: (Units=1/GPa)
#
#
# Indices 1 2 3 4 5 6 
#
# 1 0.074463 0.056876 -0.010961 -0.003113 -0.025116 -0.165028
# 2 0.056876 0.066767 -0.010612 -0.012658 -0.018243 -0.165431
# 3 -0.010961 -0.010612 0.018596 -0.002040 -0.000557 0.025455
# 4 -0.003113 -0.012658 -0.002040 0.033466 -0.007501 0.025305
# 5 -0.025116 -0.018243 -0.000557 -0.007501 0.038905 0.054871
# 6 -0.165028 -0.165431 0.025455 0.025305 0.054871 0.467842
#
#
# Mechanical properties :
#
#
# Convention : Reuss Voigt Hill
#
# Bulk Modulus (GPa) = 4.33963 38.18063 21.26013
# Shear Modulus (GPa) = 7.07972 36.55214 21.81593
#
# Velocity S-wave (km/s) = 1.79090 4.06930 3.14377
# Velocity P-wave (km/s) = 2.49848 6.27503 4.77590
#
# Compressibility (1/GPa) = 0.23043432
#
# Stress axis : x y z
#
# Youngs Moduli (GPa) = 13.42946 14.97739 53.77419
#
# Poissons Ratio (x) = -0.85186 0.58941
# Poissons Ratio (y) = -0.76382 0.57064
# Poissons Ratio (z) = 0.14720 0.15894
#
# Static dielectric constant tensor:
#      x y z
#    x 1.869580 0.004390 -0.040190 
#    y 0.004390 1.834920 0.052030 
#    z -0.040190 0.052030 1.851620 
# 
# From -- ./inp_files/29838.got.cif
#   From: 2010.05.17/outbox.cif.g08.bks.cpg/sg2_15_cif.got.tgz:29838.got - 2010.06.03 11:33:40.
