data_PCOD9013474
_publ_section_title
;
Structure prediction by ZEFSAII (Michael W. Deem and Ramdas Pophale) SiO2 
 PCOD9013474
Probable space group: P -1
;
_chemical_formula_sum "Si O2"
_cell_formula_units_Z 14
_cell_length_a 10.467853
_cell_length_b 8.463790
_cell_length_c 16.741647
_cell_angle_alpha 88.098593
_cell_angle_beta 49.494348
_cell_angle_gamma 127.939008
_cell_volume 616.071107
_symmetry_space_group_name_H-M "P -1"
_symmetry_group_IT_number 2
_symmetry_cell_setting 'triclinic'
loop_
_space_group_symop_operation_xyz
x,y,z
-x,-y,-z
loop_
_atom_site_type_symbol
_atom_site_label
_atom_site_fract_x
_atom_site_fract_y
_atom_site_fract_z
Si Si1 0.223163 0.748284 0.181443
Si Si2 0.484390 0.436933 0.703681
Si Si3 0.387295 0.012536 0.827690
Si Si4 0.902769 0.925405 0.847708
Si Si5 0.326958 0.620056 0.851217
Si Si6 0.270268 0.547111 0.057705
Si Si7 0.829121 0.731357 0.402373
O O1 0.053925 0.485023 0.200284
O O2 0.998874 0.712959 0.296472
O O3 0.373565 0.802529 0.199684
O O4 0.500000 0.000000 0.000000
O O5 0.505678 0.604450 0.750791
O O6 0.764665 0.662352 0.522829
O O7 0.444791 0.229299 0.759989
O O8 0.169550 0.219580 0.784094
O O9 0.418839 0.863989 0.772609
O O10 0.033231 0.710758 0.005905
O O11 0.891655 0.743664 0.890478
O O12 0.565810 0.734289 0.988647
O O13 0.977748 0.975838 0.721665
O O14 0.369860 0.685080 0.927885
O O15 0.500000 0.500000 0.500000
#
# Coordination Sequence:
#
# PCOD9013474 Si02
#       7
#     2   2   2   2   2   2   2
#     4  12  23  43  69  94 132 170 226 279 315 389
#     4  11  24  43  64  95 141 176 211 269 344 391
#     4  11  24  40  66 101 132 170 224 274 327 390
#     4  10  21  41  64  97 130 171 222 269 321 396
#     4  11  23  39  67 101 131 172 217 280 331 384
#     4  11  22  38  70  99 126 169 232 270 324 383
#     4  10  24  44  66  93 133 180 213 265 340 393
#
# _framework density 22.724648999999999
#
# number of rings (size 3 to 8) (size 9 to 14) (size 15 to 20)
#    0.000    1.143    4.286    1.286    6.000    0.571 
#    2.571    4.286    0.000    0.000    0.000    0.000 
#    0.000    0.000    0.000    0.000    0.000    0.000 
#
# Total GULP energy -77972.604957 kJ/mol
# GULP energy per Si atom -5569.471783 kJ/mol
# Density = 2.267293 g / cm^3
# Si number density = 22.724649 Si / 1000 Ang^3
#
#
#
# Elastic Constant Matrix: (Units=GPa)
#
#
# Indices 1 2 3 4 5 6 
#
# 1 127.7102 45.5972 43.9679 19.1889 4.2361 -11.7705
# 2 45.5972 82.7218 41.9118 28.2700 4.0859 -18.6857
# 3 43.9679 41.9118 92.8032 29.5463 -2.7670 -13.6056
# 4 19.1889 28.2700 29.5463 31.8897 -1.2646 -7.0762
# 5 4.2361 4.0859 -2.7670 -1.2646 30.1365 -11.6591
# 6 -11.7705 -18.6857 -13.6056 -7.0762 -11.6591 46.2243
#
#
#
# Elastic Compliance Matrix: (Units=1/GPa)
#
#
# Indices 1 2 3 4 5 6 
#
# 1 0.010411 -0.004229 -0.003211 0.000349 -0.001275 -0.000272
# 2 -0.004229 0.021323 -0.002994 -0.012671 -0.001415 0.004365
# 3 -0.003211 -0.002994 0.017591 -0.011119 0.002843 0.002165
# 4 0.000349 -0.012671 -0.011119 0.052933 0.003093 0.000577
# 5 -0.001275 -0.001415 0.002843 0.003093 0.037792 0.009946
# 6 -0.000272 0.004365 0.002165 0.000577 0.009946 0.026563
#
#
# Mechanical properties :
#
#
# Convention : Reuss Voigt Hill
#
# Bulk Modulus (GPa) = 35.14280 62.90990 49.02635
# Shear Modulus (GPa) = 25.38476 33.10066 29.24271
#
# Velocity S-wave (km/s) = 3.34587 3.82068 3.59113
# Velocity P-wave (km/s) = 5.51585 6.87074 6.23024
#
# Compressibility (1/GPa) = 0.02845533
#
# Stress axis : x y z
#
# Youngs Moduli (GPa) = 96.05625 46.89717 56.84609
#
# Poissons Ratio (x) = 0.19834 0.18256
# Poissons Ratio (y) = 0.40624 0.17022
# Poissons Ratio (z) = 0.30848 0.14043
#
# Static dielectric constant tensor:
#      x y z
#    x 1.955280 -0.135500 -0.009670 
#    y -0.135500 2.117670 0.020200 
#    z -0.009670 0.020200 1.902770 
# 
# From -- ./inp_files/566757.got.cif
#   From: 2010.05.17/outbox.cif.g08.bks.cpg/sg2_284_cif.got.tgz:566757.got - 2010.06.03 11:33:40.
