data_PCOD9013179
_publ_section_title
;
Structure prediction by ZEFSAII (Michael W. Deem and Ramdas Pophale) SiO2 
 PCOD9013179
Probable space group: P -1
;
_chemical_formula_sum "Si O2"
_cell_formula_units_Z 15
_cell_length_a 5.326500
_cell_length_b 9.815186
_cell_length_c 14.403536
_cell_angle_alpha 124.508070
_cell_angle_beta 125.268217
_cell_angle_gamma 73.976383
_cell_volume 505.172704
_symmetry_space_group_name_H-M "P -1"
_symmetry_group_IT_number 2
_symmetry_cell_setting 'triclinic'
loop_
_space_group_symop_operation_xyz
x,y,z
-x,-y,-z
loop_
_atom_site_type_symbol
_atom_site_label
_atom_site_fract_x
_atom_site_fract_y
_atom_site_fract_z
Si Si1 0.190458 0.866947 0.981307
Si Si2 0.174771 0.813041 0.580080
Si Si3 0.160101 0.666760 0.711803
Si Si4 0.829995 0.088509 0.637474
Si Si5 0.261311 0.573599 0.045477
Si Si6 0.500000 0.500000 0.500000
Si Si7 0.090859 0.166794 0.918971
Si Si8 0.483129 0.364460 0.680286
O O1 0.098785 0.737805 0.827240
O O2 0.091218 0.048625 0.973689
O O3 0.179015 0.743580 0.029183
O O4 0.562654 0.875438 0.052604
O O5 0.833234 0.732341 0.453038
O O6 0.218190 0.797519 0.693871
O O7 0.432009 0.702590 0.552278
O O8 0.121946 0.005108 0.624421
O O9 0.454559 0.555111 0.720636
O O10 0.861025 0.546748 0.579862
O O11 0.782189 0.279156 0.674814
O O12 0.875399 0.085356 0.757623
O O13 0.500000 0.000000 0.500000
O O14 0.474884 0.633485 0.201009
O O15 0.895352 0.621603 0.027021
O O16 0.500000 0.500000 0.000000
#
# Coordination Sequence:
#
# PCOD9013179 Si02
#       8
#     2   2   2   2   2   1   2   2
#     4  12  27  44  71 104 143 192 239 290 357 428
#     4  10  21  41  63  94 129 172 226 281 350 405
#     4  11  23  41  66  95 135 175 233 285 349 412
#     4   9  20  41  72  93 138 180 230 289 349 422
#     4  11  22  41  65  95 131 177 224 285 348 416
#     4  10  22  36  64  92 128 168 222 284 340 400
#     4  11  24  44  68 101 141 183 239 289 354 419
#     4   9  19  39  62  94 124 172 223 280 344 408
#
# _framework density 29.692813999999998
#
# number of rings (size 3 to 8) (size 9 to 14) (size 15 to 20)
#    0.000    1.600    0.000    5.200    3.733    0.000 
#   12.000    0.667   11.733    0.000    0.000    0.000 
#    0.000    0.000    0.000    0.000    0.000    0.000 
#
# Total GULP energy -83618.153762 kJ/mol
# GULP energy per Si atom -5574.543584 kJ/mol
# Density = 2.962523 g / cm^3
# Si number density = 29.692814 Si / 1000 Ang^3
#
#
#
# Elastic Constant Matrix: (Units=GPa)
#
#
# Indices 1 2 3 4 5 6 
#
# 1 210.9578 101.5902 62.7108 -13.8678 -11.7179 -7.2717
# 2 101.5902 359.8122 64.2215 4.6740 -19.5006 -85.1383
# 3 62.7108 64.2215 164.2716 -34.1293 -16.4470 4.3055
# 4 -13.8678 4.6740 -34.1293 49.1309 4.2093 -16.3175
# 5 -11.7179 -19.5006 -16.4470 4.2093 33.3247 -16.0240
# 6 -7.2717 -85.1383 4.3055 -16.3175 -16.0240 83.4395
#
#
#
# Elastic Compliance Matrix: (Units=1/GPa)
#
#
# Indices 1 2 3 4 5 6 
#
# 1 0.005989 -0.001691 -0.001524 0.000453 -0.000211 -0.001077
# 2 -0.001691 0.005143 -0.001063 -0.000106 0.004817 0.006059
# 3 -0.001524 -0.001063 0.008405 0.005254 0.002233 -0.000195
# 4 0.000453 -0.000106 0.005254 0.025654 0.001872 0.005037
# 5 -0.000211 0.004817 0.002233 0.001872 0.039765 0.012784
# 6 -0.001077 0.006059 -0.000195 0.005037 0.012784 0.021524
#
#
# Mechanical properties :
#
#
# Convention : Reuss Voigt Hill
#
# Bulk Modulus (GPa) = 91.07581 132.45408 111.76495
# Shear Modulus (GPa) = 42.12492 66.94696 54.53594
#
# Velocity S-wave (km/s) = 3.77064 4.75347 4.29029
# Velocity P-wave (km/s) = 7.04955 8.65056 7.89077
#
# Compressibility (1/GPa) = 0.01097986
#
# Stress axis : x y z
#
# Youngs Moduli (GPa) = 166.98642 194.45444 118.97564
#
# Poissons Ratio (x) = 0.32880 0.18130
# Poissons Ratio (y) = 0.28236 0.12653
# Poissons Ratio (z) = 0.25445 0.20679
#
# Static dielectric constant tensor:
#      x y z
#    x 2.102240 0.019150 -0.169880 
#    y 0.019150 2.535760 -0.056710 
#    z -0.169880 -0.056710 2.302270 
# 
# From -- ./inp_files/482965.got.cif
#   From: 2010.05.17/outbox.cif.g08.bks.cpg/sg2_242_cif.got.tgz:482965.got - 2010.06.03 11:33:40.
