data_PCOD9013797
_publ_section_title
;
Structure prediction by ZEFSAII (Michael W. Deem and Ramdas Pophale) SiO2 
 PCOD9013797
Probable space group: P -1
;
_chemical_formula_sum "Si O2"
_cell_formula_units_Z 16
_cell_length_a 10.687333
_cell_length_b 18.579007
_cell_length_c 15.119509
_cell_angle_alpha 18.624925
_cell_angle_beta 48.150954
_cell_angle_gamma 51.645882
_cell_volume 713.345628
_symmetry_space_group_name_H-M "P -1"
_symmetry_group_IT_number 2
_symmetry_cell_setting 'triclinic'
loop_
_space_group_symop_operation_xyz
x,y,z
-x,-y,-z
loop_
_atom_site_type_symbol
_atom_site_label
_atom_site_fract_x
_atom_site_fract_y
_atom_site_fract_z
Si Si1 0.567521 0.831415 0.959898
Si Si2 0.845726 0.556808 0.121786
Si Si3 0.537456 0.706131 0.597745
Si Si4 0.795203 0.586127 0.902073
Si Si5 0.278818 0.635120 0.203326
Si Si6 0.777395 0.904853 0.394838
Si Si7 0.925025 0.184439 0.756897
Si Si8 0.368048 0.819634 0.228839
O O1 0.532599 0.092954 0.662196
O O2 0.762310 0.783474 0.929059
O O3 0.461546 0.716625 0.062552
O O4 0.483553 0.718313 0.217075
O O5 0.730226 0.351467 0.458648
O O6 0.040796 0.529282 0.079537
O O7 0.819644 0.569773 0.014083
O O8 0.680988 0.584442 0.615712
O O9 0.612583 0.811581 0.529396
O O10 0.382044 0.538528 0.889861
O O11 0.786778 0.834340 0.574184
O O12 0.154668 0.635562 0.347547
O O13 0.213024 0.830495 0.942378
O O14 0.922929 0.768519 0.436429
O O15 0.777343 0.087156 0.874979
O O16 0.000000 0.000000 0.000000
O O17 0.500000 0.000000 0.000000
#
# Coordination Sequence:
#
# PCOD9013797 Si02
#       8
#     2   2   2   2   2   2   2   2
#     4  10  22  42  66  96 132 167 218 276 327 384
#     4  11  23  42  65  91 131 181 210 271 327 380
#     4  11  22  41  67 100 125 177 224 259 325 397
#     4  11  23  41  64  90 135 174 222 263 320 390
#     4   9  20  39  68  95 133 166 215 277 332 378
#     4  10  21  41  65  97 132 168 217 275 325 386
#     4   9  19  40  67  97 136 167 205 281 340 379
#     4  11  22  40  71 101 129 167 221 272 333 402
#
# _framework density 22.429518999999999
#
# number of rings (size 3 to 8) (size 9 to 14) (size 15 to 20)
#    0.000    1.750    2.500    2.250    0.000    1.500 
#    2.250    2.500    0.000    0.000    0.000    0.000 
#    0.000    0.000    0.000    0.000    0.000    0.000 
#
# Total GULP energy -89182.960471 kJ/mol
# GULP energy per Si atom -5573.935029 kJ/mol
# Density = 2.237847 g / cm^3
# Si number density = 22.429519 Si / 1000 Ang^3
#
#
#
# Elastic Constant Matrix: (Units=GPa)
#
#
# Indices 1 2 3 4 5 6 
#
# 1 86.6521 31.4750 25.5477 3.1408 21.6749 -1.8233
# 2 31.4750 80.8334 44.6045 6.4933 22.1714 -24.8305
# 3 25.5477 44.6045 92.2804 12.0775 33.8551 3.5614
# 4 3.1408 6.4933 12.0775 35.8514 0.7918 3.0122
# 5 21.6749 22.1714 33.8551 0.7918 35.6600 5.8822
# 6 -1.8233 -24.8305 3.5614 3.0122 5.8822 33.4679
#
#
#
# Elastic Compliance Matrix: (Units=1/GPa)
#
#
# Indices 1 2 3 4 5 6 
#
# 1 0.014646 -0.004921 0.000722 -0.000346 -0.006222 -0.001805
# 2 -0.004921 0.031413 -0.010300 -0.003764 -0.011034 0.026412
# 3 0.000722 -0.010300 0.021199 -0.004450 -0.012875 -0.007195
# 4 -0.000346 -0.003764 -0.004450 0.030479 0.007144 -0.006337
# 5 -0.006222 -0.011034 -0.012875 0.007144 0.053590 -0.017217
# 6 -0.001805 0.026412 -0.007195 -0.006337 -0.017217 0.053738
#
#
# Mechanical properties :
#
#
# Convention : Reuss Voigt Hill
#
# Bulk Modulus (GPa) = 26.13762 51.44671 38.79216
# Shear Modulus (GPa) = 20.25790 31.53845 25.89817
#
# Velocity S-wave (km/s) = 3.00856 3.75389 3.40170
# Velocity P-wave (km/s) = 4.87310 6.46341 5.72376
#
# Compressibility (1/GPa) = 0.03825903
#
# Stress axis : x y z
#
# Youngs Moduli (GPa) = 68.27732 31.83388 47.17229
#
# Poissons Ratio (x) = 0.15667 -0.03404
# Poissons Ratio (y) = 0.33602 0.48587
# Poissons Ratio (z) = -0.04927 0.32788
#
# Static dielectric constant tensor:
#      x y z
#    x 1.877060 0.014250 -0.003740 
#    y 0.014250 1.937600 0.003840 
#    z -0.003740 0.003840 1.860860 
# 
# From -- ./inp_files/523146.got.cif
#   From: 2010.05.17/outbox.cif.g08.bks.cpg/sg2_262_cif.got.tgz:523146.got - 2010.06.03 11:33:40.
