data_PCOD9013828
_publ_section_title
;
Structure prediction by ZEFSAII (Michael W. Deem and Ramdas Pophale) SiO2 
 PCOD9013828
Probable space group: P -1
;
_chemical_formula_sum "Si O2"
_cell_formula_units_Z 12
_cell_length_a 11.678783
_cell_length_b 9.090985
_cell_length_c 4.951651
_cell_angle_alpha 72.072997
_cell_angle_beta 103.339391
_cell_angle_gamma 78.984655
_cell_volume 466.794570
_symmetry_space_group_name_H-M "P -1"
_symmetry_group_IT_number 2
_symmetry_cell_setting 'triclinic'
loop_
_space_group_symop_operation_xyz
x,y,z
-x,-y,-z
loop_
_atom_site_type_symbol
_atom_site_label
_atom_site_fract_x
_atom_site_fract_y
_atom_site_fract_z
Si Si1 0.992441 0.663558 0.557525
Si Si2 0.778060 0.628129 0.747950
Si Si3 0.202427 0.704659 0.357415
Si Si4 0.107767 0.990822 0.774286
Si Si5 0.628565 0.790016 0.071072
Si Si6 0.368881 0.856137 0.084071
O O1 0.912764 0.657978 0.784277
O O2 0.908459 0.823101 0.274246
O O3 0.000000 0.500000 0.500000
O O4 0.131302 0.677360 0.604977
O O5 0.790322 0.451211 0.734627
O O6 0.712306 0.668598 0.973677
O O7 0.689912 0.748254 0.420674
O O8 0.110846 0.868022 0.087952
O O9 0.330751 0.745839 0.354961
O O10 0.247985 0.913644 0.794634
O O11 0.000000 0.000000 0.500000
O O12 0.491908 0.773939 0.038543
O O13 0.617801 0.975377 0.885844
#
# Coordination Sequence:
#
# PCOD9013828 Si02
#       6
#     2   2   2   2   2   2
#     4  10  21  41  65  99 133 180 226 283 343 403
#     4  11  24  44  72 101 142 183 229 285 344 409
#     4   9  22  42  65 106 135 186 226 290 344 409
#     4  10  21  42  64 101 137 182 223 289 342 407
#     4  11  24  48  72 101 140 186 232 282 338 417
#     4   9  23  45  69 103 138 185 233 282 347 409
#
# _framework density 25.707238
#
# number of rings (size 3 to 8) (size 9 to 14) (size 15 to 20)
#    1.000    1.000    1.667    0.500    0.000    9.333 
#    3.000    5.833    0.000    0.000    0.000    0.000 
#    0.000    0.000    0.000    0.000    0.000    0.000 
#
# Total GULP energy -67003.272421 kJ/mol
# GULP energy per Si atom -5583.606035 kJ/mol
# Density = 2.564873 g / cm^3
# Si number density = 25.707238 Si / 1000 Ang^3
#
#
#
# Elastic Constant Matrix: (Units=GPa)
#
#
# Indices 1 2 3 4 5 6 
#
# 1 251.3728 42.2548 43.7552 4.5764 -25.3540 -14.3659
# 2 42.2548 124.1443 5.8834 -7.5284 -13.8401 -3.6163
# 3 43.7552 5.8834 64.8602 1.3070 3.9829 -16.6605
# 4 4.5764 -7.5284 1.3070 32.4811 -3.4735 -9.4473
# 5 -25.3540 -13.8401 3.9829 -3.4735 25.2430 4.7425
# 6 -14.3659 -3.6163 -16.6605 -9.4473 4.7425 43.8452
#
#
#
# Elastic Compliance Matrix: (Units=1/GPa)
#
#
# Indices 1 2 3 4 5 6 
#
# 1 0.005386 -0.001071 -0.004001 -0.000412 0.005496 -0.000527
# 2 -0.001071 0.009097 -0.000311 0.002855 0.004272 0.000434
# 3 -0.004001 -0.000311 0.020629 0.000952 -0.008751 0.007654
# 4 -0.000412 0.002855 0.000952 0.034063 0.004310 0.007336
# 5 0.005496 0.004272 -0.008751 0.004310 0.050524 -0.005708
# 6 -0.000527 0.000434 0.007654 0.007336 -0.005708 0.027777
#
#
# Mechanical properties :
#
#
# Convention : Reuss Voigt Hill
#
# Bulk Modulus (GPa) = 41.07450 69.35155 55.21303
# Shear Modulus (GPa) = 30.05560 43.54611 36.80086
#
# Velocity S-wave (km/s) = 3.42299 4.12020 3.78767
# Velocity P-wave (km/s) = 5.62450 7.04774 6.37596
#
# Compressibility (1/GPa) = 0.02434600
#
# Stress axis : x y z
#
# Youngs Moduli (GPa) = 185.65045 109.93223 48.47442
#
# Poissons Ratio (x) = 0.11777 0.19396
# Poissons Ratio (y) = 0.19889 0.01506
# Poissons Ratio (z) = 0.74282 0.03415
#
# Static dielectric constant tensor:
#      x y z
#    x 2.105010 0.041330 -0.003830 
#    y 0.041330 2.087380 0.012080 
#    z -0.003830 0.012080 1.994570 
# 
# From -- ./inp_files/59444.got.cif
#   From: 2010.05.17/outbox.cif.g08.bks.cpg/sg2_30_cif.got.tgz:59444.got - 2010.06.03 11:33:40.
