data_PCOD9013855
_publ_section_title
;
Structure prediction by ZEFSAII (Michael W. Deem and Ramdas Pophale) SiO2 
 PCOD9013855
Probable space group: P -1
;
_chemical_formula_sum "Si O2"
_cell_formula_units_Z 15
_cell_length_a 22.644195
_cell_length_b 4.925762
_cell_length_c 6.865707
_cell_angle_alpha 72.069887
_cell_angle_beta 118.420993
_cell_angle_gamma 114.387370
_cell_volume 607.453879
_symmetry_space_group_name_H-M "P -1"
_symmetry_group_IT_number 2
_symmetry_cell_setting 'triclinic'
loop_
_space_group_symop_operation_xyz
x,y,z
-x,-y,-z
loop_
_atom_site_type_symbol
_atom_site_label
_atom_site_fract_x
_atom_site_fract_y
_atom_site_fract_z
Si Si1 0.921326 0.266406 0.789906
Si Si2 0.500000 0.500000 0.000000
Si Si3 0.746065 0.526818 0.093720
Si Si4 0.001395 0.940338 0.742593
Si Si5 0.388907 0.856560 0.804141
Si Si6 0.540677 0.309846 0.406168
Si Si7 0.789307 0.975088 0.371867
Si Si8 0.684826 0.769055 0.597924
O O1 0.940738 0.622792 0.763758
O O2 0.982813 0.203936 0.768480
O O3 0.851257 0.122098 0.588568
O O4 0.928911 0.109469 0.041222
O O5 0.429692 0.150938 0.925751
O O6 0.511880 0.507531 0.767916
O O7 0.799170 0.737927 0.286550
O O8 0.669304 0.382823 0.107513
O O9 0.771466 0.238004 0.165415
O O10 0.736458 0.726781 0.854579
O O11 0.000000 0.000000 0.500000
O O12 0.346996 0.955410 0.536000
O O13 0.442378 0.716027 0.799975
O O14 0.614378 0.487327 0.570995
O O15 0.500000 0.000000 0.500000
O O16 0.723822 0.796566 0.446100
#
# Coordination Sequence:
#
# PCOD9013855 Si02
#       8
#     2   1   2   2   2   2   2   2
#     4  10  22  39  66  98 137 173 217 265 309 372
#     4   8  20  38  58  80 120 146 196 262 326 392
#     4  11  25  43  69  87 131 170 216 271 329 375
#     4  10  21  41  66 101 139 176 209 263 316 370
#     4   9  22  40  58  88 121 156 206 268 328 394
#     4  10  22  39  61  88 120 156 210 263 333 398
#     4  11  24  44  64  98 128 172 224 262 314 385
#     4  11  25  41  65  88 125 169 211 274 327 388
#
# _framework density 24.693231000000001
#
# number of rings (size 3 to 8) (size 9 to 14) (size 15 to 20)
#    0.800    1.067    1.333    1.200    3.733    5.333 
#    0.000    0.000    0.000    0.000    0.000    0.000 
#    0.000    0.000    0.000    0.000    0.000    0.000 
#
# Total GULP energy -83690.935722 kJ/mol
# GULP energy per Si atom -5579.395715 kJ/mol
# Density = 2.463703 g / cm^3
# Si number density = 24.693231 Si / 1000 Ang^3
#
#
#
# Elastic Constant Matrix: (Units=GPa)
#
#
# Indices 1 2 3 4 5 6 
#
# 1 25.0263 5.4337 6.6305 -4.7699 8.4141 -9.2914
# 2 5.4337 81.7897 25.0153 5.5168 -0.7387 -10.2754
# 3 6.6305 25.0153 159.0287 -18.1056 22.1922 3.1303
# 4 -4.7699 5.5168 -18.1056 46.2176 -0.0623 4.6601
# 5 8.4141 -0.7387 22.1922 -0.0623 29.8815 9.4384
# 6 -9.2914 -10.2754 3.1303 4.6601 9.4384 26.7313
#
#
#
# Elastic Compliance Matrix: (Units=1/GPa)
#
#
# Indices 1 2 3 4 5 6 
#
# 1 0.060820 -0.001267 0.001368 0.003952 -0.027486 0.029509
# 2 -0.001267 0.014114 -0.002817 -0.003478 0.001036 0.005556
# 3 0.001368 -0.002817 0.007973 0.003583 -0.006398 0.000093
# 4 0.003952 -0.003478 0.003583 0.024230 -0.002649 -0.003671
# 5 -0.027486 0.001036 -0.006398 -0.002649 0.054573 -0.027213
# 6 0.029509 0.005556 0.000093 -0.003671 -0.027213 0.060040
#
#
# Mechanical properties :
#
#
# Convention : Reuss Voigt Hill
#
# Bulk Modulus (GPa) = 12.90716 37.77817 25.34267
# Shear Modulus (GPa) = 19.76232 35.81710 27.78971
#
# Velocity S-wave (km/s) = 2.83205 3.81265 3.35833
# Velocity P-wave (km/s) = 3.99154 5.89186 5.03221
#
# Compressibility (1/GPa) = 0.07747640
#
# Stress axis : x y z
#
# Youngs Moduli (GPa) = 16.44187 70.85075 125.41922
#
# Poissons Ratio (x) = 0.08973 -0.17158
# Poissons Ratio (y) = 0.02082 0.35333
# Poissons Ratio (z) = -0.02249 0.19960
#
# Static dielectric constant tensor:
#      x y z
#    x 2.021300 -0.022860 -0.000050 
#    y -0.022860 1.960720 -0.008490 
#    z -0.000050 -0.008490 2.041880 
# 
# From -- ./inp_files/9611.got.cif
#   From: 2010.05.17/outbox.cif.g08.bks.cpg/sg2_5_cif.got.tgz:9611.got - 2010.06.03 11:33:40.
