data_PCOD9013628
_publ_section_title
;
Structure prediction by ZEFSAII (Michael W. Deem and Ramdas Pophale) SiO2 
 PCOD9013628
Probable space group: P -1
;
_chemical_formula_sum "Si O2"
_cell_formula_units_Z 16
_cell_length_a 11.498045
_cell_length_b 16.847360
_cell_length_c 9.337511
_cell_angle_alpha 114.448567
_cell_angle_beta 81.487647
_cell_angle_gamma 43.200174
_cell_volume 780.268300
_symmetry_space_group_name_H-M "P -1"
_symmetry_group_IT_number 2
_symmetry_cell_setting 'triclinic'
loop_
_space_group_symop_operation_xyz
x,y,z
-x,-y,-z
loop_
_atom_site_type_symbol
_atom_site_label
_atom_site_fract_x
_atom_site_fract_y
_atom_site_fract_z
Si Si1 0.177273 0.962112 0.489040
Si Si2 0.227145 0.291154 0.277742
Si Si3 0.375854 0.917019 0.163872
Si Si4 0.888903 0.802718 0.237675
Si Si5 0.344734 0.808161 0.660058
Si Si6 0.881143 0.393490 0.247056
Si Si7 0.626713 0.886589 0.581318
Si Si8 0.024934 0.848166 0.815386
O O1 0.372411 0.850497 0.242735
O O2 0.293235 0.860515 0.542613
O O3 0.050130 0.140741 0.668674
O O4 0.000000 0.000000 0.500000
O O5 0.322705 0.195102 0.341039
O O6 0.000000 0.500000 0.500000
O O7 0.118869 0.281758 0.196226
O O8 0.422354 0.218253 0.096441
O O9 0.417724 0.983980 0.274345
O O10 0.114169 0.081659 0.255111
O O11 0.850703 0.752627 0.327844
O O12 0.614848 0.992228 0.361348
O O13 0.061952 0.658941 0.970103
O O14 0.636759 0.609350 0.478198
O O15 0.219709 0.797847 0.718819
O O16 0.187687 0.980006 0.908627
O O17 0.853694 0.316839 0.266296
#
# Coordination Sequence:
#
# PCOD9013628 Si02
#       8
#     2   2   2   2   2   2   2   2
#     4  11  23  43  66  93 126 170 221 268 318 382
#     4  12  25  38  61 100 134 164 214 272 322 389
#     4  11  21  40  68  90 124 178 212 258 333 380
#     4  10  22  40  67  92 125 175 214 261 325 389
#     4  11  25  41  67  97 128 174 220 270 320 386
#     4  12  23  42  65  99 133 168 216 269 330 384
#     4  10  21  41  65  91 126 172 215 253 326 390
#     4  11  22  43  67  92 132 173 219 267 323 387
#
# _framework density 20.505768
#
# number of rings (size 3 to 8) (size 9 to 14) (size 15 to 20)
#    0.000    1.000    5.000    2.250    1.750    1.000 
#    0.000    1.875    0.000    0.000    0.000    0.000 
#    0.000    0.000    0.000    0.000    0.000    0.000 
#
# Total GULP energy -89377.710492 kJ/mol
# GULP energy per Si atom -5586.106906 kJ/mol
# Density = 2.045910 g / cm^3
# Si number density = 20.505768 Si / 1000 Ang^3
#
#
#
# Elastic Constant Matrix: (Units=GPa)
#
#
# Indices 1 2 3 4 5 6 
#
# 1 90.5108 24.4089 17.3395 -10.2291 -2.7846 -2.9766
# 2 24.4089 88.8080 52.9904 -26.4365 -12.4325 2.7072
# 3 17.3395 52.9904 85.1144 -24.4443 -14.7866 11.1539
# 4 -10.2291 -26.4365 -24.4443 36.4128 4.3473 -3.9771
# 5 -2.7846 -12.4325 -14.7866 4.3473 29.6797 -7.9404
# 6 -2.9766 2.7072 11.1539 -3.9771 -7.9404 33.0510
#
#
#
# Elastic Compliance Matrix: (Units=1/GPa)
#
#
# Indices 1 2 3 4 5 6 
#
# 1 0.012075 -0.002575 -0.000735 0.001218 -0.000040 0.001683
# 2 -0.002575 0.020448 -0.009941 0.007415 0.003111 0.003088
# 3 -0.000735 -0.009941 0.021064 0.005709 0.004176 -0.004670
# 4 0.001218 0.007415 0.005709 0.037127 0.001253 0.002345
# 5 -0.000040 0.003111 0.004176 0.001253 0.038990 0.007850
# 6 0.001683 0.003088 -0.004670 0.002345 0.007850 0.033899
#
#
# Mechanical properties :
#
#
# Convention : Reuss Voigt Hill
#
# Bulk Modulus (GPa) = 36.91693 50.43453 43.67573
# Shear Modulus (GPa) = 25.10884 31.14166 28.12525
#
# Velocity S-wave (km/s) = 3.50305 3.90125 3.70750
# Velocity P-wave (km/s) = 5.86550 6.70386 6.29864
#
# Compressibility (1/GPa) = 0.02708785
#
# Stress axis : x y z
#
# Youngs Moduli (GPa) = 82.81343 48.90438 47.47380
#
# Poissons Ratio (x) = 0.12592 0.03487
# Poissons Ratio (y) = 0.21323 0.47191
# Poissons Ratio (z) = 0.06083 0.48614
#
# Static dielectric constant tensor:
#      x y z
#    x 1.776050 -0.017930 -0.005010 
#    y -0.017930 1.718660 -0.056960 
#    z -0.005010 -0.056960 1.803840 
# 
# From -- ./inp_files/177785.got.cif
#   From: 2010.05.17/outbox.cif.g08.bks.cpg/sg2_89_cif.got.tgz:177785.got - 2010.06.03 11:33:40.
