data_PCOD9013619
_publ_section_title
;
Structure prediction by ZEFSAII (Michael W. Deem and Ramdas Pophale) SiO2 
 PCOD9013619
Probable space group: P -1
;
_chemical_formula_sum "Si O2"
_cell_formula_units_Z 16
_cell_length_a 12.290681
_cell_length_b 9.523892
_cell_length_c 12.455146
_cell_angle_alpha 58.511225
_cell_angle_beta 46.767717
_cell_angle_gamma 42.813917
_cell_volume 721.330024
_symmetry_space_group_name_H-M "P -1"
_symmetry_group_IT_number 2
_symmetry_cell_setting 'triclinic'
loop_
_space_group_symop_operation_xyz
x,y,z
-x,-y,-z
loop_
_atom_site_type_symbol
_atom_site_label
_atom_site_fract_x
_atom_site_fract_y
_atom_site_fract_z
Si Si1 0.599417 0.158199 0.556949
Si Si2 0.289050 0.208364 0.887219
Si Si3 0.887799 0.324820 0.129696
Si Si4 0.522588 0.762430 0.904230
Si Si5 0.129308 0.791208 0.565577
Si Si6 0.196185 0.281233 0.437566
Si Si7 0.656130 0.585159 0.557469
Si Si8 0.616702 0.378210 0.121360
O O1 0.429329 0.160338 0.714307
O O2 0.667962 0.253606 0.551772
O O3 0.516374 0.291861 0.454759
O O4 0.783808 0.926726 0.502626
O O5 0.237979 0.423238 0.880841
O O6 0.411995 0.982886 0.950996
O O7 0.090155 0.254612 0.982163
O O8 0.908922 0.233579 0.273491
O O9 0.786322 0.273464 0.133447
O O10 0.697944 0.719341 0.737683
O O11 0.383089 0.767077 0.909839
O O12 0.602360 0.563454 0.000878
O O13 0.162488 0.602413 0.551707
O O14 0.000000 0.000000 0.500000
O O15 0.312461 0.260267 0.471526
O O16 0.000000 0.500000 0.500000
O O17 0.584952 0.513908 0.727882
#
# Coordination Sequence:
#
# PCOD9013619 Si02
#       8
#     2   2   2   2   2   2   2   2
#     4  11  21  43  65  92 124 167 211 256 324 374
#     4  10  23  42  62  93 130 165 209 256 317 372
#     4  11  23  43  62  94 128 166 211 259 311 370
#     4   9  22  42  64  94 125 165 209 255 314 378
#     4  12  25  41  64  95 126 166 219 265 307 373
#     4  10  22  40  62  95 126 161 207 261 318 373
#     4  11  21  39  66  89 126 170 210 258 315 379
#     4  10  21  41  65  91 124 165 209 260 310 373
#
# _framework density 22.181248
#
# number of rings (size 3 to 8) (size 9 to 14) (size 15 to 20)
#    0.000    1.500    2.500    2.250    1.750    2.000 
#   11.250    0.000    0.000    0.000    0.000    0.000 
#    0.000    0.000    0.000    0.000    0.000    0.000 
#
# Total GULP energy -89176.141709 kJ/mol
# GULP energy per Si atom -5573.508857 kJ/mol
# Density = 2.213076 g / cm^3
# Si number density = 22.181248 Si / 1000 Ang^3
#
#
#
# Elastic Constant Matrix: (Units=GPa)
#
#
# Indices 1 2 3 4 5 6 
#
# 1 79.3994 3.6035 24.9143 0.3344 6.0926 -1.5693
# 2 3.6035 110.1697 23.2564 0.9987 -0.0448 -1.8846
# 3 24.9143 23.2564 62.7066 -3.5047 -5.9957 -3.9656
# 4 0.3344 0.9987 -3.5047 29.4453 -4.3772 -5.1614
# 5 6.0926 -0.0448 -5.9957 -4.3772 25.7985 3.1777
# 6 -1.5693 -1.8846 -3.9656 -5.1614 3.1777 20.3157
#
#
#
# Elastic Compliance Matrix: (Units=1/GPa)
#
#
# Indices 1 2 3 4 5 6 
#
# 1 0.015194 0.001005 -0.007024 -0.001816 -0.005564 0.000305
# 2 0.001005 0.009958 -0.004278 -0.001046 -0.001407 0.000121
# 3 -0.007024 -0.004278 0.021444 0.004387 0.006977 0.003270
# 4 -0.001816 -0.001046 0.004387 0.037105 0.006633 0.009008
# 5 -0.005564 -0.001407 0.006977 0.006633 0.043349 -0.004294
# 6 0.000305 0.000121 0.003270 0.009008 -0.004294 0.052856
#
#
# Mechanical properties :
#
#
# Convention : Reuss Voigt Hill
#
# Bulk Modulus (GPa) = 38.45833 39.53601 38.99717
# Shear Modulus (GPa) = 23.90449 28.47866 26.19157
#
# Velocity S-wave (km/s) = 3.28638 3.58705 3.44000
# Velocity P-wave (km/s) = 5.63704 5.91766 5.77905
#
# Compressibility (1/GPa) = 0.02600217
#
# Stress axis : x y z
#
# Youngs Moduli (GPa) = 65.81760 100.42113 46.63412
#
# Poissons Ratio (x) = -0.10094 0.32754
# Poissons Ratio (y) = -0.06616 0.19950
# Poissons Ratio (z) = 0.46228 0.42959
#
# Static dielectric constant tensor:
#      x y z
#    x 1.835350 0.009910 0.002860 
#    y 0.009910 1.836730 -0.006270 
#    z 0.002860 -0.006270 1.822480 
# 
# From -- ./inp_files/257408.got.cif
#   From: 2010.05.17/outbox.cif.g08.bks.cpg/sg2_129_cif.got.tgz:257408.got - 2010.06.03 11:33:40.
