data_PCOD9013055
_publ_section_title
;
Structure prediction by ZEFSAII (Michael W. Deem and Ramdas Pophale) SiO2 
 PCOD9013055
Probable space group: P -1
;
_chemical_formula_sum "Si O2"
_cell_formula_units_Z 12
_cell_length_a 9.139397
_cell_length_b 11.835882
_cell_length_c 10.455373
_cell_angle_alpha 71.785704
_cell_angle_beta 142.736935
_cell_angle_gamma 87.816707
_cell_volume 563.787670
_symmetry_space_group_name_H-M "P -1"
_symmetry_group_IT_number 2
_symmetry_cell_setting 'triclinic'
loop_
_space_group_symop_operation_xyz
x,y,z
-x,-y,-z
loop_
_atom_site_type_symbol
_atom_site_label
_atom_site_fract_x
_atom_site_fract_y
_atom_site_fract_z
Si Si1 0.732789 0.977988 0.434259
Si Si2 0.138425 0.233488 0.612242
Si Si3 0.607837 0.254819 0.360449
Si Si4 0.269605 0.543219 0.934933
Si Si5 0.317703 0.878216 0.266134
Si Si6 0.673387 0.231096 0.964641
O O1 0.769305 0.911000 0.343362
O O2 0.519827 0.941823 0.369733
O O3 0.588493 0.767208 0.148638
O O4 0.627297 0.137181 0.321204
O O5 0.888021 0.263400 0.523217
O O6 0.011508 0.351371 0.371654
O O7 0.964534 0.105316 0.260012
O O8 0.333951 0.399815 0.089987
O O9 0.617831 0.204878 0.528715
O O10 0.319030 0.632864 0.042347
O O11 0.500000 0.500000 0.000000
O O12 0.356421 0.788817 0.198576
O O13 0.000000 0.000000 0.000000
#
# Coordination Sequence:
#
# PCOD9013055 Si02
#       6
#     2   2   2   2   2   2
#     4  10  21  41  63  85 124 156 200 254 293 347
#     4   9  21  41  62  90 120 156 202 245 298 351
#     4  11  21  38  63  92 119 158 200 246 299 350
#     4   9  21  41  60  89 123 156 198 248 296 349
#     4  11  23  41  60  90 122 159 199 246 301 352
#     4  10  21  42  62  85 129 158 192 250 295 354
#
# _framework density 21.284610000000001
#
# number of rings (size 3 to 8) (size 9 to 14) (size 15 to 20)
#    0.000    2.000    1.667    1.000    0.000    4.000 
#   12.000    7.500    0.000    0.000    0.000    0.000 
#    0.000    0.000    0.000    0.000    0.000    0.000 
#
# Total GULP energy -67074.104191 kJ/mol
# GULP energy per Si atom -5589.508683 kJ/mol
# Density = 2.123617 g / cm^3
# Si number density = 21.284610 Si / 1000 Ang^3
#
#
#
# Elastic Constant Matrix: (Units=GPa)
#
#
# Indices 1 2 3 4 5 6 
#
# 1 89.2461 12.6189 36.0211 -1.2119 12.3946 17.0416
# 2 12.6189 123.3800 61.2203 -30.5189 8.0265 -5.0560
# 3 36.0211 61.2203 97.5634 -6.5106 11.5648 16.7498
# 4 -1.2119 -30.5189 -6.5106 26.3862 6.5391 1.6248
# 5 12.3946 8.0265 11.5648 6.5391 35.2987 4.0593
# 6 17.0416 -5.0560 16.7498 1.6248 4.0593 30.9273
#
#
#
# Elastic Compliance Matrix: (Units=1/GPa)
#
#
# Indices 1 2 3 4 5 6 
#
# 1 0.014412 0.001696 -0.004972 0.002616 -0.003771 -0.004614
# 2 0.001696 0.020312 -0.012773 0.021358 -0.006018 0.008972
# 3 -0.004972 -0.012773 0.021196 -0.009285 0.000624 -0.010422
# 4 0.002616 0.021358 -0.009285 0.063850 -0.015219 0.005722
# 5 -0.003771 -0.006018 0.000624 -0.015219 0.033971 -0.002903
# 6 -0.004614 0.008972 -0.010422 0.005722 -0.002903 0.042068
#
#
# Mechanical properties :
#
#
# Convention : Reuss Voigt Hill
#
# Bulk Modulus (GPa) = 41.97734 58.87890 50.42812
# Shear Modulus (GPa) = 21.20006 31.87772 26.53889
#
# Velocity S-wave (km/s) = 3.15941 3.87420 3.53492
# Velocity P-wave (km/s) = 5.75099 6.90907 6.35646
#
# Compressibility (1/GPa) = 0.02382238
#
# Stress axis : x y z
#
# Youngs Moduli (GPa) = 69.38610 49.23215 47.17811
#
# Poissons Ratio (x) = -0.08351 0.23456
# Poissons Ratio (y) = -0.11769 0.60263
# Poissons Ratio (z) = 0.34497 0.62887
#
# Static dielectric constant tensor:
#      x y z
#    x 1.778820 -0.001820 -0.006850 
#    y -0.001820 1.773890 -0.013460 
#    z -0.006850 -0.013460 1.781820 
# 
# From -- ./inp_files/186256.got.cif
#   From: 2010.05.17/outbox.cif.g08.bks.cpg/sg2_94_cif.got.tgz:186256.got - 2010.06.03 11:33:40.
