data_PCOD9013120
_publ_section_title
;
Structure prediction by ZEFSAII (Michael W. Deem and Ramdas Pophale) SiO2 
 PCOD9013120
Probable space group: P -1
;
_chemical_formula_sum "Si O2"
_cell_formula_units_Z 14
_cell_length_a 23.269251
_cell_length_b 17.493007
_cell_length_c 9.368285
_cell_angle_alpha 150.130739
_cell_angle_beta 39.612233
_cell_angle_gamma 161.667699
_cell_volume 562.405220
_symmetry_space_group_name_H-M "P -1"
_symmetry_group_IT_number 2
_symmetry_cell_setting 'triclinic'
loop_
_space_group_symop_operation_xyz
x,y,z
-x,-y,-z
loop_
_atom_site_type_symbol
_atom_site_label
_atom_site_fract_x
_atom_site_fract_y
_atom_site_fract_z
Si Si1 0.419956 0.148456 0.009480
Si Si2 0.436375 0.566611 0.511948
Si Si3 0.918059 0.181366 0.983590
Si Si4 0.391819 0.449639 0.968610
Si Si5 0.640198 0.268274 0.486363
Si Si6 0.010090 0.868842 0.947993
Si Si7 0.186146 0.441202 0.666776
O O1 0.472650 0.049558 0.758400
O O2 0.417061 0.202373 0.263883
O O3 0.576014 0.470693 0.134042
O O4 0.210393 0.862698 0.875720
O O5 0.498838 0.549413 0.234329
O O6 0.369779 0.631869 0.693391
O O7 0.242408 0.194735 0.342658
O O8 0.087152 0.403367 0.907980
O O9 0.979807 0.244371 0.130581
O O10 0.185044 0.117353 0.900749
O O11 0.467246 0.731107 0.333092
O O12 0.744560 0.377254 0.316641
O O13 0.814317 0.568384 0.747672
O O14 0.048320 0.090407 0.311947
#
# Coordination Sequence:
#
# PCOD9013120 Si02
#       7
#     2   2   2   2   2   2   2
#     4  11  25  39  63  98 132 163 202 260 327 368
#     4  10  22  38  68  92 122 165 218 254 310 366
#     4  10  22  41  67  93 124 168 216 256 303 376
#     4  10  21  41  63  91 123 166 208 263 298 370
#     4  11  25  39  63  98 132 163 202 260 327 368
#     4  10  22  38  68  92 122 165 218 254 310 366
#     4  10  22  41  67  93 124 168 216 256 303 376
#
# _framework density 24.893083000000001
#
# number of rings (size 3 to 8) (size 9 to 14) (size 15 to 20)
#    0.000    1.714    0.000    5.571   10.000   10.857 
#    0.000    0.000    0.000    0.000    0.000    0.000 
#    0.000    0.000    0.000    0.000    0.000    0.000 
#
# Total GULP energy -78216.838633 kJ/mol
# GULP energy per Si atom -5586.917045 kJ/mol
# Density = 2.483642 g / cm^3
# Si number density = 24.893083 Si / 1000 Ang^3
#
#
#
# Elastic Constant Matrix: (Units=GPa)
#
#
# Indices 1 2 3 4 5 6 
#
# 1 123.5938 42.3039 29.6098 -11.7488 5.7107 -4.6560
# 2 42.3039 122.4616 39.4681 -49.9125 0.3417 -3.3701
# 3 29.6098 39.4681 73.8188 -16.8671 -1.5279 -8.3656
# 4 -11.7488 -49.9125 -16.8671 40.0305 1.2345 1.3342
# 5 5.7107 0.3417 -1.5279 1.2345 34.9770 -5.6949
# 6 -4.6560 -3.3701 -8.3656 1.3342 -5.6949 22.2220
#
#
#
# Elastic Compliance Matrix: (Units=1/GPa)
#
#
# Indices 1 2 3 4 5 6 
#
# 1 0.009782 -0.003640 -0.002599 -0.002725 -0.001532 0.000290
# 2 -0.003640 0.019548 -0.004165 0.021599 -0.000677 -0.000836
# 3 -0.002599 -0.004165 0.017839 0.001293 0.002179 0.006020
# 4 -0.002725 0.021599 0.001293 0.051716 -0.001587 -0.000320
# 5 -0.001532 -0.000677 0.002179 -0.001587 0.030344 0.008268
# 6 0.000290 -0.000836 0.006020 -0.000320 0.008268 0.049339
#
#
# Mechanical properties :
#
#
# Convention : Reuss Voigt Hill
#
# Bulk Modulus (GPa) = 37.93566 60.29310 49.11438
# Shear Modulus (GPa) = 24.01966 33.34538 28.68252
#
# Velocity S-wave (km/s) = 3.10967 3.66395 3.39813
# Velocity P-wave (km/s) = 5.30716 6.49406 5.93038
#
# Compressibility (1/GPa) = 0.02636042
#
# Stress axis : x y z
#
# Youngs Moduli (GPa) = 102.22577 51.15724 56.05769
#
# Poissons Ratio (x) = 0.18621 0.14570
# Poissons Ratio (y) = 0.37211 0.23348
# Poissons Ratio (z) = 0.26570 0.21307
#
# Static dielectric constant tensor:
#      x y z
#    x 2.060260 0.039180 -0.031730 
#    y 0.039180 1.943030 -0.051980 
#    z -0.031730 -0.051980 1.981730 
# 
# From -- ./inp_files/355062.got.cif
#   From: 2010.05.17/outbox.cif.g08.bks.cpg/sg2_178_cif.got.tgz:355062.got - 2010.06.03 11:33:40.
