data_PCOD9013030
_publ_section_title
;
Structure prediction by ZEFSAII (Michael W. Deem and Ramdas Pophale) SiO2 
 PCOD9013030
Probable space group: P -1
;
_chemical_formula_sum "Si O2"
_cell_formula_units_Z 16
_cell_length_a 19.328534
_cell_length_b 9.201056
_cell_length_c 13.406168
_cell_angle_alpha 36.387776
_cell_angle_beta 34.291349
_cell_angle_gamma 39.890907
_cell_volume 758.737572
_symmetry_space_group_name_H-M "P -1"
_symmetry_group_IT_number 2
_symmetry_cell_setting 'triclinic'
loop_
_space_group_symop_operation_xyz
x,y,z
-x,-y,-z
loop_
_atom_site_type_symbol
_atom_site_label
_atom_site_fract_x
_atom_site_fract_y
_atom_site_fract_z
Si Si1 0.948860 0.463299 0.469262
Si Si2 0.475812 0.751566 0.822017
Si Si3 0.713291 0.945009 0.455242
Si Si4 0.783786 0.781960 0.810958
Si Si5 0.282151 0.687612 0.925068
Si Si6 0.076041 0.999120 0.151552
Si Si7 0.262675 0.249919 0.881934
Si Si8 0.232199 0.818127 0.550012
O O1 0.849244 0.724858 0.408958
O O2 0.000000 0.500000 0.500000
O O3 0.065930 0.361980 0.310559
O O4 0.884849 0.236488 0.685479
O O5 0.607092 0.819870 0.613126
O O6 0.402005 0.707112 0.836160
O O7 0.379314 0.003004 0.849152
O O8 0.500000 0.500000 0.000000
O O9 0.713191 0.187920 0.255779
O O10 0.698018 0.040424 0.534570
O O11 0.756739 0.061983 0.637795
O O12 0.716198 0.604594 0.927610
O O13 0.754950 0.763200 0.971254
O O14 0.150716 0.863413 0.038536
O O15 0.920663 0.096048 0.283763
O O16 0.136893 0.215050 0.995867
O O17 0.282791 0.513774 0.673740
#
# Coordination Sequence:
#
# PCOD9013030 Si02
#       8
#     2   2   2   2   2   2   2   2
#     4  11  20  38  71  97 134 173 218 269 324 399
#     4  11  26  49  68  89 131 178 229 280 324 395
#     4  12  22  40  68 101 130 177 226 273 325 395
#     4  11  22  42  69 103 132 174 223 267 344 387
#     4  11  22  41  69  98 130 176 229 270 328 396
#     4  10  21  41  62  98 137 175 219 269 332 390
#     4  11  25  44  65  97 135 174 220 281 331 394
#     4  11  22  40  67  96 140 173 212 277 335 396
#
# _framework density 21.08766
#
# number of rings (size 3 to 8) (size 9 to 14) (size 15 to 20)
#    0.000    1.000    5.000    3.000    1.750    3.500 
#   11.250    1.250    0.000    0.000    0.000    0.000 
#    0.000    0.000    0.000    0.000    0.000    0.000 
#
# Total GULP energy -89425.778457 kJ/mol
# GULP energy per Si atom -5589.111154 kJ/mol
# Density = 2.103966 g / cm^3
# Si number density = 21.087660 Si / 1000 Ang^3
#
#
#
# Elastic Constant Matrix: (Units=GPa)
#
#
# Indices 1 2 3 4 5 6 
#
# 1 -40.9579 61.0199 34.7698 51.8388 -22.6654 8.5448
# 2 61.0199 63.1483 23.4557 -48.9140 22.1434 -11.6464
# 3 34.7698 23.4557 92.5526 -33.0299 8.3079 -5.8526
# 4 51.8388 -48.9140 -33.0299 9.3615 11.9156 -4.0957
# 5 -22.6654 22.1434 8.3079 11.9156 22.6232 -0.1902
# 6 8.5448 -11.6464 -5.8526 -4.0957 -0.1902 28.7879
#
#
#
# Elastic Compliance Matrix: (Units=1/GPa)
#
#
# Indices 1 2 3 4 5 6 
#
# 1 0.006206 0.006141 0.001388 0.012575 -0.006904 0.002668
# 2 0.006141 0.009874 -0.005820 -0.002894 0.000155 0.000578
# 3 0.001388 -0.005820 0.011893 0.000968 0.002208 -0.000196
# 4 0.012575 -0.002894 0.000968 0.015988 0.006635 -0.002388
# 5 -0.006904 0.000155 0.002208 0.006635 0.032859 0.003722
# 6 0.002668 0.000578 -0.000196 -0.002388 0.003722 0.033823
#
#
# Mechanical properties :
#
#
# Convention : Reuss Voigt Hill
#
# Bulk Modulus (GPa) = 31.85462 39.24821 35.55142
# Shear Modulus (GPa) = 42.48533 11.85437 27.16985
#
# Velocity S-wave (km/s) = 4.49341 2.37354 3.59336
# Velocity P-wave (km/s) = 6.48534 5.11507 5.84053
#
# Compressibility (1/GPa) = 0.03139262
#
# Stress axis : x y z
#
# Youngs Moduli (GPa) = 161.13055 101.28042 84.08404
#
# Poissons Ratio (x) = -0.62198 -0.11675
# Poissons Ratio (y) = -0.98953 0.48934
# Poissons Ratio (z) = -0.22373 0.58941
#
# Static dielectric constant tensor:
#      x y z
#    x 1.782280 0.008850 -0.028110 
#    y 0.008850 1.749410 0.002730 
#    z -0.028110 0.002730 1.767540 
# 
# From -- ./inp_files/307983.got.cif
#   From: 2010.05.17/outbox.cif.g08.bks.cpg/sg2_154_cif.got.tgz:307983.got - 2010.06.03 11:33:40.
