data_PCOD9013029
_publ_section_title
;
Structure prediction by ZEFSAII (Michael W. Deem and Ramdas Pophale) SiO2 
 PCOD9013029
Probable space group: P -1
;
_chemical_formula_sum "Si O2"
_cell_formula_units_Z 16
_cell_length_a 8.088384
_cell_length_b 12.959972
_cell_length_c 16.753421
_cell_angle_alpha 158.000033
_cell_angle_beta 100.912172
_cell_angle_gamma 80.933761
_cell_volume 645.211687
_symmetry_space_group_name_H-M "P -1"
_symmetry_group_IT_number 2
_symmetry_cell_setting 'triclinic'
loop_
_space_group_symop_operation_xyz
x,y,z
-x,-y,-z
loop_
_atom_site_type_symbol
_atom_site_label
_atom_site_fract_x
_atom_site_fract_y
_atom_site_fract_z
Si Si1 0.584030 0.231433 0.084651
Si Si2 0.106328 0.580818 0.146251
Si Si3 0.260040 0.093755 0.563385
Si Si4 0.494513 0.838817 0.516431
Si Si5 0.114407 0.804528 0.819779
Si Si6 0.003056 0.820155 0.635826
Si Si7 0.344428 0.123107 0.845957
Si Si8 0.175331 0.681284 0.981824
O O1 0.519644 0.525438 0.317426
O O2 0.690199 0.114205 0.083125
O O3 0.734389 0.266311 0.056333
O O4 0.434008 0.096618 0.920824
O O5 0.017741 0.444591 0.119064
O O6 0.102894 0.909315 0.384282
O O7 0.283742 0.433044 0.049853
O O8 0.000000 0.500000 0.000000
O O9 0.375499 0.100779 0.500133
O O10 0.260689 0.402559 0.818747
O O11 0.322143 0.896125 0.496190
O O12 0.482644 0.037885 0.733572
O O13 0.061504 0.823672 0.736499
O O14 0.069057 0.484652 0.609686
O O15 0.000000 0.000000 0.000000
O O16 0.173032 0.929913 0.685452
O O17 0.852733 0.033660 0.770473
#
# Coordination Sequence:
#
# PCOD9013029 Si02
#       8
#     2   2   2   2   2   2   2   2
#     4  11  24  42  69 102 131 178 225 280 342 401
#     4  11  23  38  60  99 137 183 230 276 323 390
#     4  10  21  41  62  98 134 184 231 266 329 394
#     4  10  23  40  64  95 138 181 219 277 330 393
#     4  11  24  47  76  99 132 172 221 285 348 412
#     4  10  25  46  70 105 130 173 231 273 345 412
#     4  11  25  42  67 101 141 176 223 282 333 400
#     4  10  22  39  66  95 132 176 225 274 323 397
#
# _framework density 24.798065000000001
#
# number of rings (size 3 to 8) (size 9 to 14) (size 15 to 20)
#    0.000    1.500    2.500    1.125    3.500    6.000 
#    0.000    1.250    0.000    0.000    0.000    0.000 
#    0.000    0.000    0.000    0.000    0.000    0.000 
#
# Total GULP energy -89282.083057 kJ/mol
# GULP energy per Si atom -5580.130191 kJ/mol
# Density = 2.474162 g / cm^3
# Si number density = 24.798065 Si / 1000 Ang^3
#
#
#
# Elastic Constant Matrix: (Units=GPa)
#
#
# Indices 1 2 3 4 5 6 
#
# 1 100.3439 23.6184 47.4928 -1.9488 -23.3711 -13.9838
# 2 23.6184 74.4517 33.8345 -13.9121 -12.1255 -14.9866
# 3 47.4928 33.8345 146.1322 6.2703 -27.8885 -3.4510
# 4 -1.9488 -13.9121 6.2703 36.0129 -6.6515 5.9458
# 5 -23.3711 -12.1255 -27.8885 -6.6515 44.3216 -2.8022
# 6 -13.9838 -14.9866 -3.4510 5.9458 -2.8022 41.6239
#
#
#
# Elastic Compliance Matrix: (Units=1/GPa)
#
#
# Indices 1 2 3 4 5 6 
#
# 1 0.013501 -0.000944 -0.003103 0.001213 0.005352 0.004126
# 2 -0.000944 0.018347 -0.003409 0.007479 0.003827 0.005195
# 3 -0.003103 -0.003409 0.009263 -0.002414 0.002836 -0.000966
# 4 0.001213 0.007479 -0.002414 0.032463 0.005954 -0.001336
# 5 0.005352 0.003827 0.002836 0.005954 0.029397 0.004540
# 6 0.004126 0.005195 -0.000966 -0.001336 0.004540 0.027698
#
#
# Mechanical properties :
#
#
# Convention : Reuss Voigt Hill
#
# Bulk Modulus (GPa) = 38.16843 58.97994 48.57419
# Shear Modulus (GPa) = 32.40153 38.79048 35.59600
#
# Velocity S-wave (km/s) = 3.61863 3.95936 3.79282
# Velocity P-wave (km/s) = 5.73450 6.68863 6.22986
#
# Compressibility (1/GPa) = 0.02619966
#
# Stress axis : x y z
#
# Youngs Moduli (GPa) = 74.06620 54.50517 107.95849
#
# Poissons Ratio (x) = 0.05147 0.33495
# Poissons Ratio (y) = 0.06994 0.36801
# Poissons Ratio (z) = 0.22980 0.18580
#
# Static dielectric constant tensor:
#      x y z
#    x 2.066800 -0.020690 0.071810 
#    y -0.020690 1.987890 -0.019610 
#    z 0.071810 -0.019610 2.060640 
# 
# From -- ./inp_files/561261.got.cif
#   From: 2010.05.17/outbox.cif.g08.bks.cpg/sg2_281_cif.got.tgz:561261.got - 2010.06.03 11:33:40.
