data_PCOD9013299
_publ_section_title
;
Structure prediction by ZEFSAII (Michael W. Deem and Ramdas Pophale) SiO2 
 PCOD9013299
Probable space group: P -1
;
_chemical_formula_sum "Si O2"
_cell_formula_units_Z 16
_cell_length_a 16.115455
_cell_length_b 8.629535
_cell_length_c 13.694092
_cell_angle_alpha 87.554562
_cell_angle_beta 22.947909
_cell_angle_gamma 90.362379
_cell_volume 736.742679
_symmetry_space_group_name_H-M "P -1"
_symmetry_group_IT_number 2
_symmetry_cell_setting 'triclinic'
loop_
_space_group_symop_operation_xyz
x,y,z
-x,-y,-z
loop_
_atom_site_type_symbol
_atom_site_label
_atom_site_fract_x
_atom_site_fract_y
_atom_site_fract_z
Si Si1 0.336136 0.622153 0.255909
Si Si2 0.070206 0.169548 0.011129
Si Si3 0.431215 0.591149 0.865160
Si Si4 0.239149 0.139857 0.222494
Si Si5 0.446725 0.363942 0.481539
Si Si6 0.281647 0.883996 0.748536
Si Si7 0.823106 0.211544 0.747195
Si Si8 0.076729 0.303426 0.211250
O O1 0.427406 0.466101 0.197289
O O2 0.202563 0.642585 0.301443
O O3 0.169263 0.666782 0.516122
O O4 0.539328 0.751522 0.021646
O O5 0.233193 0.259249 0.753674
O O6 0.117349 0.989913 0.972338
O O7 0.120256 0.250197 0.057271
O O8 0.830058 0.168941 0.231403
O O9 0.567460 0.594530 0.617758
O O10 0.323773 0.746788 0.004879
O O11 0.232622 0.457564 0.066261
O O12 0.124604 0.175148 0.242908
O O13 0.075631 0.192478 0.480377
O O14 0.262201 0.956643 0.202557
O O15 0.500000 0.500000 0.500000
O O16 0.649382 0.264527 0.268285
O O17 0.500000 0.000000 0.500000
#
# Coordination Sequence:
#
# PCOD9013299 Si02
#       8
#     2   2   2   2   2   2   2   2
#     4  10  22  39  61  91 119 164 201 246 310 367
#     4  10  21  42  63  88 122 165 209 250 306 361
#     4  11  24  39  59  93 125 163 206 247 303 365
#     4   9  21  40  65  89 122 155 200 259 310 356
#     4  11  23  40  62  90 130 164 202 251 305 359
#     4   9  22  40  63  85 115 162 206 256 303 351
#     4  10  21  41  64  89 121 155 202 258 309 361
#     4  10  22  38  61  90 123 164 202 247 303 366
#
# _framework density 21.717216000000001
#
# number of rings (size 3 to 8) (size 9 to 14) (size 15 to 20)
#    0.000    2.000    1.250    0.750    3.500    8.000 
#    4.500    0.000    0.000    0.000    0.000    0.000 
#    0.000    0.000    0.000    0.000    0.000    0.000 
#
# Total GULP energy -89249.348743 kJ/mol
# GULP energy per Si atom -5578.084296 kJ/mol
# Density = 2.166779 g / cm^3
# Si number density = 21.717216 Si / 1000 Ang^3
#
#
#
# Elastic Constant Matrix: (Units=GPa)
#
#
# Indices 1 2 3 4 5 6 
#
# 1 63.1450 32.7880 24.7372 10.2769 -3.3136 4.4555
# 2 32.7880 86.4988 29.7675 12.1796 -0.5759 0.0276
# 3 24.7372 29.7675 88.4875 2.1058 7.7598 2.4178
# 4 10.2769 12.1796 2.1058 28.9742 4.3518 -4.3900
# 5 -3.3136 -0.5759 7.7598 4.3518 38.8693 1.8425
# 6 4.4555 0.0276 2.4178 -4.3900 1.8425 28.3846
#
#
#
# Elastic Compliance Matrix: (Units=1/GPa)
#
#
# Indices 1 2 3 4 5 6 
#
# 1 0.022111 -0.006044 -0.004193 -0.006177 0.003528 -0.004292
# 2 -0.006044 0.015686 -0.003578 -0.004243 0.000882 0.000525
# 3 -0.004193 -0.003578 0.013919 0.002515 -0.003475 0.000091
# 4 -0.006177 -0.004243 0.002515 0.040318 -0.005956 0.007382
# 5 0.003528 0.000882 -0.003475 -0.005956 0.027542 -0.002967
# 6 -0.004292 0.000525 0.000091 0.007382 -0.002967 0.037230
#
#
# Mechanical properties :
#
#
# Convention : Reuss Voigt Hill
#
# Bulk Modulus (GPa) = 41.51667 45.85742 43.68704
# Shear Modulus (GPa) = 25.97870 29.30153 27.64012
#
# Velocity S-wave (km/s) = 3.46240 3.67717 3.57140
# Velocity P-wave (km/s) = 5.92813 6.26022 6.09644
#
# Compressibility (1/GPa) = 0.02408671
#
# Stress axis : x y z
#
# Youngs Moduli (GPa) = 45.22703 63.75026 71.84249
#
# Poissons Ratio (x) = 0.38528 0.30125
# Poissons Ratio (y) = 0.27333 0.25706
# Poissons Ratio (z) = 0.18964 0.22810
#
# Static dielectric constant tensor:
#      x y z
#    x 1.833430 -0.010230 0.016770 
#    y -0.010230 1.807810 0.019080 
#    z 0.016770 0.019080 1.837170 
# 
# From -- ./inp_files/135323.got.cif
#   From: 2010.05.17/outbox.cif.g08.bks.cpg/sg2_68_cif.got.tgz:135323.got - 2010.06.03 11:33:40.
