data_PCOD9013963
_publ_section_title
;
Structure prediction by ZEFSAII (Michael W. Deem and Ramdas Pophale) SiO2 
 PCOD9013963
Probable space group: P -1
;
_chemical_formula_sum "Si O2"
_cell_formula_units_Z 16
_cell_length_a 7.473829
_cell_length_b 11.406146
_cell_length_c 8.999456
_cell_angle_alpha 80.625188
_cell_angle_beta 102.918157
_cell_angle_gamma 126.994916
_cell_volume 596.834830
_symmetry_space_group_name_H-M "P -1"
_symmetry_group_IT_number 2
_symmetry_cell_setting 'triclinic'
loop_
_space_group_symop_operation_xyz
x,y,z
-x,-y,-z
loop_
_atom_site_type_symbol
_atom_site_label
_atom_site_fract_x
_atom_site_fract_y
_atom_site_fract_z
Si Si1 0.590463 0.207192 0.220203
Si Si2 0.896389 0.036316 0.806050
Si Si3 0.694301 0.662447 0.563875
Si Si4 0.385270 0.188781 0.735433
Si Si5 0.762085 0.191152 0.942514
Si Si6 0.931757 0.555937 0.246019
Si Si7 0.156063 0.774105 0.475811
Si Si8 0.498755 0.474198 0.831695
O O1 0.322278 0.130392 0.178949
O O2 0.765899 0.383095 0.233904
O O3 0.634332 0.155110 0.391396
O O4 0.669255 0.170067 0.094115
O O5 0.140003 0.079917 0.790924
O O6 0.883905 0.115245 0.934118
O O7 0.841091 0.111380 0.652370
O O8 0.500000 0.500000 0.500000
O O9 0.655093 0.772519 0.446455
O O10 0.660586 0.623890 0.739854
O O11 0.940385 0.709581 0.556672
O O12 0.547975 0.138910 0.803791
O O13 0.520672 0.345722 0.816559
O O14 0.947765 0.361742 0.900345
O O15 0.759107 0.595484 0.249522
O O16 0.115814 0.640172 0.394468
O O17 0.500000 0.500000 0.000000
#
# Coordination Sequence:
#
# PCOD9013963 Si02
#       8
#     2   2   2   2   2   2   2   2
#     4  12  25  38  67  99 132 171 226 273 328 396
#     4  10  23  48  65  92 136 179 218 269 333 397
#     4   9  18  35  61  92 125 172 211 257 334 383
#     4  10  21  43  68  87 134 176 215 268 326 397
#     4  11  24  43  69  97 130 177 223 272 334 386
#     4  11  23  41  61 101 132 171 217 274 336 384
#     4  10  21  41  66  92 131 179 217 273 329 388
#     4  11  21  36  64 100 133 164 213 281 331 382
#
# _framework density 26.808083
#
# number of rings (size 3 to 8) (size 9 to 14) (size 15 to 20)
#    0.000    1.500    5.000    2.250    5.250    2.500 
#    0.000    1.250    0.000    6.000    0.000    0.000 
#    0.000    0.000    0.000    0.000    0.000    0.000 
#
# Total GULP energy -89532.506149 kJ/mol
# GULP energy per Si atom -5595.781634 kJ/mol
# Density = 2.674707 g / cm^3
# Si number density = 26.808083 Si / 1000 Ang^3
#
#
#
# Elastic Constant Matrix: (Units=GPa)
#
#
# Indices 1 2 3 4 5 6 
#
# 1 86.6760 24.2198 11.8491 -6.3397 -19.6133 26.3555
# 2 24.2198 126.5809 49.2784 -26.9756 -15.5823 32.6905
# 3 11.8491 49.2784 155.6882 -23.9348 -17.5990 8.0789
# 4 -6.3397 -26.9756 -23.9348 33.3861 8.9175 0.7026
# 5 -19.6133 -15.5823 -17.5990 8.9175 40.5313 -9.0679
# 6 26.3555 32.6905 8.0789 0.7026 -9.0679 31.5432
#
#
#
# Elastic Compliance Matrix: (Units=1/GPa)
#
#
# Indices 1 2 3 4 5 6 
#
# 1 0.016867 0.002053 -0.000024 0.003892 0.004743 -0.014938
# 2 0.002053 0.015336 -0.002391 0.011593 -0.000598 -0.017427
# 3 -0.000024 -0.002391 0.007837 0.003125 0.002008 0.000999
# 4 0.003892 0.011593 0.003125 0.044375 -0.006286 -0.018863
# 5 0.004743 -0.000598 0.002008 -0.006286 0.030096 0.004935
# 6 -0.014938 -0.017427 0.000999 -0.018863 0.004935 0.063828
#
#
# Mechanical properties :
#
#
# Convention : Reuss Voigt Hill
#
# Bulk Modulus (GPa) = 25.43525 59.95996 42.69760
# Shear Modulus (GPa) = 26.01887 39.99862 33.00875
#
# Velocity S-wave (km/s) = 3.11876 3.86688 3.51279
# Velocity P-wave (km/s) = 4.74103 6.50784 5.69339
#
# Compressibility (1/GPa) = 0.03931552
#
# Stress axis : x y z
#
# Youngs Moduli (GPa) = 59.28823 65.20695 127.59405
#
# Poissons Ratio (x) = -0.13388 0.00306
# Poissons Ratio (y) = -0.12173 0.30513
# Poissons Ratio (z) = 0.00142 0.15594
#
# Static dielectric constant tensor:
#      x y z
#    x 2.112820 -0.055500 0.024850 
#    y -0.055500 2.126880 -0.011410 
#    z 0.024850 -0.011410 2.190500 
# 
# From -- ./inp_files/187700.got.cif
#   From: 2010.05.17/outbox.cif.g08.bks.cpg/sg2_94_cif.got.tgz:187700.got - 2010.06.03 11:33:40.
