data_PCOD9013748
_publ_section_title
;
Structure prediction by ZEFSAII (Michael W. Deem and Ramdas Pophale) SiO2 
 PCOD9013748
Probable space group: P -1
;
_chemical_formula_sum "Si O2"
_cell_formula_units_Z 16
_cell_length_a 23.484572
_cell_length_b 5.776682
_cell_length_c 5.594948
_cell_angle_alpha 102.963571
_cell_angle_beta 121.029058
_cell_angle_gamma 83.166500
_cell_volume 633.832407
_symmetry_space_group_name_H-M "P -1"
_symmetry_group_IT_number 2
_symmetry_cell_setting 'triclinic'
loop_
_space_group_symop_operation_xyz
x,y,z
-x,-y,-z
loop_
_atom_site_type_symbol
_atom_site_label
_atom_site_fract_x
_atom_site_fract_y
_atom_site_fract_z
Si Si1 0.720952 0.198062 0.679190
Si Si2 0.610227 0.459121 0.264560
Si Si3 0.731384 0.688168 0.318817
Si Si4 0.163109 0.461834 0.180632
Si Si5 0.214513 0.060768 0.877920
Si Si6 0.925549 0.001467 0.520084
Si Si7 0.503113 0.723192 0.365260
Si Si8 0.037290 0.754393 0.856529
O O1 0.648557 0.302899 0.507155
O O2 0.781437 0.357223 0.754453
O O3 0.724612 0.945494 0.492635
O O4 0.741137 0.151584 0.983304
O O5 0.670303 0.542169 0.246363
O O6 0.571179 0.672735 0.356451
O O7 0.556954 0.319511 0.959943
O O8 0.805679 0.585305 0.502259
O O9 0.732610 0.752460 0.061857
O O10 0.174279 0.208161 0.022185
O O11 0.090899 0.548566 0.972347
O O12 0.151792 0.977426 0.570257
O O13 0.936787 0.100779 0.296278
O O14 0.962454 0.151878 0.843303
O O15 0.960245 0.746274 0.602210
O O16 0.500000 0.500000 0.500000
O O17 0.500000 0.000000 0.500000
#
# Coordination Sequence:
#
# PCOD9013748 Si02
#       8
#     2   2   2   2   2   2   2   2
#     4  10  22  43  66  97 142 187 234 302 363 452
#     4  10  26  49  75 109 151 190 253 301 379 458
#     4  10  24  41  66 102 141 188 237 307 369 449
#     4  10  22  39  61  96 137 178 242 297 376 444
#     4  11  23  39  67 101 138 185 242 305 378 447
#     4  10  22  39  68  93 134 186 251 306 383 458
#     4  11  28  50  84 116 154 203 250 314 382 461
#     4  10  21  41  65  95 130 192 243 312 382 461
#
# _framework density 25.243264
#
# number of rings (size 3 to 8) (size 9 to 14) (size 15 to 20)
#    0.000    1.750    1.250    0.750    7.000    7.500 
#    0.000    0.625    0.000    0.000    0.000    0.000 
#    0.000    0.000    0.000    0.000    0.000    0.000 
#
# Total GULP energy -89171.860075 kJ/mol
# GULP energy per Si atom -5573.241255 kJ/mol
# Density = 2.518581 g / cm^3
# Si number density = 25.243264 Si / 1000 Ang^3
#
#
#
# Elastic Constant Matrix: (Units=GPa)
#
#
# Indices 1 2 3 4 5 6 
#
# 1 103.4430 40.6024 52.5863 -20.8864 8.9415 -16.1769
# 2 40.6024 104.0337 56.0814 -14.4921 15.9202 -26.2497
# 3 52.5863 56.0814 109.5918 -22.2401 22.2685 -23.2308
# 4 -20.8864 -14.4921 -22.2401 46.4644 -13.2915 -5.4942
# 5 8.9415 15.9202 22.2685 -13.2915 41.4943 -14.0438
# 6 -16.1769 -26.2497 -23.2308 -5.4942 -14.0438 43.0224
#
#
#
# Elastic Compliance Matrix: (Units=1/GPa)
#
#
# Indices 1 2 3 4 5 6 
#
# 1 0.013977 -0.001943 -0.004705 0.004563 0.002738 0.003005
# 2 -0.001943 0.014836 -0.004999 0.002082 0.000078 0.005913
# 3 -0.004705 -0.004999 0.015990 0.003332 -0.003538 0.003085
# 4 0.004563 0.002082 0.003332 0.030123 0.010118 0.011935
# 5 0.002738 0.000078 -0.003538 0.010118 0.032349 0.011018
# 6 0.003005 0.005913 0.003085 0.011935 0.011018 0.034768
#
#
# Mechanical properties :
#
#
# Convention : Reuss Voigt Hill
#
# Bulk Modulus (GPa) = 46.49772 68.40097 57.44934
# Shear Modulus (GPa) = 28.98436 37.38278 33.18357
#
# Velocity S-wave (km/s) = 3.39219 3.85242 3.62961
# Velocity P-wave (km/s) = 5.81399 6.85155 6.35398
#
# Compressibility (1/GPa) = 0.02150643
#
# Stress axis : x y z
#
# Youngs Moduli (GPa) = 71.54836 67.40448 62.53980
#
# Poissons Ratio (x) = 0.13099 0.29427
# Poissons Ratio (y) = 0.13904 0.31265
# Poissons Ratio (z) = 0.33665 0.33697
#
# Static dielectric constant tensor:
#      x y z
#    x 2.042200 -0.021350 -0.048150 
#    y -0.021350 2.164390 0.046490 
#    z -0.048150 0.046490 2.175480 
# 
# From -- ./inp_files/10961.got.cif
#   From: 2010.05.17/outbox.cif.g08.bks.cpg/sg2_6_cif.got.tgz:10961.got - 2010.06.03 11:33:40.
