data_PCOD9013690
_publ_section_title
;
Structure prediction by ZEFSAII (Michael W. Deem and Ramdas Pophale) SiO2 
 PCOD9013690
Probable space group: P -1
;
_chemical_formula_sum "Si O2"
_cell_formula_units_Z 16
_cell_length_a 8.118612
_cell_length_b 15.391967
_cell_length_c 5.856437
_cell_angle_alpha 84.175161
_cell_angle_beta 55.725379
_cell_angle_gamma 90.998861
_cell_volume 599.141268
_symmetry_space_group_name_H-M "P -1"
_symmetry_group_IT_number 2
_symmetry_cell_setting 'triclinic'
loop_
_space_group_symop_operation_xyz
x,y,z
-x,-y,-z
loop_
_atom_site_type_symbol
_atom_site_label
_atom_site_fract_x
_atom_site_fract_y
_atom_site_fract_z
Si Si1 0.856210 0.705669 0.624793
Si Si2 0.431200 0.192804 0.437605
Si Si3 0.756486 0.980788 0.182438
Si Si4 0.236244 0.498489 0.309948
Si Si5 0.612549 0.676907 0.200295
Si Si6 0.241185 0.510878 0.802503
Si Si7 0.719652 0.228866 0.824997
Si Si8 0.786186 0.043448 0.644083
O O1 0.754443 0.787800 0.581454
O O2 0.747531 0.607269 0.692594
O O3 0.074943 0.709671 0.345869
O O4 0.827721 0.716920 0.915303
O O5 0.339176 0.118892 0.698412
O O6 0.468723 0.281954 0.521773
O O7 0.629091 0.183979 0.139201
O O8 0.697425 0.016265 0.471125
O O9 0.696252 0.010475 0.968428
O O10 0.000000 0.000000 0.000000
O O11 0.297400 0.544315 0.492579
O O12 0.000000 0.500000 0.500000
O O13 0.310675 0.540915 0.997400
O O14 0.678111 0.583495 0.240886
O O15 0.453891 0.712072 0.136661
O O16 0.000000 0.500000 0.000000
O O17 0.775652 0.148538 0.642125
O O18 0.000000 0.000000 0.500000
#
# Coordination Sequence:
#
# PCOD9013690 Si02
#       8
#     2   2   2   2   2   2   2   2
#     4  10  21  41  65  93 130 178 221 267 337 400
#     4  11  24  41  66  95 130 175 220 283 337 400
#     4  10  23  40  66  89 124 169 225 270 330 397
#     4   9  17  33  62  96 123 168 221 261 317 393
#     4  10  23  40  64  98 131 172 223 276 331 397
#     4   9  17  35  64  94 126 172 216 261 324 394
#     4  11  26  41  66  97 134 173 224 283 334 397
#     4  10  23  43  63  91 125 175 220 273 331 399
#
# _framework density 26.704886999999999
#
# number of rings (size 3 to 8) (size 9 to 14) (size 15 to 20)
#    0.000    2.000    1.250    1.500    8.750    2.000 
#    0.000    0.000    0.000   18.750    0.000    0.000 
#    0.000    0.000    0.000    0.000    0.000    0.000 
#
# Total GULP energy -89199.368163 kJ/mol
# GULP energy per Si atom -5574.960510 kJ/mol
# Density = 2.664411 g / cm^3
# Si number density = 26.704887 Si / 1000 Ang^3
#
#
#
# Elastic Constant Matrix: (Units=GPa)
#
#
# Indices 1 2 3 4 5 6 
#
# 1 99.1552 35.7197 63.3249 -10.3673 7.7260 -8.4657
# 2 35.7197 84.6464 25.0992 21.4213 -6.4010 -16.6138
# 3 63.3249 25.0992 180.3736 14.2770 21.7922 -0.9868
# 4 -10.3673 21.4213 14.2770 51.1746 -4.0548 7.8298
# 5 7.7260 -6.4010 21.7922 -4.0548 71.8257 4.9131
# 6 -8.4657 -16.6138 -0.9868 7.8298 4.9131 28.0486
#
#
#
# Elastic Compliance Matrix: (Units=1/GPa)
#
#
# Indices 1 2 3 4 5 6 
#
# 1 0.017523 -0.008495 -0.005669 0.009039 -0.000246 -0.002422
# 2 -0.008495 0.021003 0.001043 -0.012778 0.000836 0.013334
# 3 -0.005669 0.001043 0.007954 -0.004064 -0.001986 0.000669
# 4 0.009039 -0.012778 -0.004064 0.030088 0.001757 -0.013690
# 5 -0.000246 0.000836 -0.001986 0.001757 0.014913 -0.002752
# 6 -0.002422 0.013334 0.000669 -0.013690 -0.002752 0.047146
#
#
# Mechanical properties :
#
#
# Convention : Reuss Voigt Hill
#
# Bulk Modulus (GPa) = 49.40886 68.05142 58.73014
# Shear Modulus (GPa) = 29.13462 46.21187 37.67325
#
# Velocity S-wave (km/s) = 3.30659 4.16440 3.76004
# Velocity P-wave (km/s) = 5.75500 6.97575 6.39457
#
# Compressibility (1/GPa) = 0.02023929
#
# Stress axis : x y z
#
# Youngs Moduli (GPa) = 57.06702 47.61167 125.71748
#
# Poissons Ratio (x) = 0.40447 0.71267
# Poissons Ratio (y) = 0.48479 -0.13115
# Poissons Ratio (z) = 0.32350 -0.04967
#
# Static dielectric constant tensor:
#      x y z
#    x 2.334230 0.179060 0.060280 
#    y 0.179060 2.307670 -0.029860 
#    z 0.060280 -0.029860 2.179040 
# 
# From -- ./inp_files/47273.got.cif
#   From: 2010.05.17/outbox.cif.g08.bks.cpg/sg2_24_cif.got.tgz:47273.got - 2010.06.03 11:33:40.
