data_PCOD9013006
_publ_section_title
;
Structure prediction by ZEFSAII (Michael W. Deem and Ramdas Pophale) SiO2 
 PCOD9013006
Probable space group: P -1
;
_chemical_formula_sum "Si O2"
_cell_formula_units_Z 16
_cell_length_a 9.061179
_cell_length_b 14.323104
_cell_length_c 15.173470
_cell_angle_alpha 38.281166
_cell_angle_beta 141.237848
_cell_angle_gamma 135.085183
_cell_volume 740.034670
_symmetry_space_group_name_H-M "P -1"
_symmetry_group_IT_number 2
_symmetry_cell_setting 'triclinic'
loop_
_space_group_symop_operation_xyz
x,y,z
-x,-y,-z
loop_
_atom_site_type_symbol
_atom_site_label
_atom_site_fract_x
_atom_site_fract_y
_atom_site_fract_z
Si Si1 0.659616 0.329170 0.451694
Si Si2 0.811137 0.644472 0.387000
Si Si3 0.655130 0.994316 0.487942
Si Si4 0.373123 0.454128 0.881422
Si Si5 0.728759 0.259042 0.181022
Si Si6 0.562898 0.210895 0.834048
Si Si7 0.916633 0.503998 0.710817
Si Si8 0.820576 0.064305 0.203750
O O1 0.679154 0.469740 0.424612
O O2 0.583410 0.400934 0.272124
O O3 0.933189 0.309541 0.578921
O O4 0.475911 0.165515 0.504469
O O5 0.638712 0.760025 0.212323
O O6 0.867144 0.631144 0.526109
O O7 0.663355 0.139774 0.320542
O O8 0.500000 0.000000 0.500000
O O9 0.927919 0.986170 0.644821
O O10 0.088987 0.416727 0.800083
O O11 0.500000 0.500000 0.000000
O O12 0.494014 0.322072 0.999574
O O13 0.820852 0.174626 0.205561
O O14 0.935740 0.406079 0.204333
O O15 0.682883 0.375926 0.725488
O O16 0.412407 0.083356 0.791774
O O17 0.767667 0.151481 0.026048
#
# Coordination Sequence:
#
# PCOD9013006 Si02
#       8
#     2   2   2   2   2   2   2   2
#     4  10  22  38  67  93 127 169 217 265 314 381
#     4  10  21  41  62  95 127 165 219 264 314 386
#     4  12  25  41  68  94 131 173 210 268 328 380
#     4   9  19  39  62  95 130 162 215 265 313 376
#     4  11  24  42  67  98 130 165 218 272 316 383
#     4  11  24  42  65  89 134 174 208 264 333 377
#     4  10  22  38  69  91 125 174 214 263 316 386
#     4  11  27  43  62  96 136 164 218 269 324 387
#
# _framework density 21.620608000000001
#
# number of rings (size 3 to 8) (size 9 to 14) (size 15 to 20)
#    0.000    1.500    0.000    5.250    8.750    0.500 
#    0.000    0.625    0.000    0.000    0.000    0.000 
#    0.000    0.000    0.000    0.000    0.000    0.000 
#
# Total GULP energy -89435.087051 kJ/mol
# GULP energy per Si atom -5589.692941 kJ/mol
# Density = 2.157140 g / cm^3
# Si number density = 21.620608 Si / 1000 Ang^3
#
#
#
# Elastic Constant Matrix: (Units=GPa)
#
#
# Indices 1 2 3 4 5 6 
#
# 1 55.8267 11.8694 15.7978 -1.3186 13.1035 -5.5853
# 2 11.8694 104.2311 -1.1396 1.8731 0.6122 -0.5196
# 3 15.7978 -1.1396 63.8437 -3.8706 25.5886 3.7874
# 4 -1.3186 1.8731 -3.8706 24.8655 -6.1426 -2.0087
# 5 13.1035 0.6122 25.5886 -6.1426 26.7707 1.1594
# 6 -5.5853 -0.5196 3.7874 -2.0087 1.1594 28.0712
#
#
#
# Elastic Compliance Matrix: (Units=1/GPa)
#
#
# Indices 1 2 3 4 5 6 
#
# 1 0.021573 -0.002390 -0.002187 -0.000801 -0.008808 0.004850
# 2 -0.002390 0.009885 0.000701 -0.000770 0.000117 -0.000447
# 3 -0.002187 0.000701 0.025932 -0.002345 -0.024137 -0.003092
# 4 -0.000801 -0.000770 -0.002345 0.043159 0.012436 0.002718
# 5 -0.008808 0.000117 -0.024137 0.012436 0.067605 -0.000396
# 6 0.004850 -0.000447 -0.003092 0.002718 -0.000396 0.037208
#
#
# Mechanical properties :
#
#
# Convention : Reuss Voigt Hill
#
# Bulk Modulus (GPa) = 20.14564 30.77296 25.45930
# Shear Modulus (GPa) = 21.77131 29.09973 25.43552
#
# Velocity S-wave (km/s) = 3.17672 3.67267 3.43366
# Velocity P-wave (km/s) = 4.77425 5.67879 5.24605
#
# Compressibility (1/GPa) = 0.04963854
#
# Stress axis : x y z
#
# Youngs Moduli (GPa) = 46.35352 101.16502 38.56211
#
# Poissons Ratio (x) = 0.24181 0.08432
# Poissons Ratio (y) = 0.11080 -0.02703
# Poissons Ratio (z) = 0.10136 -0.07092
#
# Static dielectric constant tensor:
#      x y z
#    x 1.799460 -0.023100 0.029550 
#    y -0.023100 1.791310 0.007070 
#    z 0.029550 0.007070 1.806900 
# 
# From -- ./inp_files/503950.got.cif
#   From: 2010.05.17/outbox.cif.g08.bks.cpg/sg2_252_cif.got.tgz:503950.got - 2010.06.03 11:33:40.
