data_PCOD9013579
_publ_section_title
;
Structure prediction by ZEFSAII (Michael W. Deem and Ramdas Pophale) SiO2 
 PCOD9013579
Probable space group: P -1
;
_chemical_formula_sum "Si O2"
_cell_formula_units_Z 14
_cell_length_a 14.097603
_cell_length_b 14.281728
_cell_length_c 8.323153
_cell_angle_alpha 38.176046
_cell_angle_beta 59.727038
_cell_angle_gamma 32.309899
_cell_volume 484.089942
_symmetry_space_group_name_H-M "P -1"
_symmetry_group_IT_number 2
_symmetry_cell_setting 'triclinic'
loop_
_space_group_symop_operation_xyz
x,y,z
-x,-y,-z
loop_
_atom_site_type_symbol
_atom_site_label
_atom_site_fract_x
_atom_site_fract_y
_atom_site_fract_z
Si Si1 0.060562 0.261596 0.178299
Si Si2 0.561215 0.706818 0.812905
Si Si3 0.095890 0.215504 0.543443
Si Si4 0.960577 0.754100 0.117574
Si Si5 0.519865 0.658953 0.267287
Si Si6 0.522932 0.831210 0.327022
Si Si7 0.146283 0.863504 0.793578
O O1 0.977447 0.405058 0.230088
O O2 0.953516 0.410613 0.899963
O O3 0.296587 0.031145 0.283683
O O4 0.071692 0.065207 0.448823
O O5 0.607264 0.749851 0.548158
O O6 0.323123 0.012688 0.621770
O O7 0.616935 0.622416 0.071662
O O8 0.639781 0.454937 0.015159
O O9 0.138702 0.985955 0.786054
O O10 0.975907 0.383687 0.579585
O O11 0.008955 0.876117 0.915115
O O12 0.717383 0.015906 0.967566
O O13 0.500000 0.500000 0.500000
O O14 0.620295 0.596744 0.434098
O O15 0.500000 0.000000 0.000000
#
# Coordination Sequence:
#
# PCOD9013579 Si02
#       7
#     2   2   2   2   2   2   2
#     4   8  18  29  47  70 100 133 169 212 261 301
#     4  10  19  34  51  77 113 137 177 228 261 314
#     4   8  18  27  45  70 104 141 166 206 267 312
#     4  10  17  30  46  77 111 134 167 213 264 334
#     4  10  22  34  58  85 108 140 177 220 273 316
#     4  10  21  37  55  77 105 146 186 221 263 313
#     4  10  18  29  49  79 109 136 166 215 282 308
#
# _framework density 28.920248000000001
#
# number of rings (size 3 to 8) (size 9 to 14) (size 15 to 20)
#    0.857    1.714    0.000    3.000    4.000    0.571 
#    0.000    0.000    0.000    3.429    0.000   24.000 
#    0.000    0.000    0.000    0.000    0.000    0.000 
#
# Total GULP energy -78167.970908 kJ/mol
# GULP energy per Si atom -5583.426493 kJ/mol
# Density = 2.885442 g / cm^3
# Si number density = 28.920248 Si / 1000 Ang^3
#
#
#
# Elastic Constant Matrix: (Units=GPa)
#
#
# Indices 1 2 3 4 5 6 
#
# 1 80.9052 38.0141 75.0527 24.1584 24.7363 33.5132
# 2 38.0141 157.1967 72.3178 26.4975 12.5460 21.8509
# 3 75.0527 72.3178 187.5768 53.9168 37.3540 8.3467
# 4 24.1584 26.4975 53.9168 71.6100 19.0871 15.1400
# 5 24.7363 12.5460 37.3540 19.0871 38.2113 21.8112
# 6 33.5132 21.8509 8.3467 15.1400 21.8112 43.9438
#
#
#
# Elastic Compliance Matrix: (Units=1/GPa)
#
#
# Indices 1 2 3 4 5 6 
#
# 1 0.035390 0.001734 -0.016064 0.003864 0.007270 -0.029741
# 2 0.001734 0.008691 -0.004630 -0.000052 0.004584 -0.007022
# 3 -0.016064 -0.004630 0.017108 -0.006520 -0.012952 0.019979
# 4 0.003864 -0.000052 -0.006520 0.019621 -0.001524 -0.007686
# 5 0.007270 0.004584 -0.012952 -0.001524 0.050432 -0.029870
# 6 -0.029741 -0.007022 0.019979 -0.007686 -0.029870 0.062609
#
#
# Mechanical properties :
#
#
# Convention : Reuss Voigt Hill
#
# Bulk Modulus (GPa) = 42.97392 88.49423 65.73407
# Shear Modulus (GPa) = 20.87454 46.77262 33.82358
#
# Velocity S-wave (km/s) = 2.68954 4.02593 3.42357
# Velocity P-wave (km/s) = 4.95344 7.23026 6.19730
#
# Compressibility (1/GPa) = 0.02326993
#
# Stress axis : x y z
#
# Youngs Moduli (GPa) = 28.25671 115.05896 58.45172
#
# Poissons Ratio (x) = -0.19957 0.93896
# Poissons Ratio (y) = -0.04901 0.27065
# Poissons Ratio (z) = 0.45391 0.53275
#
# Static dielectric constant tensor:
#      x y z
#    x 2.384780 0.032200 -0.020560 
#    y 0.032200 2.177600 0.061160 
#    z -0.020560 0.061160 2.313130 
# 
# From -- ./inp_files/336152.got.cif
#   From: 2010.05.17/outbox.cif.g08.bks.cpg/sg2_169_cif.got.tgz:336152.got - 2010.06.03 11:33:40.
