data_PCOD9013491
_publ_section_title
;
Structure prediction by ZEFSAII (Michael W. Deem and Ramdas Pophale) SiO2 
 PCOD9013491
Probable space group: P -1
;
_chemical_formula_sum "Si O2"
_cell_formula_units_Z 14
_cell_length_a 8.896980
_cell_length_b 18.635985
_cell_length_c 12.082736
_cell_angle_alpha 32.516849
_cell_angle_beta 140.198240
_cell_angle_gamma 149.472703
_cell_volume 540.529292
_symmetry_space_group_name_H-M "P -1"
_symmetry_group_IT_number 2
_symmetry_cell_setting 'triclinic'
loop_
_space_group_symop_operation_xyz
x,y,z
-x,-y,-z
loop_
_atom_site_type_symbol
_atom_site_label
_atom_site_fract_x
_atom_site_fract_y
_atom_site_fract_z
Si Si1 0.281865 0.826560 0.988931
Si Si2 0.065595 0.063152 0.827500
Si Si3 0.312166 0.133748 0.560043
Si Si4 0.185332 0.381755 0.196276
Si Si5 0.193725 0.283716 0.948075
Si Si6 0.158352 0.395922 0.407429
Si Si7 0.073503 0.617118 0.494660
O O1 0.100833 0.739295 0.885494
O O2 0.388105 0.020084 0.806687
O O3 0.588095 0.849998 0.121462
O O4 0.023050 0.730657 0.061922
O O5 0.005121 0.197469 0.596745
O O6 0.000000 0.000000 0.000000
O O7 0.860198 0.893414 0.856892
O O8 0.294944 0.268524 0.437651
O O9 0.573285 0.247813 0.471804
O O10 0.000000 0.000000 0.500000
O O11 0.462901 0.548407 0.072874
O O12 0.128175 0.427604 0.222939
O O13 0.075643 0.299229 0.742980
O O14 0.500000 0.500000 0.500000
O O15 0.042726 0.457472 0.353829
O O16 0.000000 0.500000 0.500000
#
# Coordination Sequence:
#
# PCOD9013491 Si02
#       7
#     2   2   2   2   2   2   2
#     4  11  25  41  68 101 139 180 219 277 338 385
#     4  12  24  44  69 102 137 173 227 277 329 397
#     4  10  21  41  64  98 136 175 222 270 327 395
#     4  11  24  45  66 101 140 176 222 276 335 396
#     4  12  23  41  70  99 134 173 229 269 329 392
#     4  12  24  44  72  98 133 177 225 275 332 399
#     4  12  23  41  73  99 126 174 230 272 328 403
#
# _framework density 25.900541
#
# number of rings (size 3 to 8) (size 9 to 14) (size 15 to 20)
#    0.000    0.571    5.714    1.714    4.000    0.000 
#    0.000   12.143    0.000    0.000    0.000    0.000 
#    0.000    0.000    0.000    0.000    0.000    0.000 
#
# Total GULP energy -78400.819143 kJ/mol
# GULP energy per Si atom -5600.058510 kJ/mol
# Density = 2.584159 g / cm^3
# Si number density = 25.900541 Si / 1000 Ang^3
#
#
#
# Elastic Constant Matrix: (Units=GPa)
#
#
# Indices 1 2 3 4 5 6 
#
# 1 153.5616 49.2650 34.6164 -9.1041 -36.3531 -12.2421
# 2 49.2650 140.1386 23.5483 -16.3280 -7.5843 4.0606
# 3 34.6164 23.5483 98.1070 -11.7633 3.1690 -13.0359
# 4 -9.1041 -16.3280 -11.7633 42.3441 -7.6756 1.9254
# 5 -36.3531 -7.5843 3.1690 -7.6756 50.9023 -7.2518
# 6 -12.2421 4.0606 -13.0359 1.9254 -7.2518 44.3052
#
#
#
# Elastic Compliance Matrix: (Units=1/GPa)
#
#
# Indices 1 2 3 4 5 6 
#
# 1 0.010142 -0.002621 -0.002530 0.001716 0.007767 0.003495
# 2 -0.002621 0.008559 -0.001089 0.002445 -0.000447 -0.002008
# 3 -0.002530 -0.001089 0.011971 0.001872 -0.002076 0.002502
# 4 0.001716 0.002445 0.001872 0.026426 0.005538 0.000559
# 5 0.007767 -0.000447 -0.002076 0.005538 0.026908 0.005740
# 6 0.003495 -0.002008 0.002502 0.000559 0.005740 0.025372
#
#
# Mechanical properties :
#
#
# Convention : Reuss Voigt Hill
#
# Bulk Modulus (GPa) = 54.96992 67.40738 61.18865
# Shear Modulus (GPa) = 39.08594 46.46882 42.77738
#
# Velocity S-wave (km/s) = 3.88890 4.24031 4.06840
# Velocity P-wave (km/s) = 6.43695 7.07500 6.76350
#
# Compressibility (1/GPa) = 0.01819177
#
# Stress axis : x y z
#
# Youngs Moduli (GPa) = 98.59513 116.83401 83.53539
#
# Poissons Ratio (x) = 0.30626 0.21137
# Poissons Ratio (y) = 0.25845 0.09095
# Poissons Ratio (z) = 0.24947 0.12721
#
# Static dielectric constant tensor:
#      x y z
#    x 2.054570 -0.021460 0.035720 
#    y -0.021460 1.964970 -0.051190 
#    z 0.035720 -0.051190 2.148720 
# 
# From -- ./inp_files/158015.got.cif
#   From: 2010.05.17/outbox.cif.g08.bks.cpg/sg2_80_cif.got.tgz:158015.got - 2010.06.03 11:33:40.
