data_PCOD9013527
_publ_section_title
;
Structure prediction by ZEFSAII (Michael W. Deem and Ramdas Pophale) SiO2 
 PCOD9013527
Probable space group: P -1
;
_chemical_formula_sum "Si O2"
_cell_formula_units_Z 14
_cell_length_a 8.883223
_cell_length_b 13.101235
_cell_length_c 8.290986
_cell_angle_alpha 57.105527
_cell_angle_beta 95.809528
_cell_angle_gamma 58.517641
_cell_volume 582.680409
_symmetry_space_group_name_H-M "P -1"
_symmetry_group_IT_number 2
_symmetry_cell_setting 'triclinic'
loop_
_space_group_symop_operation_xyz
x,y,z
-x,-y,-z
loop_
_atom_site_type_symbol
_atom_site_label
_atom_site_fract_x
_atom_site_fract_y
_atom_site_fract_z
Si Si1 0.979452 0.616008 0.764266
Si Si2 0.457018 0.129477 0.008232
Si Si3 0.293513 0.084034 0.306198
Si Si4 0.215747 0.859030 0.449102
Si Si5 0.211103 0.423882 0.499637
Si Si6 0.259738 0.835759 0.856955
Si Si7 0.346523 0.524157 0.653705
O O1 0.895593 0.780301 0.710598
O O2 0.810751 0.641657 0.608308
O O3 0.181706 0.548409 0.741497
O O4 0.000000 0.500000 0.000000
O O5 0.282091 0.181158 0.069444
O O6 0.639570 0.086787 0.169698
O O7 0.391692 0.270907 0.761130
O O8 0.500000 0.000000 0.000000
O O9 0.500000 0.000000 0.500000
O O10 0.314920 0.936385 0.370665
O O11 0.236976 0.824210 0.673796
O O12 0.317795 0.684920 0.529280
O O13 0.976693 0.016956 0.233836
O O14 0.258390 0.537606 0.452236
O O15 0.000000 0.500000 0.500000
O O16 0.422338 0.648906 0.113675
#
# Coordination Sequence:
#
# PCOD9013527 Si02
#       7
#     2   2   2   2   2   2   2
#     4  11  22  40  70 104 134 177 232 289 335 408
#     4  11  23  41  69  95 135 181 227 288 345 411
#     4  12  24  41  65 104 132 175 240 286 335 407
#     4  11  23  39  70  98 143 180 226 290 342 408
#     4   9  20  37  65  95 131 178 219 275 346 403
#     4  10  21  41  65 102 133 185 229 274 352 411
#     4  10  22  41  68 100 141 186 225 275 352 415
#
# _framework density 24.026892
#
# number of rings (size 3 to 8) (size 9 to 14) (size 15 to 20)
#    0.000    1.429    1.429    5.571    4.000    0.000 
#    0.000    0.714    3.143    2.571    0.000    0.000 
#    0.000    0.000    0.000    0.000    0.000    0.000 
#
# Total GULP energy -78094.070378 kJ/mol
# GULP energy per Si atom -5578.147884 kJ/mol
# Density = 2.397221 g / cm^3
# Si number density = 24.026892 Si / 1000 Ang^3
#
#
#
# Elastic Constant Matrix: (Units=GPa)
#
#
# Indices 1 2 3 4 5 6 
#
# 1 100.8174 49.6718 44.2866 -3.8690 5.0524 23.4453
# 2 49.6718 130.4101 31.8816 -0.2062 12.5571 22.9414
# 3 44.2866 31.8816 85.2462 -2.3888 12.2712 3.8214
# 4 -3.8690 -0.2062 -2.3888 33.5736 -3.0076 1.1498
# 5 5.0524 12.5571 12.2712 -3.0076 34.5108 1.6680
# 6 23.4453 22.9414 3.8214 1.1498 1.6680 53.7173
#
#
#
# Elastic Compliance Matrix: (Units=1/GPa)
#
#
# Indices 1 2 3 4 5 6 
#
# 1 0.015868 -0.003666 -0.006868 0.001652 0.001837 -0.004964
# 2 -0.003666 0.010098 -0.001406 -0.000604 -0.002568 -0.002520
# 3 -0.006868 -0.001406 0.016343 -0.000122 -0.004429 0.002576
# 4 0.001652 -0.000604 -0.000122 0.030247 0.002715 -0.001186
# 5 0.001837 -0.002568 -0.004429 0.002715 0.031474 -0.000425
# 6 -0.004964 -0.002520 0.002576 -0.001186 -0.000425 0.021714
#
#
# Mechanical properties :
#
#
# Convention : Reuss Voigt Hill
#
# Bulk Modulus (GPa) = 54.26385 63.12819 58.69602
# Shear Modulus (GPa) = 32.09912 37.06927 34.58420
#
# Velocity S-wave (km/s) = 3.65905 3.93214 3.79805
# Velocity P-wave (km/s) = 6.36280 6.85176 6.61180
#
# Compressibility (1/GPa) = 0.01842847
#
# Stress axis : x y z
#
# Youngs Moduli (GPa) = 63.02110 99.03120 61.18650
#
# Poissons Ratio (x) = 0.36303 0.42024
# Poissons Ratio (y) = 0.23102 0.08605
# Poissons Ratio (z) = 0.43284 0.13927
#
# Static dielectric constant tensor:
#      x y z
#    x 1.983320 0.027350 0.057430 
#    y 0.027350 2.043210 0.087550 
#    z 0.057430 0.087550 1.886880 
# 
# From -- ./inp_files/186002.got.cif
#   From: 2010.05.17/outbox.cif.g08.bks.cpg/sg2_94_cif.got.tgz:186002.got - 2010.06.03 11:33:40.
