data_PCOD9013393
_publ_section_title
;
Structure prediction by ZEFSAII (Michael W. Deem and Ramdas Pophale) SiO2 
 PCOD9013393
Probable space group: P -1
;
_chemical_formula_sum "Si O2"
_cell_formula_units_Z 16
_cell_length_a 17.362143
_cell_length_b 9.585914
_cell_length_c 9.529781
_cell_angle_alpha 62.103695
_cell_angle_beta 71.869827
_cell_angle_gamma 34.408728
_cell_volume 783.178680
_symmetry_space_group_name_H-M "P -1"
_symmetry_group_IT_number 2
_symmetry_cell_setting 'triclinic'
loop_
_space_group_symop_operation_xyz
x,y,z
-x,-y,-z
loop_
_atom_site_type_symbol
_atom_site_label
_atom_site_fract_x
_atom_site_fract_y
_atom_site_fract_z
Si Si1 0.424105 0.825311 0.865076
Si Si2 0.349590 0.647630 0.851817
Si Si3 0.054015 0.646114 0.835705
Si Si4 0.058363 0.963232 0.833966
Si Si5 0.583505 0.815030 0.403207
Si Si6 0.468452 0.713074 0.341652
Si Si7 0.780851 0.912056 0.891716
Si Si8 0.900966 0.284063 0.500800
O O1 0.389212 0.770668 0.777495
O O2 0.403085 0.043491 0.757850
O O3 0.577912 0.545076 0.962782
O O4 0.321897 0.919848 0.997814
O O5 0.188956 0.868341 0.831091
O O6 0.424798 0.448278 0.772231
O O7 0.890173 0.881472 0.838820
O O8 0.102266 0.733776 0.835510
O O9 0.082081 0.598512 0.674748
O O10 0.130826 0.384985 0.994695
O O11 0.955374 0.208461 0.664857
O O12 0.000000 0.000000 0.000000
O O13 0.497765 0.816987 0.371536
O O14 0.737718 0.507141 0.489970
O O15 0.500000 0.000000 0.500000
O O16 0.500000 0.500000 0.500000
O O17 0.314962 0.948437 0.255386
O O18 0.000000 0.000000 0.500000
#
# Coordination Sequence:
#
# PCOD9013393 Si02
#       8
#     2   2   2   2   2   2   2   2
#     4  10  22  43  64  94 134 170 223 280 345 395
#     4  10  23  41  65  94 131 175 218 281 335 407
#     4  10  21  41  64  93 130 171 225 275 339 397
#     4  11  24  38  66  93 131 175 228 268 338 404
#     4  12  26  43  69  97 137 176 226 282 343 398
#     4  11  25  40  65  97 130 173 228 275 337 407
#     4  10  22  38  67  92 126 173 221 282 330 403
#     4  10  23  43  67  96 132 181 218 278 337 404
#
# _framework density 20.429565
#
# number of rings (size 3 to 8) (size 9 to 14) (size 15 to 20)
#    0.000    1.500    1.250    3.000    8.750    1.000 
#    0.000    0.625    0.000    0.000    0.000    0.000 
#    0.000    0.000    0.000    0.000    0.000    0.000 
#
# Total GULP energy -89305.717425 kJ/mol
# GULP energy per Si atom -5581.607339 kJ/mol
# Density = 2.038307 g / cm^3
# Si number density = 20.429565 Si / 1000 Ang^3
#
#
#
# Elastic Constant Matrix: (Units=GPa)
#
#
# Indices 1 2 3 4 5 6 
#
# 1 109.7345 32.4640 45.7758 -13.3646 19.2358 5.7520
# 2 32.4640 76.6610 30.9211 -11.6713 17.1595 -8.0344
# 3 45.7758 30.9211 112.4825 -10.6446 14.3999 -9.0096
# 4 -13.3646 -11.6713 -10.6446 42.3018 -0.0773 4.9686
# 5 19.2358 17.1595 14.3999 -0.0773 29.7244 -3.3225
# 6 5.7520 -8.0344 -9.0096 4.9686 -3.3225 40.9003
#
#
#
# Elastic Compliance Matrix: (Units=1/GPa)
#
#
# Indices 1 2 3 4 5 6 
#
# 1 0.013065 -0.002723 -0.003927 0.002851 -0.005423 -0.004024
# 2 -0.002723 0.017384 -0.002311 0.003065 -0.006883 0.002357
# 3 -0.003927 -0.002311 0.011576 0.000746 -0.001458 0.002439
# 4 0.002851 0.003065 0.000746 0.025934 -0.004258 -0.003131
# 5 -0.005423 -0.006883 -0.001458 -0.004258 0.042159 0.003032
# 6 -0.004024 0.002357 0.002439 -0.003131 0.003032 0.026643
#
#
# Mechanical properties :
#
#
# Convention : Reuss Voigt Hill
#
# Bulk Modulus (GPa) = 41.48563 57.46665 49.47614
# Shear Modulus (GPa) = 30.72830 35.23312 32.98071
#
# Velocity S-wave (km/s) = 3.88249 4.15735 4.02227
# Velocity P-wave (km/s) = 6.35996 7.15786 6.77068
#
# Compressibility (1/GPa) = 0.02410473
#
# Stress axis : x y z
#
# Youngs Moduli (GPa) = 76.53846 57.52510 86.38425
#
# Poissons Ratio (x) = 0.15662 0.33922
# Poissons Ratio (y) = 0.20839 0.19961
# Poissons Ratio (z) = 0.30055 0.13293
#
# Static dielectric constant tensor:
#      x y z
#    x 1.722790 0.009410 -0.017550 
#    y 0.009410 1.750380 0.006100 
#    z -0.017550 0.006100 1.786230 
# 
# From -- ./inp_files/297862.got.cif
#   From: 2010.05.17/outbox.cif.g08.bks.cpg/sg2_149_cif.got.tgz:297862.got - 2010.06.03 11:33:40.
