data_PCOD9013806
_publ_section_title
;
Structure prediction by ZEFSAII (Michael W. Deem and Ramdas Pophale) SiO2 
 PCOD9013806
Probable space group: P -1
;
_chemical_formula_sum "Si O2"
_cell_formula_units_Z 16
_cell_length_a 9.960832
_cell_length_b 10.845150
_cell_length_c 14.113275
_cell_angle_alpha 135.439795
_cell_angle_beta 54.620850
_cell_angle_gamma 94.964417
_cell_volume 716.748228
_symmetry_space_group_name_H-M "P -1"
_symmetry_group_IT_number 2
_symmetry_cell_setting 'triclinic'
loop_
_space_group_symop_operation_xyz
x,y,z
-x,-y,-z
loop_
_atom_site_type_symbol
_atom_site_label
_atom_site_fract_x
_atom_site_fract_y
_atom_site_fract_z
Si Si1 0.914714 0.544473 0.911834
Si Si2 0.284511 0.484454 0.306017
Si Si3 0.743796 0.139758 0.885057
Si Si4 0.753980 0.511764 0.131724
Si Si5 0.294832 0.096801 0.078375
Si Si6 0.997313 0.176400 0.535092
Si Si7 0.168624 0.029247 0.905532
Si Si8 0.434838 0.592882 0.469426
O O1 0.952052 0.371613 0.725008
O O2 0.106648 0.436461 0.842134
O O3 0.722949 0.622005 0.101264
O O4 0.912557 0.739267 0.974813
O O5 0.188662 0.349862 0.259343
O O6 0.166752 0.703916 0.416325
O O7 0.316630 0.511092 0.417513
O O8 0.506922 0.326257 0.083546
O O9 0.811285 0.990667 0.867582
O O10 0.844034 0.269906 0.925161
O O11 0.795987 0.977047 0.689689
O O12 0.599869 0.545565 0.296255
O O13 0.315558 0.003784 0.915771
O O14 0.500000 0.000000 0.000000
O O15 0.000000 0.000000 0.500000
O O16 0.292411 0.845349 0.678664
O O17 0.000000 0.000000 0.000000
O O18 0.500000 0.500000 0.500000
#
# Coordination Sequence:
#
# PCOD9013806 Si02
#       8
#     2   2   2   2   2   2   2   2
#     4  11  24  44  68 100 140 180 238 291 353 427
#     4  10  24  43  67 106 137 179 240 294 350 435
#     4  10  22  42  69  95 140 180 229 298 350 417
#     4  10  23  45  67  97 140 180 231 292 350 430
#     4  10  21  41  65  97 141 180 225 299 357 418
#     4  12  25  44  69  99 137 189 232 284 359 418
#     4  12  25  41  71 104 140 181 239 300 352 428
#     4  11  24  45  71 101 141 187 237 291 372 423
#
# _framework density 22.323041
#
# number of rings (size 3 to 8) (size 9 to 14) (size 15 to 20)
#    0.000    1.250    2.500    3.750    3.500    5.500 
#    0.000    0.000    0.000    0.000    0.000    0.000 
#    0.000    0.000    0.000    0.000    0.000    0.000 
#
# Total GULP energy -89123.439008 kJ/mol
# GULP energy per Si atom -5570.214938 kJ/mol
# Density = 2.227223 g / cm^3
# Si number density = 22.323041 Si / 1000 Ang^3
#
#
#
# Elastic Constant Matrix: (Units=GPa)
#
#
# Indices 1 2 3 4 5 6 
#
# 1 66.9247 18.8577 33.6177 -0.8397 17.7010 -5.8863
# 2 18.8577 132.5083 48.8204 13.6661 6.5186 2.8912
# 3 33.6177 48.8204 148.1637 -4.4915 16.3928 -6.4090
# 4 -0.8397 13.6661 -4.4915 36.2183 -0.2876 2.3351
# 5 17.7010 6.5186 16.3928 -0.2876 27.4394 0.6600
# 6 -5.8863 2.8912 -6.4090 2.3351 0.6600 28.8421
#
#
#
# Elastic Compliance Matrix: (Units=1/GPa)
#
#
# Indices 1 2 3 4 5 6 
#
# 1 0.019939 -0.001436 -0.002654 0.000339 -0.011024 0.003848
# 2 -0.001436 0.009241 -0.002957 -0.003781 0.000496 -0.001582
# 3 -0.002654 -0.002957 0.008771 0.002016 -0.002843 0.001606
# 4 0.000339 -0.003781 0.002016 0.029389 -0.000181 -0.001479
# 5 -0.011024 0.000496 -0.002843 -0.000181 0.045229 -0.003952
# 6 0.003848 -0.001582 0.001606 -0.001479 -0.003952 0.036182
#
#
# Mechanical properties :
#
#
# Convention : Reuss Voigt Hill
#
# Bulk Modulus (GPa) = 41.91916 61.13205 51.52560
# Shear Modulus (GPa) = 29.27450 34.92001 32.09726
#
# Velocity S-wave (km/s) = 3.62526 3.95942 3.79602
# Velocity P-wave (km/s) = 6.02848 6.95322 6.50730
#
# Compressibility (1/GPa) = 0.02385544
#
# Stress axis : x y z
#
# Youngs Moduli (GPa) = 50.15355 108.21906 114.01350
#
# Poissons Ratio (x) = 0.15543 0.30262
# Poissons Ratio (y) = 0.07203 0.33712
# Poissons Ratio (z) = 0.13312 0.31998
#
# Static dielectric constant tensor:
#      x y z
#    x 1.917370 0.036180 -0.018830 
#    y 0.036180 1.995930 -0.078310 
#    z -0.018830 -0.078310 1.899410 
# 
# From -- ./inp_files/419933.got.cif
#   From: 2010.05.17/outbox.cif.g08.bks.cpg/sg2_210_cif.got.tgz:419933.got - 2010.06.03 11:33:40.
