data_PCOD9013337
_publ_section_title
;
Structure prediction by ZEFSAII (Michael W. Deem and Ramdas Pophale) SiO2 
 PCOD9013337
Probable space group: P -1
;
_chemical_formula_sum "Si O2"
_cell_formula_units_Z 16
_cell_length_a 9.305533
_cell_length_b 22.418676
_cell_length_c 5.756939
_cell_angle_alpha 102.690085
_cell_angle_beta 52.505132
_cell_angle_gamma 132.239233
_cell_volume 667.741000
_symmetry_space_group_name_H-M "P -1"
_symmetry_group_IT_number 2
_symmetry_cell_setting 'triclinic'
loop_
_space_group_symop_operation_xyz
x,y,z
-x,-y,-z
loop_
_atom_site_type_symbol
_atom_site_label
_atom_site_fract_x
_atom_site_fract_y
_atom_site_fract_z
Si Si1 0.471771 0.436181 0.234938
Si Si2 0.322578 0.611256 0.635417
Si Si3 0.672340 0.283027 0.932056
Si Si4 0.817650 0.713828 0.962561
Si Si5 0.127217 0.453267 0.461150
Si Si6 0.924925 0.840945 0.641853
Si Si7 0.814490 0.197782 0.958119
Si Si8 0.575423 0.985262 0.662281
O O1 0.560838 0.405751 0.297169
O O2 0.268225 0.352585 0.205079
O O3 0.305550 0.457024 0.473066
O O4 0.705435 0.509212 0.903208
O O5 0.121491 0.520917 0.625600
O O6 0.254806 0.658136 0.865521
O O7 0.556840 0.675993 0.291763
O O8 0.737257 0.227962 0.865559
O O9 0.855930 0.358133 0.628776
O O10 0.371977 0.216898 0.136787
O O11 0.959862 0.805425 0.798842
O O12 0.995837 0.725410 0.985816
O O13 0.024258 0.821103 0.318365
O O14 0.119805 0.942272 0.564161
O O15 0.569658 0.112933 0.254862
O O16 0.500000 0.000000 0.500000
O O17 0.500000 0.000000 0.000000
#
# Coordination Sequence:
#
# PCOD9013337 Si02
#       8
#     2   2   2   2   2   2   2   2
#     4  10  21  41  64  91 127 180 234 285 338 409
#     4  11  22  40  61  91 134 176 225 289 342 406
#     4  12  24  42  66  99 137 180 228 288 347 421
#     4  11  19  40  68  90 133 175 226 285 345 410
#     4  10  23  39  61  94 129 180 234 283 343 406
#     4  11  23  45  69  98 139 174 230 283 351 418
#     4  11  24  44  69 101 136 178 230 279 358 421
#     4  10  22  44  80 107 142 191 234 290 364 432
#
# _framework density 23.961386000000001
#
# number of rings (size 3 to 8) (size 9 to 14) (size 15 to 20)
#    0.000    1.250    3.750    2.250    0.000    3.000 
#    6.750    0.000    0.000    3.750    0.000    0.000 
#    0.000    0.000    0.000    0.000    0.000    0.000 
#
# Total GULP energy -89435.214837 kJ/mol
# GULP energy per Si atom -5589.700927 kJ/mol
# Density = 2.390685 g / cm^3
# Si number density = 23.961386 Si / 1000 Ang^3
#
#
#
# Elastic Constant Matrix: (Units=GPa)
#
#
# Indices 1 2 3 4 5 6 
#
# 1 91.8533 34.7683 26.1706 -14.7913 -13.8269 19.9180
# 2 34.7683 89.3471 39.8041 -35.7164 -17.6895 14.7645
# 3 26.1706 39.8041 99.1343 -38.1570 -13.4192 6.8226
# 4 -14.7913 -35.7164 -38.1570 56.8884 5.3279 -4.2581
# 5 -13.8269 -17.6895 -13.4192 5.3279 39.5756 -5.3638
# 6 19.9180 14.7645 6.8226 -4.2581 -5.3638 32.2157
#
#
#
# Elastic Compliance Matrix: (Units=1/GPa)
#
#
# Indices 1 2 3 4 5 6 
#
# 1 0.014395 -0.003415 -0.001815 -0.000306 0.002027 -0.006654
# 2 -0.003415 0.018519 -0.002405 0.008396 0.004598 -0.003991
# 3 -0.001815 -0.002405 0.014802 0.007766 0.002333 0.000504
# 4 -0.000306 0.008396 0.007766 0.027662 0.002386 -0.001250
# 5 0.002027 0.004598 0.002333 0.002386 0.028668 0.001234
# 6 -0.006654 -0.003991 0.000504 -0.001250 0.001234 0.036917
#
#
# Mechanical properties :
#
#
# Convention : Reuss Voigt Hill
#
# Bulk Modulus (GPa) = 30.81968 53.53562 42.17765
# Shear Modulus (GPa) = 29.93129 37.70871 33.82000
#
# Velocity S-wave (km/s) = 3.53816 3.97133 3.76099
# Velocity P-wave (km/s) = 5.43890 6.58935 6.04157
#
# Compressibility (1/GPa) = 0.03244680
#
# Stress axis : x y z
#
# Youngs Moduli (GPa) = 69.46755 53.99870 67.55717
#
# Poissons Ratio (x) = 0.18439 0.12259
# Poissons Ratio (y) = 0.23722 0.16250
# Poissons Ratio (z) = 0.12606 0.12989
#
# Static dielectric constant tensor:
#      x y z
#    x 1.939860 0.020760 0.043860 
#    y 0.020760 1.979840 0.059140 
#    z 0.043860 0.059140 1.965060 
# 
# From -- ./inp_files/55491.got.cif
#   From: 2010.05.17/outbox.cif.g08.bks.cpg/sg2_28_cif.got.tgz:55491.got - 2010.06.03 11:33:40.
