data_PCOD9013531
_publ_section_title
;
Structure prediction by ZEFSAII (Michael W. Deem and Ramdas Pophale) SiO2 
 PCOD9013531
Probable space group: P -1
;
_chemical_formula_sum "Si O2"
_cell_formula_units_Z 15
_cell_length_a 20.451888
_cell_length_b 11.979866
_cell_length_c 8.535586
_cell_angle_alpha 140.110961
_cell_angle_beta 52.437750
_cell_angle_gamma 148.779656
_cell_volume 688.317321
_symmetry_space_group_name_H-M "P -1"
_symmetry_group_IT_number 2
_symmetry_cell_setting 'triclinic'
loop_
_space_group_symop_operation_xyz
x,y,z
-x,-y,-z
loop_
_atom_site_type_symbol
_atom_site_label
_atom_site_fract_x
_atom_site_fract_y
_atom_site_fract_z
Si Si1 0.493503 0.956268 0.276739
Si Si2 0.174674 0.237216 0.627274
Si Si3 0.358658 0.235688 0.484295
Si Si4 0.000000 0.500000 0.500000
Si Si5 0.973780 0.807635 0.702059
Si Si6 0.748791 0.275034 0.803042
Si Si7 0.412298 0.465321 0.972264
Si Si8 0.743235 0.544046 0.582938
O O1 0.373589 0.857121 0.264230
O O2 0.479224 0.724882 0.049818
O O3 0.500000 0.000000 0.500000
O O4 0.626857 0.257389 0.358121
O O5 0.275937 0.255212 0.551627
O O6 0.175873 0.242692 0.444645
O O7 0.207070 0.479395 0.908334
O O8 0.048068 0.976386 0.618457
O O9 0.500000 0.500000 0.500000
O O10 0.302459 0.951871 0.242697
O O11 0.355925 0.249662 0.692157
O O12 0.973800 0.288000 0.414203
O O13 0.130807 0.606237 0.343465
O O14 0.827779 0.561821 0.593293
O O15 0.000000 0.000000 0.000000
O O16 0.310831 0.396434 0.157384
O O17 0.500000 0.500000 0.000000
#
# Coordination Sequence:
#
# PCOD9013531 Si02
#       8
#     2   2   2   1   2   2   2   2
#     4  10  21  41  65 102 143 179 239 295 357 417
#     4  12  25  47  69 105 149 188 241 297 365 434
#     4  12  25  42  72 107 145 189 242 292 362 435
#     4  12  24  44  78 106 134 194 248 292 350 442
#     4  12  25  49  73 103 139 192 245 301 363 427
#     4  12  25  43  72 108 144 190 237 296 363 427
#     4  11  22  41  65 104 141 189 239 293 356 426
#     4  11  26  46  70 101 145 194 234 303 364 430
#
# _framework density 21.792275
#
# number of rings (size 3 to 8) (size 9 to 14) (size 15 to 20)
#    0.000    0.533    4.000    6.000    1.867    1.067 
#    0.000    0.667    0.000    0.000    0.000    0.000 
#    0.000    0.000    0.000    0.000    0.000    0.000 
#
# Total GULP energy -83534.046975 kJ/mol
# GULP energy per Si atom -5568.936465 kJ/mol
# Density = 2.174267 g / cm^3
# Si number density = 21.792275 Si / 1000 Ang^3
#
#
#
# Elastic Constant Matrix: (Units=GPa)
#
#
# Indices 1 2 3 4 5 6 
#
# 1 159.4811 33.8220 50.1383 -7.2139 -31.8287 6.1831
# 2 33.8220 125.4507 22.2505 -10.9434 -11.6979 -9.1968
# 3 50.1383 22.2505 65.4700 -1.1203 -18.5248 -1.5281
# 4 -7.2139 -10.9434 -1.1203 28.4673 -10.6250 -2.4977
# 5 -31.8287 -11.6979 -18.5248 -10.6250 37.2512 1.9764
# 6 6.1831 -9.1968 -1.5281 -2.4977 1.9764 44.1775
#
#
#
# Elastic Compliance Matrix: (Units=1/GPa)
#
#
# Indices 1 2 3 4 5 6 
#
# 1 0.009690 -0.000814 -0.005199 0.004306 0.006760 -0.001764
# 2 -0.000814 0.009266 -0.001687 0.004417 0.002523 0.002121
# 3 -0.005199 -0.001687 0.021587 0.001228 0.006065 0.000921
# 4 0.004306 0.004417 0.001228 0.045019 0.018407 0.002081
# 5 0.006760 0.002523 0.006065 0.018407 0.041735 -0.001038
# 6 -0.001764 0.002121 0.000921 0.002081 -0.001038 0.023520
#
#
# Mechanical properties :
#
#
# Convention : Reuss Voigt Hill
#
# Bulk Modulus (GPa) = 39.77038 62.53592 51.15315
# Shear Modulus (GPa) = 28.63741 38.25861 33.44801
#
# Velocity S-wave (km/s) = 3.62900 4.19454 3.92197
# Velocity P-wave (km/s) = 5.98739 7.22617 6.63575
#
# Compressibility (1/GPa) = 0.02514434
#
# Stress axis : x y z
#
# Youngs Moduli (GPa) = 103.20277 107.92220 46.32328
#
# Poissons Ratio (x) = 0.08781 0.24082
# Poissons Ratio (y) = 0.08397 0.07815
# Poissons Ratio (z) = 0.53652 0.18207
#
# Static dielectric constant tensor:
#      x y z
#    x 1.867460 -0.041850 -0.051800 
#    y -0.041850 1.988870 0.074080 
#    z -0.051800 0.074080 1.874510 
# 
# From -- ./inp_files/277304.got.cif
#   From: 2010.05.17/outbox.cif.g08.bks.cpg/sg2_139_cif.got.tgz:277304.got - 2010.06.03 11:33:40.
