data_PCOD9013109
_publ_section_title
;
Structure prediction by ZEFSAII (Michael W. Deem and Ramdas Pophale) SiO2 
 PCOD9013109
Probable space group: P -1
;
_chemical_formula_sum "Si O2"
_cell_formula_units_Z 16
_cell_length_a 15.054754
_cell_length_b 15.170170
_cell_length_c 12.134298
_cell_angle_alpha 139.425429
_cell_angle_beta 151.974219
_cell_angle_gamma 37.826379
_cell_volume 779.666617
_symmetry_space_group_name_H-M "P -1"
_symmetry_group_IT_number 2
_symmetry_cell_setting 'triclinic'
loop_
_space_group_symop_operation_xyz
x,y,z
-x,-y,-z
loop_
_atom_site_type_symbol
_atom_site_label
_atom_site_fract_x
_atom_site_fract_y
_atom_site_fract_z
Si Si1 0.957581 0.352091 0.803300
Si Si2 0.471816 0.489128 0.590064
Si Si3 0.791946 0.198217 0.652757
Si Si4 0.424803 0.400234 0.976277
Si Si5 0.723276 0.931597 0.232779
Si Si6 0.204446 0.648836 0.813835
Si Si7 0.266943 0.157499 0.587743
Si Si8 0.195493 0.899441 0.187221
O O1 0.765152 0.404366 0.558160
O O2 0.895523 0.295953 0.797115
O O3 0.138011 0.209899 0.818540
O O4 0.000000 0.500000 0.000000
O O5 0.500000 0.500000 0.500000
O O6 0.557675 0.312784 0.531671
O O7 0.593137 0.545862 0.865441
O O8 0.876069 0.133573 0.802531
O O9 0.800403 0.065509 0.456881
O O10 0.638637 0.398327 0.160999
O O11 0.245442 0.510710 0.807464
O O12 0.412343 0.242793 0.804314
O O13 0.721445 0.876086 0.301987
O O14 0.500000 0.000000 0.000000
O O15 0.968996 0.738165 0.604967
O O16 0.284826 0.751410 0.075053
O O17 0.324509 0.999585 0.442769
O O18 0.000000 0.000000 0.000000
#
# Coordination Sequence:
#
# PCOD9013109 Si02
#       8
#     2   2   2   2   2   2   2   2
#     4  11  24  39  63  96 126 169 219 264 328 395
#     4  10  22  39  65  90 130 166 212 265 328 381
#     4  10  21  41  63  90 128 170 207 270 326 388
#     4  11  22  38  66  96 122 169 212 268 323 381
#     4  11  24  41  62  90 130 169 217 264 326 396
#     4  10  21  41  64  92 129 161 215 267 322 384
#     4  10  23  39  64  91 125 166 214 265 319 388
#     4   9  19  40  62  87 124 166 208 259 327 380
#
# _framework density 20.521591999999998
#
# number of rings (size 3 to 8) (size 9 to 14) (size 15 to 20)
#    0.000    1.750    1.250    2.250    7.000    0.500 
#    6.750    2.500    0.000    0.000    0.000    0.000 
#    0.000    0.000    0.000    0.000    0.000    0.000 
#
# Total GULP energy -89178.580056 kJ/mol
# GULP energy per Si atom -5573.661254 kJ/mol
# Density = 2.047488 g / cm^3
# Si number density = 20.521592 Si / 1000 Ang^3
#
#
#
# Elastic Constant Matrix: (Units=GPa)
#
#
# Indices 1 2 3 4 5 6 
#
# 1 67.7987 37.4724 46.0850 4.7099 -19.0989 15.5201
# 2 37.4724 113.0030 40.2964 10.8599 0.4642 6.0172
# 3 46.0850 40.2964 75.3883 4.4753 -16.2792 17.5317
# 4 4.7099 10.8599 4.4753 44.9503 1.5206 0.7388
# 5 -19.0989 0.4642 -16.2792 1.5206 26.0797 2.1943
# 6 15.5201 6.0172 17.5317 0.7388 2.1943 45.1420
#
#
#
# Elastic Compliance Matrix: (Units=1/GPa)
#
#
# Indices 1 2 3 4 5 6 
#
# 1 0.032298 -0.006443 -0.010809 -0.001236 0.017672 -0.006886
# 2 -0.006443 0.012956 -0.005427 -0.001677 -0.008494 0.003036
# 3 -0.010809 -0.005427 0.026187 -0.000369 0.009067 -0.006165
# 4 -0.001236 -0.001677 -0.000369 0.022893 -0.002486 0.000538
# 5 0.017672 -0.008494 0.009067 -0.002486 0.058188 -0.011253
# 6 -0.006886 0.003036 -0.006165 0.000538 -0.011253 0.027048
#
#
# Mechanical properties :
#
#
# Convention : Reuss Voigt Hill
#
# Bulk Modulus (GPa) = 38.34073 55.98864 47.16468
# Shear Modulus (GPa) = 21.40197 32.05681 26.72939
#
# Velocity S-wave (km/s) = 3.23290 3.95663 3.61293
# Velocity P-wave (km/s) = 5.71482 6.94372 6.35903
#
# Compressibility (1/GPa) = 0.02608193
#
# Stress axis : x y z
#
# Youngs Moduli (GPa) = 30.96120 77.18712 38.18704
#
# Poissons Ratio (x) = 0.49731 0.41278
# Poissons Ratio (y) = 0.19948 0.20725
# Poissons Ratio (z) = 0.33467 0.41891
#
# Static dielectric constant tensor:
#      x y z
#    x 1.779470 -0.020110 0.015310 
#    y -0.020110 1.770520 0.011570 
#    z 0.015310 0.011570 1.745400 
# 
# From -- ./inp_files/455140.got.cif
#   From: 2010.05.17/outbox.cif.g08.bks.cpg/sg2_228_cif.got.tgz:455140.got - 2010.06.03 11:33:40.
