data_PCOD9013995
_publ_section_title
;
Structure prediction by ZEFSAII (Michael W. Deem and Ramdas Pophale) SiO2 
 PCOD9013995
Probable space group: P -1
;
_chemical_formula_sum "Si O2"
_cell_formula_units_Z 12
_cell_length_a 7.389443
_cell_length_b 18.153590
_cell_length_c 9.185243
_cell_angle_alpha 35.318328
_cell_angle_beta 93.191840
_cell_angle_gamma 115.664824
_cell_volume 526.943914
_symmetry_space_group_name_H-M "P -1"
_symmetry_group_IT_number 2
_symmetry_cell_setting 'triclinic'
loop_
_space_group_symop_operation_xyz
x,y,z
-x,-y,-z
loop_
_atom_site_type_symbol
_atom_site_label
_atom_site_fract_x
_atom_site_fract_y
_atom_site_fract_z
Si Si1 0.109279 0.447107 0.798999
Si Si2 0.543739 0.462694 0.752879
Si Si3 0.133530 0.196648 0.658040
Si Si4 0.388172 0.645794 0.764613
Si Si5 0.356359 0.921541 0.274641
Si Si6 0.653755 0.271762 0.881338
O O1 0.284055 0.410358 0.831316
O O2 0.161758 0.504496 0.876304
O O3 0.202866 0.614101 0.441395
O O4 0.839366 0.300508 0.961683
O O5 0.751814 0.670832 0.415002
O O6 0.396306 0.575686 0.028583
O O7 0.555647 0.356441 0.808635
O O8 0.368580 0.279852 0.434275
O O9 0.926602 0.185185 0.595569
O O10 0.000000 0.000000 0.000000
O O11 0.399021 0.801907 0.531618
O O12 0.500000 0.000000 0.000000
O O13 0.456827 0.077739 0.133707
#
# Coordination Sequence:
#
# PCOD9013995 Si02
#       6
#     2   2   2   2   2   2
#     4  10  21  41  66  93 133 170 224 265 322 390
#     4  11  25  43  67 100 135 169 221 271 329 387
#     4  11  22  40  71  94 126 175 220 263 320 389
#     4  11  24  44  68  97 132 177 217 268 328 392
#     4  12  23  42  66  95 134 168 225 269 322 394
#     4  11  24  39  66  99 131 175 216 276 323 381
#
# _framework density 22.772822999999999
#
# number of rings (size 3 to 8) (size 9 to 14) (size 15 to 20)
#    0.000    1.000    3.333    4.500    2.333    6.000 
#    0.000    1.667    0.000    0.000    0.000    0.000 
#    0.000    0.000    0.000    0.000    0.000    0.000 
#
# Total GULP energy -67207.155343 kJ/mol
# GULP energy per Si atom -5600.596279 kJ/mol
# Density = 2.272099 g / cm^3
# Si number density = 22.772823 Si / 1000 Ang^3
#
#
#
# Elastic Constant Matrix: (Units=GPa)
#
#
# Indices 1 2 3 4 5 6 
#
# 1 116.8426 54.5221 40.2112 -32.1947 19.5176 14.9486
# 2 54.5221 144.3317 49.4465 -17.3263 5.9874 7.0911
# 3 40.2112 49.4465 94.0633 -14.3483 19.5554 -5.7401
# 4 -32.1947 -17.3263 -14.3483 54.3681 -1.8567 13.2591
# 5 19.5176 5.9874 19.5554 -1.8567 35.8778 -4.9470
# 6 14.9486 7.0911 -5.7401 13.2591 -4.9470 38.8442
#
#
#
# Elastic Compliance Matrix: (Units=1/GPa)
#
#
# Indices 1 2 3 4 5 6 
#
# 1 0.016595 -0.003185 -0.002848 0.010422 -0.007892 -0.010788
# 2 -0.003185 0.009545 -0.004131 0.000380 0.002277 -0.000967
# 3 -0.002848 -0.004131 0.015418 0.000045 -0.005695 0.003388
# 4 0.010422 0.000380 0.000045 0.028002 -0.006299 -0.014434
# 5 -0.007892 0.002277 -0.005695 -0.006299 0.035733 0.008481
# 6 -0.010788 -0.000967 0.003388 -0.014434 0.008481 0.036579
#
#
# Mechanical properties :
#
#
# Convention : Reuss Voigt Hill
#
# Bulk Modulus (GPa) = 47.10084 71.51081 59.30583
# Shear Modulus (GPa) = 29.53740 39.88855 34.71297
#
# Velocity S-wave (km/s) = 3.60536 4.18974 3.90848
# Velocity P-wave (km/s) = 6.16922 7.40778 6.81669
#
# Compressibility (1/GPa) = 0.02123104
#
# Stress axis : x y z
#
# Youngs Moduli (GPa) = 60.25980 104.76400 64.86013
#
# Poissons Ratio (x) = 0.33363 0.18472
# Poissons Ratio (y) = 0.19190 0.26793
# Poissons Ratio (z) = 0.17162 0.43276
#
# Static dielectric constant tensor:
#      x y z
#    x 1.849930 -0.025210 -0.005600 
#    y -0.025210 1.867490 0.026330 
#    z -0.005600 0.026330 1.845090 
# 
# From -- ./inp_files/403725.got.cif
#   From: 2010.05.17/outbox.cif.g08.bks.cpg/sg2_202_cif.got.tgz:403725.got - 2010.06.03 11:33:40.
