data_PCOD9013666
_publ_section_title
;
Structure prediction by ZEFSAII (Michael W. Deem and Ramdas Pophale) SiO2 
 PCOD9013666
Probable space group: P -1
;
_chemical_formula_sum "Si O2"
_cell_formula_units_Z 13
_cell_length_a 9.497576
_cell_length_b 14.703558
_cell_length_c 9.329843
_cell_angle_alpha 138.445755
_cell_angle_beta 128.070474
_cell_angle_gamma 75.454270
_cell_volume 622.777482
_symmetry_space_group_name_H-M "P -1"
_symmetry_group_IT_number 2
_symmetry_cell_setting 'triclinic'
loop_
_space_group_symop_operation_xyz
x,y,z
-x,-y,-z
loop_
_atom_site_type_symbol
_atom_site_label
_atom_site_fract_x
_atom_site_fract_y
_atom_site_fract_z
Si Si1 0.087233 0.133266 0.905397
Si Si2 0.757048 0.077140 0.411248
Si Si3 0.382504 0.953930 0.222657
Si Si4 0.802082 0.398429 0.340903
Si Si5 0.559310 0.561458 0.448741
Si Si6 0.806312 0.380767 0.666890
Si Si7 0.000000 0.000000 0.000000
O O1 0.919075 0.148850 0.721678
O O2 0.194862 0.052752 0.783413
O O3 0.243110 0.290873 0.243264
O O4 0.995812 0.030837 0.862478
O O5 0.778969 0.210817 0.475582
O O6 0.545743 0.000675 0.257555
O O7 0.500000 0.000000 0.500000
O O8 0.258444 0.774741 0.938302
O O9 0.233310 0.027248 0.172581
O O10 0.621296 0.448731 0.260879
O O11 0.823613 0.410977 0.542439
O O12 0.000000 0.500000 0.500000
O O13 0.500000 0.500000 0.500000
O O14 0.374467 0.599304 0.342485
O O15 0.000000 0.500000 0.000000
#
# Coordination Sequence:
#
# PCOD9013666 Si02
#       7
#     2   2   2   2   2   2   1
#     4  11  23  41  70  98 137 178 229 292 346 422
#     4  11  23  42  68 102 134 180 238 285 349 413
#     4  12  26  45  73 103 142 186 233 298 344 413
#     4  11  25  45  70  99 142 182 227 286 357 409
#     4  10  21  41  65  92 131 180 224 275 344 411
#     4  11  24  42  69 101 137 184 233 286 346 423
#     4  12  24  44  66 104 136 176 228 284 358 398
#
# _framework density 20.874227999999999
#
# number of rings (size 3 to 8) (size 9 to 14) (size 15 to 20)
#    0.000    0.923    1.538    6.462    2.154    3.077 
#    2.769    0.769    0.000    0.000    0.000    0.000 
#    0.000    0.000    0.000    0.000    0.000    0.000 
#
# Total GULP energy -72394.516606 kJ/mol
# GULP energy per Si atom -5568.808970 kJ/mol
# Density = 2.082672 g / cm^3
# Si number density = 20.874228 Si / 1000 Ang^3
#
#
#
# Elastic Constant Matrix: (Units=GPa)
#
#
# Indices 1 2 3 4 5 6 
#
# 1 133.2440 26.4505 -0.0196 -8.6366 24.3993 13.7638
# 2 26.4505 74.4067 7.6643 -11.9188 8.8088 -1.2388
# 3 -0.0196 7.6643 57.5654 1.8775 7.9755 10.3814
# 4 -8.6366 -11.9188 1.8775 25.7379 5.3417 8.3640
# 5 24.3993 8.8088 7.9755 5.3417 28.5718 -7.1601
# 6 13.7638 -1.2388 10.3814 8.3640 -7.1601 29.7310
#
#
#
# Elastic Compliance Matrix: (Units=1/GPa)
#
#
# Indices 1 2 3 4 5 6 
#
# 1 0.014050 -0.001357 0.005586 0.013357 -0.019913 -0.017065
# 2 -0.001357 0.016128 -0.001266 0.008984 -0.005679 -0.002153
# 3 0.005586 -0.001266 0.022605 0.008571 -0.016534 -0.016925
# 4 0.013357 0.008984 0.008571 0.066775 -0.038276 -0.036805
# 5 -0.019913 -0.005679 -0.016534 -0.038276 0.076542 0.043957
# 6 -0.017065 -0.002153 -0.016925 -0.036805 0.043957 0.068296
#
#
# Mechanical properties :
#
#
# Convention : Reuss Voigt Hill
#
# Bulk Modulus (GPa) = 17.03275 37.04516 27.03895
# Shear Modulus (GPa) = 17.98303 32.21619 25.09961
#
# Velocity S-wave (km/s) = 2.93831 3.93281 3.47136
# Velocity P-wave (km/s) = 4.43722 6.19742 5.38966
#
# Compressibility (1/GPa) = 0.05871041
#
# Stress axis : x y z
#
# Youngs Moduli (GPa) = 71.17351 62.00382 44.23705
#
# Poissons Ratio (x) = 0.08415 -0.24712
# Poissons Ratio (y) = 0.09659 0.05599
# Poissons Ratio (z) = -0.39759 0.07848
#
# Static dielectric constant tensor:
#      x y z
#    x 1.716700 -0.040180 -0.008870 
#    y -0.040180 1.791800 -0.002720 
#    z -0.008870 -0.002720 1.732410 
# 
# From -- ./inp_files/155941.got.cif
#   From: 2010.05.17/outbox.cif.g08.bks.cpg/sg2_78_cif.got.tgz:155941.got - 2010.06.03 11:33:40.
