data_PCOD9013105
_publ_section_title
;
Structure prediction by ZEFSAII (Michael W. Deem and Ramdas Pophale) SiO2 
 PCOD9013105
Probable space group: P -1
;
_chemical_formula_sum "Si O2"
_cell_formula_units_Z 16
_cell_length_a 13.058435
_cell_length_b 25.723306
_cell_length_c 8.847292
_cell_angle_alpha 146.838957
_cell_angle_beta 133.902087
_cell_angle_gamma 28.576191
_cell_volume 767.609985
_symmetry_space_group_name_H-M "P -1"
_symmetry_group_IT_number 2
_symmetry_cell_setting 'triclinic'
loop_
_space_group_symop_operation_xyz
x,y,z
-x,-y,-z
loop_
_atom_site_type_symbol
_atom_site_label
_atom_site_fract_x
_atom_site_fract_y
_atom_site_fract_z
Si Si1 0.551546 0.368713 0.792161
Si Si2 0.055742 0.507360 0.906580
Si Si3 0.047744 0.964628 0.642566
Si Si4 0.611405 0.823518 0.549744
Si Si5 0.569050 0.556116 0.804361
Si Si6 0.377962 0.830122 0.097322
Si Si7 0.344777 0.984077 0.955156
Si Si8 0.375374 0.284995 0.229354
O O1 0.784066 0.207597 0.593822
O O2 0.388141 0.370590 0.561538
O O3 0.500000 0.500000 0.000000
O O4 0.542854 0.380899 0.993871
O O5 0.226872 0.339531 0.623975
O O6 0.849950 0.610676 0.837156
O O7 0.179767 0.545351 0.146860
O O8 0.000000 0.500000 0.000000
O O9 0.160490 0.009811 0.894471
O O10 0.000000 0.000000 0.500000
O O11 0.858881 0.045837 0.769293
O O12 0.516583 0.847086 0.346790
O O13 0.410214 0.925498 0.707831
O O14 0.710330 0.877845 0.770893
O O15 0.500000 0.500000 0.500000
O O16 0.487495 0.684137 0.931925
O O17 0.433704 0.795346 0.894795
O O18 0.558178 0.843931 0.926302
#
# Coordination Sequence:
#
# PCOD9013105 Si02
#       8
#     2   2   2   2   2   2   2   2
#     4  11  25  42  64 100 136 165 216 281 327 382
#     4  11  22  41  67  94 126 179 212 265 331 390
#     4  11  20  41  67  90 125 179 216 259 327 389
#     4  10  21  41  63  90 126 168 219 260 322 398
#     4  11  23  42  68  97 130 170 222 266 324 400
#     4  11  21  41  67  89 129 170 218 268 318 393
#     4  10  23  39  63  94 126 167 216 278 320 382
#     4  11  23  43  66  95 137 167 219 280 327 379
#
# _framework density 20.843917999999999
#
# number of rings (size 3 to 8) (size 9 to 14) (size 15 to 20)
#    0.000    1.250    5.000    3.000    0.000    6.500 
#    2.250    0.000    0.000    0.000    0.000    0.000 
#    0.000    0.000    0.000    0.000    0.000    0.000 
#
# Total GULP energy -89228.816920 kJ/mol
# GULP energy per Si atom -5576.801058 kJ/mol
# Density = 2.079648 g / cm^3
# Si number density = 20.843918 Si / 1000 Ang^3
#
#
#
# Elastic Constant Matrix: (Units=GPa)
#
#
# Indices 1 2 3 4 5 6 
#
# 1 68.2947 6.8620 39.0240 2.1037 -6.1478 0.5593
# 2 6.8620 85.9397 47.2242 -15.8635 12.2556 -6.8583
# 3 39.0240 47.2242 122.1794 -14.8129 -6.0719 -6.9638
# 4 2.1037 -15.8635 -14.8129 22.2139 7.2689 -4.2534
# 5 -6.1478 12.2556 -6.0719 7.2689 31.3505 0.0783
# 6 0.5593 -6.8583 -6.9638 -4.2534 0.0783 38.9419
#
#
#
# Elastic Compliance Matrix: (Units=1/GPa)
#
#
# Indices 1 2 3 4 5 6 
#
# 1 0.019413 -0.000033 -0.007148 -0.008556 0.004425 -0.002506
# 2 -0.000033 0.019949 -0.006281 0.014923 -0.012492 0.004046
# 3 -0.007148 -0.006281 0.013728 0.004882 0.002576 0.001979
# 4 -0.008556 0.014923 0.004882 0.069308 -0.022664 0.011240
# 5 0.004425 -0.012492 0.002576 -0.022664 0.043413 -0.004366
# 6 -0.002506 0.004046 0.001979 0.011240 -0.004366 0.028018
#
#
# Mechanical properties :
#
#
# Convention : Reuss Voigt Hill
#
# Bulk Modulus (GPa) = 38.21711 51.40380 44.81046
# Shear Modulus (GPa) = 21.78894 30.72150 26.25522
#
# Velocity S-wave (km/s) = 3.23668 3.84328 3.55295
# Velocity P-wave (km/s) = 5.68707 6.66403 6.19484
#
# Compressibility (1/GPa) = 0.02616629
#
# Stress axis : x y z
#
# Youngs Moduli (GPa) = 51.51309 50.12776 72.84255
#
# Poissons Ratio (x) = 0.00163 0.52068
# Poissons Ratio (y) = 0.00168 0.45754
# Poissons Ratio (z) = 0.36822 0.31486
#
# Static dielectric constant tensor:
#      x y z
#    x 1.757200 -0.052250 -0.021430 
#    y -0.052250 1.769000 -0.006640 
#    z -0.021430 -0.006640 1.771480 
# 
# From -- ./inp_files/200866.got.cif
#   From: 2010.05.17/outbox.cif.g08.bks.cpg/sg2_101_cif.got.tgz:200866.got - 2010.06.03 11:33:40.
