data_PCOD9013595
_publ_section_title
;
Structure prediction by ZEFSAII (Michael W. Deem and Ramdas Pophale) SiO2 
 PCOD9013595
Probable space group: P -1
;
_chemical_formula_sum "Si O2"
_cell_formula_units_Z 14
_cell_length_a 15.525041
_cell_length_b 5.108225
_cell_length_c 8.668906
_cell_angle_alpha 113.571761
_cell_angle_beta 103.094366
_cell_angle_gamma 55.418540
_cell_volume 518.795946
_symmetry_space_group_name_H-M "P -1"
_symmetry_group_IT_number 2
_symmetry_cell_setting 'triclinic'
loop_
_space_group_symop_operation_xyz
x,y,z
-x,-y,-z
loop_
_atom_site_type_symbol
_atom_site_label
_atom_site_fract_x
_atom_site_fract_y
_atom_site_fract_z
Si Si1 0.898412 0.316962 0.958588
Si Si2 0.037817 0.315430 0.743014
Si Si3 0.572788 0.127958 0.744933
Si Si4 0.792538 0.332260 0.475113
Si Si5 0.839573 0.885640 0.678451
Si Si6 0.612001 0.934523 0.385274
Si Si7 0.587448 0.097272 0.075066
O O1 0.949214 0.376378 0.843580
O O2 0.822440 0.183219 0.858200
O O3 0.875953 0.619803 0.133373
O O4 0.000000 0.000000 0.000000
O O5 0.965517 0.617734 0.666888
O O6 0.100605 0.925783 0.630435
O O7 0.510476 0.938506 0.653970
O O8 0.480102 0.503353 0.835599
O O9 0.609903 0.133371 0.587042
O O10 0.640134 0.011062 0.904320
O O11 0.799015 0.634889 0.624767
O O12 0.691231 0.544042 0.377742
O O13 0.796526 0.080812 0.545835
O O14 0.644744 0.957071 0.229347
O O15 0.500000 0.000000 0.000000
#
# Coordination Sequence:
#
# PCOD9013595 Si02
#       7
#     2   2   2   2   2   2   2
#     4   9  20  38  66  85 120 167 224 263 331 394
#     4  10  21  41  65  90 122 179 216 273 325 399
#     4   9  19  40  68  88 124 171 216 259 331 396
#     4  12  26  38  64  96 133 164 222 277 332 389
#     4  11  23  42  61  92 126 171 217 269 328 400
#     4  10  22  39  62  96 126 170 214 272 327 397
#     4   9  18  37  65  91 120 162 214 263 320 400
#
# _framework density 26.985564
#
# number of rings (size 3 to 8) (size 9 to 14) (size 15 to 20)
#    0.000    2.000    1.429    1.286    6.000    0.000 
#    0.000    8.571    0.000    0.000    0.000    0.000 
#    0.000    0.000    0.000    0.000    0.000    0.000 
#
# Total GULP energy -78016.800620 kJ/mol
# GULP energy per Si atom -5572.628616 kJ/mol
# Density = 2.692414 g / cm^3
# Si number density = 26.985564 Si / 1000 Ang^3
#
#
#
# Elastic Constant Matrix: (Units=GPa)
#
#
# Indices 1 2 3 4 5 6 
#
# 1 73.5085 18.8524 44.3285 3.3360 -6.9964 9.1852
# 2 18.8524 140.8588 69.2277 -26.2272 -11.0663 7.2778
# 3 44.3285 69.2277 194.5323 -34.9932 -20.6806 1.1799
# 4 3.3360 -26.2272 -34.9932 58.3740 12.6280 3.3047
# 5 -6.9964 -11.0663 -20.6806 12.6280 27.0757 -0.1525
# 6 9.1852 7.2778 1.1799 3.3047 -0.1525 32.9089
#
#
#
# Elastic Compliance Matrix: (Units=1/GPa)
#
#
# Indices 1 2 3 4 5 6 
#
# 1 0.017220 -0.000609 -0.004110 -0.004131 0.002965 -0.004096
# 2 -0.000609 0.009058 -0.002566 0.002602 0.000360 -0.002001
# 3 -0.004110 -0.002566 0.007809 0.003186 0.002374 0.001126
# 4 -0.004131 0.002602 0.003186 0.022272 -0.007969 -0.001810
# 5 0.002965 0.000360 0.002374 -0.007969 0.043377 0.000009
# 6 -0.004096 -0.002001 0.001126 -0.001810 0.000009 0.032114
#
#
# Mechanical properties :
#
#
# Convention : Reuss Voigt Hill
#
# Bulk Modulus (GPa) = 51.24089 74.85743 63.04916
# Shear Modulus (GPa) = 32.69529 42.10446 37.39988
#
# Velocity S-wave (km/s) = 3.48456 3.95430 3.72684
# Velocity P-wave (km/s) = 5.93456 6.97486 6.47563
#
# Compressibility (1/GPa) = 0.01951566
#
# Stress axis : x y z
#
# Youngs Moduli (GPa) = 58.07101 110.39767 128.05671
#
# Poissons Ratio (x) = 0.06727 0.52635
# Poissons Ratio (y) = 0.03539 0.32863
# Poissons Ratio (z) = 0.23869 0.28331
#
# Static dielectric constant tensor:
#      x y z
#    x 2.236160 0.016040 0.107360 
#    y 0.016040 2.209160 -0.077120 
#    z 0.107360 -0.077120 2.351050 
# 
# From -- ./inp_files/339986.got.cif
#   From: 2010.05.17/outbox.cif.g08.bks.cpg/sg2_170_cif.got.tgz:339986.got - 2010.06.03 11:33:40.
