data_PCOD9013440
_publ_section_title
;
Structure prediction by ZEFSAII (Michael W. Deem and Ramdas Pophale) SiO2 
 PCOD9013440
Probable space group: P -1
;
_chemical_formula_sum "Si O2"
_cell_formula_units_Z 16
_cell_length_a 9.784688
_cell_length_b 8.968601
_cell_length_c 13.456004
_cell_angle_alpha 60.844637
_cell_angle_beta 78.286960
_cell_angle_gamma 42.748692
_cell_volume 675.706095
_symmetry_space_group_name_H-M "P -1"
_symmetry_group_IT_number 2
_symmetry_cell_setting 'triclinic'
loop_
_space_group_symop_operation_xyz
x,y,z
-x,-y,-z
loop_
_atom_site_type_symbol
_atom_site_label
_atom_site_fract_x
_atom_site_fract_y
_atom_site_fract_z
Si Si1 0.226968 0.770158 0.164493
Si Si2 0.866763 0.336086 0.988986
Si Si3 0.896976 0.611787 0.168621
Si Si4 0.947865 0.807523 0.473035
Si Si5 0.246609 0.207948 0.664495
Si Si6 0.427636 0.264720 0.931273
Si Si7 0.698074 0.285587 0.611002
Si Si8 0.303849 0.060800 0.349294
O O1 0.208497 0.659623 0.109687
O O2 0.396855 0.759770 0.114537
O O3 0.296497 0.636656 0.305289
O O4 0.996181 0.065281 0.109355
O O5 0.042866 0.320870 0.952140
O O6 0.677804 0.583272 0.999501
O O7 0.769964 0.818041 0.208271
O O8 0.766869 0.564124 0.172481
O O9 0.121641 0.357414 0.258799
O O10 0.845700 0.857820 0.366459
O O11 0.766320 0.967808 0.529513
O O12 0.105485 0.506148 0.571272
O O13 0.093801 0.838371 0.433645
O O14 0.475336 0.049969 0.646329
O O15 0.500000 0.000000 0.000000
O O16 0.500000 0.500000 0.500000
O O17 0.698489 0.081286 0.689069
#
# Coordination Sequence:
#
# PCOD9013440 Si02
#       8
#     2   2   2   2   2   2   2   2
#     4  11  26  47  72  99 144 185 232 295 350 418
#     4  11  25  48  70 105 139 184 235 289 358 419
#     4  11  24  40  70 100 134 176 231 287 354 420
#     4  10  22  41  62  93 132 180 229 281 337 409
#     4  10  21  41  64  95 132 174 231 282 340 412
#     4  12  25  43  73 104 139 179 230 293 356 421
#     4  12  24  44  68  97 141 182 231 285 351 410
#     4  11  23  40  66  96 136 181 231 287 345 414
#
# _framework density 23.678934000000002
#
# number of rings (size 3 to 8) (size 9 to 14) (size 15 to 20)
#    0.000    1.000    2.500    3.750    5.250    0.000 
#    4.500    0.000    0.000    0.000    0.000    0.000 
#    0.000    0.000    0.000    0.000    0.000    0.000 
#
# Total GULP energy -89495.370253 kJ/mol
# GULP energy per Si atom -5593.460641 kJ/mol
# Density = 2.362504 g / cm^3
# Si number density = 23.678934 Si / 1000 Ang^3
#
#
#
# Elastic Constant Matrix: (Units=GPa)
#
#
# Indices 1 2 3 4 5 6 
#
# 1 122.7969 49.0554 9.8039 -0.7879 9.8623 -20.1876
# 2 49.0554 128.0615 43.5678 15.7404 13.2475 -17.0307
# 3 9.8039 43.5678 67.9726 13.2354 17.6188 -2.2029
# 4 -0.7879 15.7404 13.2354 22.5620 2.1349 3.1181
# 5 9.8623 13.2475 17.6188 2.1349 37.3105 7.2948
# 6 -20.1876 -17.0307 -2.2029 3.1181 7.2948 40.4764
#
#
#
# Elastic Compliance Matrix: (Units=1/GPa)
#
#
# Indices 1 2 3 4 5 6 
#
# 1 0.010517 -0.003939 0.001545 0.001932 -0.003017 0.004067
# 2 -0.003939 0.012685 -0.006047 -0.005854 -0.000991 0.003673
# 3 0.001545 -0.006047 0.022244 -0.008185 -0.008614 0.001620
# 4 0.001932 -0.005854 -0.008185 0.053862 0.003672 -0.006756
# 5 -0.003017 -0.000991 -0.008614 0.003672 0.033512 -0.008713
# 6 0.004067 0.003673 0.001620 -0.006756 -0.008713 0.030459
#
#
# Mechanical properties :
#
#
# Convention : Reuss Voigt Hill
#
# Bulk Modulus (GPa) = 35.00784 58.18726 46.59755
# Shear Modulus (GPa) = 26.35997 34.49670 30.42833
#
# Velocity S-wave (km/s) = 3.34012 3.82101 3.58863
# Velocity P-wave (km/s) = 5.44901 6.64030 6.07393
#
# Compressibility (1/GPa) = 0.02856503
#
# Stress axis : x y z
#
# Youngs Moduli (GPa) = 95.08420 78.83085 44.95637
#
# Poissons Ratio (x) = 0.31051 -0.06947
# Poissons Ratio (y) = 0.37453 0.27185
# Poissons Ratio (z) = -0.14694 0.47669
#
# Static dielectric constant tensor:
#      x y z
#    x 1.852430 0.012970 0.018990 
#    y 0.012970 1.907360 -0.017710 
#    z 0.018990 -0.017710 1.999220 
# 
# From -- ./inp_files/494643.got.cif
#   From: 2010.05.17/outbox.cif.g08.bks.cpg/sg2_248_cif.got.tgz:494643.got - 2010.06.03 11:33:40.
