data_PCOD9013970
_publ_section_title
;
Structure prediction by ZEFSAII (Michael W. Deem and Ramdas Pophale) SiO2 
 PCOD9013970
Probable space group: P -1
;
_chemical_formula_sum "Si O2"
_cell_formula_units_Z 16
_cell_length_a 18.280701
_cell_length_b 12.775903
_cell_length_c 15.353739
_cell_angle_alpha 28.996340
_cell_angle_beta 28.381561
_cell_angle_gamma 47.212170
_cell_volume 760.286207
_symmetry_space_group_name_H-M "P -1"
_symmetry_group_IT_number 2
_symmetry_cell_setting 'triclinic'
loop_
_space_group_symop_operation_xyz
x,y,z
-x,-y,-z
loop_
_atom_site_type_symbol
_atom_site_label
_atom_site_fract_x
_atom_site_fract_y
_atom_site_fract_z
Si Si1 0.927520 0.097499 0.202952
Si Si2 0.085052 0.812966 0.646236
Si Si3 0.634584 0.080215 0.226557
Si Si4 0.148290 0.210063 0.738126
Si Si5 0.847292 0.582082 0.597185
Si Si6 0.596513 0.156613 0.507467
Si Si7 0.260438 0.311522 0.005085
Si Si8 0.569441 0.196225 0.710294
O O1 0.908458 0.830329 0.401966
O O2 0.948341 0.173968 0.225715
O O3 0.747957 0.088328 0.369854
O O4 0.068410 0.269679 0.865194
O O5 0.225727 0.700754 0.564687
O O6 0.903452 0.703688 0.868647
O O7 0.181761 0.081471 0.315402
O O8 0.500000 0.000000 0.500000
O O9 0.739589 0.923811 0.249875
O O10 0.563441 0.000672 0.263408
O O11 0.708462 0.361059 0.948960
O O12 0.207342 0.392328 0.463957
O O13 0.000000 0.000000 0.000000
O O14 0.000000 0.500000 0.500000
O O15 0.563338 0.119256 0.672350
O O16 0.663473 0.434055 0.215501
O O17 0.427329 0.307081 0.785702
O O18 0.500000 0.000000 0.000000
#
# Coordination Sequence:
#
# PCOD9013970 Si02
#       8
#     2   2   2   2   2   2   2   2
#     4  10  22  40  67  94 135 166 233 276 333 413
#     4   9  21  40  66  96 125 180 220 278 348 404
#     4  12  26  43  68  99 140 176 228 281 344 403
#     4  10  21  43  65  97 126 173 228 277 328 403
#     4  11  23  43  70  92 135 182 221 285 335 398
#     4  11  25  41  62 100 133 174 222 281 348 401
#     4  10  21  41  66  92 136 171 225 279 344 409
#     4   9  20  42  64  92 135 168 224 281 330 414
#
# _framework density 21.044706999999999
#
# number of rings (size 3 to 8) (size 9 to 14) (size 15 to 20)
#    0.000    1.750    2.500    1.875    3.500    4.000 
#    6.750    0.000    0.000    0.000    0.000    0.000 
#    0.000    0.000    0.000    0.000    0.000    0.000 
#
# Total GULP energy -89082.484015 kJ/mol
# GULP energy per Si atom -5567.655251 kJ/mol
# Density = 2.099681 g / cm^3
# Si number density = 21.044707 Si / 1000 Ang^3
#
#
#
# Elastic Constant Matrix: (Units=GPa)
#
#
# Indices 1 2 3 4 5 6 
#
# 1 56.3389 3.7282 5.1288 16.2680 -0.5689 -14.1803
# 2 3.7282 97.2952 17.5084 25.2697 -9.9869 -20.2723
# 3 5.1288 17.5084 87.5755 -2.0204 29.1644 0.9844
# 4 16.2680 25.2697 -2.0204 32.6449 0.9847 -5.0937
# 5 -0.5689 -9.9869 29.1644 0.9847 42.2255 7.5200
# 6 -14.1803 -20.2723 0.9844 -5.0937 7.5200 30.0005
#
#
#
# Elastic Compliance Matrix: (Units=1/GPa)
#
#
# Indices 1 2 3 4 5 6 
#
# 1 0.026114 0.007483 -0.004665 -0.017034 0.003276 0.013839
# 2 0.007483 0.019147 -0.007509 -0.017431 0.008135 0.011723
# 3 -0.004665 -0.007509 0.018127 0.009251 -0.014081 -0.002774
# 4 -0.017034 -0.017431 0.009251 0.052148 -0.010414 -0.008669
# 5 0.003276 0.008135 -0.014081 -0.010414 0.036213 -0.003338
# 6 0.013839 0.011723 -0.002774 -0.008669 -0.003338 0.047252
#
#
# Mechanical properties :
#
#
# Convention : Reuss Voigt Hill
#
# Bulk Modulus (GPa) = 18.51649 32.66003 25.58826
# Shear Modulus (GPa) = 22.08612 35.29712 28.69162
#
# Velocity S-wave (km/s) = 3.24309 4.09986 3.69638
# Velocity P-wave (km/s) = 4.77925 6.16156 5.51390
#
# Compressibility (1/GPa) = 0.05400593
#
# Stress axis : x y z
#
# Youngs Moduli (GPa) = 38.29328 52.22620 55.16665
#
# Poissons Ratio (x) = -0.39079 0.25735
# Poissons Ratio (y) = -0.28654 0.41426
# Poissons Ratio (z) = 0.17863 0.39218
#
# Static dielectric constant tensor:
#      x y z
#    x 1.886040 -0.092290 -0.049490 
#    y -0.092290 1.780700 0.087350 
#    z -0.049490 0.087350 1.778640 
# 
# From -- ./inp_files/538394.got.cif
#   From: 2010.05.17/outbox.cif.g08.bks.cpg/sg2_270_cif.got.tgz:538394.got - 2010.06.03 11:33:40.
