data_PCOD9013708
_publ_section_title
;
Structure prediction by ZEFSAII (Michael W. Deem and Ramdas Pophale) SiO2 
 PCOD9013708
Probable space group: P -1
;
_chemical_formula_sum "Si O2"
_cell_formula_units_Z 14
_cell_length_a 16.323566
_cell_length_b 9.449690
_cell_length_c 4.916542
_cell_angle_alpha 80.557928
_cell_angle_beta 122.921622
_cell_angle_gamma 121.740694
_cell_volume 533.444319
_symmetry_space_group_name_H-M "P -1"
_symmetry_group_IT_number 2
_symmetry_cell_setting 'triclinic'
loop_
_space_group_symop_operation_xyz
x,y,z
-x,-y,-z
loop_
_atom_site_type_symbol
_atom_site_label
_atom_site_fract_x
_atom_site_fract_y
_atom_site_fract_z
Si Si1 0.969401 0.177211 0.803642
Si Si2 0.853733 0.888287 0.101577
Si Si3 0.660230 0.523905 0.660127
Si Si4 0.460255 0.278810 0.730600
Si Si5 0.834878 0.311672 0.200767
Si Si6 0.331027 0.063733 0.051650
Si Si7 0.838972 0.502506 0.654348
O O1 0.924206 0.273941 0.515169
O O2 0.027504 0.108878 0.722291
O O3 0.066186 0.306691 0.151805
O O4 0.875200 0.027396 0.868800
O O5 0.781038 0.918097 0.189709
O O6 0.762147 0.693472 0.927333
O O7 0.584694 0.380962 0.787793
O O8 0.580790 0.587162 0.370703
O O9 0.718872 0.469533 0.560379
O O10 0.432979 0.185919 0.995909
O O11 0.378944 0.132347 0.415310
O O12 0.831817 0.445904 0.351339
O O13 0.716754 0.131526 0.024491
O O14 0.866480 0.386761 0.932729
#
# Coordination Sequence:
#
# PCOD9013708 Si02
#       7
#     2   2   2   2   2   2   2
#     4  10  21  41  65  94 127 165 209 254 312 365
#     4   9  20  39  67  97 125 159 206 266 311 363
#     4   9  21  42  66  96 125 157 206 259 317 368
#     4  10  22  41  70  94 121 158 203 267 320 361
#     4  12  24  42  62  88 130 174 207 248 300 371
#     4  11  23  42  64  94 125 162 209 256 312 366
#     4  11  25  41  63  92 128 168 208 250 301 375
#
# _framework density 26.244539
#
# number of rings (size 3 to 8) (size 9 to 14) (size 15 to 20)
#    0.000    1.714    0.000    4.286    0.000   11.429 
#    0.000    7.143    0.000    0.000    0.000    0.000 
#    0.000    0.000    0.000    0.000    0.000    0.000 
#
# Total GULP energy -78480.392356 kJ/mol
# GULP energy per Si atom -5605.742311 kJ/mol
# Density = 2.618481 g / cm^3
# Si number density = 26.244539 Si / 1000 Ang^3
#
#
#
# Elastic Constant Matrix: (Units=GPa)
#
#
# Indices 1 2 3 4 5 6 
#
# 1 115.4954 48.8231 31.1997 22.3901 -8.5621 13.4691
# 2 48.8231 138.2503 25.4258 17.7442 -7.7510 20.7805
# 3 31.1997 25.4258 61.6813 0.3613 -17.4145 -2.8324
# 4 22.3901 17.7442 0.3613 34.5911 0.1689 -1.9283
# 5 -8.5621 -7.7510 -17.4145 0.1689 33.8853 7.9450
# 6 13.4691 20.7805 -2.8324 -1.9283 7.9450 52.7156
#
#
#
# Elastic Compliance Matrix: (Units=1/GPa)
#
#
# Indices 1 2 3 4 5 6 
#
# 1 0.012893 -0.002063 -0.005576 -0.007408 0.000697 -0.003156
# 2 -0.002063 0.009565 -0.002721 -0.003755 0.001155 -0.003701
# 3 -0.005576 -0.002721 0.022803 0.004864 0.009069 0.002534
# 4 -0.007408 -0.003755 0.004864 0.035877 -0.001627 0.005192
# 5 0.000697 0.001155 0.009069 -0.001627 0.035939 -0.005622
# 6 -0.003156 -0.003701 0.002534 0.005192 -0.005622 0.022409
#
#
# Mechanical properties :
#
#
# Convention : Reuss Voigt Hill
#
# Bulk Modulus (GPa) = 40.74897 58.48048 49.61472
# Shear Modulus (GPa) = 29.69385 38.23696 33.96540
#
# Velocity S-wave (km/s) = 3.36732 3.82114 3.60139
# Velocity P-wave (km/s) = 5.53885 6.46525 6.01990
#
# Compressibility (1/GPa) = 0.02454050
#
# Stress axis : x y z
#
# Youngs Moduli (GPa) = 77.56374 104.54411 43.85446
#
# Poissons Ratio (x) = 0.21571 0.24451
# Poissons Ratio (y) = 0.16004 0.11934
# Poissons Ratio (z) = 0.43246 0.28449
#
# Static dielectric constant tensor:
#      x y z
#    x 2.026110 -0.034400 0.062780 
#    y -0.034400 1.996340 0.017270 
#    z 0.062780 0.017270 2.134050 
# 
# From -- ./inp_files/106797.got.cif
#   From: 2010.05.17/outbox.cif.g08.bks.cpg/sg2_54_cif.got.tgz:106797.got - 2010.06.03 11:33:40.
