data_PCOD9013087
_publ_section_title
;
Structure prediction by ZEFSAII (Michael W. Deem and Ramdas Pophale) SiO2 
 PCOD9013087
Probable space group: P -1
;
_chemical_formula_sum "Si O2"
_cell_formula_units_Z 16
_cell_length_a 21.192581
_cell_length_b 12.273204
_cell_length_c 12.368395
_cell_angle_alpha 139.646721
_cell_angle_beta 149.799546
_cell_angle_gamma 30.447892
_cell_volume 818.233914
_symmetry_space_group_name_H-M "P -1"
_symmetry_group_IT_number 2
_symmetry_cell_setting 'triclinic'
loop_
_space_group_symop_operation_xyz
x,y,z
-x,-y,-z
loop_
_atom_site_type_symbol
_atom_site_label
_atom_site_fract_x
_atom_site_fract_y
_atom_site_fract_z
Si Si1 0.657681 0.901381 0.727417
Si Si2 0.054743 0.390329 0.231102
Si Si3 0.725873 0.587209 0.780238
Si Si4 0.079059 0.598219 0.746167
Si Si5 0.339731 0.728897 0.896543
Si Si6 0.281062 0.781564 0.594380
Si Si7 0.945715 0.235690 0.390009
Si Si8 0.567264 0.756218 0.899178
O O1 0.804517 0.778873 0.768188
O O2 0.675314 0.738893 0.717789
O O3 0.500000 0.000000 0.500000
O O4 0.648359 0.086025 0.914555
O O5 0.083163 0.553324 0.444291
O O6 0.022263 0.294062 0.212216
O O7 0.890645 0.526805 0.023786
O O8 0.749853 0.374933 0.620729
O O9 0.601842 0.700035 0.781194
O O10 0.070498 0.741613 0.746953
O O11 0.000000 0.500000 0.500000
O O12 0.262448 0.410274 0.912438
O O13 0.315407 0.733407 0.735814
O O14 0.186669 0.775462 0.764144
O O15 0.500000 0.500000 0.000000
O O16 0.434863 0.739485 0.735452
O O17 0.123648 0.027003 0.527530
O O18 0.500000 0.000000 0.000000
#
# Coordination Sequence:
#
# PCOD9013087 Si02
#       8
#     2   2   2   2   2   2   2   2
#     4  12  25  41  63  91 122 161 205 258 314 369
#     4  10  21  41  63  89 123 163 206 252 307 372
#     4  11  24  42  62  89 125 164 208 255 308 373
#     4   9  20  38  62  91 121 158 201 248 304 367
#     4  12  25  43  63  91 125 162 208 260 312 374
#     4  12  24  41  63  92 124 165 209 258 312 370
#     4  11  22  40  65  92 124 165 208 257 311 371
#     4  11  22  40  65  93 125 164 207 258 313 370
#
# _framework density 19.554310999999998
#
# number of rings (size 3 to 8) (size 9 to 14) (size 15 to 20)
#    0.000    1.000    0.000    8.625    0.000    4.000 
#    0.000    6.875    0.000    0.000    0.000    0.000 
#    0.000    0.000    0.000    0.000    0.000    0.000 
#
# Total GULP energy -89484.676154 kJ/mol
# GULP energy per Si atom -5592.792260 kJ/mol
# Density = 1.950980 g / cm^3
# Si number density = 19.554311 Si / 1000 Ang^3
#
#
#
# Elastic Constant Matrix: (Units=GPa)
#
#
# Indices 1 2 3 4 5 6 
#
# 1 137.4602 23.4380 12.5801 -33.9867 -6.7786 -3.1567
# 2 23.4380 57.7347 -11.5635 -6.9848 -10.1993 -7.7888
# 3 12.5801 -11.5635 47.9632 -9.6562 0.8135 3.0844
# 4 -33.9867 -6.9848 -9.6562 47.2826 -0.1381 -1.2288
# 5 -6.7786 -10.1993 0.8135 -0.1381 44.5032 -2.1957
# 6 -3.1567 -7.7888 3.0844 -1.2288 -2.1957 23.3825
#
#
#
# Elastic Compliance Matrix: (Units=1/GPa)
#
#
# Indices 1 2 3 4 5 6 
#
# 1 0.009581 -0.003350 -0.002187 0.005970 0.000792 0.000854
# 2 -0.003350 0.021904 0.006110 0.002261 0.004731 0.006601
# 3 -0.002187 0.006110 0.023796 0.004163 0.000590 -0.001125
# 4 0.005970 0.002261 0.004163 0.026696 0.001560 0.002559
# 5 0.000792 0.004731 0.000590 0.001560 0.023863 0.003928
# 6 0.000854 0.006601 -0.001125 0.002559 0.003928 0.045733
#
#
# Mechanical properties :
#
#
# Convention : Reuss Voigt Hill
#
# Bulk Modulus (GPa) = 17.72201 32.45192 25.08696
# Shear Modulus (GPa) = 29.54446 37.61392 33.57919
#
# Velocity S-wave (km/s) = 3.89124 4.39060 4.14844
# Velocity P-wave (km/s) = 5.41032 6.50653 5.98359
#
# Compressibility (1/GPa) = 0.05642702
#
# Stress axis : x y z
#
# Youngs Moduli (GPa) = 104.37449 45.65344 42.02308
#
# Poissons Ratio (x) = 0.15294 0.09191
# Poissons Ratio (y) = 0.34967 -0.25676
# Poissons Ratio (z) = 0.22828 -0.27894
#
# Static dielectric constant tensor:
#      x y z
#    x 1.689390 0.005860 -0.004830 
#    y 0.005860 1.647150 0.003650 
#    z -0.004830 0.003650 1.651950 
# 
# From -- ./inp_files/185933.got.cif
#   From: 2010.05.17/outbox.cif.g08.bks.cpg/sg2_93_cif.got.tgz:185933.got - 2010.06.03 11:33:40.
