data_PCOD9013520
_publ_section_title
;
Structure prediction by ZEFSAII (Michael W. Deem and Ramdas Pophale) SiO2 
 PCOD9013520
Probable space group: P -1
;
_chemical_formula_sum "Si O2"
_cell_formula_units_Z 16
_cell_length_a 22.692013
_cell_length_b 11.584706
_cell_length_c 9.835825
_cell_angle_alpha 132.256464
_cell_angle_beta 27.986630
_cell_angle_gamma 141.437566
_cell_volume 754.925475
_symmetry_space_group_name_H-M "P -1"
_symmetry_group_IT_number 2
_symmetry_cell_setting 'triclinic'
loop_
_space_group_symop_operation_xyz
x,y,z
-x,-y,-z
loop_
_atom_site_type_symbol
_atom_site_label
_atom_site_fract_x
_atom_site_fract_y
_atom_site_fract_z
Si Si1 0.673366 0.180080 0.787414
Si Si2 0.746230 0.002544 0.269071
Si Si3 0.666989 0.169447 0.328733
Si Si4 0.787097 0.132775 0.800036
Si Si5 0.371249 0.285517 0.248902
Si Si6 0.933041 0.857537 0.650859
Si Si7 0.702096 0.530555 0.674928
Si Si8 0.520829 0.684013 0.657998
O O1 0.757026 0.186100 0.757704
O O2 0.762385 0.156859 0.465495
O O3 0.630814 0.333725 0.995869
O O4 0.500000 0.000000 0.000000
O O5 0.592288 0.825849 0.498869
O O6 0.734069 0.074889 0.205997
O O7 0.857077 0.932329 0.966431
O O8 0.689000 0.343367 0.504718
O O9 0.500000 0.000000 0.500000
O O10 0.754124 0.238120 0.064534
O O11 0.943987 0.156761 0.528438
O O12 0.667838 0.910801 0.885597
O O13 0.275544 0.346771 0.408423
O O14 0.364216 0.252974 0.399326
O O15 0.539666 0.453711 0.009970
O O16 0.820805 0.662680 0.649834
O O17 0.000000 0.000000 0.500000
O O18 0.500000 0.500000 0.500000
#
# Coordination Sequence:
#
# PCOD9013520 Si02
#       8
#     2   2   2   2   2   2   2   2
#     4  10  21  41  65 101 131 172 225 281 340 402
#     4  11  23  42  67  96 137 185 222 279 349 403
#     4  12  23  38  70 103 130 179 234 288 342 393
#     4  12  23  43  68  96 137 179 227 281 339 414
#     4  11  21  41  66 102 129 177 231 283 335 398
#     4  12  25  46  64  99 143 185 229 280 348 415
#     4  11  25  39  68 100 141 173 232 287 337 405
#     4  11  23  38  69 103 139 170 226 288 346 403
#
# _framework density 21.194147000000001
#
# number of rings (size 3 to 8) (size 9 to 14) (size 15 to 20)
#    0.000    0.750    6.250    3.000    5.250    1.000 
#    0.000    0.000    0.000    3.750    0.000    0.000 
#    0.000    0.000    0.000    0.000    0.000    0.000 
#
# Total GULP energy -89245.247456 kJ/mol
# GULP energy per Si atom -5577.827966 kJ/mol
# Density = 2.114591 g / cm^3
# Si number density = 21.194147 Si / 1000 Ang^3
#
#
#
# Elastic Constant Matrix: (Units=GPa)
#
#
# Indices 1 2 3 4 5 6 
#
# 1 141.6500 16.2832 37.3793 10.4211 -12.9584 14.3705
# 2 16.2832 79.4688 20.6314 19.6572 -1.1357 7.7292
# 3 37.3793 20.6314 115.9028 33.9251 -2.4400 25.1920
# 4 10.4211 19.6572 33.9251 33.3392 0.2042 0.2041
# 5 -12.9584 -1.1357 -2.4400 0.2042 30.7128 3.0692
# 6 14.3705 7.7292 25.1920 0.2041 3.0692 27.7460
#
#
#
# Elastic Compliance Matrix: (Units=1/GPa)
#
#
# Indices 1 2 3 4 5 6 
#
# 1 0.008255 -0.000826 -0.001703 -0.000365 0.003609 -0.002895
# 2 -0.000826 0.015492 0.001925 -0.010807 0.001016 -0.005669
# 3 -0.001703 0.001925 0.017817 -0.018650 0.002488 -0.015969
# 4 -0.000365 -0.010807 -0.018650 0.055362 -0.004423 0.020215
# 5 0.003609 0.001016 0.002488 -0.004423 0.035173 -0.008269
# 6 -0.002895 -0.005669 -0.015969 0.020215 -0.008269 0.054385
#
#
# Mechanical properties :
#
#
# Convention : Reuss Voigt Hill
#
# Bulk Modulus (GPa) = 24.77922 53.95658 39.36790
# Shear Modulus (GPa) = 24.85791 35.87478 30.36634
#
# Velocity S-wave (km/s) = 3.42843 4.11868 3.78930
# Velocity P-wave (km/s) = 5.23346 6.93769 6.14494
#
# Compressibility (1/GPa) = 0.04035640
#
# Stress axis : x y z
#
# Youngs Moduli (GPa) = 121.14258 64.54962 56.12686
#
# Poissons Ratio (x) = 0.05331 0.09559
# Poissons Ratio (y) = 0.10005 -0.10807
# Poissons Ratio (z) = 0.20632 -0.12429
#
# Static dielectric constant tensor:
#      x y z
#    x 1.780550 -0.002230 0.011540 
#    y -0.002230 1.819420 0.027430 
#    z 0.011540 0.027430 1.803710 
# 
# From -- ./inp_files/313790.got.cif
#   From: 2010.05.17/outbox.cif.g08.bks.cpg/sg2_157_cif.got.tgz:313790.got - 2010.06.03 11:33:40.
