data_PCOD9013693
_publ_section_title
;
Structure prediction by ZEFSAII (Michael W. Deem and Ramdas Pophale) SiO2 
 PCOD9013693
Probable space group: P -1
;
_chemical_formula_sum "Si O2"
_cell_formula_units_Z 14
_cell_length_a 13.620826
_cell_length_b 4.866618
_cell_length_c 16.095696
_cell_angle_alpha 74.936827
_cell_angle_beta 31.220314
_cell_angle_gamma 78.485977
_cell_volume 533.479168
_symmetry_space_group_name_H-M "P -1"
_symmetry_group_IT_number 2
_symmetry_cell_setting 'triclinic'
loop_
_space_group_symop_operation_xyz
x,y,z
-x,-y,-z
loop_
_atom_site_type_symbol
_atom_site_label
_atom_site_fract_x
_atom_site_fract_y
_atom_site_fract_z
Si Si1 0.355233 0.411235 0.537909
Si Si2 0.936284 0.389399 0.644467
Si Si3 0.472583 0.625108 0.100684
Si Si4 0.492432 0.996658 0.813351
Si Si5 0.045604 0.268027 0.887651
Si Si6 0.307264 0.491062 0.820458
Si Si7 0.864608 0.153934 0.438225
O O1 0.500000 0.500000 0.500000
O O2 0.186017 0.206376 0.714297
O O3 0.496666 0.339457 0.363982
O O4 0.239264 0.680610 0.571277
O O5 0.733690 0.261017 0.776788
O O6 0.000000 0.500000 0.500000
O O7 0.957941 0.654087 0.670500
O O8 0.067822 0.155857 0.605609
O O9 0.572476 0.877777 0.061099
O O10 0.492464 0.342719 0.166356
O O11 0.500000 0.500000 0.000000
O O12 0.367611 0.172402 0.825176
O O13 0.706045 0.114197 0.628144
O O14 0.176223 0.477527 0.834462
O O15 0.840378 0.399957 0.012342
O O16 0.000000 0.000000 0.000000
#
# Coordination Sequence:
#
# PCOD9013693 Si02
#       7
#     2   2   2   2   2   2   2
#     4   9  21  44  64  99 133 170 226 272 332 407
#     4  12  22  42  68  92 132 167 223 274 321 392
#     4  12  26  40  62  95 131 171 211 274 334 388
#     4  11  22  42  66  91 131 170 219 267 331 400
#     4  10  21  41  65  93 132 171 215 277 337 390
#     4   9  22  40  64  92 128 174 216 271 334 399
#     4  11  22  42  70  99 122 180 222 271 333 391
#
# _framework density 26.242825
#
# number of rings (size 3 to 8) (size 9 to 14) (size 15 to 20)
#    0.000    1.429    2.857    1.714    2.000    2.857 
#   15.429    0.000    0.000    0.000    0.000    0.000 
#    0.000    0.000    0.000    0.000    0.000    0.000 
#
# Total GULP energy -78137.155911 kJ/mol
# GULP energy per Si atom -5581.225422 kJ/mol
# Density = 2.618310 g / cm^3
# Si number density = 26.242825 Si / 1000 Ang^3
#
#
#
# Elastic Constant Matrix: (Units=GPa)
#
#
# Indices 1 2 3 4 5 6 
#
# 1 84.9348 17.6076 17.8290 2.4223 -4.0157 -18.7226
# 2 17.6076 135.8078 39.7439 -1.4326 -7.3825 -17.7079
# 3 17.8290 39.7439 141.3725 2.9307 5.3037 -21.9917
# 4 2.4223 -1.4326 2.9307 35.7140 -9.2389 1.6220
# 5 -4.0157 -7.3825 5.3037 -9.2389 28.7536 9.1317
# 6 -18.7226 -17.7079 -21.9917 1.6220 9.1317 42.8380
#
#
#
# Elastic Compliance Matrix: (Units=1/GPa)
#
#
# Indices 1 2 3 4 5 6 
#
# 1 0.013254 -0.000900 -0.000565 -0.001213 -0.000332 0.005248
# 2 -0.000900 0.008435 -0.002142 0.001112 0.002330 0.001455
# 3 -0.000565 -0.002142 0.008612 -0.002042 -0.004229 0.004268
# 4 -0.001213 0.001112 -0.002042 0.031684 0.012238 -0.004927
# 5 -0.000332 0.002330 -0.004229 0.012238 0.043569 -0.011104
# 6 0.005248 0.001455 0.004268 -0.004927 -0.011104 0.030983
#
#
# Mechanical properties :
#
#
# Convention : Reuss Voigt Hill
#
# Bulk Modulus (GPa) = 43.31190 56.94180 50.12685
# Shear Modulus (GPa) = 33.01496 40.59008 36.80252
#
# Velocity S-wave (km/s) = 3.55076 3.93709 3.74890
# Velocity P-wave (km/s) = 5.77500 6.51251 6.15481
#
# Compressibility (1/GPa) = 0.02308834
#
# Stress axis : x y z
#
# Youngs Moduli (GPa) = 75.44608 118.55396 116.12080
#
# Poissons Ratio (x) = 0.10667 0.06557
# Poissons Ratio (y) = 0.06789 0.24873
# Poissons Ratio (z) = 0.04260 0.25394
#
# Static dielectric constant tensor:
#      x y z
#    x 2.050000 0.012030 0.018560 
#    y 0.012030 1.943350 -0.092380 
#    z 0.018560 -0.092380 2.145840 
# 
# From -- ./inp_files/97140.got.cif
#   From: 2010.05.17/outbox.cif.g08.bks.cpg/sg2_49_cif.got.tgz:97140.got - 2010.06.03 11:33:40.
