data_PCOD9013357
_publ_section_title
;
Structure prediction by ZEFSAII (Michael W. Deem and Ramdas Pophale) SiO2 
 PCOD9013357
Probable space group: P -1
;
_chemical_formula_sum "Si O2"
_cell_formula_units_Z 16
_cell_length_a 12.400748
_cell_length_b 8.798346
_cell_length_c 9.321624
_cell_angle_alpha 121.092952
_cell_angle_beta 105.350694
_cell_angle_gamma 65.005181
_cell_volume 787.942589
_symmetry_space_group_name_H-M "P -1"
_symmetry_group_IT_number 2
_symmetry_cell_setting 'triclinic'
loop_
_space_group_symop_operation_xyz
x,y,z
-x,-y,-z
loop_
_atom_site_type_symbol
_atom_site_label
_atom_site_fract_x
_atom_site_fract_y
_atom_site_fract_z
Si Si1 0.348462 0.512362 0.527155
Si Si2 0.306313 0.141942 0.757216
Si Si3 0.661054 0.127104 0.109694
Si Si4 0.079266 0.603755 0.501394
Si Si5 0.513900 0.287187 0.864940
Si Si6 0.970880 0.675124 0.183231
Si Si7 0.059460 0.976075 0.853250
Si Si8 0.400656 0.757855 0.441508
O O1 0.367507 0.673011 0.717478
O O2 0.221789 0.495620 0.508286
O O3 0.346679 0.607143 0.416322
O O4 0.462267 0.323012 0.491256
O O5 0.386367 0.261702 0.794003
O O6 0.167903 0.259338 0.786705
O O7 0.354118 0.032584 0.870019
O O8 0.326720 0.965502 0.572101
O O9 0.800838 0.061110 0.092374
O O10 0.584026 0.158981 0.956753
O O11 0.052934 0.799648 0.673151
O O12 0.000000 0.500000 0.500000
O O13 0.045006 0.633501 0.336234
O O14 0.587545 0.237909 0.721104
O O15 0.500000 0.500000 0.000000
O O16 0.989906 0.842343 0.178422
O O17 0.000000 0.500000 0.000000
O O18 0.000000 0.000000 0.000000
#
# Coordination Sequence:
#
# PCOD9013357 Si02
#       8
#     2   2   2   2   2   2   2   2
#     4   9  20  41  64  90 130 162 210 257 319 383
#     4  10  24  43  63  87 131 166 210 265 322 386
#     4   9  20  41  61  90 126 165 203 261 317 381
#     4  11  24  41  69  97 130 176 216 267 332 393
#     4  12  23  36  63  98 125 163 212 259 322 376
#     4  11  25  46  66  94 129 172 225 276 328 382
#     4  10  22  42  66  93 131 170 217 269 321 389
#     4  10  21  41  64  92 126 170 207 261 319 378
#
# _framework density 20.306049000000002
#
# number of rings (size 3 to 8) (size 9 to 14) (size 15 to 20)
#    0.000    1.750    1.250    2.625    1.750    4.000 
#    6.750    0.000    0.000    0.000    0.000    0.000 
#    0.000    0.000    0.000    0.000    0.000    0.000 
#
# Total GULP energy -89414.102976 kJ/mol
# GULP energy per Si atom -5588.381436 kJ/mol
# Density = 2.025983 g / cm^3
# Si number density = 20.306049 Si / 1000 Ang^3
#
#
#
# Elastic Constant Matrix: (Units=GPa)
#
#
# Indices 1 2 3 4 5 6 
#
# 1 102.9019 23.2851 38.4007 7.3609 -16.5056 7.6954
# 2 23.2851 38.7305 21.9977 11.7545 -3.9865 -11.8574
# 3 38.4007 21.9977 92.3581 -5.3344 -25.9630 -7.8293
# 4 7.3609 11.7545 -5.3344 35.9267 0.1086 -4.9137
# 5 -16.5056 -3.9865 -25.9630 0.1086 35.3958 2.6742
# 6 7.6954 -11.8574 -7.8293 -4.9137 2.6742 30.3784
#
#
#
# Elastic Compliance Matrix: (Units=1/GPa)
#
#
# Indices 1 2 3 4 5 6 
#
# 1 0.014319 -0.007983 -0.003877 -0.002056 0.003574 -0.008390
# 2 -0.007983 0.042587 -0.007804 -0.011346 -0.005773 0.015307
# 3 -0.003877 -0.007804 0.017724 0.006310 0.010095 0.002636
# 4 -0.002056 -0.011346 0.006310 0.033298 0.002069 0.002922
# 5 0.003574 -0.005773 0.010095 0.002069 0.036929 -0.003473
# 6 -0.008390 0.015307 0.002636 0.002922 -0.003473 0.042476
#
#
# Mechanical properties :
#
#
# Convention : Reuss Voigt Hill
#
# Bulk Modulus (GPa) = 28.32855 44.59527 36.46191
# Shear Modulus (GPa) = 20.97041 30.36066 25.66553
#
# Velocity S-wave (km/s) = 3.21708 3.87092 3.55904
# Velocity P-wave (km/s) = 5.27072 6.47981 5.90629
#
# Compressibility (1/GPa) = 0.03530007
#
# Stress axis : x y z
#
# Youngs Moduli (GPa) = 69.83587 23.48124 56.42014
#
# Poissons Ratio (x) = 0.18746 0.21876
# Poissons Ratio (y) = 0.55753 0.44033
# Poissons Ratio (z) = 0.27078 0.18326
#
# Static dielectric constant tensor:
#      x y z
#    x 1.710700 0.004350 -0.000990 
#    y 0.004350 1.735130 -0.008280 
#    z -0.000990 -0.008280 1.719360 
# 
# From -- ./inp_files/185325.got.cif
#   From: 2010.05.17/outbox.cif.g08.bks.cpg/sg2_93_cif.got.tgz:185325.got - 2010.06.03 11:33:40.
