data_PCOD9013777
_publ_section_title
;
Structure prediction by ZEFSAII (Michael W. Deem and Ramdas Pophale) SiO2 
 PCOD9013777
Probable space group: P -1
;
_chemical_formula_sum "Si O2"
_cell_formula_units_Z 16
_cell_length_a 14.463958
_cell_length_b 6.226382
_cell_length_c 11.190423
_cell_angle_alpha 70.091078
_cell_angle_beta 53.840660
_cell_angle_gamma 95.170904
_cell_volume 706.576643
_symmetry_space_group_name_H-M "P -1"
_symmetry_group_IT_number 2
_symmetry_cell_setting 'triclinic'
loop_
_space_group_symop_operation_xyz
x,y,z
-x,-y,-z
loop_
_atom_site_type_symbol
_atom_site_label
_atom_site_fract_x
_atom_site_fract_y
_atom_site_fract_z
Si Si1 0.262300 0.852375 0.497123
Si Si2 0.321838 0.378340 0.290448
Si Si3 0.136284 0.715873 0.855689
Si Si4 0.146112 0.897864 0.074769
Si Si5 0.685015 0.555960 0.161515
Si Si6 0.632633 0.256226 0.023965
Si Si7 0.524793 0.289796 0.679156
Si Si8 0.082290 0.423607 0.545843
O O1 0.182773 0.869100 0.669592
O O2 0.376855 0.775269 0.462156
O O3 0.168276 0.651081 0.519133
O O4 0.322583 0.107916 0.330796
O O5 0.380377 0.576910 0.104730
O O6 0.390331 0.500672 0.336353
O O7 0.177747 0.335874 0.420342
O O8 0.231553 0.577718 0.821527
O O9 0.143991 0.880924 0.935359
O O10 0.000000 0.500000 0.000000
O O11 0.228071 0.742559 0.081914
O O12 0.011520 0.778634 0.256664
O O13 0.217704 0.178506 0.006955
O O14 0.583193 0.623291 0.300959
O O15 0.617858 0.384273 0.133762
O O16 0.547700 0.966521 0.145608
O O17 0.000000 0.500000 0.500000
#
# Coordination Sequence:
#
# PCOD9013777 Si02
#       8
#     2   2   2   2   2   2   2   2
#     4  11  26  42  64  98 133 173 215 267 319 379
#     4  11  24  38  66  98 132 176 209 269 327 381
#     4  11  24  45  65  95 132 169 220 267 314 387
#     4  10  22  41  65  95 128 172 216 263 321 384
#     4  10  24  41  69  92 123 179 213 266 324 377
#     4  10  21  41  65  96 131 167 216 265 325 386
#     4  10  23  44  63  95 131 167 223 263 323 385
#     4  11  23  40  62  98 139 167 212 267 321 391
#
# _framework density 22.644393999999998
#
# number of rings (size 3 to 8) (size 9 to 14) (size 15 to 20)
#    0.000    1.500    2.500    1.125    3.500    6.500 
#    0.000    8.750    0.000    0.000    0.000    0.000 
#    0.000    0.000    0.000    0.000    0.000    0.000 
#
# Total GULP energy -89407.025492 kJ/mol
# GULP energy per Si atom -5587.939093 kJ/mol
# Density = 2.259285 g / cm^3
# Si number density = 22.644394 Si / 1000 Ang^3
#
#
#
# Elastic Constant Matrix: (Units=GPa)
#
#
# Indices 1 2 3 4 5 6 
#
# 1 59.3194 12.2872 14.7252 9.2706 -19.5492 -12.8381
# 2 12.2872 57.3050 6.5538 -11.3695 -14.4458 -9.4942
# 3 14.7252 6.5538 80.6212 4.2657 -17.3163 -8.7426
# 4 9.2706 -11.3695 4.2657 28.4580 -3.1811 -15.1072
# 5 -19.5492 -14.4458 -17.3163 -3.1811 36.1489 -4.0016
# 6 -12.8381 -9.4942 -8.7426 -15.1072 -4.0016 25.3613
#
#
#
# Elastic Compliance Matrix: (Units=1/GPa)
#
#
# Indices 1 2 3 4 5 6 
#
# 1 0.025778 0.004406 0.001152 0.007305 0.019387 0.022506
# 2 0.004406 0.041028 0.005717 0.044701 0.031107 0.051096
# 3 0.001152 0.005717 0.015742 0.009392 0.013024 0.015800
# 4 0.007305 0.044701 0.009392 0.103399 0.045648 0.092465
# 5 0.019387 0.031107 0.013024 0.045648 0.067903 0.063854
# 6 0.022506 0.051096 0.015800 0.092465 0.063854 0.140552
#
#
# Mechanical properties :
#
#
# Convention : Reuss Voigt Hill
#
# Bulk Modulus (GPa) = 9.51494 29.37534 19.44514
# Shear Modulus (GPa) = 12.28850 28.90558 20.59704
#
# Velocity S-wave (km/s) = 2.33206 3.57669 3.01921
# Velocity P-wave (km/s) = 3.38561 5.48248 4.55631
#
# Compressibility (1/GPa) = 0.10509787
#
# Stress axis : x y z
#
# Youngs Moduli (GPa) = 38.79326 24.37378 63.52307
#
# Poissons Ratio (x) = -0.10740 -0.07316
# Poissons Ratio (y) = -0.17094 -0.36316
# Poissons Ratio (z) = -0.04468 -0.13934
#
# Static dielectric constant tensor:
#      x y z
#    x 1.858400 -0.047630 -0.005510 
#    y -0.047630 1.808900 0.032840 
#    z -0.005510 0.032840 1.839200 
# 
# From -- ./inp_files/69362.got.cif
#   From: 2010.05.17/outbox.cif.g08.bks.cpg/sg2_35_cif.got.tgz:69362.got - 2010.06.03 11:33:40.
