data_PCOD9013023
_publ_section_title
;
Structure prediction by ZEFSAII (Michael W. Deem and Ramdas Pophale) SiO2 
 PCOD9013023
Probable space group: P -1
;
_chemical_formula_sum "Si O2"
_cell_formula_units_Z 14
_cell_length_a 10.788629
_cell_length_b 5.076763
_cell_length_c 12.187406
_cell_angle_alpha 59.245353
_cell_angle_beta 106.000401
_cell_angle_gamma 89.231055
_cell_volume 541.706158
_symmetry_space_group_name_H-M "P -1"
_symmetry_group_IT_number 2
_symmetry_cell_setting 'triclinic'
loop_
_space_group_symop_operation_xyz
x,y,z
-x,-y,-z
loop_
_atom_site_type_symbol
_atom_site_label
_atom_site_fract_x
_atom_site_fract_y
_atom_site_fract_z
Si Si1 0.081396 0.655750 0.076469
Si Si2 0.334087 0.326247 0.098220
Si Si3 0.143116 0.117498 0.633340
Si Si4 0.367901 0.781955 0.621545
Si Si5 0.419349 0.342747 0.892816
Si Si6 0.002396 0.454217 0.328437
Si Si7 0.594980 0.156534 0.609642
O O1 0.228949 0.577525 0.083349
O O2 0.079692 0.515559 0.227036
O O3 0.000000 0.500000 0.000000
O O4 0.000000 0.000000 0.000000
O O5 0.476539 0.425772 0.114119
O O6 0.338661 0.985611 0.229569
O O7 0.306615 0.361401 0.953394
O O8 0.106805 0.259861 0.713479
O O9 0.096164 0.374481 0.473251
O O10 0.287289 0.969258 0.660038
O O11 0.063817 0.839564 0.652492
O O12 0.377843 0.429133 0.739465
O O13 0.309633 0.846374 0.471608
O O14 0.505551 0.895491 0.623770
O O15 0.500000 0.000000 0.000000
O O16 0.500000 0.500000 0.500000
#
# Coordination Sequence:
#
# PCOD9013023 Si02
#       7
#     2   2   2   2   2   2   2
#     4  12  28  46  68 102 140 191 231 282 342 419
#     4  10  24  43  64  98 136 171 231 283 339 414
#     4  10  22  42  68  95 128 175 218 293 323 408
#     4  10  22  36  63  95 125 164 224 272 344 404
#     4  10  22  41  67  96 128 175 218 280 348 403
#     4  10  23  43  64  95 133 170 235 265 345 385
#     4  10  21  41  62  97 128 169 223 278 354 408
#
# _framework density 25.844270999999999
#
# number of rings (size 3 to 8) (size 9 to 14) (size 15 to 20)
#    0.000    1.714    0.000    2.571    8.000    0.000 
#    5.143    0.000    0.000    0.000    0.000    0.000 
#    0.000    0.000    0.000    0.000    0.000    0.000 
#
# Total GULP energy -78209.943249 kJ/mol
# GULP energy per Si atom -5586.424518 kJ/mol
# Density = 2.578545 g / cm^3
# Si number density = 25.844271 Si / 1000 Ang^3
#
#
#
# Elastic Constant Matrix: (Units=GPa)
#
#
# Indices 1 2 3 4 5 6 
#
# 1 89.9227 28.9116 45.6730 7.4190 -19.2017 -34.0101
# 2 28.9116 123.0579 50.0667 -8.6462 -19.6463 -21.3626
# 3 45.6730 50.0667 211.1113 -5.4949 -46.4473 -27.1031
# 4 7.4190 -8.6462 -5.4949 32.6851 -16.7757 0.8052
# 5 -19.2017 -19.6463 -46.4473 -16.7757 37.5349 11.6465
# 6 -34.0101 -21.3626 -27.1031 0.8052 11.6465 46.1900
#
#
#
# Elastic Compliance Matrix: (Units=1/GPa)
#
#
# Indices 1 2 3 4 5 6 
#
# 1 0.017190 -0.001727 -0.002164 -0.005235 -0.000480 0.010800
# 2 -0.001727 0.010436 -0.000262 0.006483 0.006652 0.001610
# 3 -0.002164 -0.000262 0.008278 0.008404 0.012829 -0.000239
# 4 -0.005235 0.006483 0.008404 0.054203 0.037286 -0.006271
# 5 -0.000480 0.006652 0.012829 0.037286 0.064484 -0.006658
# 6 0.010800 0.001610 -0.000239 -0.006271 -0.006658 0.031995
#
#
# Mechanical properties :
#
#
# Convention : Reuss Voigt Hill
#
# Bulk Modulus (GPa) = 36.23818 74.82162 55.52990
# Shear Modulus (GPa) = 24.49879 43.24471 33.87175
#
# Velocity S-wave (km/s) = 3.08220 4.09501 3.62416
# Velocity P-wave (km/s) = 5.16902 7.16747 6.24866
#
# Compressibility (1/GPa) = 0.02759520
#
# Stress axis : x y z
#
# Youngs Moduli (GPa) = 58.17445 95.82337 120.80243
#
# Poissons Ratio (x) = 0.16553 0.26147
# Poissons Ratio (y) = 0.10050 0.03167
# Poissons Ratio (z) = 0.12592 0.02512
#
# Static dielectric constant tensor:
#      x y z
#    x 2.054890 -0.027990 0.143910 
#    y -0.027990 2.105840 0.000820 
#    z 0.143910 0.000820 2.263220 
# 
# From -- ./inp_files/95261.got.cif
#   From: 2010.05.17/outbox.cif.g08.bks.cpg/sg2_48_cif.got.tgz:95261.got - 2010.06.03 11:33:40.
