data_PCOD9013244
_publ_section_title
;
Structure prediction by ZEFSAII (Michael W. Deem and Ramdas Pophale) SiO2 
 PCOD9013244
Probable space group: P -1
;
_chemical_formula_sum "Si O2"
_cell_formula_units_Z 16
_cell_length_a 8.398970
_cell_length_b 28.264692
_cell_length_c 28.132349
_cell_angle_alpha 9.900686
_cell_angle_beta 145.339525
_cell_angle_gamma 145.011770
_cell_volume 650.290902
_symmetry_space_group_name_H-M "P -1"
_symmetry_group_IT_number 2
_symmetry_cell_setting 'triclinic'
loop_
_space_group_symop_operation_xyz
x,y,z
-x,-y,-z
loop_
_atom_site_type_symbol
_atom_site_label
_atom_site_fract_x
_atom_site_fract_y
_atom_site_fract_z
Si Si1 0.782505 0.900225 0.873514
Si Si2 0.806128 0.032973 0.350203
Si Si3 0.504395 0.708981 0.523037
Si Si4 0.399719 0.794116 0.010315
Si Si5 0.774322 0.799169 0.864645
Si Si6 0.385391 0.236686 0.328365
Si Si7 0.778126 0.647902 0.331639
Si Si8 0.769625 0.161258 0.882350
O O1 0.865399 0.920808 0.818691
O O2 0.013383 0.769860 0.089851
O O3 0.452805 0.780075 0.908408
O O4 0.734339 0.188835 0.602156
O O5 0.103794 0.202339 0.262041
O O6 0.780655 0.813184 0.518551
O O7 0.718565 0.872967 0.536233
O O8 0.456440 0.402223 0.796647
O O9 0.530235 0.894412 0.298092
O O10 0.519109 0.723850 0.160215
O O11 0.067482 0.721404 0.993412
O O12 0.545771 0.537832 0.071707
O O13 0.612706 0.033285 0.568211
O O14 0.700183 0.426286 0.573180
O O15 0.000000 0.500000 0.500000
O O16 0.887651 0.939476 0.094163
O O17 0.500000 0.000000 0.000000
#
# Coordination Sequence:
#
# PCOD9013244 Si02
#       8
#     2   2   2   2   2   2   2   2
#     4   9  22  42  65  94 122 168 213 264 310 374
#     4   8  21  39  67  91 127 158 217 260 308 366
#     4  10  23  40  66  91 123 172 216 252 308 375
#     4  12  24  44  62  94 133 170 205 258 324 382
#     4  11  24  39  66  92 131 164 205 257 327 375
#     4  10  21  41  63  99 121 163 210 263 312 372
#     4  12  26  44  68  93 132 177 219 261 322 391
#     4  12  25  43  67 101 131 165 219 278 322 375
#
# _framework density 24.604372999999999
#
# number of rings (size 3 to 8) (size 9 to 14) (size 15 to 20)
#    0.750    0.750    0.000    4.500    1.750    9.500 
#    0.000    3.750    0.000    0.000    0.000    0.000 
#    0.000    0.000    0.000    0.000    0.000    0.000 
#
# Total GULP energy -89470.372823 kJ/mol
# GULP energy per Si atom -5591.898301 kJ/mol
# Density = 2.454837 g / cm^3
# Si number density = 24.604373 Si / 1000 Ang^3
#
#
#
# Elastic Constant Matrix: (Units=GPa)
#
#
# Indices 1 2 3 4 5 6 
#
# 1 41.6371 12.0505 2.2834 5.3249 -2.2317 13.8394
# 2 12.0505 139.2472 29.1679 25.7498 -7.4112 16.7916
# 3 2.2834 29.1679 82.4704 2.5521 -9.5059 1.0571
# 4 5.3249 25.7498 2.5521 33.9022 -2.6441 0.5282
# 5 -2.2317 -7.4112 -9.5059 -2.6441 26.9184 3.1641
# 6 13.8394 16.7916 1.0571 0.5282 3.1641 27.1546
#
#
#
# Elastic Compliance Matrix: (Units=1/GPa)
#
#
# Indices 1 2 3 4 5 6 
#
# 1 0.029973 0.000388 -0.000169 -0.004433 0.003964 -0.015885
# 2 0.000388 0.009960 -0.003030 -0.007164 0.001741 -0.006302
# 3 -0.000169 -0.003030 0.013602 0.001602 0.004003 0.000933
# 4 -0.004433 -0.007164 0.001602 0.035503 0.001030 0.005816
# 5 0.003964 0.001741 0.004003 0.001030 0.040410 -0.007981
# 6 -0.015885 -0.006302 0.000933 0.005816 -0.007981 0.049600
#
#
# Mechanical properties :
#
#
# Convention : Reuss Voigt Hill
#
# Bulk Modulus (GPa) = 20.87175 38.92870 29.90023
# Shear Modulus (GPa) = 24.92002 32.25191 28.58597
#
# Velocity S-wave (km/s) = 3.18595 3.62445 3.41225
# Velocity P-wave (km/s) = 4.69415 5.77683 5.26340
#
# Compressibility (1/GPa) = 0.04791164
#
# Stress axis : x y z
#
# Youngs Moduli (GPa) = 33.36304 100.40136 73.51975
#
# Poissons Ratio (x) = -0.03894 0.01245
# Poissons Ratio (y) = -0.01294 0.22278
# Poissons Ratio (z) = 0.00565 0.30423
#
# Static dielectric constant tensor:
#      x y z
#    x 1.981570 -0.029970 0.022130 
#    y -0.029970 1.966400 0.027580 
#    z 0.022130 0.027580 1.949170 
# 
# From -- ./inp_files/617686.got.cif
#   From: 2010.05.17/outbox.cif.g08.bks.cpg/sg2_309_cif.got.tgz:617686.got - 2010.06.03 11:33:40.
