data_PCOD9013253
_publ_section_title
;
Structure prediction by ZEFSAII (Michael W. Deem and Ramdas Pophale) SiO2 
 PCOD9013253
Probable space group: P -1
;
_chemical_formula_sum "Si O2"
_cell_formula_units_Z 16
_cell_length_a 11.848104
_cell_length_b 8.324725
_cell_length_c 20.336283
_cell_angle_alpha 40.499508
_cell_angle_beta 33.767666
_cell_angle_gamma 51.140986
_cell_volume 723.989913
_symmetry_space_group_name_H-M "P -1"
_symmetry_group_IT_number 2
_symmetry_cell_setting 'triclinic'
loop_
_space_group_symop_operation_xyz
x,y,z
-x,-y,-z
loop_
_atom_site_type_symbol
_atom_site_label
_atom_site_fract_x
_atom_site_fract_y
_atom_site_fract_z
Si Si1 0.237971 0.174099 0.623680
Si Si2 0.592365 0.231806 0.528128
Si Si3 0.666538 0.799492 0.705240
Si Si4 0.313994 0.438887 0.037315
Si Si5 0.760248 0.549580 0.599195
Si Si6 0.002435 0.424680 0.297734
Si Si7 0.509057 0.939443 0.092825
Si Si8 0.079103 0.266078 0.074171
O O1 0.445143 0.118223 0.579766
O O2 0.283775 0.304102 0.491824
O O3 0.106737 0.371840 0.668072
O O4 0.098244 0.930018 0.762359
O O5 0.500000 0.500000 0.500000
O O6 0.830663 0.276552 0.385871
O O7 0.591296 0.076519 0.644648
O O8 0.709342 0.707390 0.639131
O O9 0.868766 0.757312 0.662092
O O10 0.489162 0.626209 0.872903
O O11 0.163600 0.539902 0.133478
O O12 0.183571 0.364006 0.059836
O O13 0.420166 0.187509 0.089781
O O14 0.632885 0.293717 0.747300
O O15 0.000000 0.500000 0.500000
O O16 0.742932 0.869231 0.011320
O O17 0.500000 0.000000 0.000000
O O18 0.000000 0.500000 0.000000
#
# Coordination Sequence:
#
# PCOD9013253 Si02
#       8
#     2   2   2   2   2   2   2   2
#     4  11  25  46  71 100 143 181 229 289 348 405
#     4  10  26  47  64  96 143 183 229 280 343 417
#     4  12  23  44  72 101 135 181 233 282 348 407
#     4  11  24  43  71 105 137 173 232 287 342 414
#     4  12  23  39  73 107 135 174 230 290 345 404
#     4  11  25  46  70 100 136 184 229 285 343 414
#     4  10  21  41  63  99 140 167 224 282 335 404
#     4  11  23  44  70 102 139 184 229 280 343 414
#
# _framework density 22.099754000000001
#
# number of rings (size 3 to 8) (size 9 to 14) (size 15 to 20)
#    0.000    1.000    3.750    3.750    3.500    3.500 
#    0.000    6.875    0.000    0.000    0.000    0.000 
#    0.000    0.000    0.000    0.000    0.000    0.000 
#
# Total GULP energy -89526.099404 kJ/mol
# GULP energy per Si atom -5595.381213 kJ/mol
# Density = 2.204945 g / cm^3
# Si number density = 22.099754 Si / 1000 Ang^3
#
#
#
# Elastic Constant Matrix: (Units=GPa)
#
#
# Indices 1 2 3 4 5 6 
#
# 1 136.9745 47.2662 60.1365 10.2087 -16.3011 -32.9777
# 2 47.2662 98.7550 52.4292 -2.6235 9.1318 -22.7825
# 3 60.1365 52.4292 170.7820 -5.9830 -11.0824 -14.7596
# 4 10.2087 -2.6235 -5.9830 39.3195 4.0612 11.0773
# 5 -16.3011 9.1318 -11.0824 4.0612 36.8078 4.5214
# 6 -32.9777 -22.7825 -14.7596 11.0773 4.5214 42.3181
#
#
#
# Elastic Compliance Matrix: (Units=1/GPa)
#
#
# Indices 1 2 3 4 5 6 
#
# 1 0.012863 -0.003520 -0.002604 -0.006918 0.005512 0.008443
# 2 -0.003520 0.015508 -0.003533 0.000759 -0.007161 0.004941
# 3 -0.002604 -0.003533 0.007897 0.001963 0.002120 -0.001917
# 4 -0.006918 0.000759 0.001963 0.031449 -0.004653 -0.012033
# 5 0.005512 -0.007161 0.002120 -0.004653 0.032672 -0.001093
# 6 0.008443 0.004941 -0.001917 -0.012033 -0.001093 0.035468
#
#
# Mechanical properties :
#
#
# Convention : Reuss Voigt Hill
#
# Bulk Modulus (GPa) = 58.97631 80.68614 69.83123
# Shear Modulus (GPa) = 31.09050 40.13439 35.61244
#
# Velocity S-wave (km/s) = 3.75484 4.26614 4.01863
# Velocity P-wave (km/s) = 6.74854 7.80102 7.29379
#
# Compressibility (1/GPa) = 0.01695596
#
# Stress axis : x y z
#
# Youngs Moduli (GPa) = 77.74506 64.48184 126.62317
#
# Poissons Ratio (x) = 0.22696 0.32969
# Poissons Ratio (y) = 0.27364 0.44732
# Poissons Ratio (z) = 0.20243 0.22779
#
# Static dielectric constant tensor:
#      x y z
#    x 1.888260 -0.017620 0.069960 
#    y -0.017620 1.884780 -0.049410 
#    z 0.069960 -0.049410 1.874590 
# 
# From -- ./inp_files/158737.got.cif
#   From: 2010.05.17/outbox.cif.g08.bks.cpg/sg2_80_cif.got.tgz:158737.got - 2010.06.03 11:33:40.
