data_PCOD9013449
_publ_section_title
;
Structure prediction by ZEFSAII (Michael W. Deem and Ramdas Pophale) SiO2 
 PCOD9013449
Probable space group: P -1
;
_chemical_formula_sum "Si O2"
_cell_formula_units_Z 16
_cell_length_a 5.565917
_cell_length_b 18.441522
_cell_length_c 8.911539
_cell_angle_alpha 123.616361
_cell_angle_beta 122.662064
_cell_angle_gamma 59.060535
_cell_volume 610.283561
_symmetry_space_group_name_H-M "P -1"
_symmetry_group_IT_number 2
_symmetry_cell_setting 'triclinic'
loop_
_space_group_symop_operation_xyz
x,y,z
-x,-y,-z
loop_
_atom_site_type_symbol
_atom_site_label
_atom_site_fract_x
_atom_site_fract_y
_atom_site_fract_z
Si Si1 0.223006 0.655818 0.078559
Si Si2 0.718826 0.741576 0.393244
Si Si3 0.871715 0.976831 0.089257
Si Si4 0.490858 0.754654 0.643800
Si Si5 0.819145 0.444393 0.779421
Si Si6 0.846726 0.564073 0.657666
Si Si7 0.884726 0.890740 0.481290
Si Si8 0.232295 0.163333 0.927331
O O1 0.452106 0.711373 0.193713
O O2 0.357599 0.589161 0.186754
O O3 0.915347 0.739041 0.090658
O O4 0.117516 0.598989 0.852601
O O5 0.732808 0.744467 0.581824
O O6 0.986271 0.653127 0.332167
O O7 0.672626 0.846413 0.452569
O O8 0.959503 0.871162 0.051438
O O9 0.020577 0.028084 0.319391
O O10 0.500000 0.000000 0.000000
O O11 0.000000 0.000000 0.000000
O O12 0.577702 0.652547 0.619078
O O13 0.191091 0.805203 0.509226
O O14 0.505991 0.818923 0.863391
O O15 0.725150 0.512008 0.686428
O O16 0.000000 0.500000 0.000000
O O17 0.000000 0.500000 0.500000
O O18 0.748696 0.904625 0.284253
#
# Coordination Sequence:
#
# PCOD9013449 Si02
#       8
#     2   2   2   2   2   2   2   2
#     4  10  23  43  69 101 141 189 245 304 365 455
#     4  12  22  44  69  99 146 196 243 312 376 445
#     4  12  28  53  82 119 160 197 253 324 381 465
#     4  11  23  45  70 105 151 187 251 311 372 455
#     4  10  21  41  64  95 140 184 246 306 367 438
#     4  10  21  41  68 103 139 192 247 304 380 432
#     4  12  26  48  76 108 151 197 245 312 379 460
#     4  11  23  48  76 112 143 196 246 301 390 452
#
# _framework density 26.217319
#
# number of rings (size 3 to 8) (size 9 to 14) (size 15 to 20)
#    0.000    1.000    5.000    1.125    0.000    3.000 
#    6.750    5.625    0.000    0.000    0.000    0.000 
#    0.000    0.000    0.000    0.000    0.000    0.000 
#
# Total GULP energy -89257.245062 kJ/mol
# GULP energy per Si atom -5578.577816 kJ/mol
# Density = 2.615765 g / cm^3
# Si number density = 26.217319 Si / 1000 Ang^3
#
#
#
# Elastic Constant Matrix: (Units=GPa)
#
#
# Indices 1 2 3 4 5 6 
#
# 1 55.2396 30.7479 39.6532 -8.0271 5.4025 13.6529
# 2 30.7479 121.6756 26.3380 -4.8900 -5.1954 30.3355
# 3 39.6532 26.3380 220.8480 -8.8479 8.5030 0.9996
# 4 -8.0271 -4.8900 -8.8479 46.5790 5.9214 -1.5704
# 5 5.4025 -5.1954 8.5030 5.9214 38.0843 -0.7259
# 6 13.6529 30.3355 0.9996 -1.5704 -0.7259 48.9234
#
#
#
# Elastic Compliance Matrix: (Units=1/GPa)
#
#
# Indices 1 2 3 4 5 6 
#
# 1 0.025197 -0.004593 -0.003662 0.003538 -0.004011 -0.004055
# 2 -0.004593 0.010947 -0.000549 -0.000210 0.002196 -0.005469
# 3 -0.003662 -0.000549 0.005294 0.000459 -0.000785 0.001257
# 4 0.003538 -0.000210 0.000459 0.022666 -0.004161 -0.000201
# 5 -0.004011 0.002196 -0.000785 -0.004161 0.027949 0.000055
# 6 -0.004055 -0.005469 0.001257 -0.000201 0.000055 0.024931
#
#
# Mechanical properties :
#
#
# Convention : Reuss Voigt Hill
#
# Bulk Modulus (GPa) = 41.96403 65.69350 53.82877
# Shear Modulus (GPa) = 35.07924 46.78561 40.93243
#
# Velocity S-wave (km/s) = 3.66186 4.22895 3.95558
# Velocity P-wave (km/s) = 5.82408 6.99693 6.43728
#
# Compressibility (1/GPa) = 0.02382993
#
# Stress axis : x y z
#
# Youngs Moduli (GPa) = 39.68805 91.35044 188.89742
#
# Poissons Ratio (x) = 0.41955 0.69171
# Poissons Ratio (y) = 0.18228 0.10372
# Poissons Ratio (z) = 0.14533 0.05016
#
# Static dielectric constant tensor:
#      x y z
#    x 2.389870 -0.035560 0.059380 
#    y -0.035560 2.108760 -0.019180 
#    z 0.059380 -0.019180 2.120370 
# 
# From -- ./inp_files/139421.got.cif
#   From: 2010.05.17/outbox.cif.g08.bks.cpg/sg2_70_cif.got.tgz:139421.got - 2010.06.03 11:33:40.
