data_PCOD9013485
_publ_section_title
;
Structure prediction by ZEFSAII (Michael W. Deem and Ramdas Pophale) SiO2 
 PCOD9013485
Probable space group: P -1
;
_chemical_formula_sum "Si O2"
_cell_formula_units_Z 12
_cell_length_a 14.350918
_cell_length_b 7.455542
_cell_length_c 7.147818
_cell_angle_alpha 89.940872
_cell_angle_beta 101.813352
_cell_angle_gamma 38.393424
_cell_volume 448.204193
_symmetry_space_group_name_H-M "P -1"
_symmetry_group_IT_number 2
_symmetry_cell_setting 'triclinic'
loop_
_space_group_symop_operation_xyz
x,y,z
-x,-y,-z
loop_
_atom_site_type_symbol
_atom_site_label
_atom_site_fract_x
_atom_site_fract_y
_atom_site_fract_z
Si Si1 0.669901 0.743960 0.177264
Si Si2 0.005756 0.790520 0.257478
Si Si3 0.351921 0.773399 0.209834
Si Si4 0.687909 0.285951 0.244232
Si Si5 0.014871 0.192092 0.161338
Si Si6 0.342350 0.124411 0.454233
O O1 0.679908 0.516761 0.240033
O O2 0.650348 0.930228 0.323207
O O3 0.846094 0.521566 0.168225
O O4 0.500000 0.000000 0.000000
O O5 0.181944 0.481673 0.388487
O O6 0.986298 0.025801 0.191185
O O7 0.871837 0.953212 0.356507
O O8 0.984931 0.729180 0.049165
O O9 0.539988 0.449775 0.309992
O O10 0.207874 0.905166 0.269494
O O11 0.336037 0.999372 0.279654
O O12 0.331620 0.752735 0.981045
O O13 0.500000 0.000000 0.500000
#
# Coordination Sequence:
#
# PCOD9013485 Si02
#       6
#     2   2   2   2   2   2
#     4  11  23  43  66  92 128 171 211 262 324 376
#     4   9  20  41  67  92 125 172 210 253 313 387
#     4  10  21  41  64  98 128 163 214 259 314 372
#     4   9  20  41  67  91 128 169 208 250 322 387
#     4   9  20  39  67  93 130 167 209 254 319 377
#     4  12  24  40  66  96 128 165 219 262 311 376
#
# _framework density 26.773510999999999
#
# number of rings (size 3 to 8) (size 9 to 14) (size 15 to 20)
#    0.000    2.000    1.667    2.000    0.000    6.000 
#    3.000    3.333    0.000    0.000    0.000    0.000 
#    0.000    0.000    0.000    0.000    0.000    0.000 
#
# Total GULP energy -66803.272469 kJ/mol
# GULP energy per Si atom -5566.939372 kJ/mol
# Density = 2.671257 g / cm^3
# Si number density = 26.773511 Si / 1000 Ang^3
#
#
#
# Elastic Constant Matrix: (Units=GPa)
#
#
# Indices 1 2 3 4 5 6 
#
# 1 102.0647 87.9614 20.0413 19.6239 13.9816 -55.3215
# 2 87.9614 245.1625 55.3742 -0.2001 11.8308 -64.5713
# 3 20.0413 55.3742 58.1812 19.0142 9.4289 3.0434
# 4 19.6239 -0.2001 19.0142 55.7799 -7.4524 6.7890
# 5 13.9816 11.8308 9.4289 -7.4524 26.9552 5.6580
# 6 -55.3215 -64.5713 3.0434 6.7890 5.6580 84.0476
#
#
#
# Elastic Compliance Matrix: (Units=1/GPa)
#
#
# Indices 1 2 3 4 5 6 
#
# 1 0.030770 -0.005776 0.003387 -0.017390 -0.023337 0.018669
# 2 -0.005776 0.008563 -0.008436 0.005047 0.003066 0.002468
# 3 0.003387 -0.008436 0.030192 -0.012596 -0.011350 -0.003563
# 4 -0.017390 0.005047 -0.012596 0.032755 0.022635 -0.011282
# 5 -0.023337 0.003066 -0.011350 0.022635 0.061989 -0.018596
# 6 0.018669 0.002468 -0.003563 -0.011282 -0.018596 0.028375
#
#
# Mechanical properties :
#
#
# Convention : Reuss Voigt Hill
#
# Bulk Modulus (GPa) = 20.88747 81.35134 51.11940
# Shear Modulus (GPa) = 21.71538 49.49197 35.60368
#
# Velocity S-wave (km/s) = 2.85103 4.30413 3.65061
# Velocity P-wave (km/s) = 4.31930 7.42642 6.07487
#
# Compressibility (1/GPa) = 0.04787559
#
# Stress axis : x y z
#
# Youngs Moduli (GPa) = 32.49938 116.78407 33.12117
#
# Poissons Ratio (x) = 0.67453 -0.11218
# Poissons Ratio (y) = 0.18771 0.27940
# Poissons Ratio (z) = -0.11007 0.98515
#
# Static dielectric constant tensor:
#      x y z
#    x 2.306320 -0.197860 0.097670 
#    y -0.197860 2.259070 -0.154860 
#    z 0.097670 -0.154860 2.539760 
# 
# From -- ./inp_files/213096.got.cif
#   From: 2010.05.17/outbox.cif.g08.bks.cpg/sg2_107_cif.got.tgz:213096.got - 2010.06.03 11:33:40.
