data_PCOD9013079
_publ_section_title
;
Structure prediction by ZEFSAII (Michael W. Deem and Ramdas Pophale) SiO2 
 PCOD9013079
Probable space group: P -1
;
_chemical_formula_sum "Si O2"
_cell_formula_units_Z 14
_cell_length_a 9.772527
_cell_length_b 12.511112
_cell_length_c 10.160737
_cell_angle_alpha 135.154071
_cell_angle_beta 48.891783
_cell_angle_gamma 129.544508
_cell_volume 625.182593
_symmetry_space_group_name_H-M "P -1"
_symmetry_group_IT_number 2
_symmetry_cell_setting 'triclinic'
loop_
_space_group_symop_operation_xyz
x,y,z
-x,-y,-z
loop_
_atom_site_type_symbol
_atom_site_label
_atom_site_fract_x
_atom_site_fract_y
_atom_site_fract_z
Si Si1 0.886324 0.516224 0.716494
Si Si2 0.300771 0.609364 0.835027
Si Si3 0.958653 0.307227 0.711140
Si Si4 0.361870 0.329644 0.132970
Si Si5 0.956479 0.925866 0.722078
Si Si6 0.781025 0.183794 0.129333
Si Si7 0.651798 0.972945 0.280244
O O1 0.694659 0.545301 0.813406
O O2 0.000000 0.500000 0.500000
O O3 0.868161 0.370271 0.697727
O O4 0.020721 0.673796 0.844047
O O5 0.165599 0.438585 0.721143
O O6 0.474745 0.595914 0.799254
O O7 0.353444 0.734185 0.790580
O O8 0.170655 0.682281 0.074531
O O9 0.985196 0.141702 0.507750
O O10 0.173427 0.225274 0.242218
O O11 0.415845 0.199302 0.896930
O O12 0.148019 0.007685 0.756121
O O13 0.834673 0.046690 0.895586
O O14 0.695312 0.103928 0.250962
O O15 0.500000 0.000000 0.500000
#
# Coordination Sequence:
#
# PCOD9013079 Si02
#       7
#     2   2   2   2   2   2   2
#     4  11  19  38  68  89 117 168 205 250 303 357
#     4  10  24  41  60  90 128 163 198 252 305 371
#     4  10  22  41  62  88 128 163 205 249 301 360
#     4  11  21  38  66  91 123 157 208 251 303 363
#     4  11  20  39  66  89 120 162 206 256 300 360
#     4  10  21  41  63  88 126 164 201 245 315 365
#     4  11  21  37  65  96 122 152 207 263 302 354
#
# _framework density 22.393457999999999
#
# number of rings (size 3 to 8) (size 9 to 14) (size 15 to 20)
#    0.000    1.429    4.286    1.714    0.000    4.000 
#    0.000    1.429    3.143    0.000    0.000    0.000 
#    0.000    0.000    0.000    0.000    0.000    0.000 
#
# Total GULP energy -78358.561521 kJ/mol
# GULP energy per Si atom -5597.040109 kJ/mol
# Density = 2.234249 g / cm^3
# Si number density = 22.393458 Si / 1000 Ang^3
#
#
#
# Elastic Constant Matrix: (Units=GPa)
#
#
# Indices 1 2 3 4 5 6 
#
# 1 140.0980 24.2510 1.1226 9.3195 6.5771 -2.3984
# 2 24.2510 35.4534 4.6698 0.7688 -5.7962 -4.9294
# 3 1.1226 4.6698 56.8012 1.8531 3.6920 -8.7663
# 4 9.3195 0.7688 1.8531 20.8999 4.7797 -0.5899
# 5 6.5771 -5.7962 3.6920 4.7797 24.2542 -0.3543
# 6 -2.3984 -4.9294 -8.7663 -0.5899 -0.3543 25.4762
#
#
#
# Elastic Compliance Matrix: (Units=1/GPa)
#
#
# Indices 1 2 3 4 5 6 
#
# 1 0.008607 -0.006516 0.000628 -0.002881 -0.003424 -0.000349
# 2 -0.006516 0.035558 -0.002635 -0.000493 0.010843 0.005500
# 3 0.000628 -0.002635 0.018990 -0.000915 -0.003423 0.006015
# 4 -0.002881 -0.000493 -0.000915 0.051372 -0.009316 0.000379
# 5 -0.003424 0.010843 -0.003423 -0.009316 0.047122 0.001038
# 6 -0.000349 0.005500 0.006015 0.000379 0.001038 0.042377
#
#
# Mechanical properties :
#
#
# Convention : Reuss Voigt Hill
#
# Bulk Modulus (GPa) = 21.68681 32.49328 27.09004
# Shear Modulus (GPa) = 21.14691 27.61332 24.38012
#
# Velocity S-wave (km/s) = 3.07634 3.51536 3.30315
# Velocity P-wave (km/s) = 4.72482 5.56944 5.16443
#
# Compressibility (1/GPa) = 0.04611099
#
# Stress axis : x y z
#
# Youngs Moduli (GPa) = 116.18178 28.12279 52.65914
#
# Poissons Ratio (x) = 0.18325 -0.03309
# Poissons Ratio (y) = 0.75706 0.13873
# Poissons Ratio (z) = -0.07300 0.07409
#
# Static dielectric constant tensor:
#      x y z
#    x 1.828200 0.005200 -0.004080 
#    y 0.005200 1.807800 -0.011240 
#    z -0.004080 -0.011240 1.835750 
# 
# From -- ./inp_files/154890.got.cif
#   From: 2010.05.17/outbox.cif.g08.bks.cpg/sg2_78_cif.got.tgz:154890.got - 2010.06.03 11:33:40.
