data_PCOD9013362
_publ_section_title
;
Structure prediction by ZEFSAII (Michael W. Deem and Ramdas Pophale) SiO2 
 PCOD9013362
Probable space group: P -1
;
_chemical_formula_sum "Si O2"
_cell_formula_units_Z 16
_cell_length_a 7.679626
_cell_length_b 16.530099
_cell_length_c 6.736170
_cell_angle_alpha 84.709150
_cell_angle_beta 117.639238
_cell_angle_gamma 60.824768
_cell_volume 602.813753
_symmetry_space_group_name_H-M "P -1"
_symmetry_group_IT_number 2
_symmetry_cell_setting 'triclinic'
loop_
_space_group_symop_operation_xyz
x,y,z
-x,-y,-z
loop_
_atom_site_type_symbol
_atom_site_label
_atom_site_fract_x
_atom_site_fract_y
_atom_site_fract_z
Si Si1 0.668187 0.552030 0.641948
Si Si2 0.418392 0.861339 0.226450
Si Si3 0.072162 0.347683 0.135927
Si Si4 0.941455 0.811580 0.018954
Si Si5 0.082936 0.022433 0.288955
Si Si6 0.739225 0.919226 0.277003
Si Si7 0.486096 0.674161 0.168456
Si Si8 0.322514 0.608657 0.775477
O O1 0.658600 0.566777 0.396091
O O2 0.408350 0.592343 0.597048
O O3 0.743825 0.624458 0.731512
O O4 0.868265 0.440954 0.863209
O O5 0.623024 0.878199 0.359156
O O6 0.553334 0.748826 0.238789
O O7 0.257891 0.906142 0.333294
O O8 0.197147 0.928532 0.932284
O O9 0.935343 0.350390 0.265553
O O10 0.179921 0.242219 0.104718
O O11 0.918806 0.833446 0.234022
O O12 0.222933 0.731950 0.123565
O O13 0.855123 0.914332 0.834379
O O14 0.138649 0.042725 0.531114
O O15 0.500000 0.000000 0.000000
O O16 0.420706 0.668681 0.911606
O O17 0.500000 0.500000 0.000000
#
# Coordination Sequence:
#
# PCOD9013362 Si02
#       8
#     2   2   2   2   2   2   2   2
#     4  10  21  41  64  92 127 173 211 266 335 381
#     4  10  23  44  65  93 132 172 215 276 331 387
#     4   9  21  40  64  93 131 164 218 274 317 394
#     4  10  23  42  60  94 127 164 218 267 327 389
#     4  10  23  46  63  90 136 166 214 280 325 395
#     4  12  25  41  68  99 124 176 223 262 341 397
#     4  10  23  41  62  94 126 165 221 262 321 399
#     4   9  20  40  61  87 124 166 208 261 324 380
#
# _framework density 26.542196000000001
#
# number of rings (size 3 to 8) (size 9 to 14) (size 15 to 20)
#    0.000    2.000    1.250    0.375    3.500    8.000 
#    0.000    6.875    0.000    0.000    0.000    0.000 
#    0.000    0.000    0.000    0.000    0.000    0.000 
#
# Total GULP energy -89425.118432 kJ/mol
# GULP energy per Si atom -5589.069902 kJ/mol
# Density = 2.648179 g / cm^3
# Si number density = 26.542196 Si / 1000 Ang^3
#
#
#
# Elastic Constant Matrix: (Units=GPa)
#
#
# Indices 1 2 3 4 5 6 
#
# 1 85.5120 11.7324 25.6383 14.9900 13.4329 18.0061
# 2 11.7324 69.2136 12.2887 15.5217 14.5881 21.6791
# 3 25.6383 12.2887 101.0510 18.5142 8.4437 1.3869
# 4 14.9900 15.5217 18.5142 41.6985 12.1127 8.9833
# 5 13.4329 14.5881 8.4437 12.1127 39.8499 14.8957
# 6 18.0061 21.6791 1.3869 8.9833 14.8957 39.2962
#
#
#
# Elastic Compliance Matrix: (Units=1/GPa)
#
#
# Indices 1 2 3 4 5 6 
#
# 1 0.014401 0.000790 -0.003099 -0.002385 -0.001604 -0.005772
# 2 0.000790 0.018730 -0.001423 -0.004054 -0.002279 -0.008854
# 3 -0.003099 -0.001423 0.011600 -0.003914 -0.000825 0.003004
# 4 -0.002385 -0.004054 -0.003914 0.029965 -0.005506 -0.001295
# 5 -0.001604 -0.002279 -0.000825 -0.005506 0.031564 -0.008684
# 6 -0.005772 -0.008854 0.003004 -0.001295 -0.008684 0.036459
#
#
# Mechanical properties :
#
#
# Convention : Reuss Voigt Hill
#
# Bulk Modulus (GPa) = 26.83470 39.45505 33.14487
# Shear Modulus (GPa) = 30.74932 37.91005 34.32968
#
# Velocity S-wave (km/s) = 3.40738 3.78338 3.60029
# Velocity P-wave (km/s) = 5.06087 5.82946 5.45871
#
# Compressibility (1/GPa) = 0.03726518
#
# Stress axis : x y z
#
# Youngs Moduli (GPa) = 69.44138 53.39124 86.20474
#
# Poissons Ratio (x) = -0.04219 0.26719
# Poissons Ratio (y) = -0.05487 0.12270
# Poissons Ratio (z) = 0.21523 0.07599
#
# Static dielectric constant tensor:
#      x y z
#    x 2.075930 0.069000 -0.024160 
#    y 0.069000 2.211810 0.006450 
#    z -0.024160 0.006450 2.137130 
# 
# From -- ./inp_files/48421.got.cif
#   From: 2010.05.17/outbox.cif.g08.bks.cpg/sg2_25_cif.got.tgz:48421.got - 2010.06.03 11:33:40.
