data_PCOD9013555
_publ_section_title
;
Structure prediction by ZEFSAII (Michael W. Deem and Ramdas Pophale) SiO2 
 PCOD9013555
Probable space group: P -1
;
_chemical_formula_sum "Si O2"
_cell_formula_units_Z 10
_cell_length_a 20.606871
_cell_length_b 21.718282
_cell_length_c 5.803817
_cell_angle_alpha 48.686249
_cell_angle_beta 133.380333
_cell_angle_gamma 167.030489
_cell_volume 423.034881
_symmetry_space_group_name_H-M "P -1"
_symmetry_group_IT_number 2
_symmetry_cell_setting 'triclinic'
loop_
_space_group_symop_operation_xyz
x,y,z
-x,-y,-z
loop_
_atom_site_type_symbol
_atom_site_label
_atom_site_fract_x
_atom_site_fract_y
_atom_site_fract_z
Si Si1 0.748475 0.208966 0.890118
Si Si2 0.449976 0.642473 0.224354
Si Si3 0.054785 0.159702 0.673781
Si Si4 0.364885 0.751304 0.871569
Si Si5 0.488542 0.419080 0.861693
O O1 0.694608 0.233064 0.509938
O O2 0.107671 0.526804 0.998250
O O3 0.670988 0.051613 0.986176
O O4 0.500000 0.000000 0.000000
O O5 0.560849 0.707815 0.084476
O O6 0.180889 0.345765 0.365753
O O7 0.706091 0.853150 0.521480
O O8 0.371377 0.668435 0.978836
O O9 0.205759 0.311720 0.912171
O O10 0.784947 0.784041 0.156040
O O11 0.500000 0.500000 0.500000
#
# Coordination Sequence:
#
# PCOD9013555 Si02
#       5
#     2   2   2   2   2
#     4  10  21  41  65  88 123 166 206 257 321 385
#     4  11  22  39  60  90 127 159 206 268 312 364
#     4  10  22  38  60  89 122 165 212 252 310 379
#     4  10  22  39  62  94 124 160 213 261 313 384
#     4   9  21  39  61  86 122 167 207 254 313 369
#
# _framework density 23.638715000000001
#
# number of rings (size 3 to 8) (size 9 to 14) (size 15 to 20)
#    0.000    2.000    0.000    2.400    0.000   12.000 
#    0.000   10.000    0.000    0.000    0.000    0.000 
#    0.000    0.000    0.000    0.000    0.000    0.000 
#
# Total GULP energy -55827.450448 kJ/mol
# GULP energy per Si atom -5582.745045 kJ/mol
# Density = 2.358491 g / cm^3
# Si number density = 23.638715 Si / 1000 Ang^3
#
#
#
# Elastic Constant Matrix: (Units=GPa)
#
#
# Indices 1 2 3 4 5 6 
#
# 1 150.7043 40.3010 36.6888 -23.4061 16.2456 -23.0589
# 2 40.3010 105.6377 16.5438 -16.0459 -0.1251 13.7571
# 3 36.6888 16.5438 35.8770 -16.6603 -12.7627 4.7341
# 4 -23.4061 -16.0459 -16.6603 36.2650 -3.4079 -5.9059
# 5 16.2456 -0.1251 -12.7627 -3.4079 35.3722 -10.3754
# 6 -23.0589 13.7571 4.7341 -5.9059 -10.3754 31.3215
#
#
#
# Elastic Compliance Matrix: (Units=1/GPa)
#
#
# Indices 1 2 3 4 5 6 
#
# 1 0.015729 -0.004672 -0.019052 0.000531 -0.010180 0.013239
# 2 -0.004672 0.012473 0.000919 0.001512 0.000104 -0.008737
# 3 -0.019052 0.000919 0.070263 0.021911 0.033318 -0.009881
# 4 0.000531 0.001512 0.021911 0.041456 0.014291 0.008966
# 5 -0.010180 0.000104 0.033318 0.014291 0.048122 0.006059
# 6 0.013239 -0.008737 -0.009881 0.008966 0.006059 0.050702
#
#
# Mechanical properties :
#
#
# Convention : Reuss Voigt Hill
#
# Bulk Modulus (GPa) = 18.91998 53.25401 36.08700
# Shear Modulus (GPa) = 16.55778 33.83745 25.19761
#
# Velocity S-wave (km/s) = 2.64948 3.78754 3.26843
# Velocity P-wave (km/s) = 4.16903 6.45791 5.43532
#
# Compressibility (1/GPa) = 0.05285417
#
# Stress axis : x y z
#
# Youngs Moduli (GPa) = 63.57835 80.17603 14.23223
#
# Poissons Ratio (x) = 0.37461 0.27115
# Poissons Ratio (y) = 0.29706 -0.01308
# Poissons Ratio (z) = 1.21126 -0.07367
#
# Static dielectric constant tensor:
#      x y z
#    x 1.957350 0.039810 -0.073870 
#    y 0.039810 1.907230 -0.049920 
#    z -0.073870 -0.049920 1.911910 
# 
# From -- ./inp_files/101.got.cif
#   From: 2010.05.17/outbox.cif.g08.bks.cpg/sg2_1_cif.got.tgz:101.got - 2010.06.03 11:33:40.
