data_PCOD9013131
_publ_section_title
;
Structure prediction by ZEFSAII (Michael W. Deem and Ramdas Pophale) SiO2 
 PCOD9013131
Probable space group: P -1
;
_chemical_formula_sum "Si O2"
_cell_formula_units_Z 16
_cell_length_a 14.945625
_cell_length_b 11.521551
_cell_length_c 13.738776
_cell_angle_alpha 31.653003
_cell_angle_beta 119.931170
_cell_angle_gamma 137.625782
_cell_volume 778.249170
_symmetry_space_group_name_H-M "P -1"
_symmetry_group_IT_number 2
_symmetry_cell_setting 'triclinic'
loop_
_space_group_symop_operation_xyz
x,y,z
-x,-y,-z
loop_
_atom_site_type_symbol
_atom_site_label
_atom_site_fract_x
_atom_site_fract_y
_atom_site_fract_z
Si Si1 0.433194 0.632834 0.402238
Si Si2 0.260248 0.800900 0.794124
Si Si3 0.071250 0.103369 0.240966
Si Si4 0.950922 0.754358 0.229642
Si Si5 0.635540 0.368982 0.417017
Si Si6 0.864762 0.898607 0.437560
Si Si7 0.810801 0.157120 0.484408
Si Si8 0.546398 0.750987 0.768969
O O1 0.500000 0.500000 0.500000
O O2 0.382096 0.550303 0.545227
O O3 0.287449 0.459297 0.385905
O O4 0.578299 0.991630 0.226738
O O5 0.257645 0.815056 0.664369
O O6 0.183257 0.916787 0.703386
O O7 0.168254 0.458169 0.023370
O O8 0.141344 0.010704 0.407696
O O9 0.047959 0.944963 0.239044
O O10 0.927858 0.967208 0.313584
O O11 0.794075 0.564266 0.324163
O O12 0.937877 0.496633 0.354550
O O13 0.000000 0.000000 0.000000
O O14 0.563147 0.405064 0.268057
O O15 0.558472 0.014839 0.631711
O O16 0.000000 0.000000 0.500000
O O17 0.697044 0.943335 0.659788
O O18 0.500000 0.500000 0.000000
#
# Coordination Sequence:
#
# PCOD9013131 Si02
#       8
#     2   2   2   2   2   2   2   2
#     4  10  22  42  71  93 132 176 216 279 338 384
#     4  11  23  43  70  96 132 177 222 273 340 390
#     4  12  24  41  70  92 137 174 223 271 336 395
#     4  11  23  40  63  96 133 175 217 269 333 393
#     4  10  21  41  63  91 129 170 217 267 327 395
#     4  11  23  45  70  98 130 175 225 282 332 395
#     4  11  23  39  64  98 130 172 220 275 321 400
#     4  10  23  37  63  93 130 168 212 263 331 396
#
# _framework density 20.558969000000001
#
# number of rings (size 3 to 8) (size 9 to 14) (size 15 to 20)
#    0.000    1.250    5.000    0.750    3.500    0.000 
#    0.000    1.875    2.750    0.000    0.000    0.000 
#    0.000    0.000    0.000    0.000    0.000    0.000 
#
# Total GULP energy -89186.988870 kJ/mol
# GULP energy per Si atom -5574.186804 kJ/mol
# Density = 2.051218 g / cm^3
# Si number density = 20.558969 Si / 1000 Ang^3
#
#
#
# Elastic Constant Matrix: (Units=GPa)
#
#
# Indices 1 2 3 4 5 6 
#
# 1 114.2011 27.9801 37.9012 -3.3765 -3.5162 -2.8336
# 2 27.9801 101.9226 23.4047 -18.0113 9.5679 19.6010
# 3 37.9012 23.4047 109.7316 -7.0938 7.6383 12.1051
# 4 -3.3765 -18.0113 -7.0938 27.5840 1.0150 -8.3533
# 5 -3.5162 9.5679 7.6383 1.0150 20.5971 -3.2072
# 6 -2.8336 19.6010 12.1051 -8.3533 -3.2072 34.7479
#
#
#
# Elastic Compliance Matrix: (Units=1/GPa)
#
#
# Indices 1 2 3 4 5 6 
#
# 1 0.011341 -0.003833 -0.004116 -0.000925 0.006045 0.004856
# 2 -0.003833 0.014358 0.000173 0.006972 -0.008919 -0.007620
# 3 -0.004116 0.000173 0.011506 0.001375 -0.005842 -0.004651
# 4 -0.000925 0.006972 0.001375 0.042852 -0.005187 0.005336
# 5 0.006045 -0.008919 -0.005842 -0.005187 0.057963 0.011662
# 6 0.004856 -0.007620 -0.004651 0.005336 0.011662 0.037452
#
#
# Mechanical properties :
#
#
# Convention : Reuss Voigt Hill
#
# Bulk Modulus (GPa) = 46.17924 56.04746 51.11335
# Shear Modulus (GPa) = 25.22165 32.35708 28.78936
#
# Velocity S-wave (km/s) = 3.50636 3.97150 3.74616
# Velocity P-wave (km/s) = 6.23726 6.95352 6.60511
#
# Compressibility (1/GPa) = 0.02165475
#
# Stress axis : x y z
#
# Youngs Moduli (GPa) = 88.17685 69.64602 86.90853
#
# Poissons Ratio (x) = 0.26695 0.35770
# Poissons Ratio (y) = 0.33798 -0.01508
# Poissons Ratio (z) = 0.36292 -0.01208
#
# Static dielectric constant tensor:
#      x y z
#    x 1.786620 -0.002500 0.006610 
#    y -0.002500 1.876410 0.018270 
#    z 0.006610 0.018270 1.725530 
# 
# From -- ./inp_files/505759.got.cif
#   From: 2010.05.17/outbox.cif.g08.bks.cpg/sg2_253_cif.got.tgz:505759.got - 2010.06.03 11:33:40.
