data_PCOD9013414
_publ_section_title
;
Structure prediction by ZEFSAII (Michael W. Deem and Ramdas Pophale) SiO2 
 PCOD9013414
Probable space group: P -1
;
_chemical_formula_sum "Si O2"
_cell_formula_units_Z 16
_cell_length_a 15.054755
_cell_length_b 11.984458
_cell_length_c 9.076426
_cell_angle_alpha 84.700586
_cell_angle_beta 108.983473
_cell_angle_gamma 151.093342
_cell_volume 678.990574
_symmetry_space_group_name_H-M "P -1"
_symmetry_group_IT_number 2
_symmetry_cell_setting 'triclinic'
loop_
_space_group_symop_operation_xyz
x,y,z
-x,-y,-z
loop_
_atom_site_type_symbol
_atom_site_label
_atom_site_fract_x
_atom_site_fract_y
_atom_site_fract_z
Si Si1 0.061732 0.430960 0.207858
Si Si2 0.648180 0.602214 0.754596
Si Si3 0.391349 0.607321 0.504589
Si Si4 0.693393 0.119939 0.562435
Si Si5 0.214377 0.578680 0.947459
Si Si6 0.311029 0.906306 0.781030
Si Si7 0.049984 0.173670 0.871753
Si Si8 0.224481 0.261612 0.672884
O O1 0.220152 0.508885 0.352120
O O2 0.125816 0.621794 0.283588
O O3 0.081051 0.457210 0.040167
O O4 0.831519 0.165096 0.186977
O O5 0.596385 0.484436 0.588595
O O6 0.422109 0.389174 0.734735
O O7 0.813434 0.700362 0.921813
O O8 0.801512 0.875316 0.785574
O O9 0.310476 0.471574 0.630374
O O10 0.606185 0.908757 0.597695
O O11 0.745965 0.161882 0.413604
O O12 0.500000 0.000000 0.500000
O O13 0.446211 0.794687 0.112450
O O14 0.280493 0.750411 0.854270
O O15 0.097736 0.352050 0.830793
O O16 0.157827 0.203524 0.812038
O O17 0.000000 0.000000 0.500000
#
# Coordination Sequence:
#
# PCOD9013414 Si02
#       8
#     2   2   2   2   2   2   2   2
#     4  11  23  43  65  99 134 178 224 275 339 400
#     4  11  24  49  69  97 141 176 227 286 341 407
#     4  11  23  43  69  93 138 177 220 282 343 401
#     4  10  21  41  64  94 133 171 216 272 329 397
#     4  11  24  42  66  99 137 174 227 277 330 406
#     4  11  23  41  68  95 136 180 222 275 333 402
#     4  11  25  45  71 101 135 183 228 276 347 406
#     4  12  27  44  70 104 132 177 232 288 339 411
#
# _framework density 23.56439
#
# number of rings (size 3 to 8) (size 9 to 14) (size 15 to 20)
#    0.000    1.000    5.000    1.500    3.500    4.000 
#    0.000    0.000    0.000    0.000    0.000    0.000 
#    0.000    0.000    0.000    0.000    0.000    0.000 
#
# Total GULP energy -89443.363694 kJ/mol
# GULP energy per Si atom -5590.210231 kJ/mol
# Density = 2.351076 g / cm^3
# Si number density = 23.564390 Si / 1000 Ang^3
#
#
#
# Elastic Constant Matrix: (Units=GPa)
#
#
# Indices 1 2 3 4 5 6 
#
# 1 66.7052 54.0674 6.2353 17.9543 -4.7749 13.9973
# 2 54.0674 95.6263 13.2166 0.8036 -8.5663 9.2587
# 3 6.2353 13.2166 42.7877 2.2925 -5.4871 12.3910
# 4 17.9543 0.8036 2.2925 39.7942 0.5328 -2.6244
# 5 -4.7749 -8.5663 -5.4871 0.5328 37.2708 -8.1539
# 6 13.9973 9.2587 12.3910 -2.6244 -8.1539 52.2816
#
#
#
# Elastic Compliance Matrix: (Units=1/GPa)
#
#
# Indices 1 2 3 4 5 6 
#
# 1 0.038491 -0.021471 0.004329 -0.017735 -0.000988 -0.008573
# 2 -0.021471 0.023103 -0.005311 0.009744 0.002467 0.003789
# 3 0.004329 -0.005311 0.026696 -0.003834 0.001910 -0.006440
# 4 -0.017735 0.009744 -0.003834 0.033525 0.000157 0.005639
# 5 -0.000988 0.002467 0.001910 0.000157 0.028384 0.003810
# 6 -0.008573 0.003789 -0.006440 0.005639 0.003810 0.023155
#
#
# Mechanical properties :
#
#
# Convention : Reuss Voigt Hill
#
# Bulk Modulus (GPa) = 23.04877 39.12863 31.08870
# Shear Modulus (GPa) = 21.48499 34.64265 28.06382
#
# Velocity S-wave (km/s) = 3.02281 3.83838 3.45475
# Velocity P-wave (km/s) = 4.68888 6.02373 5.39772
#
# Compressibility (1/GPa) = 0.04338627
#
# Stress axis : x y z
#
# Youngs Moduli (GPa) = 25.97984 43.28386 37.45862
#
# Poissons Ratio (x) = 0.92934 -0.16216
# Poissons Ratio (y) = 0.55781 0.19892
# Poissons Ratio (z) = -0.11247 0.22986
#
# Static dielectric constant tensor:
#      x y z
#    x 2.000890 0.065770 0.121210 
#    y 0.065770 1.993270 0.058410 
#    z 0.121210 0.058410 1.945630 
# 
# From -- ./inp_files/307595.got.cif
#   From: 2010.05.17/outbox.cif.g08.bks.cpg/sg2_154_cif.got.tgz:307595.got - 2010.06.03 11:33:40.
