data_PCOD9013000
_publ_section_title
;
Structure prediction by ZEFSAII (Michael W. Deem and Ramdas Pophale) SiO2 
 PCOD9013000
Probable space group: P -1
;
_chemical_formula_sum "Si O2"
_cell_formula_units_Z 12
_cell_length_a 15.407993
_cell_length_b 6.669774
_cell_length_c 8.917392
_cell_angle_alpha 81.197902
_cell_angle_beta 123.261456
_cell_angle_gamma 65.787650
_cell_volume 607.012194
_symmetry_space_group_name_H-M "P -1"
_symmetry_group_IT_number 2
_symmetry_cell_setting 'triclinic'
loop_
_space_group_symop_operation_xyz
x,y,z
-x,-y,-z
loop_
_atom_site_type_symbol
_atom_site_label
_atom_site_fract_x
_atom_site_fract_y
_atom_site_fract_z
Si Si1 0.145424 0.900749 0.490280
Si Si2 0.374243 0.706703 0.950796
Si Si3 0.080409 0.584231 0.645720
Si Si4 0.421869 0.350831 0.289142
Si Si5 0.685926 0.912395 0.911245
Si Si6 0.306104 0.770673 0.364712
O O1 0.253115 0.869944 0.707433
O O2 0.127829 0.690447 0.553858
O O3 0.200291 0.853902 0.380604
O O4 0.013278 0.176809 0.361446
O O5 0.500000 0.500000 0.000000
O O6 0.351291 0.551378 0.063443
O O7 0.389680 0.885424 0.049739
O O8 0.000000 0.500000 0.500000
O O9 0.196290 0.345966 0.873834
O O10 0.404453 0.136781 0.259947
O O11 0.355978 0.507189 0.361550
O O12 0.567151 0.269508 0.438830
O O13 0.735040 0.027207 0.829508
#
# Coordination Sequence:
#
# PCOD9013000 Si02
#       6
#     2   2   2   2   2   2
#     4  11  23  42  65  91 125 166 209 260 310 364
#     4  11  21  39  65  94 126 162 209 258 317 368
#     4  11  24  43  65  90 123 166 216 262 301 364
#     4  10  21  41  62  94 134 165 197 254 319 376
#     4  11  23  41  65  93 129 165 209 254 310 374
#     4  10  23  40  63  94 132 163 201 256 318 373
#
# _framework density 19.768958999999999
#
# number of rings (size 3 to 8) (size 9 to 14) (size 15 to 20)
#    0.000    1.333    5.000    0.500    0.000    2.667 
#    3.000    1.667    0.000    0.000    0.000    0.000 
#    0.000    0.000    0.000    0.000    0.000    0.000 
#
# Total GULP energy -67036.875063 kJ/mol
# GULP energy per Si atom -5586.406255 kJ/mol
# Density = 1.972396 g / cm^3
# Si number density = 19.768959 Si / 1000 Ang^3
#
#
#
# Elastic Constant Matrix: (Units=GPa)
#
#
# Indices 1 2 3 4 5 6 
#
# 1 121.7051 83.7044 32.6758 12.2484 -19.8982 -22.8327
# 2 83.7044 140.7958 51.7920 9.8359 -6.9470 4.4920
# 3 32.6758 51.7920 81.3880 -3.6322 -3.5095 -7.2900
# 4 12.2484 9.8359 -3.6322 37.5983 1.1807 9.1626
# 5 -19.8982 -6.9470 -3.5095 1.1807 26.4806 6.9688
# 6 -22.8327 4.4920 -7.2900 9.1626 6.9688 31.2551
#
#
#
# Elastic Compliance Matrix: (Units=1/GPa)
#
#
# Indices 1 2 3 4 5 6 
#
# 1 0.024048 -0.014308 0.001284 -0.009267 0.009499 0.020522
# 2 -0.014308 0.018429 -0.007328 0.002876 -0.003077 -0.014967
# 3 0.001284 -0.007328 0.016996 0.001814 -0.000226 0.005474
# 4 -0.009267 0.002876 0.001814 0.032965 -0.003310 -0.015686
# 5 0.009499 -0.003077 -0.000226 -0.003310 0.044648 -0.001655
# 6 0.020522 -0.014967 0.005474 -0.015686 -0.001655 0.055382
#
#
# Mechanical properties :
#
#
# Convention : Reuss Voigt Hill
#
# Bulk Modulus (GPa) = 53.27703 75.58146 64.42924
# Shear Modulus (GPa) = 20.88313 30.78124 25.83219
#
# Velocity S-wave (km/s) = 3.25369 3.95023 3.61876
# Velocity P-wave (km/s) = 6.41278 7.68903 7.07972
#
# Compressibility (1/GPa) = 0.01876982
#
# Stress axis : x y z
#
# Youngs Moduli (GPa) = 41.58355 54.26210 58.83739
#
# Poissons Ratio (x) = 0.77638 -0.07557
# Poissons Ratio (y) = 0.59497 0.43117
# Poissons Ratio (z) = -0.05341 0.39764
#
# Static dielectric constant tensor:
#      x y z
#    x 1.668860 0.020450 0.005270 
#    y 0.020450 1.703700 0.000590 
#    z 0.005270 0.000590 1.722850 
# 
# From -- ./inp_files/20108.got.cif
#   From: 2010.05.17/outbox.cif.g08.bks.cpg/sg2_11_cif.got.tgz:20108.got - 2010.06.03 11:33:40.
