data_PCOD9013529
_publ_section_title
;
Structure prediction by ZEFSAII (Michael W. Deem and Ramdas Pophale) SiO2 
 PCOD9013529
Probable space group: P -1
;
_chemical_formula_sum "Si O2"
_cell_formula_units_Z 16
_cell_length_a 10.984612
_cell_length_b 11.498388
_cell_length_c 8.525940
_cell_angle_alpha 101.406422
_cell_angle_beta 139.944846
_cell_angle_gamma 77.580476
_cell_volume 675.834758
_symmetry_space_group_name_H-M "P -1"
_symmetry_group_IT_number 2
_symmetry_cell_setting 'triclinic'
loop_
_space_group_symop_operation_xyz
x,y,z
-x,-y,-z
loop_
_atom_site_type_symbol
_atom_site_label
_atom_site_fract_x
_atom_site_fract_y
_atom_site_fract_z
Si Si1 0.149229 0.346364 0.538515
Si Si2 0.045439 0.760815 0.193384
Si Si3 0.344852 0.894084 0.643205
Si Si4 0.176716 0.499738 0.296125
Si Si5 0.499626 0.144645 0.859646
Si Si6 0.645630 0.513339 0.006176
Si Si7 0.815269 0.255731 0.027267
Si Si8 0.620137 0.690176 0.760846
O O1 0.148861 0.428978 0.407514
O O2 0.338720 0.254922 0.711563
O O3 0.168617 0.433780 0.726349
O O4 0.970245 0.271770 0.320746
O O5 0.127613 0.870221 0.392064
O O6 0.171348 0.641087 0.347299
O O7 0.082884 0.770646 0.045874
O O8 0.824795 0.742856 0.998489
O O9 0.466280 0.802176 0.620885
O O10 0.398880 0.025680 0.699049
O O11 0.415028 0.863124 0.881600
O O12 0.345556 0.412979 0.362173
O O13 0.000000 0.500000 0.000000
O O14 0.669957 0.164534 0.914162
O O15 0.701240 0.387791 0.944967
O O16 0.500000 0.500000 0.000000
O O17 0.566920 0.614477 0.837318
#
# Coordination Sequence:
#
# PCOD9013529 Si02
#       8
#     2   2   2   2   2   2   2   2
#     4  12  24  43  71 102 141 175 220 278 337 404
#     4  11  25  43  71 100 134 183 222 273 344 404
#     4  11  27  48  69  92 135 182 233 284 331 394
#     4  10  21  41  65 102 140 166 211 266 336 412
#     4  11  28  48  65 100 132 178 238 281 333 392
#     4  12  24  41  68 108 139 173 219 270 344 405
#     4  12  24  44  69 102 140 175 220 281 340 402
#     4  11  22  45  67 100 137 177 223 269 342 407
#
# _framework density 23.674427000000001
#
# number of rings (size 3 to 8) (size 9 to 14) (size 15 to 20)
#    0.000    0.750    6.250    1.125    7.000    2.000 
#    0.000    3.750    0.000    0.000    0.000    0.000 
#    0.000    0.000    0.000    0.000    0.000    0.000 
#
# Total GULP energy -89543.938786 kJ/mol
# GULP energy per Si atom -5596.496174 kJ/mol
# Density = 2.362054 g / cm^3
# Si number density = 23.674427 Si / 1000 Ang^3
#
#
#
# Elastic Constant Matrix: (Units=GPa)
#
#
# Indices 1 2 3 4 5 6 
#
# 1 88.9937 24.3463 1.9748 -3.6831 12.1777 21.5942
# 2 24.3463 70.9347 12.4340 11.7610 1.6145 28.3312
# 3 1.9748 12.4340 103.7134 10.5339 22.4622 20.9749
# 4 -3.6831 11.7610 10.5339 35.8572 10.1879 8.4088
# 5 12.1777 1.6145 22.4622 10.1879 30.5346 5.8129
# 6 21.5942 28.3312 20.9749 8.4088 5.8129 34.6838
#
#
#
# Elastic Compliance Matrix: (Units=1/GPa)
#
#
# Indices 1 2 3 4 5 6 
#
# 1 0.015741 -0.003126 0.003214 0.006381 -0.008844 -0.009255
# 2 -0.003126 0.022226 0.000090 -0.005294 0.004776 -0.015780
# 3 0.003214 0.000090 0.013358 0.001240 -0.009851 -0.008802
# 4 0.006381 -0.005294 0.001240 0.035377 -0.013709 -0.006677
# 5 -0.008844 0.004776 -0.009851 -0.013709 0.047281 0.002962
# 6 -0.009255 -0.015780 -0.008802 -0.006677 0.002962 0.053930
#
#
# Mechanical properties :
#
#
# Convention : Reuss Voigt Hill
#
# Bulk Modulus (GPa) = 19.34992 37.90577 28.62784
# Shear Modulus (GPa) = 24.41592 35.20756 29.81174
#
# Velocity S-wave (km/s) = 3.21490 3.86055 3.55242
# Velocity P-wave (km/s) = 4.68742 5.99315 5.38004
#
# Compressibility (1/GPa) = 0.05167979
#
# Stress axis : x y z
#
# Youngs Moduli (GPa) = 63.52955 44.99160 74.86325
#
# Poissons Ratio (x) = 0.14065 -0.24062
# Poissons Ratio (y) = 0.19860 -0.00670
# Poissons Ratio (z) = -0.20419 -0.00403
#
# Static dielectric constant tensor:
#      x y z
#    x 1.913640 -0.006310 0.019440 
#    y -0.006310 1.870270 0.044230 
#    z 0.019440 0.044230 2.015910 
# 
# From -- ./inp_files/259239.got.cif
#   From: 2010.05.17/outbox.cif.g08.bks.cpg/sg2_130_cif.got.tgz:259239.got - 2010.06.03 11:33:40.
