data_PCOD9013489
_publ_section_title
;
Structure prediction by ZEFSAII (Michael W. Deem and Ramdas Pophale) SiO2 
 PCOD9013489
Probable space group: P -1
;
_chemical_formula_sum "Si O2"
_cell_formula_units_Z 16
_cell_length_a 11.711600
_cell_length_b 14.460029
_cell_length_c 9.946520
_cell_angle_alpha 39.111802
_cell_angle_beta 139.692678
_cell_angle_gamma 133.870597
_cell_volume 665.858997
_symmetry_space_group_name_H-M "P -1"
_symmetry_group_IT_number 2
_symmetry_cell_setting 'triclinic'
loop_
_space_group_symop_operation_xyz
x,y,z
-x,-y,-z
loop_
_atom_site_type_symbol
_atom_site_label
_atom_site_fract_x
_atom_site_fract_y
_atom_site_fract_z
Si Si1 0.781862 0.275474 0.569828
Si Si2 0.929766 0.893872 0.927815
Si Si3 0.901521 0.202902 0.465624
Si Si4 0.498360 0.844836 0.337279
Si Si5 0.285742 0.431507 0.901222
Si Si6 0.338498 0.407665 0.268842
Si Si7 0.308326 0.376125 0.579471
Si Si8 0.384007 0.800791 0.999988
O O1 0.915677 0.195795 0.863405
O O2 0.587474 0.204077 0.540863
O O3 0.808233 0.456080 0.391234
O O4 0.805466 0.229331 0.489090
O O5 0.767948 0.746264 0.982613
O O6 0.894511 0.022841 0.651651
O O7 0.000000 0.000000 0.000000
O O8 0.792700 0.256148 0.186155
O O9 0.664675 0.768405 0.547608
O O10 0.553943 0.022315 0.174524
O O11 0.360086 0.784886 0.156533
O O12 0.112758 0.294788 0.552736
O O13 0.500000 0.500000 0.000000
O O14 0.245286 0.446441 0.007568
O O15 0.280313 0.434930 0.336835
O O16 0.554982 0.492154 0.363424
O O17 0.443737 0.264895 0.809915
#
# Coordination Sequence:
#
# PCOD9013489 Si02
#       8
#     2   2   2   2   2   2   2   2
#     4  11  24  42  66 101 137 177 225 288 346 401
#     4  10  25  44  61  99 140 175 224 282 345 403
#     4  11  24  44  71 100 137 180 232 281 346 416
#     4  10  21  41  64  98 133 176 221 290 340 406
#     4  12  24  41  70  98 133 181 231 278 342 419
#     4  10  22  42  67  97 136 175 231 276 346 404
#     4  10  23  44  68  98 137 181 221 291 339 410
#     4  10  22  43  69  94 134 178 232 276 347 408
#
# _framework density 24.029112999999999
#
# number of rings (size 3 to 8) (size 9 to 14) (size 15 to 20)
#    0.000    1.500    1.250    2.625    3.500    2.500 
#    2.250   15.625    0.000    0.000    0.000    0.000 
#    0.000    0.000    0.000    0.000    0.000    0.000 
#
# Total GULP energy -89345.590706 kJ/mol
# GULP energy per Si atom -5584.099419 kJ/mol
# Density = 2.397442 g / cm^3
# Si number density = 24.029113 Si / 1000 Ang^3
#
#
#
# Elastic Constant Matrix: (Units=GPa)
#
#
# Indices 1 2 3 4 5 6 
#
# 1 62.1239 35.2474 14.7280 0.9504 -8.2175 -3.7629
# 2 35.2474 116.8957 22.7624 -12.0325 -7.3186 10.8946
# 3 14.7280 22.7624 108.8014 -21.2045 -5.0250 -14.3910
# 4 0.9504 -12.0325 -21.2045 42.7505 5.5072 -9.6652
# 5 -8.2175 -7.3186 -5.0250 5.5072 28.4465 1.3898
# 6 -3.7629 10.8946 -14.3910 -9.6652 1.3898 28.8019
#
#
#
# Elastic Compliance Matrix: (Units=1/GPa)
#
#
# Indices 1 2 3 4 5 6 
#
# 1 0.020856 -0.006323 -0.001402 -0.002785 0.004530 0.003263
# 2 -0.006323 0.011590 -0.002163 0.000845 0.000905 -0.006051
# 3 -0.001402 -0.002163 0.012628 0.007964 -0.000744 0.009653
# 4 -0.002785 0.000845 0.007964 0.031624 -0.005996 0.014197
# 5 0.004530 0.000905 -0.000744 -0.005996 0.037918 -0.003964
# 6 0.003263 -0.006051 0.009653 0.014197 -0.003964 0.047213
#
#
# Mechanical properties :
#
#
# Convention : Reuss Voigt Hill
#
# Bulk Modulus (GPa) = 39.52800 48.14405 43.83602
# Shear Modulus (GPa) = 26.31057 34.33867 30.32462
#
# Velocity S-wave (km/s) = 3.31259 3.78437 3.55631
# Velocity P-wave (km/s) = 5.57824 6.25895 5.92837
#
# Compressibility (1/GPa) = 0.02529852
#
# Stress axis : x y z
#
# Youngs Moduli (GPa) = 47.94750 86.28252 79.18975
#
# Poissons Ratio (x) = 0.54554 0.11105
# Poissons Ratio (y) = 0.30316 0.17125
# Poissons Ratio (z) = 0.06724 0.18659
#
# Static dielectric constant tensor:
#      x y z
#    x 1.911870 0.015000 0.008610 
#    y 0.015000 1.970070 0.032850 
#    z 0.008610 0.032850 1.989160 
# 
# From -- ./inp_files/311022.got.cif
#   From: 2010.05.17/outbox.cif.g08.bks.cpg/sg2_156_cif.got.tgz:311022.got - 2010.06.03 11:33:40.
