data_PCOD9013763
_publ_section_title
;
Structure prediction by ZEFSAII (Michael W. Deem and Ramdas Pophale) SiO2 
 PCOD9013763
Probable space group: P -1
;
_chemical_formula_sum "Si O2"
_cell_formula_units_Z 16
_cell_length_a 11.687828
_cell_length_b 12.695409
_cell_length_c 6.960544
_cell_angle_alpha 131.897731
_cell_angle_beta 103.574251
_cell_angle_gamma 98.677114
_cell_volume 676.396596
_symmetry_space_group_name_H-M "P -1"
_symmetry_group_IT_number 2
_symmetry_cell_setting 'triclinic'
loop_
_space_group_symop_operation_xyz
x,y,z
-x,-y,-z
loop_
_atom_site_type_symbol
_atom_site_label
_atom_site_fract_x
_atom_site_fract_y
_atom_site_fract_z
Si Si1 0.298533 0.858625 0.116707
Si Si2 0.710225 0.482892 0.812141
Si Si3 0.901517 0.016721 0.830985
Si Si4 0.081039 0.339916 0.184879
Si Si5 0.127151 0.529369 0.788502
Si Si6 0.545343 0.672038 0.631222
Si Si7 0.421195 0.094582 0.755800
Si Si8 0.658063 0.718989 0.322614
O O1 0.203069 0.921055 0.052645
O O2 0.443151 0.914161 0.163162
O O3 0.318419 0.931257 0.430256
O O4 0.229212 0.673341 0.879385
O O5 0.788820 0.595160 0.806761
O O6 0.592698 0.331984 0.497460
O O7 0.811783 0.463998 0.972642
O O8 0.641182 0.565232 0.017668
O O9 0.804824 0.850408 0.504009
O O10 0.991219 0.157268 0.898457
O O11 0.000000 0.000000 0.000000
O O12 0.102749 0.376984 0.466737
O O13 0.999964 0.438075 0.211857
O O14 0.500000 0.500000 0.500000
O O15 0.633109 0.692546 0.505199
O O16 0.611561 0.816837 0.977125
O O17 0.435865 0.211141 0.723073
#
# Coordination Sequence:
#
# PCOD9013763 Si02
#       8
#     2   2   2   2   2   2   2   2
#     4   9  20  40  67  93 131 177 208 272 331 380
#     4  12  24  38  68  97 132 171 221 273 324 391
#     4  10  22  41  66  93 132 171 216 268 323 392
#     4  10  23  42  66  98 128 178 217 268 330 384
#     4  10  21  41  65  95 136 168 219 270 323 394
#     4  12  26  40  65  97 130 172 218 271 331 389
#     4  10  21  43  64  93 135 169 220 269 326 395
#     4  11  25  42  63  97 129 174 220 271 328 386
#
# _framework density 23.654762000000002
#
# number of rings (size 3 to 8) (size 9 to 14) (size 15 to 20)
#    0.000    1.500    1.250    3.000    5.250    0.500 
#    0.000   22.500    0.000    0.000    0.000    0.000 
#    0.000    0.000    0.000    0.000    0.000    0.000 
#
# Total GULP energy -89431.359644 kJ/mol
# GULP energy per Si atom -5589.459978 kJ/mol
# Density = 2.360092 g / cm^3
# Si number density = 23.654762 Si / 1000 Ang^3
#
#
#
# Elastic Constant Matrix: (Units=GPa)
#
#
# Indices 1 2 3 4 5 6 
#
# 1 98.0881 17.2046 17.2096 -10.3986 12.8524 -6.0378
# 2 17.2046 55.5270 22.1808 -2.4648 -3.8818 4.0970
# 3 17.2096 22.1808 111.2996 3.9030 -0.2279 5.8097
# 4 -10.3986 -2.4648 3.9030 34.7695 2.3774 6.3208
# 5 12.8524 -3.8818 -0.2279 2.3774 37.5473 -5.5879
# 6 -6.0378 4.0970 5.8097 6.3208 -5.5879 34.1102
#
#
#
# Elastic Compliance Matrix: (Units=1/GPa)
#
#
# Indices 1 2 3 4 5 6 
#
# 1 0.012104 -0.003455 -0.001391 0.003589 -0.004530 0.001387
# 2 -0.003455 0.020913 -0.003548 0.001054 0.002924 -0.002235
# 3 -0.001391 -0.003548 0.010026 -0.001577 0.000088 -0.001221
# 4 0.003589 0.001054 -0.001577 0.031391 -0.003963 -0.005689
# 5 -0.004530 0.002924 0.000088 -0.003963 0.029389 0.004381
# 6 0.001387 -0.002235 -0.001221 -0.005689 0.004381 0.031811
#
#
# Mechanical properties :
#
#
# Convention : Reuss Voigt Hill
#
# Bulk Modulus (GPa) = 38.08507 42.01161 40.04834
# Shear Modulus (GPa) = 31.02261 35.17338 33.09800
#
# Velocity S-wave (km/s) = 3.62536 3.86028 3.74466
# Velocity P-wave (km/s) = 5.80169 6.13742 5.97191
#
# Compressibility (1/GPa) = 0.02625701
#
# Stress axis : x y z
#
# Youngs Moduli (GPa) = 82.61594 47.81723 99.74015
#
# Poissons Ratio (x) = 0.16519 0.13871
# Poissons Ratio (y) = 0.28540 0.35386
# Poissons Ratio (z) = 0.11489 0.16965
#
# Static dielectric constant tensor:
#      x y z
#    x 1.923850 -0.038730 0.038710 
#    y -0.038730 1.903250 -0.006180 
#    z 0.038710 -0.006180 1.874040 
# 
# From -- ./inp_files/78791.got.cif
#   From: 2010.05.17/outbox.cif.g08.bks.cpg/sg2_40_cif.got.tgz:78791.got - 2010.06.03 11:33:40.
