data_PCOD9013320
_publ_section_title
;
Structure prediction by ZEFSAII (Michael W. Deem and Ramdas Pophale) SiO2 
 PCOD9013320
Probable space group: P -1
;
_chemical_formula_sum "Si O2"
_cell_formula_units_Z 15
_cell_length_a 9.077077
_cell_length_b 7.096464
_cell_length_c 11.602668
_cell_angle_alpha 115.738761
_cell_angle_beta 82.441425
_cell_angle_gamma 70.022491
_cell_volume 597.138779
_symmetry_space_group_name_H-M "P -1"
_symmetry_group_IT_number 2
_symmetry_cell_setting 'triclinic'
loop_
_space_group_symop_operation_xyz
x,y,z
-x,-y,-z
loop_
_atom_site_type_symbol
_atom_site_label
_atom_site_fract_x
_atom_site_fract_y
_atom_site_fract_z
Si Si1 0.691021 0.087959 0.401117
Si Si2 0.000000 0.000000 0.500000
Si Si3 0.734604 0.039102 0.728124
Si Si4 0.509194 0.754432 0.985665
Si Si5 0.035948 0.647765 0.729097
Si Si6 0.654722 0.741553 0.481542
Si Si7 0.875520 0.610137 0.936907
Si Si8 0.264210 0.853336 0.853768
O O1 0.678065 0.861149 0.394368
O O2 0.511960 0.288366 0.515505
O O3 0.690820 0.104283 0.268572
O O4 0.859987 0.074526 0.430708
O O5 0.158550 0.902831 0.362497
O O6 0.644616 0.912651 0.631362
O O7 0.878120 0.846499 0.739683
O O8 0.600140 0.205949 0.877729
O O9 0.701658 0.598532 0.953523
O O10 0.419796 0.691062 0.873340
O O11 0.500000 0.000000 0.000000
O O12 0.171654 0.484135 0.580848
O O13 0.138800 0.741794 0.822684
O O14 0.968400 0.506118 0.779969
O O15 0.000000 0.500000 0.000000
O O16 0.825422 0.887251 0.014842
#
# Coordination Sequence:
#
# PCOD9013320 Si02
#       8
#     2   1   2   2   2   2   2   2
#     4  10  21  41  64  90 130 175 216 271 327 384
#     4  10  22  38  62  94 126 170 212 266 324 376
#     4  11  21  42  65  95 131 171 220 262 327 387
#     4  10  21  41  70  96 125 173 216 269 324 391
#     4  12  23  39  64  98 130 170 217 271 322 394
#     4  10  23  39  63  94 130 174 221 264 322 389
#     4  11  24  42  68  99 129 171 221 268 326 391
#     4  11  22  41  68  94 133 171 214 271 334 382
#
# _framework density 25.119789000000001
#
# number of rings (size 3 to 8) (size 9 to 14) (size 15 to 20)
#    0.000    1.333    4.000    3.200    0.000    2.667 
#    0.000    3.333    0.000    0.000    0.000    0.000 
#    0.000    0.000    0.000    0.000    0.000    0.000 
#
# Total GULP energy -83628.225679 kJ/mol
# GULP energy per Si atom -5575.215045 kJ/mol
# Density = 2.506262 g / cm^3
# Si number density = 25.119789 Si / 1000 Ang^3
#
#
#
# Elastic Constant Matrix: (Units=GPa)
#
#
# Indices 1 2 3 4 5 6 
#
# 1 175.8098 49.1314 58.2509 -8.9526 -20.0475 -46.0331
# 2 49.1314 66.6898 23.0047 -13.5167 -0.4500 -17.9259
# 3 58.2509 23.0047 130.4156 -25.0764 -26.5394 -14.3131
# 4 -8.9526 -13.5167 -25.0764 29.0659 -6.2820 0.2926
# 5 -20.0475 -0.4500 -26.5394 -6.2820 51.0507 -3.4273
# 6 -46.0331 -17.9259 -14.3131 0.2926 -3.4273 55.8269
#
#
#
# Elastic Compliance Matrix: (Units=1/GPa)
#
#
# Indices 1 2 3 4 5 6 
#
# 1 0.009684 -0.004837 -0.002388 -0.000777 0.002826 0.005997
# 2 -0.004837 0.020882 0.000327 0.008405 -0.000328 0.002737
# 3 -0.002388 0.000327 0.012607 0.011829 0.007192 0.001747
# 4 -0.000777 0.008405 0.011829 0.050938 0.012563 0.005595
# 5 0.002826 -0.000328 0.007192 0.012563 0.026357 0.005621
# 6 0.005997 0.002737 0.001747 0.005595 0.005621 0.024500
#
#
# Mechanical properties :
#
#
# Convention : Reuss Voigt Hill
#
# Bulk Modulus (GPa) = 34.04156 70.40993 52.22574
# Shear Modulus (GPa) = 29.66351 43.35724 36.51037
#
# Velocity S-wave (km/s) = 3.44012 4.15905 3.81655
# Velocity P-wave (km/s) = 5.41852 7.15221 6.34486
#
# Compressibility (1/GPa) = 0.02937586
#
# Stress axis : x y z
#
# Youngs Moduli (GPa) = 103.26450 47.88749 79.32247
#
# Poissons Ratio (x) = 0.23162 0.18945
# Poissons Ratio (y) = 0.49947 -0.02590
# Poissons Ratio (z) = 0.24663 -0.01564
#
# Static dielectric constant tensor:
#      x y z
#    x 1.980360 0.068330 -0.015080 
#    y 0.068330 2.026990 0.061350 
#    z -0.015080 0.061350 2.039430 
# 
# From -- ./inp_files/379930.got.cif
#   From: 2010.05.17/outbox.cif.g08.bks.cpg/sg2_190_cif.got.tgz:379930.got - 2010.06.03 11:33:40.
