data_PCOD9013359
_publ_section_title
;
Structure prediction by ZEFSAII (Michael W. Deem and Ramdas Pophale) SiO2 
 PCOD9013359
Probable space group: P -1
;
_chemical_formula_sum "Si O2"
_cell_formula_units_Z 13
_cell_length_a 7.557194
_cell_length_b 11.842195
_cell_length_c 7.026727
_cell_angle_alpha 78.161062
_cell_angle_beta 105.096621
_cell_angle_gamma 69.760020
_cell_volume 538.545784
_symmetry_space_group_name_H-M "P -1"
_symmetry_group_IT_number 2
_symmetry_cell_setting 'triclinic'
loop_
_space_group_symop_operation_xyz
x,y,z
-x,-y,-z
loop_
_atom_site_type_symbol
_atom_site_label
_atom_site_fract_x
_atom_site_fract_y
_atom_site_fract_z
Si Si1 0.025371 0.064046 0.790252
Si Si2 0.046362 0.683327 0.155503
Si Si3 0.610373 0.253552 0.642695
Si Si4 0.439850 0.340924 0.186916
Si Si5 0.000000 0.500000 0.500000
Si Si6 0.175175 0.609477 0.826829
Si Si7 0.549416 0.115506 0.042059
O O1 0.076137 0.181618 0.824119
O O2 0.795078 0.137010 0.628087
O O3 0.219525 0.956247 0.787663
O O4 0.000000 0.000000 0.000000
O O5 0.279479 0.662733 0.270066
O O6 0.002015 0.575344 0.277477
O O7 0.024596 0.693935 0.918382
O O8 0.437461 0.328992 0.418666
O O9 0.541752 0.197059 0.822075
O O10 0.656987 0.339400 0.193722
O O11 0.286529 0.473976 0.012532
O O12 0.424520 0.220629 0.125019
O O13 0.078889 0.592498 0.610961
O O14 0.500000 0.000000 0.000000
#
# Coordination Sequence:
#
# PCOD9013359 Si02
#       7
#     2   2   2   2   1   2   2
#     4   8  17  39  65  85 124 166 209 262 315 382
#     4  10  21  41  64  92 127 165 217 264 322 378
#     4   9  20  41  63  92 125 171 214 259 326 385
#     4  11  23  40  66  93 127 173 210 256 337 382
#     4  12  24  40  64  98 124 166 222 268 314 384
#     4  11  23  41  65  94 129 168 211 267 319 390
#     4  11  23  40  64  93 132 166 216 273 313 380
#
# _framework density 24.139078999999999
#
# number of rings (size 3 to 8) (size 9 to 14) (size 15 to 20)
#    0.923    0.923    3.077    0.462    2.154    3.077 
#    0.000    1.538    0.000    0.000    0.000    0.000 
#    0.000    0.000    0.000    0.000    0.000    0.000 
#
# Total GULP energy -72369.178689 kJ/mol
# GULP energy per Si atom -5566.859899 kJ/mol
# Density = 2.408414 g / cm^3
# Si number density = 24.139079 Si / 1000 Ang^3
#
#
#
# Elastic Constant Matrix: (Units=GPa)
#
#
# Indices 1 2 3 4 5 6 
#
# 1 52.2704 24.0493 18.0595 -2.6453 -2.4395 17.2509
# 2 24.0493 88.5644 10.8219 0.7724 5.6607 13.5488
# 3 18.0595 10.8219 116.1638 7.6994 13.0387 8.7649
# 4 -2.6453 0.7724 7.6994 37.8830 8.1386 -1.7206
# 5 -2.4395 5.6607 13.0387 8.1386 24.6452 -7.3207
# 6 17.2509 13.5488 8.7649 -1.7206 -7.3207 51.8889
#
#
#
# Elastic Compliance Matrix: (Units=1/GPa)
#
#
# Indices 1 2 3 4 5 6 
#
# 1 0.025086 -0.005748 -0.003417 0.001575 0.003388 -0.005732
# 2 -0.005748 0.013454 0.000315 0.000134 -0.004551 -0.002293
# 3 -0.003417 0.000315 0.009939 -0.001098 -0.005743 -0.001472
# 4 0.001575 0.000134 -0.001098 0.028619 -0.008949 -0.000687
# 5 0.003388 -0.004551 -0.005743 -0.008949 0.050276 0.007828
# 6 -0.005732 -0.002293 -0.001472 -0.000687 0.007828 0.023107
#
#
# Mechanical properties :
#
#
# Convention : Reuss Voigt Hill
#
# Bulk Modulus (GPa) = 32.48876 40.31777 36.40327
# Shear Modulus (GPa) = 28.02081 36.48794 32.25437
#
# Velocity S-wave (km/s) = 3.41076 3.89211 3.65936
# Velocity P-wave (km/s) = 5.38509 6.07755 5.74177
#
# Compressibility (1/GPa) = 0.03077987
#
# Stress axis : x y z
#
# Youngs Moduli (GPa) = 39.86309 74.32710 100.61520
#
# Poissons Ratio (x) = 0.42723 0.34378
# Poissons Ratio (y) = 0.22913 -0.03171
# Poissons Ratio (z) = 0.13620 -0.02343
#
# Static dielectric constant tensor:
#      x y z
#    x 2.030600 -0.066800 0.017900 
#    y -0.066800 1.934290 0.031730 
#    z 0.017900 0.031730 1.879180 
# 
# From -- ./inp_files/24713.got.cif
#   From: 2010.05.17/outbox.cif.g08.bks.cpg/sg2_13_cif.got.tgz:24713.got - 2010.06.03 11:33:40.
