data_PCOD9013787
_publ_section_title
;
Structure prediction by ZEFSAII (Michael W. Deem and Ramdas Pophale) SiO2 
 PCOD9013787
Probable space group: P -1
;
_chemical_formula_sum "Si O2"
_cell_formula_units_Z 14
_cell_length_a 5.855499
_cell_length_b 13.492238
_cell_length_c 10.075816
_cell_angle_alpha 120.446711
_cell_angle_beta 62.446116
_cell_angle_gamma 119.350726
_cell_volume 573.347544
_symmetry_space_group_name_H-M "P -1"
_symmetry_group_IT_number 2
_symmetry_cell_setting 'triclinic'
loop_
_space_group_symop_operation_xyz
x,y,z
-x,-y,-z
loop_
_atom_site_type_symbol
_atom_site_label
_atom_site_fract_x
_atom_site_fract_y
_atom_site_fract_z
Si Si1 0.293391 0.075446 0.626301
Si Si2 0.411968 0.538113 0.912626
Si Si3 0.982943 0.332656 0.759736
Si Si4 0.438091 0.882540 0.161259
Si Si5 0.530159 0.289950 0.193572
Si Si6 0.691104 0.884191 0.635233
Si Si7 0.828487 0.508712 0.419323
O O1 0.351270 0.134686 0.796375
O O2 0.351100 0.157093 0.534097
O O3 0.500000 0.000000 0.500000
O O4 0.995745 0.976145 0.635280
O O5 0.278996 0.411225 0.786109
O O6 0.596418 0.634313 0.821932
O O7 0.500000 0.500000 0.000000
O O8 0.205116 0.607696 0.063357
O O9 0.995700 0.370795 0.628698
O O10 0.849968 0.192381 0.740582
O O11 0.482905 0.025129 0.230752
O O12 0.438431 0.818610 0.978307
O O13 0.367977 0.224861 0.321101
O O14 0.799766 0.393172 0.249776
O O15 0.500000 0.500000 0.500000
O O16 0.000000 0.500000 0.500000
#
# Coordination Sequence:
#
# PCOD9013787 Si02
#       7
#     2   2   2   2   2   2   2
#     4   9  21  39  60  90 131 179 221 268 331 416
#     4   9  19  39  64  90 126 169 222 281 350 410
#     4   9  21  38  62  92 126 171 229 275 342 419
#     4  10  21  41  65  98 131 178 228 275 354 415
#     4  10  23  43  66 104 131 174 233 289 350 418
#     4  10  21  41  65  96 138 174 223 281 346 419
#     4  11  27  47  68 104 142 186 238 298 361 419
#
# _framework density 24.417998000000001
#
# number of rings (size 3 to 8) (size 9 to 14) (size 15 to 20)
#    0.000    2.286    0.000    1.286    6.000    6.286 
#    5.143    0.000    0.000    0.000    0.000    0.000 
#    0.000    0.000    0.000    0.000    0.000    0.000 
#
# Total GULP energy -78056.065429 kJ/mol
# GULP energy per Si atom -5575.433245 kJ/mol
# Density = 2.436242 g / cm^3
# Si number density = 24.417998 Si / 1000 Ang^3
#
#
#
# Elastic Constant Matrix: (Units=GPa)
#
#
# Indices 1 2 3 4 5 6 
#
# 1 70.9355 18.5181 49.3307 -9.3328 28.9362 -12.7899
# 2 18.5181 131.8200 33.6699 -31.6751 20.4026 -23.3315
# 3 49.3307 33.6699 117.2339 -5.1133 36.9496 -17.1489
# 4 -9.3328 -31.6751 -5.1133 64.1506 -12.7971 10.3220
# 5 28.9362 20.4026 36.9496 -12.7971 45.0755 -6.4989
# 6 -12.7899 -23.3315 -17.1489 10.3220 -6.4989 21.1586
#
#
#
# Elastic Compliance Matrix: (Units=1/GPa)
#
#
# Indices 1 2 3 4 5 6 
#
# 1 0.023161 0.001114 -0.006079 0.000427 -0.009221 0.007261
# 2 0.001114 0.010482 -0.001382 0.003392 -0.002093 0.008814
# 3 -0.006079 -0.001382 0.014503 -0.002785 -0.007335 0.005662
# 4 0.000427 0.003392 -0.002785 0.019074 0.005020 -0.006022
# 5 -0.009221 -0.002093 -0.007335 0.005020 0.035726 -0.005303
# 6 0.007261 0.008814 0.005662 -0.006022 -0.005303 0.067268
#
#
# Mechanical properties :
#
#
# Convention : Reuss Voigt Hill
#
# Bulk Modulus (GPa) = 28.20719 58.11410 43.16065
# Shear Modulus (GPa) = 25.67734 40.64165 33.15950
#
# Velocity S-wave (km/s) = 3.24632 4.08415 3.68909
# Velocity P-wave (km/s) = 5.06244 6.78909 5.98832
#
# Compressibility (1/GPa) = 0.03545195
#
# Stress axis : x y z
#
# Youngs Moduli (GPa) = 43.17661 95.40585 68.94891
#
# Poissons Ratio (x) = -0.10629 0.41911
# Poissons Ratio (y) = -0.04810 0.09531
# Poissons Ratio (z) = 0.26245 0.13189
#
# Static dielectric constant tensor:
#      x y z
#    x 2.079270 -0.056470 0.002820 
#    y -0.056470 1.992580 -0.045120 
#    z 0.002820 -0.045120 2.073030 
# 
# From -- ./inp_files/107081.got.cif
#   From: 2010.05.17/outbox.cif.g08.bks.cpg/sg2_54_cif.got.tgz:107081.got - 2010.06.03 11:33:40.
