data_PCOD9013694
_publ_section_title
;
Structure prediction by ZEFSAII (Michael W. Deem and Ramdas Pophale) SiO2 
 PCOD9013694
Probable space group: P -1
;
_chemical_formula_sum "Si O2"
_cell_formula_units_Z 16
_cell_length_a 14.464068
_cell_length_b 12.511285
_cell_length_c 8.630359
_cell_angle_alpha 93.593947
_cell_angle_beta 98.615447
_cell_angle_gamma 28.617971
_cell_volume 731.752283
_symmetry_space_group_name_H-M "P -1"
_symmetry_group_IT_number 2
_symmetry_cell_setting 'triclinic'
loop_
_space_group_symop_operation_xyz
x,y,z
-x,-y,-z
loop_
_atom_site_type_symbol
_atom_site_label
_atom_site_fract_x
_atom_site_fract_y
_atom_site_fract_z
Si Si1 0.950800 0.331063 0.610453
Si Si2 0.798357 0.100034 0.527332
Si Si3 0.359550 0.528544 0.421288
Si Si4 0.774077 0.572375 0.264397
Si Si5 0.379887 0.537226 0.077700
Si Si6 0.013799 0.145707 0.130026
Si Si7 0.856293 0.697618 0.109130
Si Si8 0.603580 0.132100 0.935764
O O1 0.764499 0.452073 0.633166
O O2 0.878794 0.461913 0.447232
O O3 0.027950 0.335407 0.756039
O O4 0.109947 0.078088 0.584108
O O5 0.573769 0.290074 0.520317
O O6 0.764832 0.259100 0.491381
O O7 0.927466 0.965609 0.702315
O O8 0.392022 0.548292 0.262679
O O9 0.908277 0.363413 0.168146
O O10 0.769248 0.693517 0.197802
O O11 0.558718 0.734174 0.222984
O O12 0.500000 0.500000 0.000000
O O13 0.151688 0.755860 0.990857
O O14 0.483987 0.318655 0.051311
O O15 0.214293 0.976351 0.079083
O O16 0.000000 0.500000 0.000000
O O17 0.691206 0.933777 0.003738
#
# Coordination Sequence:
#
# PCOD9013694 Si02
#       8
#     2   2   2   2   2   2   2   2
#     4  11  24  43  68  93 133 175 220 270 333 391
#     4  10  23  41  65  94 130 172 217 268 330 389
#     4  11  23  41  65  96 133 169 225 267 324 396
#     4  10  23  43  65  96 127 173 221 272 328 390
#     4  11  25  40  64 101 135 171 217 267 328 398
#     4  10  21  41  65  93 132 171 220 266 325 389
#     4  12  24  43  68  96 134 174 222 278 330 383
#     4  11  22  41  68  93 135 175 216 273 332 386
#
# _framework density 21.865323
#
# number of rings (size 3 to 8) (size 9 to 14) (size 15 to 20)
#    0.000    1.250    1.250    4.125    1.750    9.000 
#    2.250    0.625    0.000    0.000    0.000    0.000 
#    0.000    0.000    0.000    0.000    0.000    0.000 
#
# Total GULP energy -89469.599271 kJ/mol
# GULP energy per Si atom -5591.849954 kJ/mol
# Density = 2.181556 g / cm^3
# Si number density = 21.865323 Si / 1000 Ang^3
#
#
#
# Elastic Constant Matrix: (Units=GPa)
#
#
# Indices 1 2 3 4 5 6 
#
# 1 97.3934 26.4866 21.0654 4.8303 9.5226 -20.8214
# 2 26.4866 125.1703 37.8879 -2.1611 13.2472 -1.1398
# 3 21.0654 37.8879 86.1361 10.9711 23.7914 -11.3088
# 4 4.8303 -2.1611 10.9711 24.6116 -5.2592 6.2085
# 5 9.5226 13.2472 23.7914 -5.2592 42.5640 -3.7666
# 6 -20.8214 -1.1398 -11.3088 6.2085 -3.7666 34.3318
#
#
#
# Elastic Compliance Matrix: (Units=1/GPa)
#
#
# Indices 1 2 3 4 5 6 
#
# 1 0.013342 -0.002752 0.000520 -0.005858 -0.002349 0.008973
# 2 -0.002752 0.010077 -0.005001 0.004719 0.000524 -0.003777
# 3 0.000520 -0.005001 0.019221 -0.013257 -0.010256 0.007753
# 4 -0.005858 0.004719 -0.013257 0.054910 0.012593 -0.016311
# 5 -0.002349 0.000524 -0.010256 0.012593 0.030819 -0.003681
# 6 0.008973 -0.003777 0.007753 -0.016311 -0.003681 0.039544
#
#
# Mechanical properties :
#
#
# Convention : Reuss Voigt Hill
#
# Bulk Modulus (GPa) = 35.49190 53.28660 44.38925
# Shear Modulus (GPa) = 26.07303 35.18548 30.62926
#
# Velocity S-wave (km/s) = 3.45692 4.01582 3.74681
# Velocity P-wave (km/s) = 5.67459 6.77685 6.25007
#
# Compressibility (1/GPa) = 0.02817544
#
# Stress axis : x y z
#
# Youngs Moduli (GPa) = 74.95177 99.23783 52.02608
#
# Poissons Ratio (x) = 0.27306 -0.02708
# Poissons Ratio (y) = 0.20623 0.26019
# Poissons Ratio (z) = -0.03901 0.49630
#
# Static dielectric constant tensor:
#      x y z
#    x 1.810340 -0.008050 -0.015410 
#    y -0.008050 1.811500 -0.003090 
#    z -0.015410 -0.003090 1.778410 
# 
# From -- ./inp_files/124874.got.cif
#   From: 2010.05.17/outbox.cif.g08.bks.cpg/sg2_63_cif.got.tgz:124874.got - 2010.06.03 11:33:40.
