data_PCOD9013411
_publ_section_title
;
Structure prediction by ZEFSAII (Michael W. Deem and Ramdas Pophale) SiO2 
 PCOD9013411
Probable space group: P -1
;
_chemical_formula_sum "Si O2"
_cell_formula_units_Z 14
_cell_length_a 12.030300
_cell_length_b 11.504780
_cell_length_c 7.800004
_cell_angle_alpha 142.940255
_cell_angle_beta 61.920016
_cell_angle_gamma 113.735288
_cell_volume 573.282945
_symmetry_space_group_name_H-M "P -1"
_symmetry_group_IT_number 2
_symmetry_cell_setting 'triclinic'
loop_
_space_group_symop_operation_xyz
x,y,z
-x,-y,-z
loop_
_atom_site_type_symbol
_atom_site_label
_atom_site_fract_x
_atom_site_fract_y
_atom_site_fract_z
Si Si1 0.906222 0.213900 0.665147
Si Si2 0.644100 0.114238 0.838580
Si Si3 0.433134 0.484302 0.713665
Si Si4 0.421187 0.821205 0.636390
Si Si5 0.839414 0.052781 0.153680
Si Si6 0.160234 0.346812 0.779104
Si Si7 0.944466 0.703732 0.831168
O O1 0.792254 0.083356 0.677775
O O2 0.889204 0.163679 0.419319
O O3 0.051166 0.210908 0.611542
O O4 0.871186 0.433361 0.990662
O O5 0.545274 0.950785 0.654089
O O6 0.614029 0.303634 0.971673
O O7 0.613108 0.148480 0.101497
O O8 0.500000 0.500000 0.500000
O O9 0.535256 0.397376 0.663228
O O10 0.308019 0.340003 0.620734
O O11 0.301681 0.891501 0.707151
O O12 0.932006 0.151839 0.060758
O O13 0.860645 0.826664 0.905453
O O14 0.135949 0.329487 0.978814
O O15 0.000000 0.500000 0.500000
#
# Coordination Sequence:
#
# PCOD9013411 Si02
#       7
#     2   2   2   2   2   2   2
#     4  10  21  41  66 100 130 169 225 279 328 393
#     4   9  20  40  62  94 130 174 225 262 326 395
#     4   9  20  41  65  98 128 171 224 267 326 394
#     4  10  21  41  64  94 131 178 216 269 330 398
#     4  11  25  42  65 101 133 172 223 277 333 393
#     4  10  21  42  70  96 133 177 220 275 328 394
#     4  11  24  46  64  96 135 175 220 274 336 390
#
# _framework density 24.420750999999999
#
# number of rings (size 3 to 8) (size 9 to 14) (size 15 to 20)
#    0.000    2.000    1.429    0.857    2.000    3.429 
#   15.429    1.429    0.000    0.000    0.000    0.000 
#    0.000    0.000    0.000    0.000    0.000    0.000 
#
# Total GULP energy -78226.093627 kJ/mol
# GULP energy per Si atom -5587.578116 kJ/mol
# Density = 2.436517 g / cm^3
# Si number density = 24.420751 Si / 1000 Ang^3
#
#
#
# Elastic Constant Matrix: (Units=GPa)
#
#
# Indices 1 2 3 4 5 6 
#
# 1 159.0933 71.4741 57.3959 20.3837 -54.6812 1.9737
# 2 71.4741 127.6639 27.9664 -1.6978 -23.4767 31.5402
# 3 57.3959 27.9664 84.5411 17.6258 -22.9165 -5.3746
# 4 20.3837 -1.6978 17.6258 47.3453 -7.7279 -21.5130
# 5 -54.6812 -23.4767 -22.9165 -7.7279 36.1991 1.4451
# 6 1.9737 31.5402 -5.3746 -21.5130 1.4451 40.0782
#
#
#
# Elastic Compliance Matrix: (Units=1/GPa)
#
#
# Indices 1 2 3 4 5 6 
#
# 1 0.017048 -0.005370 -0.004026 -0.002551 0.019144 0.000787
# 2 -0.005370 0.014174 -0.001281 -0.002232 0.000283 -0.012270
# 3 -0.004026 -0.001281 0.016528 -0.003309 0.002783 0.001546
# 4 -0.002551 -0.002232 -0.003309 0.031502 -0.001405 0.018399
# 5 0.019144 0.000283 0.002783 -0.001405 0.058334 -0.003649
# 6 0.000787 -0.012270 0.001546 0.018399 -0.003649 0.044783
#
#
# Mechanical properties :
#
#
# Convention : Reuss Voigt Hill
#
# Bulk Modulus (GPa) = 37.88581 76.10793 56.99687
# Shear Modulus (GPa) = 23.52685 39.02199 31.27442
#
# Velocity S-wave (km/s) = 3.10723 4.00171 3.58250
# Velocity P-wave (km/s) = 5.33110 7.25152 6.36416
#
# Compressibility (1/GPa) = 0.02639511
#
# Stress axis : x y z
#
# Youngs Moduli (GPa) = 58.65860 70.55165 60.50264
#
# Poissons Ratio (x) = 0.37889 0.24359
# Poissons Ratio (y) = 0.31502 0.07750
# Poissons Ratio (z) = 0.23617 0.09037
#
# Static dielectric constant tensor:
#      x y z
#    x 1.928510 -0.016380 -0.029960 
#    y -0.016380 1.984240 0.019270 
#    z -0.029960 0.019270 2.024670 
# 
# From -- ./inp_files/260421.got.cif
#   From: 2010.05.17/outbox.cif.g08.bks.cpg/sg2_131_cif.got.tgz:260421.got - 2010.06.03 11:33:40.
