data_PCOD9013276
_publ_section_title
;
Structure prediction by ZEFSAII (Michael W. Deem and Ramdas Pophale) SiO2 
 PCOD9013276
Probable space group: P -1
;
_chemical_formula_sum "Si O2"
_cell_formula_units_Z 14
_cell_length_a 8.739779
_cell_length_b 9.338518
_cell_length_c 9.298114
_cell_angle_alpha 107.178412
_cell_angle_beta 78.475737
_cell_angle_gamma 62.101969
_cell_volume 587.193474
_symmetry_space_group_name_H-M "P -1"
_symmetry_group_IT_number 2
_symmetry_cell_setting 'triclinic'
loop_
_space_group_symop_operation_xyz
x,y,z
-x,-y,-z
loop_
_atom_site_type_symbol
_atom_site_label
_atom_site_fract_x
_atom_site_fract_y
_atom_site_fract_z
Si Si1 0.457484 0.427590 0.628854
Si Si2 0.682167 0.002732 0.478500
Si Si3 0.698408 0.460858 0.814349
Si Si4 0.181307 0.922398 0.256632
Si Si5 0.472720 0.838140 0.931970
Si Si6 0.871664 0.437633 0.075191
Si Si7 0.133505 0.040228 0.841927
O O1 0.500000 0.500000 0.500000
O O2 0.599364 0.212472 0.529074
O O3 0.517760 0.498779 0.772289
O O4 0.253483 0.472995 0.730817
O O5 0.791029 0.962558 0.596815
O O6 0.500000 0.000000 0.500000
O O7 0.807428 0.893057 0.287032
O O8 0.821810 0.240070 0.713304
O O9 0.674780 0.645905 0.816165
O O10 0.733138 0.474216 0.978739
O O11 0.995827 0.020623 0.220585
O O12 0.364710 0.832501 0.092295
O O13 0.321231 0.897943 0.850378
O O14 0.500000 0.000000 0.000000
O O15 0.000518 0.221535 0.011698
O O16 0.000000 0.500000 0.000000
#
# Coordination Sequence:
#
# PCOD9013276 Si02
#       7
#     2   2   2   2   2   2   2
#     4  11  23  40  65  93 126 168 211 256 315 382
#     4  11  22  40  63  92 124 165 212 261 312 376
#     4  10  21  41  64  85 123 175 214 241 307 403
#     4  10  22  39  60  86 122 167 207 248 313 383
#     4  12  22  36  60  94 124 157 205 264 312 362
#     4  11  22  42  66  93 126 170 213 258 315 382
#     4  11  23  38  62  93 125 158 207 268 313 360
#
# _framework density 23.842227999999999
#
# number of rings (size 3 to 8) (size 9 to 14) (size 15 to 20)
#    0.000    1.143    0.000    8.571    0.000    1.143 
#    0.000    0.714    0.000    0.000    0.000    3.000 
#    0.000    0.000    0.000    0.000    0.000    0.000 
#
# Total GULP energy -77935.838927 kJ/mol
# GULP energy per Si atom -5566.845638 kJ/mol
# Density = 2.378796 g / cm^3
# Si number density = 23.842228 Si / 1000 Ang^3
#
#
#
# Elastic Constant Matrix: (Units=GPa)
#
#
# Indices 1 2 3 4 5 6 
#
# 1 109.7057 39.3030 46.5771 -17.9629 5.6345 4.0997
# 2 39.3030 89.4404 4.2015 -12.5789 17.2471 -2.7462
# 3 46.5771 4.2015 95.7289 -10.2712 -8.7994 -6.3512
# 4 -17.9629 -12.5789 -10.2712 24.0450 1.5204 3.0155
# 5 5.6345 17.2471 -8.7994 1.5204 38.8115 -2.5928
# 6 4.0997 -2.7462 -6.3512 3.0155 -2.5928 33.1276
#
#
#
# Elastic Compliance Matrix: (Units=1/GPa)
#
#
# Indices 1 2 3 4 5 6 
#
# 1 0.015269 -0.005232 -0.006995 0.006362 -0.002021 -0.004402
# 2 -0.005232 0.015239 0.001995 0.005100 -0.005667 0.001385
# 3 -0.006995 0.001995 0.014497 0.001282 0.003631 0.003978
# 4 0.006362 0.005100 0.001282 0.050530 -0.005221 -0.005127
# 5 -0.002021 -0.005667 0.003631 -0.005221 0.029825 0.003286
# 6 -0.004402 0.001385 0.003978 -0.005127 0.003286 0.032332
#
#
# Mechanical properties :
#
#
# Convention : Reuss Voigt Hill
#
# Bulk Modulus (GPa) = 40.74715 52.78202 46.76459
# Shear Modulus (GPa) = 26.83305 32.84973 29.84139
#
# Velocity S-wave (km/s) = 3.35840 3.71589 3.54166
# Velocity P-wave (km/s) = 5.67150 6.37155 6.03169
#
# Compressibility (1/GPa) = 0.02454159
#
# Stress axis : x y z
#
# Youngs Moduli (GPa) = 65.49008 65.62252 68.97822
#
# Poissons Ratio (x) = 0.34334 0.48250
# Poissons Ratio (y) = 0.34265 -0.13762
# Poissons Ratio (z) = 0.45810 -0.13092
#
# Static dielectric constant tensor:
#      x y z
#    x 2.048040 0.116060 0.003540 
#    y 0.116060 2.089890 0.063070 
#    z 0.003540 0.063070 1.984180 
# 
# From -- ./inp_files/154542.got.cif
#   From: 2010.05.17/outbox.cif.g08.bks.cpg/sg2_78_cif.got.tgz:154542.got - 2010.06.03 11:33:40.
