data_PCOD9013165
_publ_section_title
;
Structure prediction by ZEFSAII (Michael W. Deem and Ramdas Pophale) SiO2 
 PCOD9013165
Probable space group: P -1
;
_chemical_formula_sum "Si O2"
_cell_formula_units_Z 16
_cell_length_a 9.279604
_cell_length_b 5.229152
_cell_length_c 28.138305
_cell_angle_alpha 76.655942
_cell_angle_beta 150.827719
_cell_angle_gamma 105.708104
_cell_volume 640.643562
_symmetry_space_group_name_H-M "P -1"
_symmetry_group_IT_number 2
_symmetry_cell_setting 'triclinic'
loop_
_space_group_symop_operation_xyz
x,y,z
-x,-y,-z
loop_
_atom_site_type_symbol
_atom_site_label
_atom_site_fract_x
_atom_site_fract_y
_atom_site_fract_z
Si Si1 0.270582 0.320533 0.511841
Si Si2 0.371354 0.214505 0.809677
Si Si3 0.240352 0.785318 0.412870
Si Si4 0.213256 0.176250 0.250396
Si Si5 0.718943 0.890354 0.379709
Si Si6 0.751943 0.336844 0.825433
Si Si7 0.735990 0.351848 0.163704
Si Si8 0.736434 0.797407 0.077874
O O1 0.163787 0.553242 0.439822
O O2 0.594339 0.306454 0.582700
O O3 0.270098 0.339116 0.568101
O O4 0.032535 0.052890 0.447340
O O5 0.639117 0.308838 0.847078
O O6 0.313419 0.464389 0.814005
O O7 0.066371 0.125007 0.695793
O O8 0.426841 0.947138 0.863580
O O9 0.500000 0.000000 0.500000
O O10 0.192297 0.364091 0.190890
O O11 0.077796 0.315507 0.249888
O O12 0.538218 0.093771 0.347982
O O13 0.979986 0.914098 0.183732
O O14 0.513827 0.796797 0.280082
O O15 0.048000 0.212110 0.904511
O O16 0.626949 0.505023 0.080177
O O17 0.500000 0.000000 0.000000
#
# Coordination Sequence:
#
# PCOD9013165 Si02
#       8
#     2   2   2   2   2   2   2   2
#     4  10  23  38  59  92 129 174 231 289 341 390
#     4  12  26  44  70  98 141 179 232 281 336 415
#     4  11  25  38  60  89 133 181 227 284 350 385
#     4  10  21  42  70 101 129 183 228 274 340 408
#     4  10  21  41  63  93 132 176 235 284 338 396
#     4  10  24  39  71  98 135 180 229 275 346 395
#     4  11  25  44  72 102 132 183 223 273 343 405
#     4  10  23  47  75 106 139 173 222 277 337 415
#
# _framework density 24.974886000000001
#
# number of rings (size 3 to 8) (size 9 to 14) (size 15 to 20)
#    0.000    1.500    1.250    2.250   12.250    3.000 
#    0.000    4.375    0.000    0.000    0.000    0.000 
#    0.000    0.000    0.000    0.000    0.000    0.000 
#
# Total GULP energy -89557.104279 kJ/mol
# GULP energy per Si atom -5597.319017 kJ/mol
# Density = 2.491804 g / cm^3
# Si number density = 24.974886 Si / 1000 Ang^3
#
#
#
# Elastic Constant Matrix: (Units=GPa)
#
#
# Indices 1 2 3 4 5 6 
#
# 1 184.8461 66.7189 32.1130 -16.2913 22.6708 15.4673
# 2 66.7189 105.0338 4.4184 -17.0997 8.2815 22.2741
# 3 32.1130 4.4184 76.8885 -9.2239 18.1947 3.9552
# 4 -16.2913 -17.0997 -9.2239 39.4823 -3.6136 -4.4198
# 5 22.6708 8.2815 18.1947 -3.6136 29.0508 -2.6083
# 6 15.4673 22.2741 3.9552 -4.4198 -2.6083 47.6403
#
#
#
# Elastic Compliance Matrix: (Units=1/GPa)
#
#
# Indices 1 2 3 4 5 6 
#
# 1 0.007912 -0.004489 -0.002131 0.000448 -0.003544 -0.000445
# 2 -0.004489 0.014167 0.002260 0.004069 -0.001901 -0.005080
# 3 -0.002131 0.002260 0.016350 0.002874 -0.009039 -0.001950
# 4 0.000448 0.004069 0.002874 0.028001 0.000203 0.000323
# 5 -0.003544 -0.001901 -0.009039 0.000203 0.043884 0.005211
# 6 -0.000445 -0.005080 -0.001950 0.000323 0.005211 0.023988
#
#
# Mechanical properties :
#
#
# Convention : Reuss Voigt Hill
#
# Bulk Modulus (GPa) = 33.66060 63.69655 48.67858
# Shear Modulus (GPa) = 32.69567 40.80254 36.74910
#
# Velocity S-wave (km/s) = 3.62213 4.04634 3.84010
# Velocity P-wave (km/s) = 5.56778 6.88405 6.26060
#
# Compressibility (1/GPa) = 0.02970832
#
# Stress axis : x y z
#
# Youngs Moduli (GPa) = 126.39087 70.58678 61.16172
#
# Poissons Ratio (x) = 0.31688 0.13035
# Poissons Ratio (y) = 0.56740 -0.13823
# Poissons Ratio (z) = 0.26936 -0.15953
#
# Static dielectric constant tensor:
#      x y z
#    x 1.998330 -0.050410 -0.060570 
#    y -0.050410 2.031960 0.022390 
#    z -0.060570 0.022390 1.974350 
# 
# From -- ./inp_files/44695.got.cif
#   From: 2010.05.17/outbox.cif.g08.bks.cpg/sg2_23_cif.got.tgz:44695.got - 2010.06.03 11:33:40.
