data_PCOD9013014
_publ_section_title
;
Structure prediction by ZEFSAII (Michael W. Deem and Ramdas Pophale) SiO2 
 PCOD9013014
Probable space group: P -1
;
_chemical_formula_sum "Si O2"
_cell_formula_units_Z 12
_cell_length_a 8.500754
_cell_length_b 14.412043
_cell_length_c 7.664100
_cell_angle_alpha 111.561123
_cell_angle_beta 49.552977
_cell_angle_gamma 79.669116
_cell_volume 536.445425
_symmetry_space_group_name_H-M "P -1"
_symmetry_group_IT_number 2
_symmetry_cell_setting 'triclinic'
loop_
_space_group_symop_operation_xyz
x,y,z
-x,-y,-z
loop_
_atom_site_type_symbol
_atom_site_label
_atom_site_fract_x
_atom_site_fract_y
_atom_site_fract_z
Si Si1 0.988359 0.171707 0.214282
Si Si2 0.364736 0.731120 0.778651
Si Si3 0.578665 0.070454 0.111260
Si Si4 0.097583 0.504217 0.703693
Si Si5 0.863723 0.763708 0.181900
Si Si6 0.799498 0.416665 0.686515
O O1 0.742354 0.216087 0.303035
O O2 0.909076 0.274316 0.487602
O O3 0.168359 0.177317 0.946223
O O4 0.143067 0.036306 0.086893
O O5 0.409218 0.823001 0.907739
O O6 0.623097 0.595493 0.489221
O O7 0.133342 0.734564 0.031134
O O8 0.366660 0.143361 0.464049
O O9 0.500000 0.000000 0.000000
O O10 0.154723 0.544083 0.507068
O O11 0.954063 0.441802 0.726035
O O12 0.919808 0.631108 0.024411
O O13 0.500000 0.500000 0.000000
#
# Coordination Sequence:
#
# PCOD9013014 Si02
#       6
#     2   2   2   2   2   2
#     4   9  22  44  59  91 124 164 205 249 307 365
#     4  10  23  40  64  88 126 161 208 252 301 375
#     4  12  24  41  62  90 124 164 215 254 301 362
#     4  10  21  41  62  96 125 158 206 250 314 364
#     4   9  23  39  67  86 123 168 200 255 307 364
#     4  10  22  39  66  95 126 158 200 261 306 364
#
# _framework density 22.36947
#
# number of rings (size 3 to 8) (size 9 to 14) (size 15 to 20)
#    1.000    1.000    0.000    2.500    2.333    4.000 
#    0.000    0.000    0.000    0.000    0.000    0.000 
#    0.000    0.000    0.000    0.000    0.000    0.000 
#
# Total GULP energy -67071.113181 kJ/mol
# GULP energy per Si atom -5589.259432 kJ/mol
# Density = 2.231856 g / cm^3
# Si number density = 22.369470 Si / 1000 Ang^3
#
#
#
# Elastic Constant Matrix: (Units=GPa)
#
#
# Indices 1 2 3 4 5 6 
#
# 1 41.4465 -0.4266 2.2792 -3.8361 18.8248 16.2439
# 2 -0.4266 34.4966 15.6663 13.7631 12.4502 8.4473
# 3 2.2792 15.6663 118.4205 5.2647 19.2156 12.0823
# 4 -3.8361 13.7631 5.2647 38.2677 8.4285 -0.6088
# 5 18.8248 12.4502 19.2156 8.4285 36.1139 10.9155
# 6 16.2439 8.4473 12.0823 -0.6088 10.9155 42.7843
#
#
#
# Elastic Compliance Matrix: (Units=1/GPa)
#
#
# Indices 1 2 3 4 5 6 
#
# 1 0.039272 0.007976 0.002766 0.005463 -0.022508 -0.011446
# 2 0.007976 0.040733 -0.002321 -0.010975 -0.012145 -0.007473
# 3 0.002766 -0.002321 0.009740 0.000944 -0.005459 -0.001936
# 4 0.005463 -0.010975 0.000944 0.032246 -0.007778 0.002269
# 5 -0.022508 -0.012145 -0.005459 -0.007778 0.048315 0.000048
# 6 -0.011446 -0.007473 -0.001936 0.002269 0.000048 0.029761
#
#
# Mechanical properties :
#
#
# Convention : Reuss Voigt Hill
#
# Bulk Modulus (GPa) = 9.38196 25.48903 17.43549
# Shear Modulus (GPa) = 22.85673 35.22282 29.03978
#
# Velocity S-wave (km/s) = 3.20000 3.97242 3.60695
# Velocity P-wave (km/s) = 4.22570 5.69732 5.01577
#
# Compressibility (1/GPa) = 0.10658754
#
# Stress axis : x y z
#
# Youngs Moduli (GPa) = 25.46325 24.55014 102.67215
#
# Poissons Ratio (x) = -0.19582 -0.28401
# Poissons Ratio (y) = -0.20310 0.23831
# Poissons Ratio (z) = -0.07044 0.05698
#
# Static dielectric constant tensor:
#      x y z
#    x 1.868700 -0.016770 0.015030 
#    y -0.016770 1.836860 -0.026010 
#    z 0.015030 -0.026010 1.751590 
# 
# From -- ./inp_files/199217.got.cif
#   From: 2010.05.17/outbox.cif.g08.bks.cpg/sg2_100_cif.got.tgz:199217.got - 2010.06.03 11:33:40.
