data_PCOD9013859
_publ_section_title
;
Structure prediction by ZEFSAII (Michael W. Deem and Ramdas Pophale) SiO2 
 PCOD9013859
Probable space group: P -1
;
_chemical_formula_sum "Si O2"
_cell_formula_units_Z 14
_cell_length_a 25.872426
_cell_length_b 8.690108
_cell_length_c 14.834107
_cell_angle_alpha 143.484349
_cell_angle_beta 19.336654
_cell_angle_gamma 150.184320
_cell_volume 546.814145
_symmetry_space_group_name_H-M "P -1"
_symmetry_group_IT_number 2
_symmetry_cell_setting 'triclinic'
loop_
_space_group_symop_operation_xyz
x,y,z
-x,-y,-z
loop_
_atom_site_type_symbol
_atom_site_label
_atom_site_fract_x
_atom_site_fract_y
_atom_site_fract_z
Si Si1 0.181203 0.332302 0.338118
Si Si2 0.636852 0.146343 0.038746
Si Si3 0.073135 0.117796 0.111117
Si Si4 0.725363 0.051556 0.577518
Si Si5 0.440503 0.214531 0.533638
Si Si6 0.211358 0.283848 0.461908
Si Si7 0.491603 0.564968 0.268166
O O1 0.168697 0.579496 0.416164
O O2 0.226914 0.450247 0.421573
O O3 0.328428 0.298093 0.024937
O O4 0.000000 0.000000 0.500000
O O5 0.583906 0.131421 0.223565
O O6 0.438810 0.041151 0.267892
O O7 0.796531 0.504010 0.917617
O O8 0.701420 0.915581 0.803824
O O9 0.902212 0.014615 0.273563
O O10 0.215317 0.020736 0.803711
O O11 0.981066 0.961481 0.285408
O O12 0.594462 0.805070 0.753080
O O13 0.500000 0.500000 0.500000
O O14 0.479978 0.307897 0.618097
O O15 0.329747 0.545099 0.465935
#
# Coordination Sequence:
#
# PCOD9013859 Si02
#       7
#     2   2   2   2   2   2   2
#     4  12  25  40  67 101 140 176 226 285 338 398
#     4  11  22  42  69  99 140 172 226 281 341 395
#     4  10  22  39  67 103 131 172 228 276 336 399
#     4  11  23  39  70  99 132 173 229 279 332 392
#     4  10  21  41  66 102 138 175 218 287 343 394
#     4  11  24  41  69  99 136 178 231 278 337 402
#     4  11  22  42  68  99 133 177 225 280 335 400
#
# _framework density 25.602851000000001
#
# number of rings (size 3 to 8) (size 9 to 14) (size 15 to 20)
#    0.000    1.143    4.286    3.000    2.000    0.571 
#    2.571    0.714    0.000    3.429    0.000    1.000 
#    0.000    0.000    0.000    0.000    0.000    0.000 
#
# Total GULP energy -78095.908943 kJ/mol
# GULP energy per Si atom -5578.279210 kJ/mol
# Density = 2.554458 g / cm^3
# Si number density = 25.602851 Si / 1000 Ang^3
#
#
#
# Elastic Constant Matrix: (Units=GPa)
#
#
# Indices 1 2 3 4 5 6 
#
# 1 102.4129 6.7193 56.4540 -17.7733 7.8802 -1.0962
# 2 6.7193 80.9569 43.4989 -33.7568 10.3968 -14.4438
# 3 56.4540 43.4989 198.2089 -27.5250 25.8878 -4.5356
# 4 -17.7733 -33.7568 -27.5250 50.8033 -0.8643 0.3124
# 5 7.8802 10.3968 25.8878 -0.8643 44.2477 -6.4239
# 6 -1.0962 -14.4438 -4.5356 0.3124 -6.4239 27.1133
#
#
#
# Elastic Compliance Matrix: (Units=1/GPa)
#
#
# Indices 1 2 3 4 5 6 
#
# 1 0.012283 0.002966 -0.003431 0.004391 -0.000601 0.001310
# 2 0.002966 0.021600 -0.003210 0.013553 -0.001940 0.010474
# 3 -0.003431 -0.003210 0.007159 0.000503 -0.003012 -0.001371
# 4 0.004391 0.013553 0.000503 0.030412 -0.002725 0.006486
# 5 -0.000601 -0.001940 -0.003012 -0.002725 0.025528 0.004518
# 6 0.001310 0.010474 -0.001371 0.006486 0.004518 0.043281
#
#
# Mechanical properties :
#
#
# Convention : Reuss Voigt Hill
#
# Bulk Modulus (GPa) = 29.68100 66.10257 47.89179
# Shear Modulus (GPa) = 31.47736 42.75996 37.11866
#
# Velocity S-wave (km/s) = 3.51015 4.09115 3.81174
# Velocity P-wave (km/s) = 5.29587 6.94199 6.17403
#
# Compressibility (1/GPa) = 0.03369159
#
# Stress axis : x y z
#
# Youngs Moduli (GPa) = 81.41011 46.29624 139.68930
#
# Poissons Ratio (x) = -0.13730 0.47931
# Poissons Ratio (y) = -0.24144 0.44838
# Poissons Ratio (z) = 0.27934 0.14860
#
# Static dielectric constant tensor:
#      x y z
#    x 2.181280 0.060750 -0.060830 
#    y 0.060750 2.230930 0.044990 
#    z -0.060830 0.044990 1.997190 
# 
# From -- ./inp_files/543857.got.cif
#   From: 2010.05.17/outbox.cif.g08.bks.cpg/sg2_272_cif.got.tgz:543857.got - 2010.06.03 11:33:40.
