data_PCOD9013054
_publ_section_title
;
Structure prediction by ZEFSAII (Michael W. Deem and Ramdas Pophale) SiO2 
 PCOD9013054
Probable space group: P -1
;
_chemical_formula_sum "Si O2"
_cell_formula_units_Z 16
_cell_length_a 12.272610
_cell_length_b 16.217169
_cell_length_c 12.813532
_cell_angle_alpha 122.538133
_cell_angle_beta 75.116578
_cell_angle_gamma 152.829021
_cell_volume 802.701295
_symmetry_space_group_name_H-M "P -1"
_symmetry_group_IT_number 2
_symmetry_cell_setting 'triclinic'
loop_
_space_group_symop_operation_xyz
x,y,z
-x,-y,-z
loop_
_atom_site_type_symbol
_atom_site_label
_atom_site_fract_x
_atom_site_fract_y
_atom_site_fract_z
Si Si1 0.053350 0.439104 0.784541
Si Si2 0.762438 0.001838 0.500354
Si Si3 0.278512 0.977098 0.043047
Si Si4 0.945338 0.064946 0.096625
Si Si5 0.158231 0.213072 0.370162
Si Si6 0.833633 0.467107 0.785145
Si Si7 0.086700 0.933914 0.261159
Si Si8 0.302466 0.540408 0.979248
O O1 0.910861 0.228158 0.625723
O O2 0.867622 0.385236 0.765255
O O3 0.386026 0.729435 0.865429
O O4 0.079564 0.429884 0.893233
O O5 0.797707 0.977974 0.588635
O O6 0.948460 0.096874 0.428080
O O7 0.416920 0.732259 0.376547
O O8 0.241415 0.981201 0.175396
O O9 0.049722 0.859417 0.951446
O O10 0.159859 0.774390 0.902270
O O11 0.117072 0.218934 0.266243
O O12 0.615687 0.810814 0.042074
O O13 0.000000 0.000000 0.000000
O O14 0.500000 0.500000 0.500000
O O15 0.094355 0.046259 0.284967
O O16 0.707634 0.436915 0.884510
O O17 0.768864 0.630073 0.138334
#
# Coordination Sequence:
#
# PCOD9013054 Si02
#       8
#     2   2   2   2   2   2   2   2
#     4  10  21  41  63  85 123 163 198 245 309 350
#     4  11  24  40  60  91 126 157 201 245 298 362
#     4  10  22  40  63  90 120 155 206 250 292 357
#     4  11  22  39  62  89 118 157 199 245 298 353
#     4  12  25  39  61  87 125 163 194 238 306 367
#     4  11  21  39  63  92 117 157 207 255 291 348
#     4  10  22  40  59  86 122 161 192 244 302 357
#     4   9  21  39  63  88 118 153 204 253 290 356
#
# _framework density 19.932693
#
# number of rings (size 3 to 8) (size 9 to 14) (size 15 to 20)
#    0.000    1.500    2.500    2.250    5.250    1.500 
#    0.000    0.625    0.000    0.000    0.000    0.000 
#    0.000    0.000    0.000    0.000    0.000    0.000 
#
# Total GULP energy -89128.152194 kJ/mol
# GULP energy per Si atom -5570.509512 kJ/mol
# Density = 1.988733 g / cm^3
# Si number density = 19.932693 Si / 1000 Ang^3
#
#
#
# Elastic Constant Matrix: (Units=GPa)
#
#
# Indices 1 2 3 4 5 6 
#
# 1 69.1953 -1.0735 27.2384 0.9750 1.3941 -13.0790
# 2 -1.0735 53.6066 26.1357 -6.7366 8.9898 -5.4686
# 3 27.2384 26.1357 106.7553 -3.0923 12.5497 -0.5832
# 4 0.9750 -6.7366 -3.0923 30.7983 -10.5689 4.7572
# 5 1.3941 8.9898 12.5497 -10.5689 29.6986 8.5411
# 6 -13.0790 -5.4686 -0.5832 4.7572 8.5411 19.9327
#
#
#
# Elastic Compliance Matrix: (Units=1/GPa)
#
#
# Indices 1 2 3 4 5 6 
#
# 1 0.020907 0.005974 -0.005899 -0.005844 -0.008150 0.020072
# 2 0.005974 0.024956 -0.006428 -0.001072 -0.009827 0.015045
# 3 -0.005899 -0.006428 0.012631 0.000150 -0.001754 -0.004549
# 4 -0.005844 -0.001072 0.000150 0.044286 0.023406 -0.024724
# 5 -0.008150 -0.009827 -0.001754 0.023406 0.057066 -0.038134
# 6 0.020072 0.015045 -0.004549 -0.024724 -0.038134 0.089575
#
#
# Mechanical properties :
#
#
# Convention : Reuss Voigt Hill
#
# Bulk Modulus (GPa) = 21.83863 37.12872 29.48367
# Shear Modulus (GPa) = 18.02525 27.90302 22.96413
#
# Velocity S-wave (km/s) = 3.01043 3.74553 3.39792
# Velocity P-wave (km/s) = 4.80245 6.11333 5.49711
#
# Compressibility (1/GPa) = 0.04579041
#
# Stress axis : x y z
#
# Youngs Moduli (GPa) = 47.83112 40.07068 79.16732
#
# Poissons Ratio (x) = -0.23939 0.46697
# Poissons Ratio (y) = -0.28576 0.50886
# Poissons Ratio (z) = 0.28214 0.25756
#
# Static dielectric constant tensor:
#      x y z
#    x 1.740380 -0.056950 0.018850 
#    y -0.056950 1.758060 0.010680 
#    z 0.018850 0.010680 1.734840 
# 
# From -- ./inp_files/259044.got.cif
#   From: 2010.05.17/outbox.cif.g08.bks.cpg/sg2_130_cif.got.tgz:259044.got - 2010.06.03 11:33:40.
