data_PCOD9013551
_publ_section_title
;
Structure prediction by ZEFSAII (Michael W. Deem and Ramdas Pophale) SiO2 
 PCOD9013551
Probable space group: P -1
;
_chemical_formula_sum "Si O2"
_cell_formula_units_Z 16
_cell_length_a 17.224074
_cell_length_b 11.969881
_cell_length_c 7.948051
_cell_angle_alpha 67.425699
_cell_angle_beta 101.303082
_cell_angle_gamma 152.532804
_cell_volume 656.443307
_symmetry_space_group_name_H-M "P -1"
_symmetry_group_IT_number 2
_symmetry_cell_setting 'triclinic'
loop_
_space_group_symop_operation_xyz
x,y,z
-x,-y,-z
loop_
_atom_site_type_symbol
_atom_site_label
_atom_site_fract_x
_atom_site_fract_y
_atom_site_fract_z
Si Si1 0.712199 0.903022 0.518996
Si Si2 0.096599 0.376593 0.516456
Si Si3 0.741230 0.229736 0.083804
Si Si4 0.807040 0.274077 0.470661
Si Si5 0.239861 0.997756 0.892080
Si Si6 0.899495 0.989128 0.972644
Si Si7 0.320572 0.603572 0.213971
Si Si8 0.402847 0.489272 0.101291
O O1 0.683089 0.986098 0.564738
O O2 0.929282 0.191059 0.441003
O O3 0.662938 0.846242 0.335864
O O4 0.634746 0.679419 0.702254
O O5 0.236672 0.673845 0.455978
O O6 0.203610 0.421685 0.435900
O O7 0.996256 0.196969 0.745664
O O8 0.809143 0.323933 0.250175
O O9 0.826133 0.230361 0.023098
O O10 0.527155 0.908808 0.174075
O O11 0.753992 0.375210 0.912635
O O12 0.000000 0.500000 0.500000
O O13 0.387756 0.197395 0.986203
O O14 0.113778 0.937829 0.918285
O O15 0.696355 0.675075 0.018132
O O16 0.000000 0.000000 0.000000
O O17 0.311379 0.480143 0.153717
#
# Coordination Sequence:
#
# PCOD9013551 Si02
#       8
#     2   2   2   2   2   2   2   2
#     4   9  20  37  62  92 120 156 212 257 302 379
#     4  10  23  38  59  88 126 163 201 255 313 373
#     4   9  21  41  65  92 125 163 218 257 300 381
#     4   9  19  39  61  90 124 160 207 258 314 362
#     4  10  21  41  65  88 120 167 208 256 314 364
#     4  11  26  40  59  93 129 160 206 259 315 378
#     4  10  22  39  63  94 125 169 207 256 317 366
#     4  10  22  40  63  88 125 163 208 256 310 374
#
# _framework density 24.373771000000001
#
# number of rings (size 3 to 8) (size 9 to 14) (size 15 to 20)
#    0.000    2.250    0.000    0.750    5.250    5.500 
#    0.000    5.625    0.000    0.000    0.000    0.000 
#    0.000    0.000    0.000    0.000    0.000    0.000 
#
# Total GULP energy -89381.782826 kJ/mol
# GULP energy per Si atom -5586.361427 kJ/mol
# Density = 2.431830 g / cm^3
# Si number density = 24.373771 Si / 1000 Ang^3
#
#
#
# Elastic Constant Matrix: (Units=GPa)
#
#
# Indices 1 2 3 4 5 6 
#
# 1 147.1178 31.3513 19.5842 12.5238 -1.1638 -35.2730
# 2 31.3513 127.8629 16.1151 15.4982 -1.0230 -12.0195
# 3 19.5842 16.1151 52.9558 13.4605 10.3249 -0.6704
# 4 12.5238 15.4982 13.4605 33.9256 -0.3662 -0.5583
# 5 -1.1638 -1.0230 10.3249 -0.3662 41.4514 5.4348
# 6 -35.2730 -12.0195 -0.6704 -0.5583 5.4348 31.4754
#
#
#
# Elastic Compliance Matrix: (Units=1/GPa)
#
#
# Indices 1 2 3 4 5 6 
#
# 1 0.010171 -0.000860 -0.002722 -0.002106 -0.000527 0.011066
# 2 -0.000860 0.008818 -0.001620 -0.003028 0.000273 0.002269
# 3 -0.002722 -0.001620 0.023410 -0.007643 -0.005711 -0.002320
# 4 -0.002106 -0.003028 -0.007643 0.034639 0.002535 -0.003502
# 5 -0.000527 0.000273 -0.005711 0.002535 0.026229 -0.005092
# 6 0.011066 0.002269 -0.002320 -0.003502 -0.005092 0.045806
#
#
# Mechanical properties :
#
#
# Convention : Reuss Voigt Hill
#
# Bulk Modulus (GPa) = 31.25409 51.33751 41.29580
# Shear Modulus (GPa) = 29.38719 38.76287 34.07503
#
# Velocity S-wave (km/s) = 3.47607 3.99225 3.74307
# Velocity P-wave (km/s) = 5.38158 6.50838 5.97162
#
# Compressibility (1/GPa) = 0.03199582
#
# Stress axis : x y z
#
# Youngs Moduli (GPa) = 98.31938 113.39977 42.71643
#
# Poissons Ratio (x) = 0.09748 0.11626
# Poissons Ratio (y) = 0.08452 0.06922
# Poissons Ratio (z) = 0.26760 0.18376
#
# Static dielectric constant tensor:
#      x y z
#    x 1.974280 0.013050 0.022310 
#    y 0.013050 1.950280 -0.018830 
#    z 0.022310 -0.018830 1.961090 
# 
# From -- ./inp_files/333135.got.cif
#   From: 2010.05.17/outbox.cif.g08.bks.cpg/sg2_167_cif.got.tgz:333135.got - 2010.06.03 11:33:40.
