data_PCOD9013582
_publ_section_title
;
Structure prediction by ZEFSAII (Michael W. Deem and Ramdas Pophale) SiO2 
 PCOD9013582
Probable space group: P -1
;
_chemical_formula_sum "Si O2"
_cell_formula_units_Z 16
_cell_length_a 14.038168
_cell_length_b 8.275872
_cell_length_c 17.566828
_cell_angle_alpha 91.689919
_cell_angle_beta 144.684095
_cell_angle_gamma 62.772923
_cell_volume 779.839756
_symmetry_space_group_name_H-M "P -1"
_symmetry_group_IT_number 2
_symmetry_cell_setting 'triclinic'
loop_
_space_group_symop_operation_xyz
x,y,z
-x,-y,-z
loop_
_atom_site_type_symbol
_atom_site_label
_atom_site_fract_x
_atom_site_fract_y
_atom_site_fract_z
Si Si1 0.304978 0.328176 0.495249
Si Si2 0.512783 0.238778 0.014930
Si Si3 0.837195 0.736740 0.447278
Si Si4 0.822019 0.089484 0.814631
Si Si5 0.720599 0.003411 0.597403
Si Si6 0.089818 0.807649 0.702091
Si Si7 0.810597 0.431212 0.719529
Si Si8 0.355078 0.100095 0.036862
O O1 0.171241 0.357212 0.481129
O O2 0.573238 0.198771 0.690574
O O3 0.309996 0.163378 0.443554
O O4 0.193900 0.554718 0.375576
O O5 0.761777 0.135995 0.210302
O O6 0.389382 0.214089 0.997346
O O7 0.304064 0.524241 0.863676
O O8 0.592579 0.094862 0.985548
O O9 0.000000 0.500000 0.500000
O O10 0.958844 0.820634 0.544970
O O11 0.569943 0.953728 0.237659
O O12 0.861464 0.931889 0.768723
O O13 0.791104 0.275793 0.747541
O O14 0.000000 0.000000 0.000000
O O15 0.445141 0.287127 0.421789
O O16 0.885681 0.961355 0.638037
O O17 0.090026 0.294033 0.910366
#
# Coordination Sequence:
#
# PCOD9013582 Si02
#       8
#     2   2   2   2   2   2   2   2
#     4  10  22  40  64  88 124 172 204 252 312 375
#     4  10  22  38  63  89 123 169 210 251 308 377
#     4  11  22  40  63  91 126 160 210 264 313 357
#     4  11  22  39  61  96 124 160 207 261 308 360
#     4  10  21  41  65  89 127 170 207 249 312 385
#     4  10  21  42  63  90 125 167 209 256 316 368
#     4  11  22  39  66  93 124 165 211 248 311 382
#     4  11  22  38  62  92 123 164 210 258 306 372
#
# _framework density 20.517036000000001
#
# number of rings (size 3 to 8) (size 9 to 14) (size 15 to 20)
#    0.000    1.500    1.250    6.000    1.750    0.500 
#    0.000   12.500    0.000    0.000    0.000    0.000 
#    0.000    0.000    0.000    0.000    0.000    0.000 
#
# Total GULP energy -89170.280490 kJ/mol
# GULP energy per Si atom -5573.142531 kJ/mol
# Density = 2.047034 g / cm^3
# Si number density = 20.517036 Si / 1000 Ang^3
#
#
#
# Elastic Constant Matrix: (Units=GPa)
#
#
# Indices 1 2 3 4 5 6 
#
# 1 64.5715 43.9956 12.3566 11.1697 5.3568 0.7915
# 2 43.9956 65.8730 46.4658 12.2620 1.0571 -8.5286
# 3 12.3566 46.4658 141.4891 27.2245 8.3963 -12.1218
# 4 11.1697 12.2620 27.2245 32.4656 1.6091 3.8142
# 5 5.3568 1.0571 8.3963 1.6091 41.8905 1.1203
# 6 0.7915 -8.5286 -12.1218 3.8142 1.1203 29.1819
#
#
#
# Elastic Compliance Matrix: (Units=1/GPa)
#
#
# Indices 1 2 3 4 5 6 
#
# 1 0.034266 -0.027201 0.007081 -0.006645 -0.004729 -0.004888
# 2 -0.027201 0.041952 -0.011354 0.001891 0.004412 0.007866
# 3 0.007081 -0.011354 0.012241 -0.008603 -0.002817 0.002807
# 4 -0.006645 0.001891 -0.008603 0.040490 0.001190 -0.008178
# 5 -0.004729 0.004412 -0.002817 0.001190 0.024907 -0.000864
# 6 -0.004888 0.007866 0.002807 -0.008178 -0.000864 0.038967
#
#
# Mechanical properties :
#
#
# Convention : Reuss Voigt Hill
#
# Bulk Modulus (GPa) = 39.19728 53.06329 46.13028
# Shear Modulus (GPa) = 18.91974 31.98198 25.45086
#
# Velocity S-wave (km/s) = 3.03998 3.95245 3.52586
# Velocity P-wave (km/s) = 5.60965 6.83727 6.25366
#
# Compressibility (1/GPa) = 0.02551198
#
# Stress axis : x y z
#
# Youngs Moduli (GPa) = 29.18306 23.83688 81.69367
#
# Poissons Ratio (x) = 0.64838 -0.57845
# Poissons Ratio (y) = 0.79380 0.92752
# Poissons Ratio (z) = -0.20664 0.27063
#
# Static dielectric constant tensor:
#      x y z
#    x 1.726820 -0.007310 0.030280 
#    y -0.007310 1.767480 0.008450 
#    z 0.030280 0.008450 1.776230 
# 
# From -- ./inp_files/572883.got.cif
#   From: 2010.05.17/outbox.cif.g08.bks.cpg/sg2_287_cif.got.tgz:572883.got - 2010.06.03 11:33:40.
