data_PCOD9013712
_publ_section_title
;
Structure prediction by ZEFSAII (Michael W. Deem and Ramdas Pophale) SiO2 
 PCOD9013712
Probable space group: P -1
;
_chemical_formula_sum "Si O2"
_cell_formula_units_Z 16
_cell_length_a 9.281592
_cell_length_b 13.950813
_cell_length_c 8.387544
_cell_angle_alpha 43.423101
_cell_angle_beta 93.353673
_cell_angle_gamma 82.894641
_cell_volume 723.078214
_symmetry_space_group_name_H-M "P -1"
_symmetry_group_IT_number 2
_symmetry_cell_setting 'triclinic'
loop_
_space_group_symop_operation_xyz
x,y,z
-x,-y,-z
loop_
_atom_site_type_symbol
_atom_site_label
_atom_site_fract_x
_atom_site_fract_y
_atom_site_fract_z
Si Si1 0.666529 0.995702 0.333474
Si Si2 0.454858 0.273661 0.449238
Si Si3 0.966581 0.017661 0.164347
Si Si4 0.248437 0.843872 0.572430
Si Si5 0.427537 0.144087 0.920729
Si Si6 0.041180 0.533074 0.708348
Si Si7 0.223678 0.549644 0.013497
Si Si8 0.906903 0.735957 0.179904
O O1 0.707081 0.032450 0.469410
O O2 0.629685 0.841697 0.491900
O O3 0.526033 0.119872 0.114562
O O4 0.805997 0.002277 0.223337
O O5 0.624505 0.216538 0.475912
O O6 0.439913 0.267481 0.647349
O O7 0.375474 0.429492 0.191225
O O8 0.090340 0.906344 0.406234
O O9 0.992265 0.175202 0.010292
O O10 0.000000 0.000000 0.000000
O O11 0.242448 0.709495 0.846700
O O12 0.255376 0.161933 0.925025
O O13 0.500000 0.000000 0.000000
O O14 0.983222 0.672987 0.426649
O O15 0.156286 0.549472 0.831705
O O16 0.110655 0.400348 0.757957
O O17 0.897688 0.495653 0.826480
#
# Coordination Sequence:
#
# PCOD9013712 Si02
#       8
#     2   2   2   2   2   2   2   2
#     4  11  25  41  66  97 130 167 218 271 326 383
#     4  11  23  43  66  91 132 177 213 259 331 395
#     4  12  24  40  68  95 133 165 216 269 327 381
#     4  12  26  42  64 100 130 167 219 272 326 382
#     4  10  21  41  65  94 129 172 214 262 322 389
#     4  10  24  40  70  94 129 173 220 266 324 386
#     4  11  24  42  66  94 134 169 217 268 328 383
#     4  11  22  43  66  99 127 171 222 268 317 390
#
# _framework density 22.127621000000001
#
# number of rings (size 3 to 8) (size 9 to 14) (size 15 to 20)
#    0.000    1.000    1.250    6.375    7.000    0.000 
#    0.000    0.625    0.000    0.000    0.000    0.000 
#    0.000    0.000    0.000    0.000    0.000    0.000 
#
# Total GULP energy -89564.518312 kJ/mol
# GULP energy per Si atom -5597.782394 kJ/mol
# Density = 2.207726 g / cm^3
# Si number density = 22.127621 Si / 1000 Ang^3
#
#
#
# Elastic Constant Matrix: (Units=GPa)
#
#
# Indices 1 2 3 4 5 6 
#
# 1 85.7267 -2.0383 30.5273 -11.5694 0.7203 -5.8940
# 2 -2.0383 44.6133 14.9256 1.2956 11.4129 -0.5363
# 3 30.5273 14.9256 119.6395 -18.6836 13.5943 3.3263
# 4 -11.5694 1.2956 -18.6836 29.3636 3.9157 -5.2050
# 5 0.7203 11.4129 13.5943 3.9157 41.1710 1.7477
# 6 -5.8940 -0.5363 3.3263 -5.2050 1.7477 21.3118
#
#
#
# Elastic Compliance Matrix: (Units=1/GPa)
#
#
# Indices 1 2 3 4 5 6 
#
# 1 0.013799 0.001710 -0.003171 0.004350 -0.000313 0.005442
# 2 0.001710 0.025118 -0.003159 -0.001348 -0.005896 0.001753
# 3 -0.003171 -0.003159 0.010903 0.006095 -0.003210 -0.000906
# 4 0.004350 -0.001348 0.006095 0.042508 -0.006230 0.011110
# 5 -0.000313 -0.005896 -0.003210 -0.006230 0.027731 -0.003530
# 6 0.005442 0.001753 -0.000906 0.011110 -0.003530 0.051616
#
#
# Mechanical properties :
#
#
# Convention : Reuss Voigt Hill
#
# Bulk Modulus (GPa) = 24.64174 37.42319 31.03246
# Shear Modulus (GPa) = 25.71468 32.14027 28.92747
#
# Velocity S-wave (km/s) = 3.41267 3.81530 3.61958
# Velocity P-wave (km/s) = 5.16612 6.02974 5.61456
#
# Compressibility (1/GPa) = 0.04058154
#
# Stress axis : x y z
#
# Youngs Moduli (GPa) = 72.47118 39.81134 91.71435
#
# Poissons Ratio (x) = -0.06809 0.29079
# Poissons Ratio (y) = -0.12396 0.28976
# Poissons Ratio (z) = 0.22977 0.12578
#
# Static dielectric constant tensor:
#      x y z
#    x 1.774650 0.006180 -0.015290 
#    y 0.006180 1.831240 0.010800 
#    z -0.015290 0.010800 1.827320 
# 
# From -- ./inp_files/184080.got.cif
#   From: 2010.05.17/outbox.cif.g08.bks.cpg/sg2_93_cif.got.tgz:184080.got - 2010.06.03 11:33:40.
