data_PCOD9013470
_publ_section_title
;
Structure prediction by ZEFSAII (Michael W. Deem and Ramdas Pophale) SiO2 
 PCOD9013470
Probable space group: P -1
;
_chemical_formula_sum "Si O2"
_cell_formula_units_Z 14
_cell_length_a 14.111372
_cell_length_b 10.451831
_cell_length_c 11.705868
_cell_angle_alpha 96.690050
_cell_angle_beta 21.329357
_cell_angle_gamma 108.144104
_cell_volume 516.042482
_symmetry_space_group_name_H-M "P -1"
_symmetry_group_IT_number 2
_symmetry_cell_setting 'triclinic'
loop_
_space_group_symop_operation_xyz
x,y,z
-x,-y,-z
loop_
_atom_site_type_symbol
_atom_site_label
_atom_site_fract_x
_atom_site_fract_y
_atom_site_fract_z
Si Si1 0.418142 0.518719 0.927817
Si Si2 0.626625 0.741444 0.900539
Si Si3 0.130493 0.754480 0.089125
Si Si4 0.815666 0.072887 0.165543
Si Si5 0.339326 0.983626 0.058274
Si Si6 0.720610 0.610838 0.163957
Si Si7 0.724130 0.305202 0.305167
O O1 0.390206 0.636559 0.052803
O O2 0.245378 0.466589 0.994762
O O3 0.798438 0.611643 0.493262
O O4 0.315147 0.368147 0.101778
O O5 0.959404 0.873138 0.483774
O O6 0.538551 0.839437 0.086316
O O7 0.382039 0.886642 0.906124
O O8 0.033339 0.838352 0.114837
O O9 0.310588 0.710694 0.798018
O O10 0.489540 0.901837 0.471570
O O11 0.973322 0.262065 0.092065
O O12 0.000000 0.000000 0.000000
O O13 0.500000 0.000000 0.000000
O O14 0.500000 0.500000 0.500000
O O15 0.538992 0.685807 0.330299
O O16 0.000000 0.500000 0.000000
#
# Coordination Sequence:
#
# PCOD9013470 Si02
#       7
#     2   2   2   2   2   2   2
#     4  10  21  44  69  96 135 180 228 290 351 410
#     4   9  22  45  68  97 131 174 234 287 345 413
#     4   9  22  41  68  98 139 181 226 296 353 415
#     4  10  21  41  64  96 140 185 230 274 342 421
#     4  10  21  45  68  99 130 174 233 287 352 413
#     4  12  22  41  66  99 141 183 227 278 349 420
#     4  10  24  40  62 100 137 180 230 279 341 416
#
# _framework density 27.129549999999998
#
# number of rings (size 3 to 8) (size 9 to 14) (size 15 to 20)
#    0.857    1.143    1.429    1.286    0.000    3.429 
#   18.000    3.571    0.000    0.000    0.000    0.000 
#    0.000    0.000    0.000    0.000    0.000    0.000 
#
# Total GULP energy -77935.071020 kJ/mol
# GULP energy per Si atom -5566.790787 kJ/mol
# Density = 2.706780 g / cm^3
# Si number density = 27.129550 Si / 1000 Ang^3
#
#
#
# Elastic Constant Matrix: (Units=GPa)
#
#
# Indices 1 2 3 4 5 6 
#
# 1 156.7702 79.9148 22.6047 -10.8839 -21.9592 24.9428
# 2 79.9148 171.9451 27.0378 -33.9970 -7.1554 21.6032
# 3 22.6047 27.0378 79.8670 -18.9362 -25.1808 2.0657
# 4 -10.8839 -33.9970 -18.9362 32.5493 -2.9939 -4.8648
# 5 -21.9592 -7.1554 -25.1808 -2.9939 55.7375 -8.8507
# 6 24.9428 21.6032 2.0657 -4.8648 -8.8507 88.6077
#
#
#
# Elastic Compliance Matrix: (Units=1/GPa)
#
#
# Indices 1 2 3 4 5 6 
#
# 1 0.009036 -0.004154 -0.000792 -0.001766 0.002356 -0.001374
# 2 -0.004154 0.009496 -0.000070 0.008375 -0.000110 -0.000695
# 3 -0.000792 -0.000070 0.018126 0.011199 0.008676 0.001299
# 4 -0.001766 0.008375 0.011199 0.046379 0.008177 0.001557
# 5 0.002356 -0.000110 0.008676 0.008177 0.023525 0.001960
# 6 -0.001374 -0.000695 0.001299 0.001557 0.001960 0.012093
#
#
# Mechanical properties :
#
#
# Convention : Reuss Voigt Hill
#
# Bulk Modulus (GPa) = 37.55635 74.18854 55.87245
# Shear Modulus (GPa) = 36.34704 53.98057 45.16381
#
# Velocity S-wave (km/s) = 3.66424 4.46548 4.08456
# Velocity P-wave (km/s) = 5.63699 7.34798 6.54860
#
# Compressibility (1/GPa) = 0.02662665
#
# Stress axis : x y z
#
# Youngs Moduli (GPa) = 110.66312 105.30663 55.17069
#
# Poissons Ratio (x) = 0.43743 0.04368
# Poissons Ratio (y) = 0.45968 0.00387
# Poissons Ratio (z) = 0.08762 0.00738
#
# Static dielectric constant tensor:
#      x y z
#    x 2.190590 -0.016430 -0.158140 
#    y -0.016430 2.490560 -0.116910 
#    z -0.158140 -0.116910 2.299720 
# 
# From -- ./inp_files/433799.got.cif
#   From: 2010.05.17/outbox.cif.g08.bks.cpg/sg2_217_cif.got.tgz:433799.got - 2010.06.03 11:33:40.
