data_PCOD9013060
_publ_section_title
;
Structure prediction by ZEFSAII (Michael W. Deem and Ramdas Pophale) SiO2 
 PCOD9013060
Probable space group: P -1
;
_chemical_formula_sum "Si O2"
_cell_formula_units_Z 16
_cell_length_a 9.195141
_cell_length_b 7.716753
_cell_length_c 12.936811
_cell_angle_alpha 103.317343
_cell_angle_beta 45.712771
_cell_angle_gamma 95.093600
_cell_volume 636.014319
_symmetry_space_group_name_H-M "P -1"
_symmetry_group_IT_number 2
_symmetry_cell_setting 'triclinic'
loop_
_space_group_symop_operation_xyz
x,y,z
-x,-y,-z
loop_
_atom_site_type_symbol
_atom_site_label
_atom_site_fract_x
_atom_site_fract_y
_atom_site_fract_z
Si Si1 0.723159 0.677299 0.972816
Si Si2 0.118031 0.058334 0.351185
Si Si3 0.846527 0.508929 0.297062
Si Si4 0.243244 0.853320 0.608242
Si Si5 0.787703 0.593430 0.569222
Si Si6 0.442319 0.324873 0.713239
Si Si7 0.942167 0.032223 0.915897
Si Si8 0.622610 0.175325 0.959008
O O1 0.635260 0.702416 0.136021
O O2 0.547280 0.672291 0.973266
O O3 0.833144 0.855385 0.919770
O O4 0.911500 0.526245 0.848265
O O5 0.262325 0.209666 0.330401
O O6 0.946324 0.155749 0.376165
O O7 0.224770 0.883472 0.219023
O O8 0.000000 0.000000 0.500000
O O9 0.748450 0.322133 0.346812
O O10 0.812582 0.614914 0.436119
O O11 0.735036 0.592094 0.263383
O O12 0.436310 0.839625 0.434574
O O13 0.153316 0.021283 0.745554
O O14 0.610780 0.466893 0.657945
O O15 0.000000 0.500000 0.500000
O O16 0.769930 0.187628 0.986367
O O17 0.000000 0.000000 0.000000
O O18 0.500000 0.000000 0.000000
#
# Coordination Sequence:
#
# PCOD9013060 Si02
#       8
#     2   2   2   2   2   2   2   2
#     4  10  21  41  63  88 130 165 213 268 312 366
#     4  11  21  39  65  94 124 161 205 268 314 376
#     4  10  21  41  63  86 129 171 209 264 319 369
#     4   9  18  37  64  82 126 158 205 257 318 365
#     4  11  22  40  67  91 124 167 213 257 323 386
#     4  11  21  40  63  93 123 166 212 270 317 371
#     4   9  19  39  61  90 126 171 203 253 325 385
#     4   9  20  38  62  88 125 169 202 254 325 370
#
# _framework density 25.156668
#
# number of rings (size 3 to 8) (size 9 to 14) (size 15 to 20)
#    0.000    2.000    2.500    3.375    0.000    0.000 
#   18.000    2.500    0.000    0.000    0.000    0.000 
#    0.000    0.000    0.000    0.000    0.000    0.000 
#
# Total GULP energy -89449.920223 kJ/mol
# GULP energy per Si atom -5590.620014 kJ/mol
# Density = 2.509941 g / cm^3
# Si number density = 25.156668 Si / 1000 Ang^3
#
#
#
# Elastic Constant Matrix: (Units=GPa)
#
#
# Indices 1 2 3 4 5 6 
#
# 1 171.5654 25.2971 57.1707 4.1639 -6.3356 -37.1600
# 2 25.2971 59.2387 0.0713 -17.7250 -11.0120 3.9591
# 3 57.1707 0.0713 155.9696 -23.7513 -9.5045 -15.8022
# 4 4.1639 -17.7250 -23.7513 32.7159 -8.3777 2.6423
# 5 -6.3356 -11.0120 -9.5045 -8.3777 38.2465 -5.8042
# 6 -37.1600 3.9591 -15.8022 2.6423 -5.8042 25.9313
#
#
#
# Elastic Compliance Matrix: (Units=1/GPa)
#
#
# Indices 1 2 3 4 5 6 
#
# 1 0.013861 -0.012097 -0.005530 -0.014613 -0.002849 0.019192
# 2 -0.012097 0.035542 0.008413 0.032084 0.014674 -0.017620
# 3 -0.005530 0.008413 0.010943 0.015248 0.007188 -0.002485
# 4 -0.014613 0.032084 0.015248 0.068190 0.022750 -0.018403
# 5 -0.002849 0.014674 0.007188 0.022750 0.037289 0.004085
# 6 0.019192 -0.017620 -0.002485 -0.018403 0.004085 0.070032
#
#
# Mechanical properties :
#
#
# Convention : Reuss Voigt Hill
#
# Bulk Modulus (GPa) = 23.85620 61.31689 42.58655
# Shear Modulus (GPa) = 18.63879 39.66106 29.14992
#
# Velocity S-wave (km/s) = 2.72492 3.97490 3.40771
# Velocity P-wave (km/s) = 4.40498 6.74488 5.69637
#
# Compressibility (1/GPa) = 0.04191782
#
# Stress axis : x y z
#
# Youngs Moduli (GPa) = 72.14271 28.13567 91.38443
#
# Poissons Ratio (x) = 0.34037 0.50533
# Poissons Ratio (y) = 0.87273 -0.76880
# Poissons Ratio (z) = 0.39893 -0.23670
#
# Static dielectric constant tensor:
#      x y z
#    x 1.905510 0.031910 -0.049560 
#    y 0.031910 2.044340 0.061020 
#    z -0.049560 0.061020 2.016220 
# 
# From -- ./inp_files/382501.got.cif
#   From: 2010.05.17/outbox.cif.g08.bks.cpg/sg2_192_cif.got.tgz:382501.got - 2010.06.03 11:33:40.
