data_PCOD9013335
_publ_section_title
;
Structure prediction by ZEFSAII (Michael W. Deem and Ramdas Pophale) SiO2 
 PCOD9013335
Probable space group: P -1
;
_chemical_formula_sum "Si O2"
_cell_formula_units_Z 15
_cell_length_a 8.850057
_cell_length_b 17.274789
_cell_length_c 21.078020
_cell_angle_alpha 18.622953
_cell_angle_beta 145.002553
_cell_angle_gamma 138.987586
_cell_volume 586.042542
_symmetry_space_group_name_H-M "P -1"
_symmetry_group_IT_number 2
_symmetry_cell_setting 'triclinic'
loop_
_space_group_symop_operation_xyz
x,y,z
-x,-y,-z
loop_
_atom_site_type_symbol
_atom_site_label
_atom_site_fract_x
_atom_site_fract_y
_atom_site_fract_z
Si Si1 0.248030 0.316400 0.438130
Si Si2 0.420806 0.547985 0.008454
Si Si3 0.496212 0.309164 0.340009
Si Si4 0.716328 0.277914 0.964568
Si Si5 0.675842 0.000375 0.759291
Si Si6 0.820568 0.748898 0.263671
Si Si7 0.000000 0.000000 0.500000
Si Si8 0.896982 0.743677 0.429053
O O1 0.203187 0.559126 0.192405
O O2 0.539357 0.179530 0.627142
O O3 0.067848 0.119992 0.500154
O O4 0.203670 0.369189 0.454936
O O5 0.635430 0.722999 0.970505
O O6 0.153204 0.730547 0.781692
O O7 0.500000 0.500000 0.000000
O O8 0.424460 0.313292 0.237731
O O9 0.322437 0.542972 0.128405
O O10 0.493559 0.094224 0.559958
O O11 0.804673 0.349497 0.416107
O O12 0.424138 0.207540 0.901312
O O13 0.901869 0.028434 0.227145
O O14 0.977451 0.048231 0.821457
O O15 0.723236 0.725173 0.320861
O O16 0.000000 0.500000 0.500000
#
# Coordination Sequence:
#
# PCOD9013335 Si02
#       8
#     2   2   2   2   2   2   1   2
#     4  10  21  41  64  91 127 162 209 263 307 372
#     4  11  23  41  65  93 125 163 207 261 314 370
#     4  10  22  41  65  90 129 165 207 257 314 372
#     4  11  22  43  65  88 129 170 201 259 314 366
#     4   9  21  42  65  89 129 167 205 257 313 372
#     4  11  20  43  65  89 131 168 206 260 313 367
#     4  10  22  40  60  92 126 156 204 260 308 368
#     4  11  23  38  65  96 122 163 217 251 308 380
#
# _framework density 25.595414000000002
#
# number of rings (size 3 to 8) (size 9 to 14) (size 15 to 20)
#    0.000    1.600    4.000    2.800    0.000    5.333 
#    0.000   20.000    0.000    0.000    0.000    0.000 
#    0.000    0.000    0.000    0.000    0.000    0.000 
#
# Total GULP energy -83665.830435 kJ/mol
# GULP energy per Si atom -5577.722029 kJ/mol
# Density = 2.553716 g / cm^3
# Si number density = 25.595414 Si / 1000 Ang^3
#
#
#
# Elastic Constant Matrix: (Units=GPa)
#
#
# Indices 1 2 3 4 5 6 
#
# 1 111.1835 7.3240 27.0299 -5.8518 -9.5367 -24.5608
# 2 7.3240 65.8753 5.9995 -0.6548 5.2746 9.9886
# 3 27.0299 5.9995 80.6650 -18.1906 -4.7235 -2.0651
# 4 -5.8518 -0.6548 -18.1906 28.4927 -2.5747 -5.1175
# 5 -9.5367 5.2746 -4.7235 -2.5747 26.1504 3.2240
# 6 -24.5608 9.9886 -2.0651 -5.1175 3.2240 26.9650
#
#
#
# Elastic Compliance Matrix: (Units=1/GPa)
#
#
# Indices 1 2 3 4 5 6 
#
# 1 0.013437 -0.003561 -0.002847 0.003641 0.003789 0.013578
# 2 -0.003561 0.017515 -0.001371 -0.003373 -0.004181 -0.009976
# 3 -0.002847 -0.001371 0.015880 0.009911 0.003002 0.000653
# 4 0.003641 -0.003373 0.009911 0.045042 0.006620 0.013082
# 5 0.003789 -0.004181 0.003002 0.006620 0.041471 0.001527
# 6 0.013578 -0.009976 0.000653 0.013082 0.001527 0.055498
#
#
# Mechanical properties :
#
#
# Convention : Reuss Voigt Hill
#
# Bulk Modulus (GPa) = 31.97385 37.60341 34.78863
# Shear Modulus (GPa) = 23.27483 30.81300 27.04391
#
# Velocity S-wave (km/s) = 3.01879 3.47342 3.25405
# Velocity P-wave (km/s) = 4.96688 5.55063 5.26685
#
# Compressibility (1/GPa) = 0.03127556
#
# Stress axis : x y z
#
# Youngs Moduli (GPa) = 74.42240 57.09462 62.97091
#
# Poissons Ratio (x) = 0.20329 0.17929
# Poissons Ratio (y) = 0.26498 0.08630
# Poissons Ratio (z) = 0.21189 0.07825
#
# Static dielectric constant tensor:
#      x y z
#    x 2.255160 0.059510 0.057640 
#    y 0.059510 1.940910 0.071770 
#    z 0.057640 0.071770 2.019710 
# 
# From -- ./inp_files/590948.got.cif
#   From: 2010.05.17/outbox.cif.g08.bks.cpg/sg2_296_cif.got.tgz:590948.got - 2010.06.03 11:33:40.
