data_PCOD9013296
_publ_section_title
;
Structure prediction by ZEFSAII (Michael W. Deem and Ramdas Pophale) SiO2 
 PCOD9013296
Probable space group: P -1
;
_chemical_formula_sum "Si O2"
_cell_formula_units_Z 14
_cell_length_a 12.172893
_cell_length_b 6.876627
_cell_length_c 10.760854
_cell_angle_alpha 74.556705
_cell_angle_beta 71.444105
_cell_angle_gamma 46.099345
_cell_volume 613.931446
_symmetry_space_group_name_H-M "P -1"
_symmetry_group_IT_number 2
_symmetry_cell_setting 'triclinic'
loop_
_space_group_symop_operation_xyz
x,y,z
-x,-y,-z
loop_
_atom_site_type_symbol
_atom_site_label
_atom_site_fract_x
_atom_site_fract_y
_atom_site_fract_z
Si Si1 0.670188 0.240472 0.330480
Si Si2 0.886089 0.625141 0.399657
Si Si3 0.944107 0.681277 0.866652
Si Si4 0.328266 0.498424 0.470273
Si Si5 0.481388 0.330578 0.872668
Si Si6 0.659073 0.776449 0.847662
Si Si7 0.780174 0.249476 0.776465
O O1 0.505034 0.311948 0.388241
O O2 0.673115 0.395590 0.414576
O O3 0.658370 0.380249 0.184237
O O4 0.813489 0.927054 0.347191
O O5 0.743802 0.638760 0.476619
O O6 0.000000 0.500000 0.500000
O O7 0.961413 0.463959 0.270168
O O8 0.779735 0.766983 0.883921
O O9 0.912860 0.958777 0.839612
O O10 0.000000 0.500000 0.000000
O O11 0.218652 0.755806 0.372743
O O12 0.618668 0.325718 0.854086
O O13 0.542856 0.089031 0.791816
O O14 0.433433 0.263189 0.021351
O O15 0.757877 0.510102 0.772797
#
# Coordination Sequence:
#
# PCOD9013296 Si02
#       7
#     2   2   2   2   2   2   2
#     4  10  23  42  69  99 129 166 222 280 326 382
#     4  12  26  44  68  97 137 182 218 264 334 397
#     4  11  27  42  59  99 136 171 223 263 313 400
#     4  10  23  43  67  98 126 169 224 278 323 388
#     4   9  21  39  64  97 120 164 220 269 319 390
#     4  10  21  41  64  88 130 171 209 265 329 380
#     4  10  21  41  67  90 128 168 212 269 327 380
#
# _framework density 22.803847999999999
#
# number of rings (size 3 to 8) (size 9 to 14) (size 15 to 20)
#    0.000    1.714    0.000    2.571    4.000   10.857 
#    2.571    0.000    0.000    0.000    0.000    0.000 
#    0.000    0.000    0.000    0.000    0.000    0.000 
#
# Total GULP energy -78156.807542 kJ/mol
# GULP energy per Si atom -5582.629110 kJ/mol
# Density = 2.275195 g / cm^3
# Si number density = 22.803848 Si / 1000 Ang^3
#
#
#
# Elastic Constant Matrix: (Units=GPa)
#
#
# Indices 1 2 3 4 5 6 
#
# 1 57.7800 19.3490 6.8336 -12.2498 5.1371 12.8707
# 2 19.3490 154.5922 32.6526 -29.3489 26.3363 0.1179
# 3 6.8336 32.6526 60.2478 -16.0023 16.7865 -2.9285
# 4 -12.2498 -29.3489 -16.0023 37.9848 -4.3811 5.7601
# 5 5.1371 26.3363 16.7865 -4.3811 24.6117 -9.9624
# 6 12.8707 0.1179 -2.9285 5.7601 -9.9624 26.2502
#
#
#
# Elastic Compliance Matrix: (Units=1/GPa)
#
#
# Indices 1 2 3 4 5 6 
#
# 1 0.024585 0.000803 0.002543 0.010985 -0.013601 -0.019347
# 2 0.000803 0.009868 -0.000563 0.007289 -0.011691 -0.006537
# 3 0.002543 -0.000563 0.023574 0.009422 -0.017257 -0.007231
# 4 0.010985 0.007289 0.009422 0.040477 -0.017341 -0.019831
# 5 -0.013601 -0.011691 -0.017257 -0.017341 0.080514 0.039157
# 6 -0.019347 -0.006537 -0.007231 -0.019831 0.039157 0.066016
#
#
# Mechanical properties :
#
#
# Convention : Reuss Voigt Hill
#
# Bulk Modulus (GPa) = 15.72509 43.36562 29.54535
# Shear Modulus (GPa) = 19.18171 32.02167 25.60169
#
# Velocity S-wave (km/s) = 2.90342 3.75136 3.35429
# Velocity P-wave (km/s) = 4.26035 6.14993 5.29019
#
# Compressibility (1/GPa) = 0.06359266
#
# Stress axis : x y z
#
# Youngs Moduli (GPa) = 40.67517 101.34263 42.41907
#
# Poissons Ratio (x) = -0.08139 -0.10788
# Poissons Ratio (y) = -0.03267 0.02390
# Poissons Ratio (z) = -0.10345 0.05710
#
# Static dielectric constant tensor:
#      x y z
#    x 1.834470 -0.004450 -0.002380 
#    y -0.004450 1.952000 0.041840 
#    z -0.002380 0.041840 1.906290 
# 
# From -- ./inp_files/78412.got.cif
#   From: 2010.05.17/outbox.cif.g08.bks.cpg/sg2_40_cif.got.tgz:78412.got - 2010.06.03 11:33:40.
