data_PCOD9013573
_publ_section_title
;
Structure prediction by ZEFSAII (Michael W. Deem and Ramdas Pophale) SiO2 
 PCOD9013573
Probable space group: P -1
;
_chemical_formula_sum "Si O2"
_cell_formula_units_Z 16
_cell_length_a 8.586806
_cell_length_b 13.004056
_cell_length_c 10.965600
_cell_angle_alpha 74.813653
_cell_angle_beta 41.057436
_cell_angle_gamma 91.639482
_cell_volume 725.082393
_symmetry_space_group_name_H-M "P -1"
_symmetry_group_IT_number 2
_symmetry_cell_setting 'triclinic'
loop_
_space_group_symop_operation_xyz
x,y,z
-x,-y,-z
loop_
_atom_site_type_symbol
_atom_site_label
_atom_site_fract_x
_atom_site_fract_y
_atom_site_fract_z
Si Si1 0.294747 0.717020 0.493603
Si Si2 0.667799 0.160407 0.065489
Si Si3 0.907285 0.252136 0.652318
Si Si4 0.982926 0.477337 0.872910
Si Si5 0.579391 0.672644 0.790442
Si Si6 0.196339 0.003080 0.277293
Si Si7 0.158551 0.268950 0.859494
Si Si8 0.874062 0.777989 0.828537
O O1 0.248785 0.722285 0.374537
O O2 0.136776 0.591122 0.674949
O O3 0.587807 0.742824 0.337672
O O4 0.162409 0.797225 0.611435
O O5 0.779903 0.248108 0.858785
O O6 0.909201 0.163579 0.998506
O O7 0.502091 0.217851 0.223002
O O8 0.477440 0.044195 0.157074
O O9 0.200919 0.329270 0.431568
O O10 0.886148 0.121064 0.690544
O O11 0.107411 0.381059 0.809734
O O12 0.000000 0.500000 0.000000
O O13 0.685000 0.431486 0.027386
O O14 0.710516 0.701596 0.837440
O O15 0.186988 0.106265 0.166831
O O16 0.000000 0.000000 0.500000
O O17 0.174604 0.276996 0.993592
#
# Coordination Sequence:
#
# PCOD9013573 Si02
#       8
#     2   2   2   2   2   2   2   2
#     4  11  22  40  62  90 120 166 202 248 308 357
#     4  10  22  38  63  93 122 162 202 250 308 362
#     4  11  22  40  69  89 122 162 210 252 299 365
#     4  11  23  41  64  90 126 163 204 254 310 362
#     4   9  21  40  63  89 121 158 211 250 304 355
#     4  11  19  42  67  91 120 161 208 254 300 361
#     4  11  24  42  61  90 134 158 199 254 310 365
#     4  10  21  41  65  89 124 162 202 257 299 366
#
# _framework density 22.066458999999998
#
# number of rings (size 3 to 8) (size 9 to 14) (size 15 to 20)
#    0.000    1.500    5.000    2.250    1.750    2.000 
#    0.000    6.250    0.000    0.000    0.000    0.000 
#    0.000    0.000    0.000    0.000    0.000    0.000 
#
# Total GULP energy -89390.755126 kJ/mol
# GULP energy per Si atom -5586.922195 kJ/mol
# Density = 2.201623 g / cm^3
# Si number density = 22.066459 Si / 1000 Ang^3
#
#
#
# Elastic Constant Matrix: (Units=GPa)
#
#
# Indices 1 2 3 4 5 6 
#
# 1 79.8284 31.7212 49.6659 -5.4912 -22.4736 -14.8021
# 2 31.7212 48.3014 4.8295 1.3423 -7.7742 -10.4131
# 3 49.6659 4.8295 99.3262 7.1743 -27.6755 -0.3827
# 4 -5.4912 1.3423 7.1743 31.4706 -11.5066 -0.3249
# 5 -22.4736 -7.7742 -27.6755 -11.5066 53.3639 3.9201
# 6 -14.8021 -10.4131 -0.3827 -0.3249 3.9201 19.5258
#
#
#
# Elastic Compliance Matrix: (Units=1/GPa)
#
#
# Indices 1 2 3 4 5 6 
#
# 1 0.034373 -0.017087 -0.015698 0.012430 0.005367 0.015767
# 2 -0.017087 0.032246 0.007343 -0.006105 -0.000326 0.004351
# 3 -0.015698 0.007343 0.018973 -0.006151 0.003592 -0.008436
# 4 0.012430 -0.006105 -0.006151 0.039026 0.009214 0.004846
# 5 0.005367 -0.000326 0.003592 0.009214 0.024866 -0.000874
# 6 0.015767 0.004351 -0.008436 0.004846 -0.000874 0.065578
#
#
# Mechanical properties :
#
#
# Convention : Reuss Voigt Hill
#
# Bulk Modulus (GPa) = 28.81230 44.43212 36.62221
# Shear Modulus (GPa) = 18.01704 30.28802 24.15253
#
# Velocity S-wave (km/s) = 2.86053 3.70886 3.31197
# Velocity P-wave (km/s) = 4.89853 6.20646 5.59087
#
# Compressibility (1/GPa) = 0.03470740
#
# Stress axis : x y z
#
# Youngs Moduli (GPa) = 29.09274 31.01174 52.70677
#
# Poissons Ratio (x) = 0.52989 0.82740
# Poissons Ratio (y) = 0.49710 -0.38701
# Poissons Ratio (z) = 0.45670 -0.22771
#
# Static dielectric constant tensor:
#      x y z
#    x 1.819210 0.001880 -0.021080 
#    y 0.001880 1.841820 0.005440 
#    z -0.021080 0.005440 1.830700 
# 
# From -- ./inp_files/398893.got.cif
#   From: 2010.05.17/outbox.cif.g08.bks.cpg/sg2_200_cif.got.tgz:398893.got - 2010.06.03 11:33:40.
