data_PCOD9013674
_publ_section_title
;
Structure prediction by ZEFSAII (Michael W. Deem and Ramdas Pophale) SiO2 
 PCOD9013674
Probable space group: P -1
;
_chemical_formula_sum "Si O2"
_cell_formula_units_Z 15
_cell_length_a 16.707876
_cell_length_b 29.226028
_cell_length_c 29.175979
_cell_angle_alpha 10.009582
_cell_angle_beta 18.256759
_cell_angle_gamma 16.517509
_cell_volume 699.614872
_symmetry_space_group_name_H-M "P -1"
_symmetry_group_IT_number 2
_symmetry_cell_setting 'triclinic'
loop_
_space_group_symop_operation_xyz
x,y,z
-x,-y,-z
loop_
_atom_site_type_symbol
_atom_site_label
_atom_site_fract_x
_atom_site_fract_y
_atom_site_fract_z
Si Si1 0.627646 0.179661 0.224869
Si Si2 0.343632 0.578416 0.207768
Si Si3 0.724018 0.136719 0.833606
Si Si4 0.506014 0.771925 0.367508
Si Si5 0.299827 0.416990 0.078730
Si Si6 0.500000 0.000000 0.000000
Si Si7 0.087062 0.922501 0.368613
Si Si8 0.671172 0.885728 0.262176
O O1 0.528117 0.232840 0.174100
O O2 0.500000 0.000000 0.500000
O O3 0.500000 0.500000 0.000000
O O4 0.961793 0.992134 0.229788
O O5 0.407793 0.263276 0.504555
O O6 0.012530 0.711721 0.241497
O O7 0.540527 0.587647 0.050513
O O8 0.375759 0.787625 0.023065
O O9 0.621212 0.433443 0.625298
O O10 0.527341 0.160436 0.874001
O O11 0.716589 0.889166 0.114880
O O12 0.213776 0.937057 0.335517
O O13 0.507147 0.842672 0.350305
O O14 0.071478 0.283617 0.335785
O O15 0.134783 0.759645 0.842047
O O16 0.339197 0.835935 0.280106
#
# Coordination Sequence:
#
# PCOD9013674 Si02
#       8
#     2   2   2   2   2   1   2   2
#     4  12  25  40  62  92 126 163 203 255 318 379
#     4  10  22  39  66  93 124 166 204 261 326 375
#     4  11  23  38  64  92 122 164 209 263 317 362
#     4  11  23  41  63  92 123 162 216 265 307 371
#     4  12  24  43  62  93 132 164 208 260 319 384
#     4  10  22  42  62  88 122 164 214 252 296 376
#     4  11  25  41  64  89 127 173 211 258 316 369
#     4  10  21  41  65  93 124 161 214 262 313 382
#
# _framework density 21.440369
#
# number of rings (size 3 to 8) (size 9 to 14) (size 15 to 20)
#    0.000    1.067    0.000    7.200    0.000    9.067 
#    0.000    4.000    0.000    0.000    0.000    0.000 
#    0.000    0.000    0.000    0.000    0.000    0.000 
#
# Total GULP energy -83573.713944 kJ/mol
# GULP energy per Si atom -5571.580930 kJ/mol
# Density = 2.139157 g / cm^3
# Si number density = 21.440369 Si / 1000 Ang^3
#
#
#
# Elastic Constant Matrix: (Units=GPa)
#
#
# Indices 1 2 3 4 5 6 
#
# 1 89.6972 -1.3140 27.5091 -1.6940 4.1286 7.0869
# 2 -1.3140 40.3793 32.4647 10.7072 7.1085 1.6171
# 3 27.5091 32.4647 85.4188 46.2237 -21.6639 -7.7691
# 4 -1.6940 10.7072 46.2237 27.6607 25.5362 15.5279
# 5 4.1286 7.1085 -21.6639 25.5362 13.4050 1.0304
# 6 7.0869 1.6171 -7.7691 15.5279 1.0304 16.2072
#
#
#
# Elastic Compliance Matrix: (Units=1/GPa)
#
#
# Indices 1 2 3 4 5 6 
#
# 1 0.010805 0.000471 0.000186 -0.004609 0.005550 -0.000620
# 2 0.000471 0.030010 -0.003219 -0.012887 0.002716 0.007430
# 3 0.000186 -0.003219 0.003546 0.010422 -0.011914 -0.007289
# 4 -0.004609 -0.012887 0.010422 0.002588 0.019817 0.004558
# 5 0.005550 0.002716 -0.011914 0.019817 0.016631 -0.028453
# 6 -0.000620 0.007430 -0.007289 0.004558 -0.028453 0.055179
#
#
# Mechanical properties :
#
#
# Convention : Reuss Voigt Hill
#
# Bulk Modulus (GPa) = 25.48538 36.97943 31.23240
# Shear Modulus (GPa) = 36.50701 21.91026 29.20864
#
# Velocity S-wave (km/s) = 4.13088 3.20021 3.69497
# Velocity P-wave (km/s) = 5.88767 5.56239 5.72734
#
# Compressibility (1/GPa) = 0.03923819
#
# Stress axis : x y z
#
# Youngs Moduli (GPa) = 92.55144 33.32194 282.01042
#
# Poissons Ratio (x) = -0.01571 -0.05257
# Poissons Ratio (y) = -0.04363 0.90788
# Poissons Ratio (z) = -0.01725 0.10727
#
# Static dielectric constant tensor:
#      x y z
#    x 1.792910 0.005140 -0.007630 
#    y 0.005140 1.818530 -0.003490 
#    z -0.007630 -0.003490 1.748900 
# 
# From -- ./inp_files/619970.got.cif
#   From: 2010.05.17/outbox.cif.g08.bks.cpg/sg2_310_cif.got.tgz:619970.got - 2010.06.03 11:33:40.
