data_PCOD9013547
_publ_section_title
;
Structure prediction by ZEFSAII (Michael W. Deem and Ramdas Pophale) SiO2 
 PCOD9013547
Probable space group: P -1
;
_chemical_formula_sum "Si O2"
_cell_formula_units_Z 16
_cell_length_a 9.627999
_cell_length_b 17.811852
_cell_length_c 14.824186
_cell_angle_alpha 137.769118
_cell_angle_beta 44.489556
_cell_angle_gamma 151.504890
_cell_volume 799.484297
_symmetry_space_group_name_H-M "P -1"
_symmetry_group_IT_number 2
_symmetry_cell_setting 'triclinic'
loop_
_space_group_symop_operation_xyz
x,y,z
-x,-y,-z
loop_
_atom_site_type_symbol
_atom_site_label
_atom_site_fract_x
_atom_site_fract_y
_atom_site_fract_z
Si Si1 0.304638 0.757200 0.921392
Si Si2 0.286696 0.287676 0.301248
Si Si3 0.208490 0.502591 0.960373
Si Si4 0.349496 0.142367 0.484835
Si Si5 0.227783 0.941281 0.518318
Si Si6 0.276886 0.351627 0.639162
Si Si7 0.603990 0.085810 0.167601
Si Si8 0.873050 0.823901 0.916862
O O1 0.497435 0.728115 0.824274
O O2 0.383384 0.830227 0.850379
O O3 0.960727 0.590101 0.950679
O O4 0.390574 0.892625 0.070728
O O5 0.501205 0.485219 0.383090
O O6 0.121392 0.231824 0.233016
O O7 0.043901 0.157823 0.373637
O O8 0.233767 0.405666 0.797755
O O9 0.536550 0.687441 0.984675
O O10 0.000000 0.500000 0.000000
O O11 0.432267 0.301276 0.554157
O O12 0.503308 0.114812 0.325848
O O13 0.360723 0.105386 0.550392
O O14 0.000000 0.000000 0.500000
O O15 0.041392 0.798514 0.397776
O O16 0.500000 0.000000 0.500000
O O17 0.921488 0.161903 0.101409
O O18 0.000000 0.000000 0.000000
#
# Coordination Sequence:
#
# PCOD9013547 Si02
#       8
#     2   2   2   2   2   2   2   2
#     4  11  21  39  64  93 126 166 214 254 320 384
#     4  11  22  41  65  92 125 168 212 258 319 374
#     4  11  21  40  67  90 125 167 214 253 323 382
#     4  10  21  41  65  87 126 171 212 249 316 380
#     4  11  23  39  63  97 125 163 215 264 307 372
#     4  10  22  42  65  88 126 170 208 253 319 386
#     4  11  23  39  63  93 129 167 208 269 315 373
#     4  11  22  41  63  92 127 165 205 268 319 374
#
# _framework density 20.012902
#
# number of rings (size 3 to 8) (size 9 to 14) (size 15 to 20)
#    0.000    1.250    3.750    4.125    0.000    2.500 
#    0.000    8.125    0.000    0.000    0.000    0.000 
#    0.000    0.000    0.000    0.000    0.000    0.000 
#
# Total GULP energy -89227.728567 kJ/mol
# GULP energy per Si atom -5576.733035 kJ/mol
# Density = 1.996735 g / cm^3
# Si number density = 20.012902 Si / 1000 Ang^3
#
#
#
# Elastic Constant Matrix: (Units=GPa)
#
#
# Indices 1 2 3 4 5 6 
#
# 1 100.5907 33.4540 12.9365 5.0720 -20.3431 -9.4604
# 2 33.4540 128.0760 48.2935 -12.7060 -9.1271 -8.8490
# 3 12.9365 48.2935 58.7565 -14.1371 -14.2174 -17.9338
# 4 5.0720 -12.7060 -14.1371 34.0313 -1.3152 0.6510
# 5 -20.3431 -9.1271 -14.2174 -1.3152 25.8177 -0.9486
# 6 -9.4604 -8.8490 -17.9338 0.6510 -0.9486 38.4626
#
#
#
# Elastic Compliance Matrix: (Units=1/GPa)
#
#
# Indices 1 2 3 4 5 6 
#
# 1 0.013687 -0.004213 0.004437 -0.001404 0.011843 0.004782
# 2 -0.004213 0.012824 -0.012074 0.000259 -0.005564 -0.003857
# 3 0.004437 -0.012074 0.039311 0.011690 0.022096 0.016990
# 4 -0.001404 0.000259 0.011690 0.034741 0.007368 0.004759
# 5 0.011843 -0.005564 0.022096 0.007368 0.059129 0.013269
# 6 0.004782 -0.003857 0.016990 0.004759 0.013269 0.034457
#
#
# Mechanical properties :
#
#
# Convention : Reuss Voigt Hill
#
# Bulk Modulus (GPa) = 23.74033 52.97679 38.35856
# Shear Modulus (GPa) = 21.56200 32.51160 27.03680
#
# Velocity S-wave (km/s) = 3.28595 4.03492 3.67954
# Velocity P-wave (km/s) = 5.12688 6.94523 6.10414
#
# Compressibility (1/GPa) = 0.04212241
#
# Stress axis : x y z
#
# Youngs Moduli (GPa) = 73.05939 77.98065 25.43798
#
# Poissons Ratio (x) = 0.32854 -0.11286
# Poissons Ratio (y) = 0.30781 0.30713
# Poissons Ratio (z) = -0.32415 0.94152
#
# Static dielectric constant tensor:
#      x y z
#    x 1.728040 -0.042730 0.016930 
#    y -0.042730 1.747900 0.025380 
#    z 0.016930 0.025380 1.709390 
# 
# From -- ./inp_files/277634.got.cif
#   From: 2010.05.17/outbox.cif.g08.bks.cpg/sg2_139_cif.got.tgz:277634.got - 2010.06.03 11:33:40.
