data_PCOD9013808
_publ_section_title
;
Structure prediction by ZEFSAII (Michael W. Deem and Ramdas Pophale) SiO2 
 PCOD9013808
Probable space group: P -1
;
_chemical_formula_sum "Si O2"
_cell_formula_units_Z 16
_cell_length_a 9.010323
_cell_length_b 17.942914
_cell_length_c 19.747858
_cell_angle_alpha 21.317449
_cell_angle_beta 39.414284
_cell_angle_gamma 39.186115
_cell_volume 715.393942
_symmetry_space_group_name_H-M "P -1"
_symmetry_group_IT_number 2
_symmetry_cell_setting 'triclinic'
loop_
_space_group_symop_operation_xyz
x,y,z
-x,-y,-z
loop_
_atom_site_type_symbol
_atom_site_label
_atom_site_fract_x
_atom_site_fract_y
_atom_site_fract_z
Si Si1 0.500611 0.986394 0.790117
Si Si2 0.708465 0.229571 0.405908
Si Si3 0.953077 0.563597 0.089896
Si Si4 0.513828 0.131405 0.951624
Si Si5 0.324334 0.600134 0.167202
Si Si6 0.273269 0.333920 0.285424
Si Si7 0.980481 0.263284 0.719982
Si Si8 0.806047 0.091568 0.340391
O O1 0.684582 0.094578 0.594784
O O2 0.239487 0.110187 0.749845
O O3 0.496696 0.992344 0.868373
O O4 0.514542 0.744516 0.968782
O O5 0.893159 0.376450 0.225829
O O6 0.459143 0.400501 0.333212
O O7 0.760058 0.090251 0.438200
O O8 0.177543 0.454190 0.149434
O O9 0.714794 0.666860 0.131135
O O10 0.014951 0.759613 0.863179
O O11 0.764789 0.203908 0.804275
O O12 0.500000 0.000000 0.000000
O O13 0.239336 0.508622 0.207560
O O14 0.107207 0.737164 0.171011
O O15 0.553429 0.211753 0.292830
O O16 0.133258 0.148338 0.503721
O O17 0.000000 0.500000 0.500000
#
# Coordination Sequence:
#
# PCOD9013808 Si02
#       8
#     2   2   2   2   2   2   2   2
#     4  11  23  43  72  93 138 180 224 271 333 405
#     4  11  23  44  67  99 129 174 227 274 332 403
#     4  12  24  43  68  97 140 172 220 281 341 393
#     4  11  26  44  65 105 138 173 223 280 340 395
#     4  10  21  41  65  98 130 172 223 268 327 401
#     4  10  25  42  68  97 132 171 232 266 344 394
#     4  11  21  43  69  97 132 182 229 267 330 416
#     4  10  25  47  66  98 132 176 227 279 331 404
#
# _framework density 22.365299
#
# number of rings (size 3 to 8) (size 9 to 14) (size 15 to 20)
#    0.000    1.250    3.750    2.250    5.250    6.500 
#    0.000    1.250    0.000    0.000    0.000    0.000 
#    0.000    0.000    0.000    0.000    0.000    0.000 
#
# Total GULP energy -89453.587278 kJ/mol
# GULP energy per Si atom -5590.849205 kJ/mol
# Density = 2.231439 g / cm^3
# Si number density = 22.365299 Si / 1000 Ang^3
#
#
#
# Elastic Constant Matrix: (Units=GPa)
#
#
# Indices 1 2 3 4 5 6 
#
# 1 110.2506 25.8621 44.5004 2.7239 -10.0557 18.5229
# 2 25.8621 48.8549 12.8265 -8.1367 -7.2723 -9.2041
# 3 44.5004 12.8265 147.2615 11.5486 -3.7268 7.7918
# 4 2.7239 -8.1367 11.5486 31.0865 0.8307 -7.3390
# 5 -10.0557 -7.2723 -3.7268 0.8307 34.5700 -6.7590
# 6 18.5229 -9.2041 7.7918 -7.3390 -6.7590 28.8162
#
#
#
# Elastic Compliance Matrix: (Units=1/GPa)
#
#
# Indices 1 2 3 4 5 6 
#
# 1 0.015336 -0.011665 -0.002297 -0.007057 -0.001003 -0.014995
# 2 -0.011665 0.036295 -0.002151 0.017252 0.008700 0.026107
# 3 -0.002297 -0.002151 0.008102 -0.003959 -0.000653 -0.002563
# 4 -0.007057 0.017252 -0.003959 0.044188 0.004676 0.023468
# 5 -0.001003 0.008700 -0.000653 0.004676 0.032720 0.012466
# 6 -0.014995 0.026107 -0.002563 0.023468 0.012466 0.062274
#
#
# Mechanical properties :
#
#
# Convention : Reuss Voigt Hill
#
# Bulk Modulus (GPa) = 36.35275 52.52723 44.43999
# Shear Modulus (GPa) = 20.80660 33.77305 27.28983
#
# Velocity S-wave (km/s) = 3.05340 3.89017 3.49691
# Velocity P-wave (km/s) = 5.35914 6.61173 6.01811
#
# Compressibility (1/GPa) = 0.02750823
#
# Stress axis : x y z
#
# Youngs Moduli (GPa) = 65.20725 27.55188 123.43336
#
# Poissons Ratio (x) = 0.32139 0.28350
# Poissons Ratio (y) = 0.76063 0.26544
# Poissons Ratio (z) = 0.14977 0.05925
#
# Static dielectric constant tensor:
#      x y z
#    x 1.825040 -0.034970 -0.003940 
#    y -0.034970 1.846460 0.036360 
#    z -0.003940 0.036360 1.878730 
# 
# From -- ./inp_files/591157.got.cif
#   From: 2010.05.17/outbox.cif.g08.bks.cpg/sg2_296_cif.got.tgz:591157.got - 2010.06.03 11:33:40.
