data_PCOD9013012
_publ_section_title
;
Structure prediction by ZEFSAII (Michael W. Deem and Ramdas Pophale) SiO2 
 PCOD9013012
Probable space group: P -1
;
_chemical_formula_sum "Si O2"
_cell_formula_units_Z 16
_cell_length_a 7.096523
_cell_length_b 7.865466
_cell_length_c 15.396908
_cell_angle_alpha 114.411829
_cell_angle_beta 108.577482
_cell_angle_gamma 57.807783
_cell_volume 656.851623
_symmetry_space_group_name_H-M "P -1"
_symmetry_group_IT_number 2
_symmetry_cell_setting 'triclinic'
loop_
_space_group_symop_operation_xyz
x,y,z
-x,-y,-z
loop_
_atom_site_type_symbol
_atom_site_label
_atom_site_fract_x
_atom_site_fract_y
_atom_site_fract_z
Si Si1 0.538852 0.960042 0.286508
Si Si2 0.288864 0.588128 0.068371
Si Si3 0.241595 0.243043 0.176973
Si Si4 0.659663 0.610768 0.551396
Si Si5 0.620111 0.336508 0.206661
Si Si6 0.829586 0.577760 0.374541
Si Si7 0.254301 0.913755 0.993703
Si Si8 0.874763 0.663477 0.131365
O O1 0.652793 0.769775 0.331066
O O2 0.712459 0.856444 0.209085
O O3 0.294885 0.069111 0.223689
O O4 0.495724 0.162891 0.380792
O O5 0.482693 0.517634 0.153805
O O6 0.341067 0.714992 0.029234
O O7 0.064102 0.700651 0.117750
O O8 0.242734 0.408859 0.976194
O O9 0.427344 0.323353 0.232421
O O10 0.008428 0.449109 0.165563
O O11 0.307916 0.098757 0.069808
O O12 0.500000 0.500000 0.500000
O O13 0.743128 0.631026 0.471644
O O14 0.906306 0.481323 0.607527
O O15 0.792394 0.380500 0.296408
O O16 0.721665 0.143264 0.114755
O O17 0.000000 0.000000 0.000000
#
# Coordination Sequence:
#
# PCOD9013012 Si02
#       8
#     2   2   2   2   2   2   2   2
#     4  12  24  43  78 103 141 181 234 285 359 420
#     4  10  21  41  62  95 146 193 245 289 347 403
#     4  11  24  42  64 103 145 192 241 286 347 414
#     4  11  27  53  80 109 140 178 226 296 370 439
#     4  11  24  43  67  94 140 191 240 295 352 417
#     4  11  26  51  76 108 142 178 236 297 358 431
#     4  12  23  35  63  97 142 189 240 290 339 398
#     4  10  22  41  65 102 144 194 241 293 336 416
#
# _framework density 24.358623000000001
#
# number of rings (size 3 to 8) (size 9 to 14) (size 15 to 20)
#    0.000    1.000    1.250    4.875    3.500    1.500 
#    0.000    5.000    0.000    0.000    0.000    0.000 
#    0.000    0.000    0.000    0.000    0.000    0.000 
#
# Total GULP energy -89301.062144 kJ/mol
# GULP energy per Si atom -5581.316384 kJ/mol
# Density = 2.430318 g / cm^3
# Si number density = 24.358623 Si / 1000 Ang^3
#
#
#
# Elastic Constant Matrix: (Units=GPa)
#
#
# Indices 1 2 3 4 5 6 
#
# 1 126.4875 34.2326 42.8273 12.5663 7.9279 -17.0403
# 2 34.2326 140.4958 50.7048 -3.3244 -0.7899 -18.9313
# 3 42.8273 50.7048 142.4679 18.7919 -0.0822 -8.0815
# 4 12.5663 -3.3244 18.7919 62.3035 -0.5775 -6.8189
# 5 7.9279 -0.7899 -0.0822 -0.5775 49.7824 1.6630
# 6 -17.0403 -18.9313 -8.0815 -6.8189 1.6630 26.7870
#
#
#
# Elastic Compliance Matrix: (Units=1/GPa)
#
#
# Indices 1 2 3 4 5 6 
#
# 1 0.009747 -0.000970 -0.002205 -0.000850 -0.001740 0.004741
# 2 -0.000970 0.009226 -0.002966 0.002192 0.000136 0.005558
# 3 -0.002205 -0.002966 0.008995 -0.002584 0.000338 -0.001463
# 4 -0.000850 0.002192 -0.002584 0.017635 0.000213 0.004705
# 5 -0.001740 0.000136 0.000338 0.000213 0.020441 -0.002123
# 6 0.004741 0.005558 -0.001463 0.004705 -0.002123 0.045164
#
#
# Mechanical properties :
#
#
# Convention : Reuss Voigt Hill
#
# Bulk Modulus (GPa) = 63.74629 73.88673 68.81651
# Shear Modulus (GPa) = 38.84454 46.55367 42.69910
#
# Velocity S-wave (km/s) = 3.99769 4.37645 4.19135
# Velocity P-wave (km/s) = 6.89460 7.47907 7.19277
#
# Compressibility (1/GPa) = 0.01568719
#
# Stress axis : x y z
#
# Youngs Moduli (GPa) = 102.59316 108.39057 111.16849
#
# Poissons Ratio (x) = 0.10517 0.24510
# Poissons Ratio (y) = 0.09955 0.32968
# Poissons Ratio (z) = 0.22619 0.32145
#
# Static dielectric constant tensor:
#      x y z
#    x 1.962310 -0.032360 -0.009230 
#    y -0.032360 1.709100 -0.143390 
#    z -0.009230 -0.143390 1.929080 
# 
# From -- ./inp_files/200692.got.cif
#   From: 2010.05.17/outbox.cif.g08.bks.cpg/sg2_101_cif.got.tgz:200692.got - 2010.06.03 11:33:40.
