data_PCOD9013689
_publ_section_title
;
Structure prediction by ZEFSAII (Michael W. Deem and Ramdas Pophale) SiO2 
 PCOD9013689
Probable space group: P -1
;
_chemical_formula_sum "Si O2"
_cell_formula_units_Z 16
_cell_length_a 10.462784
_cell_length_b 13.202309
_cell_length_c 19.752877
_cell_angle_alpha 30.100318
_cell_angle_beta 53.699918
_cell_angle_gamma 34.931044
_cell_volume 715.216992
_symmetry_space_group_name_H-M "P -1"
_symmetry_group_IT_number 2
_symmetry_cell_setting 'triclinic'
loop_
_space_group_symop_operation_xyz
x,y,z
-x,-y,-z
loop_
_atom_site_type_symbol
_atom_site_label
_atom_site_fract_x
_atom_site_fract_y
_atom_site_fract_z
Si Si1 0.247836 0.244862 0.396619
Si Si2 0.147324 0.955412 0.195525
Si Si3 0.198671 0.111234 0.349556
Si Si4 0.157189 0.912354 0.672555
Si Si5 0.804412 0.630998 0.927342
Si Si6 0.410857 0.696220 0.041877
Si Si7 0.693338 0.431393 0.316536
Si Si8 0.031134 0.869276 0.154258
O O1 0.296721 0.154715 0.354393
O O2 0.105324 0.586362 0.260394
O O3 0.500000 0.000000 0.500000
O O4 0.109734 0.181557 0.505504
O O5 0.419827 0.773101 0.211414
O O6 0.111246 0.801234 0.246127
O O7 0.071000 0.963064 0.289946
O O8 0.951871 0.310455 0.027693
O O9 0.251411 0.144531 0.239617
O O10 0.905724 0.380391 0.297228
O O11 0.286339 0.795375 0.515358
O O12 0.383828 0.671435 0.793359
O O13 0.245898 0.697531 0.704524
O O14 0.562274 0.757720 0.958749
O O15 0.000000 0.500000 0.000000
O O16 0.202205 0.871204 0.063149
O O17 0.253663 0.820872 0.951049
#
# Coordination Sequence:
#
# PCOD9013689 Si02
#       8
#     2   2   2   2   2   2   2   2
#     4  11  22  39  64  94 131 170 218 272 315 387
#     4  11  24  40  69  94 128 181 209 266 341 377
#     4  10  23  40  68  94 130 178 211 273 335 370
#     4  10  21  41  65  93 130 169 213 274 323 379
#     4  11  26  44  66 100 131 167 222 277 321 391
#     4  10  22  40  61  88 137 164 215 273 317 381
#     4  10  21  45  66  94 132 166 221 265 325 401
#     4  11  23  39  62  96 128 179 219 261 330 390
#
# _framework density 22.370833999999999
#
# number of rings (size 3 to 8) (size 9 to 14) (size 15 to 20)
#    0.000    1.500    2.500    2.250    3.500    6.000 
#    0.000    8.750    0.000    0.000    0.000    0.000 
#    0.000    0.000    0.000    0.000    0.000    0.000 
#
# Total GULP energy -89397.409207 kJ/mol
# GULP energy per Si atom -5587.338075 kJ/mol
# Density = 2.231992 g / cm^3
# Si number density = 22.370834 Si / 1000 Ang^3
#
#
#
# Elastic Constant Matrix: (Units=GPa)
#
#
# Indices 1 2 3 4 5 6 
#
# 1 99.6256 32.8768 23.6988 7.3204 16.3721 -16.8926
# 2 32.8768 86.3366 24.8961 13.9317 3.0320 -16.7090
# 3 23.6988 24.8961 74.1320 23.8617 10.2842 1.5666
# 4 7.3204 13.9317 23.8617 34.7457 -3.8848 4.3023
# 5 16.3721 3.0320 10.2842 -3.8848 28.6482 -5.1099
# 6 -16.8926 -16.7090 1.5666 4.3023 -5.1099 25.8097
#
#
#
# Elastic Compliance Matrix: (Units=1/GPa)
#
#
# Indices 1 2 3 4 5 6 
#
# 1 0.013658 -0.002869 -0.002200 -0.001650 -0.005805 0.006341
# 2 -0.002869 0.016326 -0.003714 -0.004370 0.002460 0.010132
# 3 -0.002200 -0.003714 0.020777 -0.012675 -0.008356 -0.004647
# 4 -0.001650 -0.004370 -0.012675 0.041723 0.010172 -0.008081
# 5 -0.005805 0.002460 -0.008356 0.010172 0.043264 0.005170
# 6 0.006341 0.010132 -0.004647 -0.008081 0.005170 0.052108
#
#
# Mechanical properties :
#
#
# Convention : Reuss Voigt Hill
#
# Bulk Modulus (GPa) = 30.12556 47.00418 38.56487
# Shear Modulus (GPa) = 23.09585 29.74890 26.42238
#
# Velocity S-wave (km/s) = 3.21660 3.65061 3.44045
# Velocity P-wave (km/s) = 5.22408 6.23107 5.74966
#
# Compressibility (1/GPa) = 0.03319441
#
# Stress axis : x y z
#
# Youngs Moduli (GPa) = 73.21592 61.25212 48.12923
#
# Poissons Ratio (x) = 0.17574 0.10590
# Poissons Ratio (y) = 0.21007 0.17876
# Poissons Ratio (z) = 0.16110 0.22750
#
# Static dielectric constant tensor:
#      x y z
#    x 1.889730 0.018370 0.001920 
#    y 0.018370 1.815380 0.010430 
#    z 0.001920 0.010430 1.856250 
# 
# From -- ./inp_files/595467.got.cif
#   From: 2010.05.17/outbox.cif.g08.bks.cpg/sg2_298_cif.got.tgz:595467.got - 2010.06.03 11:33:40.
