data_PCOD9013675
_publ_section_title
;
Structure prediction by ZEFSAII (Michael W. Deem and Ramdas Pophale) SiO2 
 PCOD9013675
Probable space group: P -1
;
_chemical_formula_sum "Si O2"
_cell_formula_units_Z 16
_cell_length_a 9.592358
_cell_length_b 11.317655
_cell_length_c 7.925299
_cell_angle_alpha 125.451938
_cell_angle_beta 92.885616
_cell_angle_gamma 96.118028
_cell_volume 690.173486
_symmetry_space_group_name_H-M "P -1"
_symmetry_group_IT_number 2
_symmetry_cell_setting 'triclinic'
loop_
_space_group_symop_operation_xyz
x,y,z
-x,-y,-z
loop_
_atom_site_type_symbol
_atom_site_label
_atom_site_fract_x
_atom_site_fract_y
_atom_site_fract_z
Si Si1 0.434089 0.534281 0.752578
Si Si2 0.893924 0.134154 0.896814
Si Si3 0.636511 0.110483 0.659749
Si Si4 0.020704 0.470408 0.213134
Si Si5 0.827384 0.920158 0.997826
Si Si6 0.307783 0.569201 0.148464
Si Si7 0.509403 0.848213 0.967740
Si Si8 0.162657 0.356134 0.451251
O O1 0.588960 0.501910 0.781131
O O2 0.451564 0.683327 0.765407
O O3 0.325179 0.409402 0.552102
O O4 0.361863 0.547025 0.943563
O O5 0.787451 0.068585 0.687304
O O6 0.833097 0.073480 0.026175
O O7 0.921159 0.312196 0.044898
O O8 0.047682 0.085609 0.867377
O O9 0.666765 0.255950 0.669660
O O10 0.500000 0.000000 0.500000
O O11 0.580580 0.152381 0.871117
O O12 0.142455 0.506875 0.110938
O O13 0.112580 0.444786 0.363881
O O14 0.933704 0.599468 0.364711
O O15 0.676746 0.861796 0.020794
O O16 0.853028 0.808981 0.755443
O O17 0.500000 0.000000 0.000000
#
# Coordination Sequence:
#
# PCOD9013675 Si02
#       8
#     2   2   2   2   2   2   2   2
#     4  10  22  39  63  96 129 170 216 269 321 387
#     4  10  21  42  66  89 136 167 213 264 329 385
#     4  11  25  43  63  99 130 171 220 265 321 400
#     4  10  21  41  65  93 124 171 218 264 325 383
#     4  10  22  40  66  97 127 170 211 278 329 375
#     4  10  23  42  64  89 137 178 207 258 334 397
#     4  11  22  41  69  93 128 178 220 266 332 387
#     4  10  22  37  64  97 128 156 226 278 306 375
#
# _framework density 23.182577999999999
#
# number of rings (size 3 to 8) (size 9 to 14) (size 15 to 20)
#    0.000    1.750    1.250    3.000    1.750    5.000 
#    6.750    0.625    0.000    0.000    0.000    0.000 
#    0.000    0.000    0.000    0.000    0.000    0.000 
#
# Total GULP energy -89293.244879 kJ/mol
# GULP energy per Si atom -5580.827805 kJ/mol
# Density = 2.312981 g / cm^3
# Si number density = 23.182578 Si / 1000 Ang^3
#
#
#
# Elastic Constant Matrix: (Units=GPa)
#
#
# Indices 1 2 3 4 5 6 
#
# 1 148.5214 36.8510 35.9039 12.6254 18.1393 5.2424
# 2 36.8510 112.3428 25.2107 15.9085 1.3361 3.1623
# 3 35.9039 25.2107 45.9710 5.9964 25.5202 -11.7519
# 4 12.6254 15.9085 5.9964 21.4994 11.9774 4.3591
# 5 18.1393 1.3361 25.5202 11.9774 44.3348 -2.0336
# 6 5.2424 3.1623 -11.7519 4.3591 -2.0336 30.7725
#
#
#
# Elastic Compliance Matrix: (Units=1/GPa)
#
#
# Indices 1 2 3 4 5 6 
#
# 1 0.009090 -0.000629 -0.008410 -0.002589 0.001647 -0.004220
# 2 -0.000629 0.013094 -0.011180 -0.010510 0.008981 -0.003426
# 3 -0.008410 -0.011180 0.054619 0.010381 -0.029549 0.020017
# 4 -0.002589 -0.010510 0.010381 0.066781 -0.022893 -0.005487
# 5 0.001647 0.008981 -0.029549 -0.022893 0.044516 -0.006303
# 6 -0.004220 -0.003426 0.020017 -0.005487 -0.006303 0.041573
#
#
# Mechanical properties :
#
#
# Convention : Reuss Voigt Hill
#
# Bulk Modulus (GPa) = 27.49850 55.86293 41.68072
# Shear Modulus (GPa) = 17.71587 33.24598 25.48093
#
# Velocity S-wave (km/s) = 2.76740 3.79105 3.31893
# Velocity P-wave (km/s) = 4.70093 6.58119 5.71886
#
# Compressibility (1/GPa) = 0.03636562
#
# Stress axis : x y z
#
# Youngs Moduli (GPa) = 110.01156 76.36802 18.30868
#
# Poissons Ratio (x) = 0.04801 0.15397
# Poissons Ratio (y) = 0.06916 0.20470
# Poissons Ratio (z) = 0.92517 0.85383
#
# Static dielectric constant tensor:
#      x y z
#    x 1.767050 -0.025970 -0.120370 
#    y -0.025970 1.909850 0.032100 
#    z -0.120370 0.032100 1.843870 
# 
# From -- ./inp_files/182599.got.cif
#   From: 2010.05.17/outbox.cif.g08.bks.cpg/sg2_92_cif.got.tgz:182599.got - 2010.06.03 11:33:40.
