data_PCOD9013218
_publ_section_title
;
Structure prediction by ZEFSAII (Michael W. Deem and Ramdas Pophale) SiO2 
 PCOD9013218
Probable space group: P -1
;
_chemical_formula_sum "Si O2"
_cell_formula_units_Z 12
_cell_length_a 12.991571
_cell_length_b 8.371434
_cell_length_c 14.495306
_cell_angle_alpha 58.958032
_cell_angle_beta 152.318451
_cell_angle_gamma 105.487521
_cell_volume 551.705064
_symmetry_space_group_name_H-M "P -1"
_symmetry_group_IT_number 2
_symmetry_cell_setting 'triclinic'
loop_
_space_group_symop_operation_xyz
x,y,z
-x,-y,-z
loop_
_atom_site_type_symbol
_atom_site_label
_atom_site_fract_x
_atom_site_fract_y
_atom_site_fract_z
Si Si1 0.656563 0.847923 0.449001
Si Si2 0.717164 0.146924 0.268225
Si Si3 0.703754 0.039145 0.708438
Si Si4 0.632137 0.480305 0.445747
Si Si5 0.048183 0.699105 0.959953
Si Si6 0.265395 0.496973 0.693732
O O1 0.399634 0.937871 0.277124
O O2 0.738378 0.611521 0.548793
O O3 0.869719 0.830957 0.694420
O O4 0.632804 0.997540 0.301235
O O5 0.727211 0.316257 0.296610
O O6 0.507479 0.280950 0.985135
O O7 0.000000 0.000000 0.500000
O O8 0.696366 0.252080 0.603230
O O9 0.500000 0.000000 0.500000
O O10 0.963635 0.842664 0.941577
O O11 0.707084 0.470289 0.402058
O O12 0.332147 0.616526 0.180614
O O13 0.000000 0.500000 0.000000
O O14 0.000000 0.500000 0.500000
#
# Coordination Sequence:
#
# PCOD9013218 Si02
#       6
#     2   2   2   2   2   2
#     4  11  24  42  66  99 136 174 226 277 340 407
#     4  11  25  47  71 100 138 180 233 288 341 405
#     4  10  21  41  63  96 131 170 219 272 333 400
#     4  12  24  43  67  97 137 174 225 281 337 407
#     4  11  23  41  67  94 135 179 218 276 342 402
#     4  11  26  46  72 101 136 183 234 283 342 407
#
# _framework density 21.750753
#
# number of rings (size 3 to 8) (size 9 to 14) (size 15 to 20)
#    0.000    1.000    3.333    4.500    0.000    7.333 
#    0.000    0.000    0.000    0.000    0.000    0.000 
#    0.000    0.000    0.000    0.000    0.000    0.000 
#
# Total GULP energy -67171.851212 kJ/mol
# GULP energy per Si atom -5597.654268 kJ/mol
# Density = 2.170125 g / cm^3
# Si number density = 21.750753 Si / 1000 Ang^3
#
#
#
# Elastic Constant Matrix: (Units=GPa)
#
#
# Indices 1 2 3 4 5 6 
#
# 1 189.4644 56.4555 61.8151 -12.8803 19.1381 12.3579
# 2 56.4555 112.8063 35.0874 -17.1871 0.6334 10.0624
# 3 61.8151 35.0874 113.6046 -2.9120 18.2928 4.1441
# 4 -12.8803 -17.1871 -2.9120 41.5028 -4.0613 -1.2274
# 5 19.1381 0.6334 18.2928 -4.0613 34.1582 -4.3177
# 6 12.3579 10.0624 4.1441 -1.2274 -4.3177 39.7330
#
#
#
# Elastic Compliance Matrix: (Units=1/GPa)
#
#
# Indices 1 2 3 4 5 6 
#
# 1 0.007355 -0.002577 -0.002684 0.000709 -0.002758 -0.001633
# 2 -0.002577 0.011672 -0.002507 0.004096 0.002873 -0.001454
# 3 -0.002684 -0.002507 0.011817 -0.001543 -0.005006 -0.000354
# 4 0.000709 0.004096 -0.001543 0.026247 0.003485 0.000093
# 5 -0.002758 0.002873 -0.005006 0.003485 0.034432 0.004501
# 6 -0.001633 -0.001454 -0.000354 0.000093 0.004501 0.026573
#
#
# Mechanical properties :
#
#
# Convention : Reuss Voigt Hill
#
# Bulk Modulus (GPa) = 65.33135 80.28791 72.80963
# Shear Modulus (GPa) = 36.04008 40.57997 38.31002
#
# Velocity S-wave (km/s) = 4.07499 4.32404 4.20136
# Velocity P-wave (km/s) = 7.22788 7.86909 7.55529
#
# Compressibility (1/GPa) = 0.01530659
#
# Stress axis : x y z
#
# Youngs Moduli (GPa) = 135.96391 85.67576 84.62377
#
# Poissons Ratio (x) = 0.22077 0.22716
# Poissons Ratio (y) = 0.35035 0.21219
# Poissons Ratio (z) = 0.36498 0.21483
#
# Static dielectric constant tensor:
#      x y z
#    x 1.782700 0.065230 -0.061170 
#    y 0.065230 2.167010 -0.212550 
#    z -0.061170 -0.212550 2.000810 
# 
# From -- ./inp_files/301124.got.cif
#   From: 2010.05.17/outbox.cif.g08.bks.cpg/sg2_151_cif.got.tgz:301124.got - 2010.06.03 11:33:40.
