data_PCOD9013805
_publ_section_title
;
Structure prediction by ZEFSAII (Michael W. Deem and Ramdas Pophale) SiO2 
 PCOD9013805
Probable space group: P -1
;
_chemical_formula_sum "Si O2"
_cell_formula_units_Z 14
_cell_length_a 10.167143
_cell_length_b 9.535588
_cell_length_c 22.156986
_cell_angle_alpha 152.090288
_cell_angle_beta 138.990216
_cell_angle_gamma 44.623259
_cell_volume 652.696885
_symmetry_space_group_name_H-M "P -1"
_symmetry_group_IT_number 2
_symmetry_cell_setting 'triclinic'
loop_
_space_group_symop_operation_xyz
x,y,z
-x,-y,-z
loop_
_atom_site_type_symbol
_atom_site_label
_atom_site_fract_x
_atom_site_fract_y
_atom_site_fract_z
Si Si1 0.769254 0.408821 0.549796
Si Si2 0.784878 0.718900 0.303686
Si Si3 0.365662 0.739600 0.840542
Si Si4 0.958965 0.765588 0.136705
Si Si5 0.458732 0.360517 0.332986
Si Si6 0.328078 0.290435 0.871859
Si Si7 0.623903 0.264575 0.662573
O O1 0.657868 0.482002 0.475732
O O2 0.681302 0.651772 0.661560
O O3 0.008693 0.355675 0.615585
O O4 0.710641 0.077426 0.422708
O O5 0.650428 0.478241 0.190664
O O6 0.808331 0.681819 0.225729
O O7 0.473155 0.513867 0.741836
O O8 0.154541 0.927627 0.816375
O O9 0.500000 0.000000 0.000000
O O10 0.810046 0.670346 0.101572
O O11 0.170829 0.817184 0.259826
O O12 0.000000 0.500000 0.000000
O O13 0.331657 0.576418 0.323962
O O14 0.545942 0.045857 0.213343
O O15 0.500000 0.500000 0.000000
O O16 0.500000 0.000000 0.500000
#
# Coordination Sequence:
#
# PCOD9013805 Si02
#       7
#     2   2   2   2   2   2   2
#     4   9  20  41  66  99 134 179 232 294 368 425
#     4  10  22  40  70  97 136 181 240 292 357 432
#     4  12  25  47  71 102 147 193 240 302 367 435
#     4  12  27  48  74 105 147 194 244 299 371 439
#     4  10  21  41  65  97 140 175 228 296 352 422
#     4  11  24  43  71 100 141 187 242 293 356 433
#     4  12  27  44  73 105 147 190 246 297 367 436
#
# _framework density 21.449466000000001
#
# number of rings (size 3 to 8) (size 9 to 14) (size 15 to 20)
#    0.000    1.143    2.857    2.571    2.000    4.000 
#    0.000    2.143    0.000    0.000    0.000    0.000 
#    0.000    0.000    0.000    0.000    0.000    0.000 
#
# Total GULP energy -78185.474330 kJ/mol
# GULP energy per Si atom -5584.676738 kJ/mol
# Density = 2.140065 g / cm^3
# Si number density = 21.449466 Si / 1000 Ang^3
#
#
#
# Elastic Constant Matrix: (Units=GPa)
#
#
# Indices 1 2 3 4 5 6 
#
# 1 88.4353 14.9728 51.1725 22.0770 -16.8133 5.4489
# 2 14.9728 116.0570 36.3886 -17.4112 1.6939 -11.3022
# 3 51.1725 36.3886 127.4094 2.0656 -4.0403 -8.4826
# 4 22.0770 -17.4112 2.0656 26.0093 -0.5985 1.5163
# 5 -16.8133 1.6939 -4.0403 -0.5985 35.3308 4.0133
# 6 5.4489 -11.3022 -8.4826 1.5163 4.0133 40.0504
#
#
#
# Elastic Compliance Matrix: (Units=1/GPa)
#
#
# Indices 1 2 3 4 5 6 
#
# 1 0.025868 -0.005092 -0.008638 -0.023992 0.011964 -0.007076
# 2 -0.005092 0.011946 -0.001428 0.012143 -0.003367 0.003639
# 3 -0.008638 -0.001428 0.011772 0.005176 -0.002991 0.003369
# 4 -0.023992 0.012143 0.005176 0.065904 -0.011018 0.006396
# 5 0.011964 -0.003367 -0.002991 -0.011018 0.034338 -0.006235
# 6 -0.007076 0.003639 0.003369 0.006396 -0.006235 0.028055
#
#
# Mechanical properties :
#
#
# Convention : Reuss Voigt Hill
#
# Bulk Modulus (GPa) = 51.89527 59.66330 55.77929
# Shear Modulus (GPa) = 23.29665 35.56926 29.43295
#
# Velocity S-wave (km/s) = 3.29921 4.07662 3.70834
# Velocity P-wave (km/s) = 6.22573 7.07351 6.66312
#
# Compressibility (1/GPa) = 0.01926958
#
# Stress axis : x y z
#
# Youngs Moduli (GPa) = 38.65752 83.70655 84.95061
#
# Poissons Ratio (x) = 0.42624 0.73381
# Poissons Ratio (y) = 0.19685 0.12132
# Poissons Ratio (z) = 0.33393 0.11955
#
# Static dielectric constant tensor:
#      x y z
#    x 1.813960 0.019780 0.021740 
#    y 0.019780 1.790940 -0.028890 
#    z 0.021740 -0.028890 1.787410 
# 
# From -- ./inp_files/343346.got.cif
#   From: 2010.05.17/outbox.cif.g08.bks.cpg/sg2_172_cif.got.tgz:343346.got - 2010.06.03 11:33:40.
