data_PCOD9013298
_publ_section_title
;
Structure prediction by ZEFSAII (Michael W. Deem and Ramdas Pophale) SiO2 
 PCOD9013298
Probable space group: P -1
;
_chemical_formula_sum "Si O2"
_cell_formula_units_Z 14
_cell_length_a 19.004430
_cell_length_b 7.235777
_cell_length_c 8.615834
_cell_angle_alpha 142.763870
_cell_angle_beta 64.345746
_cell_angle_gamma 109.796079
_cell_volume 646.201062
_symmetry_space_group_name_H-M "P -1"
_symmetry_group_IT_number 2
_symmetry_cell_setting 'triclinic'
loop_
_space_group_symop_operation_xyz
x,y,z
-x,-y,-z
loop_
_atom_site_type_symbol
_atom_site_label
_atom_site_fract_x
_atom_site_fract_y
_atom_site_fract_z
Si Si1 0.035588 0.173246 0.436167
Si Si2 0.652544 0.081814 0.054397
Si Si3 0.628333 0.792122 0.554751
Si Si4 0.486105 0.140941 0.774209
Si Si5 0.200018 0.065671 0.583288
Si Si6 0.823881 0.220552 0.930612
Si Si7 0.071863 0.801921 0.729646
O O1 0.077835 0.497316 0.622008
O O2 0.964225 0.252187 0.444088
O O3 0.103315 0.941294 0.164318
O O4 0.000000 0.000000 0.500000
O O5 0.622897 0.430750 0.285114
O O6 0.600368 0.939375 0.141817
O O7 0.744126 0.120128 0.021360
O O8 0.643255 0.863784 0.768833
O O9 0.705987 0.918053 0.479326
O O10 0.549899 0.971867 0.707521
O O11 0.500000 0.000000 0.500000
O O12 0.500000 0.500000 0.000000
O O13 0.182740 0.891790 0.319547
O O14 0.154782 0.938928 0.692588
O O15 0.170689 0.415422 0.827809
O O16 0.000000 0.000000 0.000000
#
# Coordination Sequence:
#
# PCOD9013298 Si02
#       7
#     2   2   2   2   2   2   2
#     4  11  23  41  63  88 127 165 210 259 314 370
#     4  10  21  41  64  89 119 162 213 240 307 375
#     4  10  21  41  65  87 119 167 201 254 299 371
#     4  12  24  38  60  94 128 160 200 257 308 358
#     4  10  22  41  64  90 123 157 212 255 315 368
#     4  10  22  40  66  90 118 166 204 262 308 369
#     4  11  25  39  61  94 122 168 209 260 317 372
#
# _framework density 21.665085000000001
#
# number of rings (size 3 to 8) (size 9 to 14) (size 15 to 20)
#    0.000    1.429    1.429    3.429    4.000    2.286 
#    2.571    0.000    0.000    0.000    0.000    0.000 
#    0.000    0.000    0.000    0.000    0.000    0.000 
#
# Total GULP energy -78169.402858 kJ/mol
# GULP energy per Si atom -5583.528776 kJ/mol
# Density = 2.161577 g / cm^3
# Si number density = 21.665085 Si / 1000 Ang^3
#
#
#
# Elastic Constant Matrix: (Units=GPa)
#
#
# Indices 1 2 3 4 5 6 
#
# 1 34.2061 32.9306 10.4805 1.9006 -9.6441 13.7059
# 2 32.9306 158.8470 42.5338 -13.4211 -7.1376 53.1784
# 3 10.4805 42.5338 109.0684 0.5957 -4.0892 23.1087
# 4 1.9006 -13.4211 0.5957 30.6060 0.4097 -10.7931
# 5 -9.6441 -7.1376 -4.0892 0.4097 33.6461 -4.7254
# 6 13.7059 53.1784 23.1087 -10.7931 -4.7254 36.4192
#
#
#
# Elastic Compliance Matrix: (Units=1/GPa)
#
#
# Indices 1 2 3 4 5 6 
#
# 1 0.041546 -0.006405 0.000577 -0.008301 0.009617 -0.007862
# 2 -0.006405 0.013444 -0.001188 0.000516 -0.001452 -0.016502
# 3 0.000577 -0.001188 0.010932 -0.002979 0.000401 -0.006249
# 4 -0.008301 0.000516 -0.002979 0.039025 -0.000901 0.015708
# 5 0.009617 -0.001452 0.000401 -0.000901 0.032538 0.002202
# 6 -0.007862 -0.016502 -0.006249 0.015708 0.002202 0.063418
#
#
# Mechanical properties :
#
#
# Convention : Reuss Voigt Hill
#
# Bulk Modulus (GPa) = 19.27148 52.66791 35.96970
# Shear Modulus (GPa) = 21.53007 34.54603 28.03805
#
# Velocity S-wave (km/s) = 3.15583 3.99751 3.60134
# Velocity P-wave (km/s) = 4.71100 6.75793 5.82508
#
# Compressibility (1/GPa) = 0.05189015
#
# Stress axis : x y z
#
# Youngs Moduli (GPa) = 24.06943 74.38174 91.47542
#
# Poissons Ratio (x) = 0.47640 -0.05279
# Poissons Ratio (y) = 0.15416 0.10871
# Poissons Ratio (z) = -0.01389 0.08840
#
# Static dielectric constant tensor:
#      x y z
#    x 1.935630 0.020450 0.059560 
#    y 0.020450 1.799310 -0.030320 
#    z 0.059560 -0.030320 1.807770 
# 
# From -- ./inp_files/7563.got.cif
#   From: 2010.05.17/outbox.cif.g08.bks.cpg/sg2_4_cif.got.tgz:7563.got - 2010.06.03 11:33:40.
