data_PCOD9013286
_publ_section_title
;
Structure prediction by ZEFSAII (Michael W. Deem and Ramdas Pophale) SiO2 
 PCOD9013286
Probable space group: P -1
;
_chemical_formula_sum "Si O2"
_cell_formula_units_Z 15
_cell_length_a 13.171463
_cell_length_b 11.390894
_cell_length_c 12.228034
_cell_angle_alpha 42.771836
_cell_angle_beta 65.634795
_cell_angle_gamma 99.305847
_cell_volume 749.424639
_symmetry_space_group_name_H-M "P -1"
_symmetry_group_IT_number 2
_symmetry_cell_setting 'triclinic'
loop_
_space_group_symop_operation_xyz
x,y,z
-x,-y,-z
loop_
_atom_site_type_symbol
_atom_site_label
_atom_site_fract_x
_atom_site_fract_y
_atom_site_fract_z
Si Si1 0.649486 0.386945 0.103876
Si Si2 0.107544 0.068499 0.300007
Si Si3 0.879903 0.506954 0.497877
Si Si4 0.000000 0.000000 0.000000
Si Si5 0.873733 0.978956 0.293686
Si Si6 0.634665 0.398093 0.847145
Si Si7 0.744413 0.164987 0.336354
Si Si8 0.759714 0.148245 0.596385
O O1 0.752279 0.354778 0.139899
O O2 0.451523 0.122781 0.387247
O O3 0.710026 0.635692 0.959932
O O4 0.683467 0.426931 0.932287
O O5 0.125279 0.884958 0.409345
O O6 0.000000 0.000000 0.500000
O O7 0.019259 0.050144 0.248052
O O8 0.733199 0.381528 0.735685
O O9 0.802418 0.344335 0.530633
O O10 0.000000 0.500000 0.500000
O O11 0.967766 0.791238 0.236206
O O12 0.079507 0.967710 0.890094
O O13 0.703256 0.667956 0.600845
O O14 0.850247 0.139143 0.248389
O O15 0.435117 0.136080 0.107231
O O16 0.783336 0.227535 0.404883
#
# Coordination Sequence:
#
# PCOD9013286 Si02
#       8
#     2   2   2   1   2   2   2   2
#     4  10  22  38  59  91 126 157 206 249 306 371
#     4  12  22  36  61  92 121 156 206 254 307 367
#     4  11  25  43  67  92 125 165 210 257 313 368
#     4  10  26  42  60  90 126 158 204 256 306 374
#     4  11  22  40  62  87 124 162 204 255 310 357
#     4  10  21  41  64  87 122 166 206 250 304 371
#     4  10  22  38  61  89 122 164 199 255 307 362
#     4  11  22  40  64  90 121 163 207 250 310 371
#
# _framework density 20.015353999999999
#
# number of rings (size 3 to 8) (size 9 to 14) (size 15 to 20)
#    0.000    1.333    2.667    2.800    3.733    2.667 
#    0.000    0.000    0.000    4.800    0.000    0.000 
#    0.000    0.000    0.000    0.000    0.000    0.000 
#
# Total GULP energy -83605.485362 kJ/mol
# GULP energy per Si atom -5573.699024 kJ/mol
# Density = 1.996980 g / cm^3
# Si number density = 20.015354 Si / 1000 Ang^3
#
#
#
# Elastic Constant Matrix: (Units=GPa)
#
#
# Indices 1 2 3 4 5 6 
#
# 1 86.4381 25.4346 16.7757 14.3420 0.3464 -7.9664
# 2 25.4346 118.7350 26.7350 17.2701 -2.6693 -1.6231
# 3 16.7757 26.7350 70.9222 20.0040 2.9284 6.2240
# 4 14.3420 17.2701 20.0040 43.9323 0.6674 -2.8414
# 5 0.3464 -2.6693 2.9284 0.6674 22.6760 -0.0168
# 6 -7.9664 -1.6231 6.2240 -2.8414 -0.0168 28.8610
#
#
#
# Elastic Compliance Matrix: (Units=1/GPa)
#
#
# Indices 1 2 3 4 5 6 
#
# 1 0.013295 -0.001991 -0.002049 -0.002379 -0.000100 0.003765
# 2 -0.001991 0.009797 -0.002779 -0.001934 0.001600 0.000411
# 3 -0.002049 -0.002779 0.018114 -0.006792 -0.002439 -0.005298
# 4 -0.002379 -0.001934 -0.006792 0.027615 -0.000124 0.003418
# 5 -0.000100 0.001600 -0.002439 -0.000124 0.044608 0.000602
# 6 0.003765 0.000411 -0.005298 0.003418 0.000602 0.037191
#
#
# Mechanical properties :
#
#
# Convention : Reuss Voigt Hill
#
# Bulk Modulus (GPa) = 36.27560 45.99844 41.13702
# Shear Modulus (GPa) = 28.82718 32.90387 30.86552
#
# Velocity S-wave (km/s) = 3.79918 4.05894 3.93121
# Velocity P-wave (km/s) = 6.11623 6.70806 6.41897
#
# Compressibility (1/GPa) = 0.02756674
#
# Stress axis : x y z
#
# Youngs Moduli (GPa) = 75.21729 102.06985 55.20700
#
# Poissons Ratio (x) = 0.20324 0.11314
# Poissons Ratio (y) = 0.14977 0.15342
# Poissons Ratio (z) = 0.15415 0.28364
#
# Static dielectric constant tensor:
#      x y z
#    x 1.686300 0.004140 -0.018070 
#    y 0.004140 1.700010 -0.031610 
#    z -0.018070 -0.031610 1.726790 
# 
# From -- ./inp_files/212943.got.cif
#   From: 2010.05.17/outbox.cif.g08.bks.cpg/sg2_107_cif.got.tgz:212943.got - 2010.06.03 11:33:40.
