data_PCOD9013610
_publ_section_title
;
Structure prediction by ZEFSAII (Michael W. Deem and Ramdas Pophale) SiO2 
 PCOD9013610
Probable space group: P -1
;
_chemical_formula_sum "Si O2"
_cell_formula_units_Z 16
_cell_length_a 14.179301
_cell_length_b 10.361323
_cell_length_c 14.246967
_cell_angle_alpha 70.794926
_cell_angle_beta 144.710063
_cell_angle_gamma 82.399205
_cell_volume 774.792158
_symmetry_space_group_name_H-M "P -1"
_symmetry_group_IT_number 2
_symmetry_cell_setting 'triclinic'
loop_
_space_group_symop_operation_xyz
x,y,z
-x,-y,-z
loop_
_atom_site_type_symbol
_atom_site_label
_atom_site_fract_x
_atom_site_fract_y
_atom_site_fract_z
Si Si1 0.935092 0.438960 0.875208
Si Si2 0.374626 0.822721 0.276821
Si Si3 0.899280 0.002306 0.321059
Si Si4 0.026016 0.330811 0.601435
Si Si5 0.072252 0.057706 0.155273
Si Si6 0.497174 0.465441 0.893136
Si Si7 0.278912 0.186358 0.041954
Si Si8 0.644091 0.178637 0.377263
O O1 0.655206 0.614562 0.571386
O O2 0.108778 0.353088 0.946364
O O3 0.998277 0.250980 0.011458
O O4 0.000000 0.500000 0.000000
O O5 0.182428 0.858914 0.046981
O O6 0.232348 0.890382 0.243211
O O7 0.359974 0.987959 0.191372
O O8 0.848632 0.870703 0.307718
O O9 0.112550 0.911544 0.446461
O O10 0.000000 0.000000 0.500000
O O11 0.675687 0.236037 0.065791
O O12 0.757845 0.440332 0.360684
O O13 0.000000 0.500000 0.500000
O O14 0.139671 0.262100 0.813125
O O15 0.265090 0.938599 0.423715
O O16 0.531674 0.582194 0.832675
O O17 0.500000 0.500000 0.000000
O O18 0.508738 0.141034 0.223525
#
# Coordination Sequence:
#
# PCOD9013610 Si02
#       8
#     2   2   2   2   2   2   2   2
#     4  11  23  41  66  96 133 174 224 271 338 401
#     4  10  21  41  65  90 134 167 219 272 333 393
#     4  11  24  44  70  94 127 178 229 270 333 406
#     4  11  25  44  67  99 137 173 221 282 338 390
#     4  10  22  40  63  96 128 173 214 276 330 395
#     4  11  22  44  66  92 130 173 222 277 333 400
#     4  11  25  42  62  98 135 173 218 281 334 394
#     4  11  23  40  66  93 134 171 224 272 337 396
#
# _framework density 20.650700000000001
#
# number of rings (size 3 to 8) (size 9 to 14) (size 15 to 20)
#    0.000    1.250    2.500    4.125    0.000    7.500 
#    0.000    1.250    0.000    0.000    0.000    0.000 
#    0.000    0.000    0.000    0.000    0.000    0.000 
#
# Total GULP energy -89166.288280 kJ/mol
# GULP energy per Si atom -5572.893017 kJ/mol
# Density = 2.060370 g / cm^3
# Si number density = 20.650700 Si / 1000 Ang^3
#
#
#
# Elastic Constant Matrix: (Units=GPa)
#
#
# Indices 1 2 3 4 5 6 
#
# 1 40.3617 29.4104 23.6917 -4.4933 -14.0310 6.4833
# 2 29.4104 119.5030 47.8288 -3.8761 -6.3943 9.6257
# 3 23.6917 47.8288 142.5770 -1.5869 -20.1607 2.0609
# 4 -4.4933 -3.8761 -1.5869 47.8097 -3.6035 -0.0026
# 5 -14.0310 -6.3943 -20.1607 -3.6035 32.1580 5.8635
# 6 6.4833 9.6257 2.0609 -0.0026 5.8635 33.7657
#
#
#
# Elastic Compliance Matrix: (Units=1/GPa)
#
#
# Indices 1 2 3 4 5 6 
#
# 1 0.038300 -0.007173 -0.001492 0.004196 0.016286 -0.008046
# 2 -0.007173 0.011267 -0.002925 -0.000047 -0.002506 -0.001221
# 3 -0.001492 -0.002925 0.008869 0.000248 0.004389 -0.000183
# 4 0.004196 -0.000047 0.000248 0.021669 0.004701 -0.001622
# 5 0.016286 -0.002506 0.004389 0.004701 0.042827 -0.010117
# 6 -0.008046 -0.001221 -0.000183 -0.001622 -0.010117 0.033277
#
#
# Mechanical properties :
#
#
# Convention : Reuss Voigt Hill
#
# Bulk Modulus (GPa) = 28.36445 56.03372 42.19909
# Shear Modulus (GPa) = 26.15896 36.18074 31.16985
#
# Velocity S-wave (km/s) = 3.56298 4.19027 3.88929
# Velocity P-wave (km/s) = 5.54000 7.11366 6.37557
#
# Compressibility (1/GPa) = 0.03525540
#
# Stress axis : x y z
#
# Youngs Moduli (GPa) = 26.10999 88.75755 112.75500
#
# Poissons Ratio (x) = 0.63666 0.16823
# Poissons Ratio (y) = 0.18729 0.32978
# Poissons Ratio (z) = 0.03896 0.25959
#
# Static dielectric constant tensor:
#      x y z
#    x 1.708520 0.018040 -0.017590 
#    y 0.018040 1.791100 -0.044490 
#    z -0.017590 -0.044490 1.809810 
# 
# From -- ./inp_files/529575.got.cif
#   From: 2010.05.17/outbox.cif.g08.bks.cpg/sg2_265_cif.got.tgz:529575.got - 2010.06.03 11:33:40.
