data_PCOD9013475
_publ_section_title
;
Structure prediction by ZEFSAII (Michael W. Deem and Ramdas Pophale) SiO2 
 PCOD9013475
Probable space group: P -1
;
_chemical_formula_sum "Si O2"
_cell_formula_units_Z 16
_cell_length_a 8.726093
_cell_length_b 13.242604
_cell_length_c 8.275027
_cell_angle_alpha 102.716666
_cell_angle_beta 124.014969
_cell_angle_gamma 63.130996
_cell_volume 706.351165
_symmetry_space_group_name_H-M "P -1"
_symmetry_group_IT_number 2
_symmetry_cell_setting 'triclinic'
loop_
_space_group_symop_operation_xyz
x,y,z
-x,-y,-z
loop_
_atom_site_type_symbol
_atom_site_label
_atom_site_fract_x
_atom_site_fract_y
_atom_site_fract_z
Si Si1 0.265482 0.994393 0.010445
Si Si2 0.938449 0.563917 0.313785
Si Si3 0.662847 0.803896 0.341009
Si Si4 0.283029 0.581116 0.981237
Si Si5 0.371671 0.814983 0.435370
Si Si6 0.081528 0.837170 0.962508
Si Si7 0.805168 0.971858 0.386720
Si Si8 0.697759 0.392160 0.616557
O O1 0.472129 0.903962 0.177756
O O2 0.124108 0.924055 0.903044
O O3 0.269356 0.030532 0.841396
O O4 0.150476 0.104388 0.094052
O O5 0.749155 0.684656 0.260407
O O6 0.866159 0.481791 0.142375
O O7 0.000000 0.500000 0.500000
O O8 0.116053 0.592089 0.351409
O O9 0.584207 0.778183 0.455654
O O10 0.828385 0.857168 0.451000
O O11 0.500000 0.500000 0.000000
O O12 0.174438 0.710966 0.899741
O O13 0.297480 0.603973 0.185832
O O14 0.206971 0.839071 0.201902
O O15 0.345187 0.923553 0.561294
O O16 0.335460 0.720632 0.486439
O O17 0.000000 0.000000 0.500000
O O18 0.500000 0.500000 0.500000
#
# Coordination Sequence:
#
# PCOD9013475 Si02
#       8
#     2   2   2   2   2   2   2   2
#     4  10  21  41  64  97 133 180 213 274 326 404
#     4  12  26  47  68 102 136 178 234 288 347 412
#     4  11  25  44  66  94 138 175 223 280 340 408
#     4  11  23  43  72 100 135 184 227 282 344 405
#     4  10  21  42  64  94 133 174 220 279 332 399
#     4   9  20  40  66  93 136 170 221 263 334 396
#     4  12  23  39  65 100 133 175 225 272 341 400
#     4  11  24  45  70  98 137 179 230 290 343 409
#
# _framework density 22.651623000000001
#
# number of rings (size 3 to 8) (size 9 to 14) (size 15 to 20)
#    0.000    1.250    1.250    5.625    1.750    4.000 
#    4.500    0.000    0.000    0.000    0.000    0.000 
#    0.000    0.000    0.000    0.000    0.000    0.000 
#
# Total GULP energy -89374.672987 kJ/mol
# GULP energy per Si atom -5585.917062 kJ/mol
# Density = 2.260007 g / cm^3
# Si number density = 22.651623 Si / 1000 Ang^3
#
#
#
# Elastic Constant Matrix: (Units=GPa)
#
#
# Indices 1 2 3 4 5 6 
#
# 1 129.1911 48.3571 11.3500 2.0362 -7.5604 6.9924
# 2 48.3571 156.4062 13.2383 20.9473 0.7515 2.4470
# 3 11.3500 13.2383 25.2639 3.6545 1.9769 1.7971
# 4 2.0362 20.9473 3.6545 35.1049 -0.1023 1.2555
# 5 -7.5604 0.7515 1.9769 -0.1023 27.0956 3.4352
# 6 6.9924 2.4470 1.7971 1.2555 3.4352 47.6307
#
#
#
# Elastic Compliance Matrix: (Units=1/GPa)
#
#
# Indices 1 2 3 4 5 6 
#
# 1 0.009291 -0.002809 -0.003064 0.001514 0.003073 -0.001366
# 2 -0.002809 0.008045 -0.002264 -0.004414 -0.000892 0.000265
# 3 -0.003064 -0.002264 0.042919 -0.002926 -0.003846 -0.000699
# 4 0.001514 -0.004414 -0.002926 0.031368 0.000976 -0.000782
# 5 0.003073 -0.000892 -0.003846 0.000976 0.038461 -0.003060
# 6 -0.001366 0.000265 -0.000699 -0.000782 -0.003060 0.021449
#
#
# Mechanical properties :
#
#
# Convention : Reuss Voigt Hill
#
# Bulk Modulus (GPa) = 22.73776 50.75024 36.74400
# Shear Modulus (GPa) = 27.40198 37.82729 32.61464
#
# Velocity S-wave (km/s) = 3.48187 4.09095 3.79863
# Velocity P-wave (km/s) = 5.12097 6.69087 5.95786
#
# Compressibility (1/GPa) = 0.04397971
#
# Stress axis : x y z
#
# Youngs Moduli (GPa) = 107.62923 124.29844 23.29965
#
# Poissons Ratio (x) = 0.34921 0.07140
# Poissons Ratio (y) = 0.30238 0.05275
# Poissons Ratio (z) = 0.32981 0.28142
#
# Static dielectric constant tensor:
#      x y z
#    x -0.178280 -3.064880 -3.516370 
#    y -3.064880 -2.558520 -5.202350 
#    z -3.516370 -5.202350 -4.491850 
# 
# From -- ./inp_files/189550.got.cif
#   From: 2010.05.17/outbox.cif.g08.bks.cpg/sg2_95_cif.got.tgz:189550.got - 2010.06.03 11:33:40.
