data_PCOD9013241
_publ_section_title
;
Structure prediction by ZEFSAII (Michael W. Deem and Ramdas Pophale) SiO2 
 PCOD9013241
Probable space group: P -1
;
_chemical_formula_sum "Si O2"
_cell_formula_units_Z 16
_cell_length_a 7.234943
_cell_length_b 9.838306
_cell_length_c 16.797784
_cell_angle_alpha 39.929162
_cell_angle_beta 81.284542
_cell_angle_gamma 100.229734
_cell_volume 672.323891
_symmetry_space_group_name_H-M "P -1"
_symmetry_group_IT_number 2
_symmetry_cell_setting 'triclinic'
loop_
_space_group_symop_operation_xyz
x,y,z
-x,-y,-z
loop_
_atom_site_type_symbol
_atom_site_label
_atom_site_fract_x
_atom_site_fract_y
_atom_site_fract_z
Si Si1 0.941449 0.565070 0.807801
Si Si2 0.708003 0.151515 0.469526
Si Si3 0.174783 0.966156 0.926819
Si Si4 0.438851 0.322449 0.210624
Si Si5 0.114745 0.925397 0.766869
Si Si6 0.313609 0.023096 0.211417
Si Si7 0.554375 0.300756 0.550386
Si Si8 0.295099 0.185046 0.972531
O O1 0.889163 0.295854 0.919506
O O2 0.722376 0.572107 0.816883
O O3 0.095510 0.729767 0.654945
O O4 0.034172 0.675527 0.838914
O O5 0.694092 0.348643 0.440112
O O6 0.500000 0.000000 0.500000
O O7 0.687059 0.938124 0.624394
O O8 0.956534 0.981837 0.933192
O O9 0.211334 0.956147 0.835109
O O10 0.344587 0.154249 0.891711
O O11 0.647116 0.538595 0.136850
O O12 0.468303 0.253619 0.150444
O O13 0.323172 0.101344 0.626605
O O14 0.919585 0.991029 0.752790
O O15 0.339025 0.801326 0.345466
O O16 0.370353 0.084349 0.087700
O O17 0.500000 0.500000 0.500000
#
# Coordination Sequence:
#
# PCOD9013241 Si02
#       8
#     2   2   2   2   2   2   2   2
#     4  11  22  41  66  97 129 179 228 275 335 397
#     4  11  22  42  66  94 132 174 228 275 329 404
#     4  10  23  39  65  96 136 176 220 281 338 398
#     4  10  22  38  67  98 133 177 222 282 328 403
#     4  10  22  43  66  98 134 172 234 275 334 403
#     4   9  22  42  67  98 136 176 226 279 330 408
#     4  11  25  43  69 100 133 181 221 278 346 402
#     4  10  21  41  63  98 137 177 220 274 345 394
#
# _framework density 23.798055000000002
#
# number of rings (size 3 to 8) (size 9 to 14) (size 15 to 20)
#    0.000    1.750    1.250    1.875    3.500    5.000 
#    2.250    0.000    0.000    0.000    0.000    0.000 
#    0.000    0.000    0.000    0.000    0.000    0.000 
#
# Total GULP energy -89288.814337 kJ/mol
# GULP energy per Si atom -5580.550896 kJ/mol
# Density = 2.374389 g / cm^3
# Si number density = 23.798055 Si / 1000 Ang^3
#
#
#
# Elastic Constant Matrix: (Units=GPa)
#
#
# Indices 1 2 3 4 5 6 
#
# 1 76.6438 50.4301 28.3084 4.8166 7.7654 -12.5520
# 2 50.4301 159.7006 34.4565 20.5419 22.2847 -5.4340
# 3 28.3084 34.4565 60.9628 14.7532 11.0025 -3.5447
# 4 4.8166 20.5419 14.7532 32.1683 -7.1012 0.7092
# 5 7.7654 22.2847 11.0025 -7.1012 37.3439 -4.2665
# 6 -12.5520 -5.4340 -3.5447 0.7092 -4.2665 33.1625
#
#
#
# Elastic Compliance Matrix: (Units=1/GPa)
#
#
# Indices 1 2 3 4 5 6 
#
# 1 0.019737 -0.005393 -0.007313 0.004323 0.002784 0.006071
# 2 -0.005393 0.009664 -0.000399 -0.006455 -0.005883 -0.001119
# 3 -0.007313 -0.000399 0.024089 -0.011356 -0.007612 -0.000995
# 4 0.004323 -0.006455 -0.011356 0.042964 0.014504 0.000312
# 5 0.002784 -0.005883 -0.007612 0.014504 0.035108 0.003483
# 6 0.006071 -0.001119 -0.000995 0.000312 0.003483 0.032604
#
#
# Mechanical properties :
#
#
# Convention : Reuss Voigt Hill
#
# Bulk Modulus (GPa) = 36.65601 58.18860 47.42231
# Shear Modulus (GPa) = 25.06649 32.80908 28.93778
#
# Velocity S-wave (km/s) = 3.24898 3.71704 3.49086
# Velocity P-wave (km/s) = 5.43239 6.55179 6.01817
#
# Compressibility (1/GPa) = 0.02728066
#
# Stress axis : x y z
#
# Youngs Moduli (GPa) = 50.66586 103.47833 41.51293
#
# Poissons Ratio (x) = 0.55804 0.30357
# Poissons Ratio (y) = 0.27323 0.01657
# Poissons Ratio (z) = 0.37050 0.04130
#
# Static dielectric constant tensor:
#      x y z
#    x 1.950890 0.027930 0.054340 
#    y 0.027930 2.006430 0.055710 
#    z 0.054340 0.055710 2.184170 
# 
# From -- ./inp_files/273650.got.cif
#   From: 2010.05.17/outbox.cif.g08.bks.cpg/sg2_137_cif.got.tgz:273650.got - 2010.06.03 11:33:40.
