data_PCOD9013919
_publ_section_title
;
Structure prediction by ZEFSAII (Michael W. Deem and Ramdas Pophale) SiO2 
 PCOD9013919
Probable space group: P -1
;
_chemical_formula_sum "Si O2"
_cell_formula_units_Z 16
_cell_length_a 12.905631
_cell_length_b 14.736965
_cell_length_c 7.932102
_cell_angle_alpha 101.365767
_cell_angle_beta 112.209927
_cell_angle_gamma 30.934267
_cell_volume 691.863074
_symmetry_space_group_name_H-M "P -1"
_symmetry_group_IT_number 2
_symmetry_cell_setting 'triclinic'
loop_
_space_group_symop_operation_xyz
x,y,z
-x,-y,-z
loop_
_atom_site_type_symbol
_atom_site_label
_atom_site_fract_x
_atom_site_fract_y
_atom_site_fract_z
Si Si1 0.180312 0.355471 0.703934
Si Si2 0.649548 0.024651 0.715139
Si Si3 0.203573 0.983708 0.527722
Si Si4 0.095584 0.616826 0.789976
Si Si5 0.873249 0.024961 0.058096
Si Si6 0.244510 0.631953 0.201323
Si Si7 0.708715 0.261335 0.304252
Si Si8 0.977155 0.314487 0.626172
O O1 0.189719 0.448852 0.832384
O O2 0.000000 0.500000 0.500000
O O3 0.087359 0.334531 0.740076
O O4 0.411716 0.166309 0.687674
O O5 0.657954 0.079096 0.568802
O O6 0.828800 0.815434 0.723829
O O7 0.752229 0.022886 0.910535
O O8 0.945997 0.140939 0.389234
O O9 0.170822 0.098105 0.663859
O O10 0.291181 0.826882 0.603125
O O11 0.121643 0.612381 0.600684
O O12 0.187709 0.628585 0.980647
O O13 0.081451 0.833384 0.218739
O O14 0.692257 0.218769 0.103077
O O15 0.000000 0.000000 0.000000
O O16 0.502327 0.472484 0.294678
O O17 0.192765 0.594332 0.300805
#
# Coordination Sequence:
#
# PCOD9013919 Si02
#       8
#     2   2   2   2   2   2   2   2
#     4  10  22  40  65  97 125 169 224 260 325 381
#     4  10  21  41  66  90 131 169 207 276 317 379
#     4  10  22  41  62  94 130 167 219 261 327 386
#     4   9  22  42  63  96 126 164 222 260 321 389
#     4  11  22  44  66  97 130 169 214 264 329 389
#     4  11  24  43  67  96 133 168 215 269 322 384
#     4  11  23  41  63  97 129 169 214 264 325 392
#     4  10  22  43  64  93 130 166 219 267 311 388
#
# _framework density 23.125965000000001
#
# number of rings (size 3 to 8) (size 9 to 14) (size 15 to 20)
#    0.000    1.750    2.500    0.750    3.500    6.000 
#    6.750    2.500    0.000    0.000    0.000    0.000 
#    0.000    0.000    0.000    0.000    0.000    0.000 
#
# Total GULP energy -89295.592423 kJ/mol
# GULP energy per Si atom -5580.974526 kJ/mol
# Density = 2.307333 g / cm^3
# Si number density = 23.125965 Si / 1000 Ang^3
#
#
#
# Elastic Constant Matrix: (Units=GPa)
#
#
# Indices 1 2 3 4 5 6 
#
# 1 101.4266 19.5449 2.7785 -2.3794 -10.7707 -4.0694
# 2 19.5449 78.6698 7.3276 -3.0954 -2.7193 -18.5568
# 3 2.7785 7.3276 40.5600 11.5941 -5.0282 -9.1066
# 4 -2.3794 -3.0954 11.5941 22.8360 -4.1866 6.5820
# 5 -10.7707 -2.7193 -5.0282 -4.1866 23.3260 6.4817
# 6 -4.0694 -18.5568 -9.1066 6.5820 6.4817 44.2801
#
#
#
# Elastic Compliance Matrix: (Units=1/GPa)
#
#
# Indices 1 2 3 4 5 6 
#
# 1 0.010983 -0.002721 -0.000621 0.002506 0.005468 -0.001431
# 2 -0.002721 0.014870 -0.001545 0.000605 -0.001351 0.005772
# 3 -0.000621 -0.001545 0.032499 -0.019167 0.000673 0.008730
# 4 0.002506 0.000605 -0.019167 0.060099 0.011806 -0.014120
# 5 0.005468 -0.001351 0.000673 0.011806 0.050002 -0.008999
# 6 -0.001431 0.005772 0.008730 -0.014120 -0.008999 0.030082
#
#
# Mechanical properties :
#
#
# Convention : Reuss Voigt Hill
#
# Bulk Modulus (GPa) = 20.58492 31.10650 25.84571
# Shear Modulus (GPa) = 22.27177 30.82214 26.54696
#
# Velocity S-wave (km/s) = 3.10669 3.65471 3.39179
# Velocity P-wave (km/s) = 4.66790 5.59368 5.15163
#
# Compressibility (1/GPa) = 0.04857924
#
# Stress axis : x y z
#
# Youngs Moduli (GPa) = 91.05301 67.25081 30.77046
#
# Poissons Ratio (x) = 0.18297 0.01910
# Poissons Ratio (y) = 0.24774 0.04753
# Poissons Ratio (z) = 0.05651 0.10387
#
# Static dielectric constant tensor:
#      x y z
#    x 1.867670 0.073290 -0.004800 
#    y 0.073290 1.683430 0.028010 
#    z -0.004800 0.028010 1.982320 
# 
# From -- ./inp_files/273448.got.cif
#   From: 2010.05.17/outbox.cif.g08.bks.cpg/sg2_137_cif.got.tgz:273448.got - 2010.06.03 11:33:40.
