data_PCOD9013193
_publ_section_title
;
Structure prediction by ZEFSAII (Michael W. Deem and Ramdas Pophale) SiO2 
 PCOD9013193
Probable space group: P -1
;
_chemical_formula_sum "Si O2"
_cell_formula_units_Z 14
_cell_length_a 5.507014
_cell_length_b 5.522321
_cell_length_c 28.952337
_cell_angle_alpha 60.332081
_cell_angle_beta 46.565821
_cell_angle_gamma 60.755123
_cell_volume 540.009713
_symmetry_space_group_name_H-M "P -1"
_symmetry_group_IT_number 2
_symmetry_cell_setting 'triclinic'
loop_
_space_group_symop_operation_xyz
x,y,z
-x,-y,-z
loop_
_atom_site_type_symbol
_atom_site_label
_atom_site_fract_x
_atom_site_fract_y
_atom_site_fract_z
Si Si1 0.116622 0.302082 0.046536
Si Si2 0.628812 0.188958 0.227411
Si Si3 0.897072 0.856691 0.479160
Si Si4 0.865032 0.352543 0.801274
Si Si5 0.435631 0.671306 0.671632
Si Si6 0.852624 0.297940 0.914899
Si Si7 0.077792 0.884087 0.353251
O O1 0.030183 0.491410 0.085222
O O2 0.948396 0.030150 0.089408
O O3 0.528583 0.236732 0.992300
O O4 0.000000 0.500000 0.000000
O O5 0.463430 0.500464 0.199203
O O6 0.624452 0.220340 0.279344
O O7 0.333649 0.011123 0.274588
O O8 0.996468 0.988523 0.185665
O O9 0.000000 0.500000 0.500000
O O10 0.109558 0.927005 0.399935
O O11 0.500000 0.000000 0.500000
O O12 0.000000 0.000000 0.500000
O O13 0.799951 0.424808 0.857600
O O14 0.166007 0.463852 0.724781
O O15 0.808361 0.458321 0.636233
O O16 0.295026 0.932179 0.630751
#
# Coordination Sequence:
#
# PCOD9013193 Si02
#       7
#     2   2   2   2   2   2   2
#     4  10  22  42  61  89 120 171 210 263 333 396
#     4  10  22  41  63  93 128 168 221 264 348 398
#     4  12  28  49  74 113 148 193 250 302 363 429
#     4  10  23  38  60  97 122 165 215 276 326 404
#     4  10  21  41  63  95 125 175 220 272 346 407
#     4  10  23  39  61  92 124 160 220 265 327 397
#     4  10  23  40  67  93 135 177 223 283 339 412
#
# _framework density 25.925457000000002
#
# number of rings (size 3 to 8) (size 9 to 14) (size 15 to 20)
#    0.000    1.714    0.000    2.571    8.000    0.000 
#    0.000    0.000    0.000    0.000    0.000    0.000 
#    0.000    0.000    0.000    0.000    0.000    0.000 
#
# Total GULP energy -78051.434860 kJ/mol
# GULP energy per Si atom -5575.102490 kJ/mol
# Density = 2.586645 g / cm^3
# Si number density = 25.925457 Si / 1000 Ang^3
#
#
#
# Elastic Constant Matrix: (Units=GPa)
#
#
# Indices 1 2 3 4 5 6 
#
# 1 91.7432 86.8537 24.4373 -2.5130 44.6156 -2.1714
# 2 86.8537 229.6520 40.4431 -4.9978 32.3775 -8.0533
# 3 24.4373 40.4431 99.2510 -0.5629 27.3013 0.8255
# 4 -2.5130 -4.9978 -0.5629 25.0636 2.0974 20.6465
# 5 44.6156 32.3775 27.3013 2.0974 69.5301 5.2495
# 6 -2.1714 -8.0533 0.8255 20.6465 5.2495 36.0515
#
#
#
# Elastic Compliance Matrix: (Units=1/GPa)
#
#
# Indices 1 2 3 4 5 6 
#
# 1 0.023504 -0.007222 0.000456 0.001255 -0.011998 0.000820
# 2 -0.007222 0.007145 -0.001664 -0.000485 0.001884 0.001203
# 3 0.000456 -0.001664 0.011786 0.000633 -0.004136 -0.000375
# 4 0.001255 -0.000485 0.000633 0.075699 0.000167 -0.043424
# 5 -0.011998 0.001884 -0.004136 0.000167 0.023099 -0.003666
# 6 0.000820 0.001203 -0.000375 -0.043424 -0.003666 0.053467
#
#
# Mechanical properties :
#
#
# Convention : Reuss Voigt Hill
#
# Bulk Modulus (GPa) = 39.10121 80.45717 59.77919
# Shear Modulus (GPa) = 22.71855 44.05652 33.38753
#
# Velocity S-wave (km/s) = 2.96345 4.12679 3.59253
# Velocity P-wave (km/s) = 5.17922 7.33544 6.34953
#
# Compressibility (1/GPa) = 0.02557466
#
# Stress axis : x y z
#
# Youngs Moduli (GPa) = 42.54621 139.96311 84.84785
#
# Poissons Ratio (x) = 1.01079 -0.03872
# Poissons Ratio (y) = 0.30726 0.14121
# Poissons Ratio (z) = -0.01941 0.23294
#
# Static dielectric constant tensor:
#      x y z
#    x -1.996460 3.438200 -0.880310 
#    y 3.438200 -0.748680 0.688690 
#    z -0.880310 0.688690 1.643390 
# 
# From -- ./inp_files/8876.got.cif
#   From: 2010.05.17/outbox.cif.g08.bks.cpg/sg2_5_cif.got.tgz:8876.got - 2010.06.03 11:33:40.
