data_PCOD9013283
_publ_section_title
;
Structure prediction by ZEFSAII (Michael W. Deem and Ramdas Pophale) SiO2 
 PCOD9013283
Probable space group: P -1
;
_chemical_formula_sum "Si O2"
_cell_formula_units_Z 14
_cell_length_a 12.863377
_cell_length_b 23.284066
_cell_length_c 5.054376
_cell_angle_alpha 77.465252
_cell_angle_beta 74.864228
_cell_angle_gamma 25.695415
_cell_volume 633.010381
_symmetry_space_group_name_H-M "P -1"
_symmetry_group_IT_number 2
_symmetry_cell_setting 'triclinic'
loop_
_space_group_symop_operation_xyz
x,y,z
-x,-y,-z
loop_
_atom_site_type_symbol
_atom_site_label
_atom_site_fract_x
_atom_site_fract_y
_atom_site_fract_z
Si Si1 0.801370 0.572527 0.759109
Si Si2 0.771334 0.697155 0.949625
Si Si3 0.950845 0.213668 0.160734
Si Si4 0.391373 0.005651 0.762291
Si Si5 0.596133 0.550252 0.844435
Si Si6 0.601035 0.065416 0.674680
Si Si7 0.112448 0.634649 0.658700
O O1 0.669991 0.694276 0.838236
O O2 0.637711 0.599931 0.730867
O O3 0.000000 0.500000 0.500000
O O4 0.971591 0.455985 0.974118
O O5 0.876472 0.707335 0.753373
O O6 0.583192 0.797354 0.217419
O O7 0.680986 0.329819 0.144593
O O8 0.951385 0.268140 0.307307
O O9 0.112451 0.079631 0.298601
O O10 0.110262 0.155470 0.861198
O O11 0.411174 0.938372 0.626058
O O12 0.500000 0.000000 0.500000
O O13 0.483752 0.947044 0.057881
O O14 0.764477 0.434273 0.636934
O O15 0.691132 0.483395 0.134893
#
# Coordination Sequence:
#
# PCOD9013283 Si02
#       7
#     2   2   2   2   2   2   2
#     4  10  21  41  64  87 118 156 208 260 299 348
#     4  10  22  39  62  95 116 155 207 258 304 351
#     4  10  25  38  63  88 133 158 197 238 307 368
#     4  10  22  37  57  87 124 163 197 235 294 358
#     4  11  24  40  61  90 122 163 202 247 300 359
#     4  10  24  37  60  90 124 159 198 248 299 361
#     4  11  23  36  64  90 124 159 200 245 301 362
#
# _framework density 22.116544000000001
#
# number of rings (size 3 to 8) (size 9 to 14) (size 15 to 20)
#    0.857    0.857    1.429    2.143    8.000    0.000 
#    0.000    0.714    0.000    1.714    0.000    0.000 
#    0.000    0.000    0.000    0.000    0.000    0.000 
#
# Total GULP energy -78013.029437 kJ/mol
# GULP energy per Si atom -5572.359245 kJ/mol
# Density = 2.206621 g / cm^3
# Si number density = 22.116544 Si / 1000 Ang^3
#
#
#
# Elastic Constant Matrix: (Units=GPa)
#
#
# Indices 1 2 3 4 5 6 
#
# 1 120.7430 44.5492 29.3893 27.1923 11.9281 6.7219
# 2 44.5492 94.6002 -5.0490 18.2792 7.0244 -9.1720
# 3 29.3893 -5.0490 52.2212 5.2086 12.2982 -5.0326
# 4 27.1923 18.2792 5.2086 43.0015 5.8865 6.4982
# 5 11.9281 7.0244 12.2982 5.8865 29.2979 10.6767
# 6 6.7219 -9.1720 -5.0326 6.4982 10.6767 29.2250
#
#
#
# Elastic Compliance Matrix: (Units=1/GPa)
#
#
# Indices 1 2 3 4 5 6 
#
# 1 0.014602 -0.007733 -0.010289 -0.004020 0.003996 -0.008123
# 2 -0.007733 0.017614 0.009978 -0.004569 -0.009234 0.013414
# 3 -0.010289 0.009978 0.032012 -0.001886 -0.017796 0.017931
# 4 -0.004020 -0.004569 -0.001886 0.029037 0.000400 -0.007437
# 5 0.003996 -0.009234 -0.017796 0.000400 0.051506 -0.025787
# 6 -0.008123 0.013414 0.017931 -0.007437 -0.025787 0.054458
#
#
# Mechanical properties :
#
#
# Convention : Reuss Voigt Hill
#
# Bulk Modulus (GPa) = 20.77244 45.03817 32.90530
# Shear Modulus (GPa) = 21.61102 33.54989 27.58045
#
# Velocity S-wave (km/s) = 3.12932 3.89904 3.53519
# Velocity P-wave (km/s) = 4.74020 6.37795 5.61906
#
# Compressibility (1/GPa) = 0.04814072
#
# Stress axis : x y z
#
# Youngs Moduli (GPa) = 68.48188 56.77246 31.23868
#
# Poissons Ratio (x) = 0.43904 0.32140
# Poissons Ratio (y) = 0.52959 -0.31170
# Poissons Ratio (z) = 0.70458 -0.56649
#
# Static dielectric constant tensor:
#      x y z
#    x 1.902650 0.091140 0.004770 
#    y 0.091140 1.943240 -0.076560 
#    z 0.004770 -0.076560 1.842830 
# 
# From -- ./inp_files/83827.got.cif
#   From: 2010.05.17/outbox.cif.g08.bks.cpg/sg2_42_cif.got.tgz:83827.got - 2010.06.03 11:33:40.
