data_PCOD9013965
_publ_section_title
;
Structure prediction by ZEFSAII (Michael W. Deem and Ramdas Pophale) SiO2 
 PCOD9013965
Probable space group: P -1
;
_chemical_formula_sum "Si O2"
_cell_formula_units_Z 16
_cell_length_a 5.379532
_cell_length_b 9.702111
_cell_length_c 19.174625
_cell_angle_alpha 95.506879
_cell_angle_beta 134.896679
_cell_angle_gamma 91.994204
_cell_volume 698.159093
_symmetry_space_group_name_H-M "P -1"
_symmetry_group_IT_number 2
_symmetry_cell_setting 'triclinic'
loop_
_space_group_symop_operation_xyz
x,y,z
-x,-y,-z
loop_
_atom_site_type_symbol
_atom_site_label
_atom_site_fract_x
_atom_site_fract_y
_atom_site_fract_z
Si Si1 0.620400 0.358707 0.045149
Si Si2 0.567133 0.392734 0.448678
Si Si3 0.632819 0.559071 0.339498
Si Si4 0.759253 0.926371 0.095444
Si Si5 0.552397 0.084120 0.443734
Si Si6 0.666697 0.871163 0.355778
Si Si7 0.558800 0.028630 0.211283
Si Si8 0.453081 0.341412 0.177171
O O1 0.545601 0.347825 0.113378
O O2 0.031423 0.344896 0.107860
O O3 0.500000 0.500000 0.000000
O O4 0.373155 0.236487 0.949271
O O5 0.500000 0.500000 0.500000
O O6 0.443273 0.449962 0.353534
O O7 0.403872 0.230819 0.419013
O O8 0.989385 0.401354 0.545331
O O9 0.499690 0.708666 0.308233
O O10 0.644016 0.473492 0.266126
O O11 0.688963 0.981386 0.160741
O O12 0.152050 0.965675 0.144936
O O13 0.500000 0.000000 0.000000
O O14 0.979963 0.127214 0.528052
O O15 0.500000 0.000000 0.500000
O O16 0.441501 0.975116 0.355285
O O17 0.762708 0.952449 0.306883
O O18 0.562638 0.196098 0.221116
#
# Coordination Sequence:
#
# PCOD9013965 Si02
#       8
#     2   2   2   2   2   2   2   2
#     4  12  28  46  72  99 137 178 225 276 348 396
#     4  10  21  41  66  92 132 178 214 269 335 394
#     4  10  24  41  63  95 132 172 221 272 333 393
#     4  12  24  48  72  97 135 177 226 279 336 406
#     4  10  21  41  66  92 135 170 222 270 327 397
#     4  10  24  41  63  98 128 173 221 276 328 390
#     4  12  25  43  73 102 134 176 227 280 335 399
#     4  12  25  46  69 103 137 175 226 279 332 413
#
# _framework density 22.917413
#
# number of rings (size 3 to 8) (size 9 to 14) (size 15 to 20)
#    0.000    1.000    2.500    3.000    7.000    3.000 
#    0.000    0.000    0.000    0.000    0.000    0.000 
#    0.000    0.000    0.000    0.000    0.000    0.000 
#
# Total GULP energy -89360.409580 kJ/mol
# GULP energy per Si atom -5585.025599 kJ/mol
# Density = 2.286525 g / cm^3
# Si number density = 22.917413 Si / 1000 Ang^3
#
#
#
# Elastic Constant Matrix: (Units=GPa)
#
#
# Indices 1 2 3 4 5 6 
#
# 1 121.7610 35.5377 42.1769 -1.2391 -10.7932 -9.7487
# 2 35.5377 255.3038 46.1229 13.4553 -24.9600 -10.4640
# 3 42.1769 46.1229 78.8596 -2.2136 -7.1456 -16.5352
# 4 -1.2391 13.4553 -2.2136 37.7115 -3.2281 -7.9847
# 5 -10.7932 -24.9600 -7.1456 -3.2281 55.1301 2.8512
# 6 -9.7487 -10.4640 -16.5352 -7.9847 2.8512 23.1189
#
#
#
# Elastic Compliance Matrix: (Units=1/GPa)
#
#
# Indices 1 2 3 4 5 6 
#
# 1 0.010212 -0.000404 -0.004994 0.000402 0.001164 0.000547
# 2 -0.000404 0.004664 -0.002570 -0.001844 0.001629 -0.000736
# 3 -0.004994 -0.002570 0.019556 0.004500 0.000022 0.012269
# 4 0.000402 -0.001844 0.004500 0.030262 0.000932 0.012890
# 5 0.001164 0.001629 0.000022 0.000932 0.019203 -0.000802
# 6 0.000547 -0.000736 0.012269 0.012890 -0.000802 0.056478
#
#
# Mechanical properties :
#
#
# Convention : Reuss Voigt Hill
#
# Bulk Modulus (GPa) = 54.06760 78.17772 66.12266
# Shear Modulus (GPa) = 30.77388 45.33123 38.05255
#
# Velocity S-wave (km/s) = 3.66842 4.45232 4.07925
# Velocity P-wave (km/s) = 6.44877 7.78574 7.14858
#
# Compressibility (1/GPa) = 0.01849537
#
# Stress axis : x y z
#
# Youngs Moduli (GPa) = 97.92753 214.41743 51.13614
#
# Poissons Ratio (x) = 0.08668 0.25536
# Poissons Ratio (y) = 0.03959 0.13142
# Poissons Ratio (z) = 0.48902 0.55103
#
# Static dielectric constant tensor:
#      x y z
#    x 1.982800 -0.010530 0.080340 
#    y -0.010530 1.801600 -0.025910 
#    z 0.080340 -0.025910 1.879110 
# 
# From -- ./inp_files/90337.got.cif
#   From: 2010.05.17/outbox.cif.g08.bks.cpg/sg2_46_cif.got.tgz:90337.got - 2010.06.03 11:33:40.
