data_PCOD9013617
_publ_section_title
;
Structure prediction by ZEFSAII (Michael W. Deem and Ramdas Pophale) SiO2 
 PCOD9013617
Probable space group: P -1
;
_chemical_formula_sum "Si O2"
_cell_formula_units_Z 16
_cell_length_a 9.364913
_cell_length_b 8.359068
_cell_length_c 15.022163
_cell_angle_alpha 138.263845
_cell_angle_beta 87.875595
_cell_angle_gamma 70.002287
_cell_volume 650.418006
_symmetry_space_group_name_H-M "P -1"
_symmetry_group_IT_number 2
_symmetry_cell_setting 'triclinic'
loop_
_space_group_symop_operation_xyz
x,y,z
-x,-y,-z
loop_
_atom_site_type_symbol
_atom_site_label
_atom_site_fract_x
_atom_site_fract_y
_atom_site_fract_z
Si Si1 0.121729 0.003391 0.425582
Si Si2 0.498395 0.227295 0.702467
Si Si3 0.381943 0.405036 0.584402
Si Si4 0.006301 0.710898 0.194167
Si Si5 0.475624 0.806871 0.807062
Si Si6 0.783176 0.804912 0.881287
Si Si7 0.721914 0.685476 0.115003
Si Si8 0.028602 0.607377 0.639244
O O1 0.327817 0.785779 0.323672
O O2 0.041197 0.952741 0.320320
O O3 0.098919 0.305731 0.564119
O O4 0.000000 0.000000 0.500000
O O5 0.389488 0.329664 0.657623
O O6 0.383532 0.404687 0.861887
O O7 0.549710 0.902025 0.589725
O O8 0.487616 0.553077 0.643681
O O9 0.190808 0.632186 0.648007
O O10 0.092486 0.453530 0.159672
O O11 0.812484 0.805950 0.223764
O O12 0.116054 0.579832 0.047961
O O13 0.653967 0.730152 0.810672
O O14 0.397973 0.084598 0.861106
O O15 0.337687 0.914655 0.936677
O O16 0.878446 0.827956 0.802170
O O17 0.000000 0.500000 0.500000
#
# Coordination Sequence:
#
# PCOD9013617 Si02
#       8
#     2   2   2   2   2   2   2   2
#     4  11  23  40  65  87 116 169 209 244 311 375
#     4  10  23  41  62  94 124 159 207 262 305 367
#     4  10  23  41  60  92 123 163 204 247 319 369
#     4  10  21  41  65  91 121 170 206 246 310 380
#     4  10  23  40  65  94 119 168 204 250 315 366
#     4  10  21  42  64  87 129 163 204 252 307 376
#     4  10  23  40  64  94 126 156 209 264 301 360
#     4  11  25  40  58  92 127 156 204 261 303 359
#
# _framework density 24.599561999999999
#
# number of rings (size 3 to 8) (size 9 to 14) (size 15 to 20)
#    0.000    1.750    1.250    1.500    8.750    1.500 
#    2.250    0.000    0.000    0.000    0.000    0.000 
#    0.000    0.000    0.000    0.000    0.000    0.000 
#
# Total GULP energy -89324.455295 kJ/mol
# GULP energy per Si atom -5582.778456 kJ/mol
# Density = 2.454357 g / cm^3
# Si number density = 24.599562 Si / 1000 Ang^3
#
#
#
# Elastic Constant Matrix: (Units=GPa)
#
#
# Indices 1 2 3 4 5 6 
#
# 1 129.8510 34.8794 37.9015 -17.6373 -8.2243 -21.7859
# 2 34.8794 49.5330 1.9030 -13.3960 -15.5075 -14.8416
# 3 37.9015 1.9030 59.4424 -16.8591 -13.3333 -2.3503
# 4 -17.6373 -13.3960 -16.8591 33.7442 14.2715 9.5608
# 5 -8.2243 -15.5075 -13.3333 14.2715 47.6253 -2.5011
# 6 -21.7859 -14.8416 -2.3503 9.5608 -2.5011 29.2010
#
#
#
# Elastic Compliance Matrix: (Units=1/GPa)
#
#
# Indices 1 2 3 4 5 6 
#
# 1 0.013016 -0.008413 -0.008724 -0.001346 -0.002269 0.004979
# 2 -0.008413 0.033975 0.008800 0.005847 0.010884 0.010717
# 3 -0.008724 0.008800 0.026193 0.010581 0.005367 -0.002932
# 4 -0.001346 0.005847 0.010581 0.043917 -0.009175 -0.012346
# 5 -0.002269 0.010884 0.005367 -0.009175 0.028914 0.009752
# 6 0.004979 0.010717 -0.002932 -0.012346 0.009752 0.048049
#
#
# Mechanical properties :
#
#
# Convention : Reuss Voigt Hill
#
# Bulk Modulus (GPa) = 17.69599 43.13270 30.41434
# Shear Modulus (GPa) = 21.77956 33.05693 27.41825
#
# Velocity S-wave (km/s) = 2.97873 3.66977 3.34216
# Velocity P-wave (km/s) = 4.36345 5.96056 5.22341
#
# Compressibility (1/GPa) = 0.05650999
#
# Stress axis : x y z
#
# Youngs Moduli (GPa) = 76.82771 29.43365 38.17857
#
# Poissons Ratio (x) = 0.24762 0.33307
# Poissons Ratio (y) = 0.64634 -0.33597
# Poissons Ratio (z) = 0.67024 -0.25902
#
# Static dielectric constant tensor:
#      x y z
#    x 1.970720 0.006760 0.005180 
#    y 0.006760 2.064790 -0.009440 
#    z 0.005180 -0.009440 2.039440 
# 
# From -- ./inp_files/493876.got.cif
#   From: 2010.05.17/outbox.cif.g08.bks.cpg/sg2_247_cif.got.tgz:493876.got - 2010.06.03 11:33:40.
