data_PCOD9013939
_publ_section_title
;
Structure prediction by ZEFSAII (Michael W. Deem and Ramdas Pophale) SiO2 
 PCOD9013939
Probable space group: P -1
;
_chemical_formula_sum "Si O2"
_cell_formula_units_Z 16
_cell_length_a 14.871250
_cell_length_b 14.012426
_cell_length_c 8.869258
_cell_angle_alpha 150.224114
_cell_angle_beta 56.062218
_cell_angle_gamma 127.344778
_cell_volume 727.308422
_symmetry_space_group_name_H-M "P -1"
_symmetry_group_IT_number 2
_symmetry_cell_setting 'triclinic'
loop_
_space_group_symop_operation_xyz
x,y,z
-x,-y,-z
loop_
_atom_site_type_symbol
_atom_site_label
_atom_site_fract_x
_atom_site_fract_y
_atom_site_fract_z
Si Si1 0.387294 0.545709 0.610674
Si Si2 0.018828 0.871754 0.163486
Si Si3 0.571799 0.094777 0.418102
Si Si4 0.105043 0.995510 0.793190
Si Si5 0.055672 0.520606 0.140576
Si Si6 0.245835 0.110328 0.097243
Si Si7 0.520898 0.649100 0.330046
Si Si8 0.693512 0.444505 0.999371
O O1 0.500000 0.500000 0.500000
O O2 0.282778 0.343287 0.423182
O O3 0.421550 0.610587 0.496374
O O4 0.356714 0.664313 0.944014
O O5 0.915181 0.882716 0.166136
O O6 0.020434 0.649120 0.908154
O O7 0.000000 0.000000 0.500000
O O8 0.137180 0.984184 0.121768
O O9 0.483279 0.145095 0.456369
O O10 0.500000 0.000000 0.500000
O O11 0.662228 0.293598 0.679505
O O12 0.644743 0.968041 0.097226
O O13 0.087451 0.758842 0.466111
O O14 0.215205 0.089439 0.919261
O O15 0.000000 0.000000 0.000000
O O16 0.174189 0.472229 0.981481
O O17 0.000000 0.500000 0.000000
O O18 0.631249 0.614643 0.257195
O O19 0.500000 0.500000 0.000000
#
# Coordination Sequence:
#
# PCOD9013939 Si02
#       8
#     2   2   2   2   2   2   2   2
#     4  10  21  41  66  91 128 175 218 275 334 404
#     4  11  24  44  70 101 141 179 233 287 339 411
#     4  11  22  41  66  96 135 166 221 283 330 408
#     4  10  24  44  64 101 136 177 232 280 339 403
#     4  12  24  43  70  98 141 179 228 285 339 408
#     4  11  23  43  65 101 134 175 226 279 343 401
#     4   9  20  39  63  95 126 168 220 269 336 401
#     4  10  22  42  63  95 129 176 222 265 351 398
#
# _framework density 21.998919000000001
#
# number of rings (size 3 to 8) (size 9 to 14) (size 15 to 20)
#    0.000    1.500    2.500    3.000    1.750    6.000 
#    0.000    6.875    0.000    0.000    0.000    0.000 
#    0.000    0.000    0.000    0.000    0.000    0.000 
#
# Total GULP energy -89188.811542 kJ/mol
# GULP energy per Si atom -5574.300721 kJ/mol
# Density = 2.194885 g / cm^3
# Si number density = 21.998919 Si / 1000 Ang^3
#
#
#
# Elastic Constant Matrix: (Units=GPa)
#
#
# Indices 1 2 3 4 5 6 
#
# 1 115.4577 38.6434 18.1631 11.7687 -6.3247 -18.3862
# 2 38.6434 114.9106 4.6139 0.3291 -5.1124 -21.5407
# 3 18.1631 4.6139 65.8296 -0.3880 3.3397 -13.7506
# 4 11.7687 0.3291 -0.3880 36.5745 2.1583 -2.6909
# 5 -6.3247 -5.1124 3.3397 2.1583 38.4763 -2.5195
# 6 -18.3862 -21.5407 -13.7506 -2.6909 -2.5195 39.6690
#
#
#
# Elastic Compliance Matrix: (Units=1/GPa)
#
#
# Indices 1 2 3 4 5 6 
#
# 1 0.010897 -0.003007 -0.002398 -0.003438 0.001955 0.002478
# 2 -0.003007 0.010634 0.001059 0.001180 0.001081 0.004896
# 3 -0.002398 0.001059 0.016978 0.001422 -0.001456 0.005353
# 4 -0.003438 0.001180 0.001422 0.028673 -0.002051 0.001355
# 5 0.001955 0.001081 -0.001456 -0.002051 0.026864 0.002555
# 6 0.002478 0.004896 0.005353 0.001355 0.002555 0.031125
#
#
# Mechanical properties :
#
#
# Convention : Reuss Voigt Hill
#
# Bulk Modulus (GPa) = 33.53668 46.55982 40.04825
# Shear Modulus (GPa) = 34.77017 38.59581 36.68299
#
# Velocity S-wave (km/s) = 3.97991 4.19315 4.08792
# Velocity P-wave (km/s) = 6.03303 6.68236 6.36598
#
# Compressibility (1/GPa) = 0.02981809
#
# Stress axis : x y z
#
# Youngs Moduli (GPa) = 91.76959 94.04083 58.89806
#
# Poissons Ratio (x) = 0.28278 0.14122
# Poissons Ratio (y) = 0.27595 -0.06239
# Poissons Ratio (z) = 0.22004 -0.09961
#
# Static dielectric constant tensor:
#      x y z
#    x 1.944730 0.030240 -0.023500 
#    y 0.030240 1.903310 -0.022090 
#    z -0.023500 -0.022090 1.855480 
# 
# From -- ./inp_files/316187.got.cif
#   From: 2010.05.17/outbox.cif.g08.bks.cpg/sg2_159_cif.got.tgz:316187.got - 2010.06.03 11:33:40.
