data_PCOD9013448
_publ_section_title
;
Structure prediction by ZEFSAII (Michael W. Deem and Ramdas Pophale) SiO2 
 PCOD9013448
Probable space group: P -1
;
_chemical_formula_sum "Si O2"
_cell_formula_units_Z 16
_cell_length_a 7.020610
_cell_length_b 7.424235
_cell_length_c 18.347837
_cell_angle_alpha 114.552663
_cell_angle_beta 130.232736
_cell_angle_gamma 75.489512
_cell_volume 663.860092
_symmetry_space_group_name_H-M "P -1"
_symmetry_group_IT_number 2
_symmetry_cell_setting 'triclinic'
loop_
_space_group_symop_operation_xyz
x,y,z
-x,-y,-z
loop_
_atom_site_type_symbol
_atom_site_label
_atom_site_fract_x
_atom_site_fract_y
_atom_site_fract_z
Si Si1 0.238182 0.864612 0.053686
Si Si2 0.269955 0.899100 0.820759
Si Si3 0.508712 0.405683 0.277854
Si Si4 0.721957 0.477710 0.628397
Si Si5 0.937293 0.089694 0.577248
Si Si6 0.499693 0.813935 0.261006
Si Si7 0.758422 0.914035 0.646285
Si Si8 0.039199 0.648131 0.848517
O O1 0.311501 0.835048 0.150620
O O2 0.483608 0.966438 0.095367
O O3 0.169797 0.657130 0.960179
O O4 0.246355 0.280497 0.197208
O O5 0.299989 0.740475 0.735191
O O6 0.212888 0.780968 0.861123
O O7 0.015082 0.005281 0.759555
O O8 0.524702 0.497579 0.378468
O O9 0.481867 0.591439 0.249655
O O10 0.055313 0.532342 0.256578
O O11 0.749791 0.682315 0.626203
O O12 0.769501 0.284633 0.561619
O O13 0.215858 0.141107 0.684656
O O14 0.000000 0.000000 0.500000
O O15 0.786815 0.952801 0.574435
O O16 0.442551 0.964582 0.338177
O O17 0.000000 0.000000 0.000000
#
# Coordination Sequence:
#
# PCOD9013448 Si02
#       8
#     2   2   2   2   2   2   2   2
#     4  12  21  38  63 101 138 182 234 272 329 406
#     4  11  20  39  67  93 138 187 223 279 328 396
#     4  10  21  41  64  95 140 179 227 281 335 395
#     4   9  21  46  67  98 141 173 223 284 331 411
#     4  12  27  49  73 103 135 173 231 291 349 411
#     4  12  25  42  72  98 140 183 223 287 342 402
#     4  11  22  44  72  99 136 183 226 274 355 400
#     4   9  20  36  60  91 134 177 221 264 327 390
#
# _framework density 24.101462999999999
#
# number of rings (size 3 to 8) (size 9 to 14) (size 15 to 20)
#    0.750    0.500    3.750    4.125    0.000    1.500 
#    0.000    3.125    0.000    0.000    0.000    0.000 
#    0.000    0.000    0.000    0.000    0.000    0.000 
#
# Total GULP energy -89264.733406 kJ/mol
# GULP energy per Si atom -5579.045838 kJ/mol
# Density = 2.404661 g / cm^3
# Si number density = 24.101463 Si / 1000 Ang^3
#
#
#
# Elastic Constant Matrix: (Units=GPa)
#
#
# Indices 1 2 3 4 5 6 
#
# 1 136.8972 38.7319 24.2786 -10.4987 -15.8155 -1.0777
# 2 38.7319 87.9467 21.7342 2.0774 -13.0796 -7.0868
# 3 24.2786 21.7342 117.6734 -3.3105 -20.2736 -11.8222
# 4 -10.4987 2.0774 -3.3105 25.4542 -4.9075 -9.5930
# 5 -15.8155 -13.0796 -20.2736 -4.9075 41.8689 -6.0393
# 6 -1.0777 -7.0868 -11.8222 -9.5930 -6.0393 28.2668
#
#
#
# Elastic Compliance Matrix: (Units=1/GPa)
#
#
# Indices 1 2 3 4 5 6 
#
# 1 0.009117 -0.003448 -0.000399 0.005232 0.003038 0.001741
# 2 -0.003448 0.013856 -0.001060 -0.000935 0.002864 0.003194
# 3 -0.000399 -0.001060 0.010782 0.005364 0.006439 0.007425
# 4 0.005232 -0.000935 0.005364 0.053739 0.013960 0.023429
# 5 0.003038 0.002864 0.006439 0.013960 0.032886 0.015291
# 6 0.001741 0.003194 0.007425 0.023429 0.015291 0.050567
#
#
# Mechanical properties :
#
#
# Convention : Reuss Voigt Hill
#
# Bulk Modulus (GPa) = 41.76689 56.88963 49.32826
# Shear Modulus (GPa) = 26.49121 36.30283 31.39702
#
# Velocity S-wave (km/s) = 3.31894 3.88525 3.61321
# Velocity P-wave (km/s) = 5.66166 6.61683 6.15779
#
# Compressibility (1/GPa) = 0.02394241
#
# Stress axis : x y z
#
# Youngs Moduli (GPa) = 109.68652 72.16899 92.74464
#
# Poissons Ratio (x) = 0.24884 0.03698
# Poissons Ratio (y) = 0.37821 0.09829
# Poissons Ratio (z) = 0.04373 0.07649
#
# Static dielectric constant tensor:
#      x y z
#    x 1.903820 -0.010960 -0.014770 
#    y -0.010960 1.936930 0.043700 
#    z -0.014770 0.043700 2.046480 
# 
# From -- ./inp_files/547409.got.cif
#   From: 2010.05.17/outbox.cif.g08.bks.cpg/sg2_274_cif.got.tgz:547409.got - 2010.06.03 11:33:40.
