data_PCOD9013536
_publ_section_title
;
Structure prediction by ZEFSAII (Michael W. Deem and Ramdas Pophale) SiO2 
 PCOD9013536
Probable space group: P -1
;
_chemical_formula_sum "Si O2"
_cell_formula_units_Z 14
_cell_length_a 5.234956
_cell_length_b 24.930607
_cell_length_c 27.129582
_cell_angle_alpha 10.077426
_cell_angle_beta 118.770747
_cell_angle_gamma 119.682249
_cell_volume 537.799242
_symmetry_space_group_name_H-M "P -1"
_symmetry_group_IT_number 2
_symmetry_cell_setting 'triclinic'
loop_
_space_group_symop_operation_xyz
x,y,z
-x,-y,-z
loop_
_atom_site_type_symbol
_atom_site_label
_atom_site_fract_x
_atom_site_fract_y
_atom_site_fract_z
Si Si1 0.005241 0.549975 0.640993
Si Si2 0.458414 0.827893 0.938080
Si Si3 0.185187 0.933616 0.006207
Si Si4 0.159167 0.649996 0.460129
Si Si5 0.907183 0.693663 0.667925
Si Si6 0.746763 0.649277 0.924689
Si Si7 0.623145 0.979363 0.703048
O O1 0.034510 0.736026 0.424013
O O2 0.056940 0.810401 0.451586
O O3 0.296264 0.372108 0.836057
O O4 0.769767 0.261955 0.863457
O O5 0.518372 0.147495 0.686724
O O6 0.510898 0.904237 0.815898
O O7 0.157256 0.586768 0.124939
O O8 0.058012 0.284363 0.786389
O O9 0.032886 0.224377 0.713406
O O10 0.500000 0.000000 0.000000
O O11 0.593874 0.817337 0.528053
O O12 0.124480 0.002833 0.394117
O O13 0.004179 0.563080 0.847155
O O14 0.622924 0.684020 0.936606
O O15 0.500000 0.500000 0.000000
#
# Coordination Sequence:
#
# PCOD9013536 Si02
#       7
#     2   2   2   2   2   2   2
#     4   7  16  27  50  75 105 150 190 227 296 325
#     4   9  16  37  57  82 106 154 192 242 289 340
#     4   9  14  22  38  70 115 149 184 232 281 338
#     4   8  15  24  42  70 104 149 188 229 282 332
#     4  11  24  43  64  88 116 155 199 237 303 361
#     4  12  28  43  61  92 120 151 198 242 296 368
#     4  10  21  41  65  82 122 155 192 255 295 334
#
# _framework density 26.032017
#
# number of rings (size 3 to 8) (size 9 to 14) (size 15 to 20)
#    0.857    1.714    1.429    0.857    4.000    1.143 
#    0.000    0.000    0.000    0.000    0.000    0.000 
#    0.000   29.714    0.000    0.143    0.000    0.000 
#
# Total GULP energy -78003.076140 kJ/mol
# GULP energy per Si atom -5571.648296 kJ/mol
# Density = 2.597277 g / cm^3
# Si number density = 26.032017 Si / 1000 Ang^3
#
#
#
# Elastic Constant Matrix: (Units=GPa)
#
#
# Indices 1 2 3 4 5 6 
#
# 1 66.7106 46.3048 32.5617 -4.3429 -16.6097 11.8568
# 2 46.3048 224.5269 72.8543 -4.5651 -13.1882 43.5134
# 3 32.5617 72.8543 138.6263 11.4135 -32.8877 7.6206
# 4 -4.3429 -4.5651 11.4135 55.4372 -4.2589 -7.6212
# 5 -16.6097 -13.1882 -32.8877 -4.2589 36.0124 -7.3360
# 6 11.8568 43.5134 7.6206 -7.6212 -7.3360 36.0427
#
#
#
# Elastic Compliance Matrix: (Units=1/GPa)
#
#
# Indices 1 2 3 4 5 6 
#
# 1 0.019767 -0.002956 -0.001645 0.002040 0.006608 -0.000809
# 2 -0.002956 0.007657 -0.003727 -0.000256 -0.003681 -0.008287
# 3 -0.001645 -0.003727 0.011632 -0.001562 0.009153 0.004113
# 4 0.002040 -0.000256 -0.001562 0.019333 0.002643 0.004594
# 5 0.006608 -0.003681 0.009153 0.002643 0.039979 0.009031
# 6 -0.000809 -0.008287 0.004113 0.004594 0.009031 0.039956
#
#
# Mechanical properties :
#
#
# Convention : Reuss Voigt Hill
#
# Bulk Modulus (GPa) = 44.64067 81.47838 63.05953
# Shear Modulus (GPa) = 30.77895 44.04132 37.41013
#
# Velocity S-wave (km/s) = 3.44226 4.11763 3.79500
# Velocity P-wave (km/s) = 5.74321 7.34668 6.59387
#
# Compressibility (1/GPa) = 0.02240110
#
# Stress axis : x y z
#
# Youngs Moduli (GPa) = 50.58888 130.59292 85.96669
#
# Poissons Ratio (x) = 0.38608 0.14142
# Poissons Ratio (y) = 0.14956 0.32036
# Poissons Ratio (z) = 0.08322 0.48666
#
# Static dielectric constant tensor:
#      x y z
#    x 2.200090 0.025740 0.049000 
#    y 0.025740 2.034450 -0.069730 
#    z 0.049000 -0.069730 2.229730 
# 
# From -- ./inp_files/622064.got.cif
#   From: 2010.05.17/outbox.cif.g08.bks.cpg/sg2_312_cif.got.tgz:622064.got - 2010.06.03 11:33:40.
