data_PCOD9013033
_publ_section_title
;
Structure prediction by ZEFSAII (Michael W. Deem and Ramdas Pophale) SiO2 
 PCOD9013033
Probable space group: P -1
;
_chemical_formula_sum "Si O2"
_cell_formula_units_Z 14
_cell_length_a 19.929705
_cell_length_b 17.258420
_cell_length_c 8.318570
_cell_angle_alpha 40.785666
_cell_angle_beta 42.025701
_cell_angle_gamma 20.508704
_cell_volume 647.688150
_symmetry_space_group_name_H-M "P -1"
_symmetry_group_IT_number 2
_symmetry_cell_setting 'triclinic'
loop_
_space_group_symop_operation_xyz
x,y,z
-x,-y,-z
loop_
_atom_site_type_symbol
_atom_site_label
_atom_site_fract_x
_atom_site_fract_y
_atom_site_fract_z
Si Si1 0.214830 0.200190 0.422790
Si Si2 0.641702 0.250545 0.694827
Si Si3 0.529372 0.738463 0.764252
Si Si4 0.059271 0.796660 0.598030
Si Si5 0.757595 0.985816 0.630162
Si Si6 0.439494 0.446968 0.286104
Si Si7 0.134061 0.539754 0.154906
O O1 0.166262 0.386619 0.237758
O O2 0.042319 0.302183 0.655911
O O3 0.399173 0.976441 0.553705
O O4 0.241144 0.131702 0.298660
O O5 0.500000 0.500000 0.500000
O O6 0.635804 0.134982 0.776088
O O7 0.595610 0.241392 0.963546
O O8 0.862138 0.070336 0.554303
O O9 0.625932 0.584109 0.678012
O O10 0.683064 0.620284 0.807887
O O11 0.261610 0.643649 0.416064
O O12 0.095464 0.681907 0.872168
O O13 0.970525 0.804627 0.597904
O O14 0.640929 0.197092 0.395804
O O15 0.500000 0.500000 0.000000
#
# Coordination Sequence:
#
# PCOD9013033 Si02
#       7
#     2   2   2   2   2   2   2
#     4  10  21  41  63 100 124 172 209 268 314 381
#     4  10  21  43  64  91 131 168 213 262 319 377
#     4  11  22  41  63  95 132 167 212 266 313 384
#     4  10  23  42  64  95 131 168 216 263 318 381
#     4   9  21  40  63  91 134 158 218 261 311 382
#     4  11  23  42  66  92 129 170 215 264 321 377
#     4  11  22  39  69  91 132 167 214 259 329 369
#
# _framework density 21.615338999999999
#
# number of rings (size 3 to 8) (size 9 to 14) (size 15 to 20)
#    0.857    0.857    1.429    3.000    0.000    1.143 
#    5.143   10.000    0.000    0.000    0.000    0.000 
#    0.000    0.000    0.000    0.000    0.000    0.000 
#
# Total GULP energy -78018.276058 kJ/mol
# GULP energy per Si atom -5572.734004 kJ/mol
# Density = 2.156614 g / cm^3
# Si number density = 21.615339 Si / 1000 Ang^3
#
#
#
# Elastic Constant Matrix: (Units=GPa)
#
#
# Indices 1 2 3 4 5 6 
#
# 1 95.6113 29.6078 1.4633 7.8147 18.2039 -5.4147
# 2 29.6078 101.8346 30.3208 5.6794 -0.1914 10.4266
# 3 1.4633 30.3208 58.4744 7.9794 1.4161 6.7004
# 4 7.8147 5.6794 7.9794 15.0107 -0.0486 1.3954
# 5 18.2039 -0.1914 1.4161 -0.0486 18.6995 5.6648
# 6 -5.4147 10.4266 6.7004 1.3954 5.6648 44.0017
#
#
#
# Elastic Compliance Matrix: (Units=1/GPa)
#
#
# Indices 1 2 3 4 5 6 
#
# 1 0.016893 -0.006151 0.003809 -0.009075 -0.018525 0.005629
# 2 -0.006151 0.014051 -0.007140 0.002087 0.007915 -0.004084
# 3 0.003809 -0.007140 0.022389 -0.011182 -0.005447 -0.000193
# 4 -0.009075 0.002087 -0.011182 0.076885 0.011044 -0.003769
# 5 -0.018525 0.007915 -0.005447 0.011044 0.076116 -0.013475
# 6 0.005629 -0.004084 -0.000193 -0.003769 -0.013475 0.026271
#
#
# Mechanical properties :
#
#
# Convention : Reuss Voigt Hill
#
# Bulk Modulus (GPa) = 29.09701 42.07824 35.58762
# Shear Modulus (GPa) = 19.00967 28.51096 23.76031
#
# Velocity S-wave (km/s) = 2.96877 3.63576 3.31907
# Velocity P-wave (km/s) = 5.02414 6.09378 5.58463
#
# Compressibility (1/GPa) = 0.03436780
#
# Stress axis : x y z
#
# Youngs Moduli (GPa) = 59.19595 71.17079 44.66565
#
# Poissons Ratio (x) = 0.43774 -0.17011
# Poissons Ratio (y) = 0.36409 0.31892
# Poissons Ratio (z) = -0.22545 0.50818
#
# Static dielectric constant tensor:
#      x y z
#    x 1.967540 0.027770 -0.024120 
#    y 0.027770 1.792040 0.014740 
#    z -0.024120 0.014740 1.744160 
# 
# From -- ./inp_files/348216.got.cif
#   From: 2010.05.17/outbox.cif.g08.bks.cpg/sg2_175_cif.got.tgz:348216.got - 2010.06.03 11:33:40.
