data_PCOD9013151
_publ_section_title
;
Structure prediction by ZEFSAII (Michael W. Deem and Ramdas Pophale) SiO2 
 PCOD9013151
Probable space group: P -1
;
_chemical_formula_sum "Si O2"
_cell_formula_units_Z 16
_cell_length_a 14.369921
_cell_length_b 9.638182
_cell_length_c 9.008701
_cell_angle_alpha 73.152698
_cell_angle_beta 138.265032
_cell_angle_gamma 119.170325
_cell_volume 719.355883
_symmetry_space_group_name_H-M "P -1"
_symmetry_group_IT_number 2
_symmetry_cell_setting 'triclinic'
loop_
_space_group_symop_operation_xyz
x,y,z
-x,-y,-z
loop_
_atom_site_type_symbol
_atom_site_label
_atom_site_fract_x
_atom_site_fract_y
_atom_site_fract_z
Si Si1 0.663614 0.249335 0.105710
Si Si2 0.283146 0.623188 0.210001
Si Si3 0.323441 0.052983 0.683370
Si Si4 0.126244 0.429716 0.644604
Si Si5 0.064157 0.154877 0.424301
Si Si6 0.132957 0.275692 0.014139
Si Si7 0.153120 0.841785 0.097250
Si Si8 0.383090 0.135775 0.394777
O O1 0.719063 0.405924 0.224611
O O2 0.740108 0.129291 0.278073
O O3 0.703004 0.307513 0.963844
O O4 0.480224 0.150635 0.930185
O O5 0.209893 0.433513 0.160620
O O6 0.172026 0.678987 0.151900
O O7 0.452599 0.710649 0.459262
O O8 0.213866 0.143260 0.537210
O O9 0.370144 0.060371 0.565632
O O10 0.100893 0.316543 0.509045
O O11 0.000000 0.500000 0.500000
O O12 0.130082 0.330636 0.825510
O O13 0.000000 0.000000 0.500000
O O14 0.938374 0.134511 0.157411
O O15 0.245473 0.189761 0.189561
O O16 0.957927 0.172738 0.891479
O O17 0.326511 0.983092 0.265940
#
# Coordination Sequence:
#
# PCOD9013151 Si02
#       8
#     2   2   2   2   2   2   2   2
#     4   9  21  41  65  87 130 166 212 254 316 382
#     4  10  22  42  63  92 127 168 207 260 319 372
#     4  10  21  41  63  93 123 170 208 262 314 372
#     4  11  24  41  66  92 126 169 207 259 323 374
#     4  12  24  39  66  92 129 163 215 261 313 374
#     4  11  23  42  65  93 128 162 212 261 318 375
#     4  12  24  40  64  98 125 164 216 261 307 380
#     4  11  23  40  65  92 128 167 208 260 321 374
#
# _framework density 22.242121000000001
#
# number of rings (size 3 to 8) (size 9 to 14) (size 15 to 20)
#    0.000    1.250    1.250    5.250    3.500    0.500 
#    0.000    1.250    0.000    0.000    0.000    0.000 
#    0.000    0.000    0.000    0.000    0.000    0.000 
#
# Total GULP energy -89478.155437 kJ/mol
# GULP energy per Si atom -5592.384715 kJ/mol
# Density = 2.219150 g / cm^3
# Si number density = 22.242121 Si / 1000 Ang^3
#
#
#
# Elastic Constant Matrix: (Units=GPa)
#
#
# Indices 1 2 3 4 5 6 
#
# 1 27.8190 1.4320 8.4542 5.8622 8.1340 -4.9292
# 2 1.4320 98.9948 37.1406 15.9580 -3.8761 -5.1563
# 3 8.4542 37.1406 96.4172 22.0060 1.7000 1.0490
# 4 5.8622 15.9580 22.0060 39.5591 1.1151 -0.8303
# 5 8.1340 -3.8761 1.7000 1.1151 25.0559 2.0639
# 6 -4.9292 -5.1563 1.0490 -0.8303 2.0639 32.3701
#
#
#
# Elastic Compliance Matrix: (Units=1/GPa)
#
#
# Indices 1 2 3 4 5 6 
#
# 1 0.043247 0.001088 -0.002990 -0.004627 -0.014091 0.007635
# 2 0.001088 0.012308 -0.004260 -0.002763 0.001792 0.002079
# 3 -0.002990 -0.004260 0.013528 -0.005393 -0.000227 -0.001696
# 4 -0.004627 -0.002763 -0.005393 0.030071 0.000119 -0.000206
# 5 -0.014091 0.001792 -0.000227 0.000119 0.045162 -0.004729
# 6 0.007635 0.002079 -0.001696 -0.000206 -0.004729 0.032738
#
#
# Mechanical properties :
#
#
# Convention : Reuss Voigt Hill
#
# Bulk Modulus (GPa) = 17.61812 35.25384 26.43598
# Shear Modulus (GPa) = 24.00406 31.14398 27.57402
#
# Velocity S-wave (km/s) = 3.28871 3.74602 3.52479
# Velocity P-wave (km/s) = 4.72854 5.88172 5.33637
#
# Compressibility (1/GPa) = 0.05675975
#
# Stress axis : x y z
#
# Youngs Moduli (GPa) = 23.12284 81.24823 73.92018
#
# Poissons Ratio (x) = -0.08839 0.22100
# Poissons Ratio (y) = -0.02516 0.31490
# Poissons Ratio (z) = 0.06913 0.34612
#
# Static dielectric constant tensor:
#      x y z
#    x 1.839050 -0.007780 0.014500 
#    y -0.007780 1.812550 0.039410 
#    z 0.014500 0.039410 1.835750 
# 
# From -- ./inp_files/206503.got.cif
#   From: 2010.05.17/outbox.cif.g08.bks.cpg/sg2_104_cif.got.tgz:206503.got - 2010.06.03 11:33:40.
