data_PCOD9013455
_publ_section_title
;
Structure prediction by ZEFSAII (Michael W. Deem and Ramdas Pophale) SiO2 
 PCOD9013455
Probable space group: P -1
;
_chemical_formula_sum "Si O2"
_cell_formula_units_Z 16
_cell_length_a 12.336269
_cell_length_b 12.039998
_cell_length_c 11.695137
_cell_angle_alpha 41.983006
_cell_angle_beta 97.547544
_cell_angle_gamma 65.899719
_cell_volume 744.536542
_symmetry_space_group_name_H-M "P -1"
_symmetry_group_IT_number 2
_symmetry_cell_setting 'triclinic'
loop_
_space_group_symop_operation_xyz
x,y,z
-x,-y,-z
loop_
_atom_site_type_symbol
_atom_site_label
_atom_site_fract_x
_atom_site_fract_y
_atom_site_fract_z
Si Si1 0.517419 0.919035 0.858175
Si Si2 0.864378 0.957535 0.409585
Si Si3 0.593227 0.760367 0.616221
Si Si4 0.579394 0.347840 0.417983
Si Si5 0.243614 0.638416 0.750392
Si Si6 0.215028 0.121960 0.024555
Si Si7 0.280274 0.943185 0.931237
Si Si8 0.917019 0.551680 0.828575
O O1 0.611471 0.668226 0.988157
O O2 0.666384 0.852486 0.987613
O O3 0.389401 0.976220 0.880778
O O4 0.422010 0.153577 0.581189
O O5 0.823012 0.827193 0.560602
O O6 0.061226 0.765260 0.611415
O O7 0.764232 0.223187 0.252658
O O8 0.824598 0.991870 0.243819
O O9 0.498666 0.696100 0.647398
O O10 0.790373 0.545304 0.836335
O O11 0.500000 0.000000 0.500000
O O12 0.709579 0.311016 0.394744
O O13 0.675210 0.141270 0.689879
O O14 0.421590 0.641466 0.211146
O O15 0.055669 0.347941 0.908719
O O16 0.174149 0.107356 0.903328
O O17 0.000000 0.500000 0.000000
#
# Coordination Sequence:
#
# PCOD9013455 Si02
#       8
#     2   2   2   2   2   2   2   2
#     4  10  21  41  64  96 125 175 216 269 313 383
#     4  11  23  40  64 100 130 168 215 267 335 376
#     4  11  23  39  66  97 128 166 219 267 321 381
#     4  10  24  42  64  94 127 175 216 266 322 376
#     4  10  22  41  65  93 133 166 213 274 324 380
#     4  11  23  44  65  95 130 175 218 262 326 388
#     4  11  24  41  66  94 135 172 219 263 322 393
#     4  12  24  43  67  96 132 168 215 273 326 382
#
# _framework density 21.489878000000001
#
# number of rings (size 3 to 8) (size 9 to 14) (size 15 to 20)
#    0.000    1.250    2.500    3.750    1.750    3.500 
#    0.000    3.750    0.000    0.000    0.000    0.000 
#    0.000    0.000    0.000    0.000    0.000    0.000 
#
# Total GULP energy -89499.114001 kJ/mol
# GULP energy per Si atom -5593.694625 kJ/mol
# Density = 2.144097 g / cm^3
# Si number density = 21.489878 Si / 1000 Ang^3
#
#
#
# Elastic Constant Matrix: (Units=GPa)
#
#
# Indices 1 2 3 4 5 6 
#
# 1 60.8446 -2.7669 -8.4710 1.2158 1.7477 -3.5825
# 2 -2.7669 132.5758 15.1986 12.6183 8.0623 -7.7434
# 3 -8.4710 15.1986 53.5126 9.7601 -7.7121 -0.4286
# 4 1.2158 12.6183 9.7601 19.1201 6.5542 7.1798
# 5 1.7477 8.0623 -7.7121 6.5542 28.1595 -5.0083
# 6 -3.5825 -7.7434 -0.4286 7.1798 -5.0083 20.7763
#
#
#
# Elastic Compliance Matrix: (Units=1/GPa)
#
#
# Indices 1 2 3 4 5 6 
#
# 1 0.017523 0.000776 0.004314 -0.007219 0.002717 0.006549
# 2 0.000776 0.008738 -0.000914 -0.007624 0.000045 0.006017
# 3 0.004314 -0.000914 0.025904 -0.022429 0.014475 0.012178
# 4 -0.007219 -0.007624 -0.022429 0.098917 -0.034921 -0.047151
# 5 0.002717 0.000045 0.014475 -0.034921 0.051935 0.025371
# 6 0.006549 0.006017 0.012178 -0.047151 0.025371 0.074165
#
#
# Mechanical properties :
#
#
# Convention : Reuss Voigt Hill
#
# Bulk Modulus (GPa) = 16.52418 28.31714 22.42066
# Shear Modulus (GPa) = 17.30085 29.80934 23.55509
#
# Velocity S-wave (km/s) = 2.84045 3.72847 3.31433
# Velocity P-wave (km/s) = 4.29692 5.63390 5.01021
#
# Compressibility (1/GPa) = 0.06051737
#
# Stress axis : x y z
#
# Youngs Moduli (GPa) = 57.06770 114.43975 38.60396
#
# Poissons Ratio (x) = -0.08875 -0.16655
# Poissons Ratio (y) = -0.04426 0.03528
# Poissons Ratio (z) = -0.24621 0.10458
#
# Static dielectric constant tensor:
#      x y z
#    x 1.770800 0.017010 -0.007720 
#    y 0.017010 1.761010 0.002720 
#    z -0.007720 0.002720 1.795890 
# 
# From -- ./inp_files/215531.got.cif
#   From: 2010.05.17/outbox.cif.g08.bks.cpg/sg2_108_cif.got.tgz:215531.got - 2010.06.03 11:33:40.
