data_PCOD9013225
_publ_section_title
;
Structure prediction by ZEFSAII (Michael W. Deem and Ramdas Pophale) SiO2 
 PCOD9013225
Probable space group: P -1
;
_chemical_formula_sum "Si O2"
_cell_formula_units_Z 14
_cell_length_a 8.401018
_cell_length_b 17.428157
_cell_length_c 15.091402
_cell_angle_alpha 26.475793
_cell_angle_beta 137.094519
_cell_angle_gamma 146.933963
_cell_volume 536.045227
_symmetry_space_group_name_H-M "P -1"
_symmetry_group_IT_number 2
_symmetry_cell_setting 'triclinic'
loop_
_space_group_symop_operation_xyz
x,y,z
-x,-y,-z
loop_
_atom_site_type_symbol
_atom_site_label
_atom_site_fract_x
_atom_site_fract_y
_atom_site_fract_z
Si Si1 0.662054 0.290151 0.990831
Si Si2 0.241344 0.630791 0.787836
Si Si3 0.826141 0.004260 0.568480
Si Si4 0.074300 0.467838 0.688853
Si Si5 0.375970 0.108630 0.602362
Si Si6 0.702652 0.629888 0.368917
Si Si7 0.112654 0.096351 0.046474
O O1 0.513339 0.369814 0.787423
O O2 0.465281 0.237785 0.052905
O O3 0.012220 0.449098 0.955182
O O4 0.552756 0.050630 0.169919
O O5 0.594632 0.777771 0.759567
O O6 0.112407 0.509432 0.766691
O O7 0.195520 0.814287 0.590805
O O8 0.749550 0.983290 0.453308
O O9 0.154353 0.082624 0.611737
O O10 0.371028 0.649473 0.571478
O O11 0.010163 0.240897 0.878793
O O12 0.853200 0.519534 0.514947
O O13 0.500000 0.500000 0.500000
O O14 0.952529 0.868217 0.263120
O O15 0.000000 0.000000 0.000000
#
# Coordination Sequence:
#
# PCOD9013225 Si02
#       7
#     2   2   2   2   2   2   2
#     4  11  22  40  64 101 130 169 226 262 328 393
#     4  10  21  41  63  97 127 173 218 271 328 389
#     4   9  21  42  67  92 130 175 222 273 337 380
#     4  11  22  44  69  92 140 177 214 267 333 388
#     4  10  21  41  70  96 128 178 218 275 329 390
#     4  11  23  45  65  98 136 172 215 272 324 397
#     4  10  24  43  63  98 130 174 225 261 318 393
#
# _framework density 26.117198999999999
#
# number of rings (size 3 to 8) (size 9 to 14) (size 15 to 20)
#    0.000    1.714    2.857    0.857    0.000    4.000 
#    7.714    0.000    0.000    0.000    0.000    0.000 
#    0.000    0.000    0.000    0.000    0.000    0.000 
#
# Total GULP energy -78214.775328 kJ/mol
# GULP energy per Si atom -5586.769666 kJ/mol
# Density = 2.605776 g / cm^3
# Si number density = 26.117199 Si / 1000 Ang^3
#
#
#
# Elastic Constant Matrix: (Units=GPa)
#
#
# Indices 1 2 3 4 5 6 
#
# 1 173.9194 50.5588 80.2320 -20.9050 -1.5604 27.1089
# 2 50.5588 51.4246 4.8040 -22.4886 -1.3250 12.8868
# 3 80.2320 4.8040 88.5061 -19.8120 6.5314 1.6652
# 4 -20.9050 -22.4886 -19.8120 36.6912 9.7596 3.7179
# 5 -1.5604 -1.3250 6.5314 9.7596 66.4897 -15.2966
# 6 27.1089 12.8868 1.6652 3.7179 -15.2966 49.4400
#
#
#
# Elastic Compliance Matrix: (Units=1/GPa)
#
#
# Indices 1 2 3 4 5 6 
#
# 1 0.022357 -0.026616 -0.022875 -0.016862 0.004265 -0.001963
# 2 -0.026616 0.065206 0.032007 0.046266 -0.011694 -0.010578
# 3 -0.022875 0.032007 0.037483 0.029214 -0.008289 -0.001824
# 4 -0.016862 0.046266 0.029214 0.067238 -0.015342 -0.013601
# 5 0.004265 -0.011694 -0.008289 -0.015342 0.019881 0.008294
# 6 -0.001963 -0.010578 -0.001824 -0.013601 0.008294 0.027710
#
#
# Mechanical properties :
#
#
# Convention : Reuss Voigt Hill
#
# Bulk Modulus (GPa) = 11.10137 65.00438 38.05288
# Shear Modulus (GPa) = 16.40049 42.40788 29.40419
#
# Velocity S-wave (km/s) = 2.50863 4.03395 3.35902
# Velocity P-wave (km/s) = 3.55679 6.82939 5.44478
#
# Compressibility (1/GPa) = 0.09007898
#
# Stress axis : x y z
#
# Youngs Moduli (GPa) = 44.72872 15.33600 26.67877
#
# Poissons Ratio (x) = 0.40818 0.61027
# Poissons Ratio (y) = 1.19050 -0.85391
# Poissons Ratio (z) = 1.02315 -0.49086
#
# Static dielectric constant tensor:
#      x y z
#    x 2.142940 -0.048990 -0.123450 
#    y -0.048990 2.209050 0.038550 
#    z -0.123450 0.038550 2.017180 
# 
# From -- ./inp_files/591465.got.cif
#   From: 2010.05.17/outbox.cif.g08.bks.cpg/sg2_296_cif.got.tgz:591465.got - 2010.06.03 11:33:40.
