data_PCOD9013043
_publ_section_title
;
Structure prediction by ZEFSAII (Michael W. Deem and Ramdas Pophale) SiO2 
 PCOD9013043
Probable space group: P -1
;
_chemical_formula_sum "Si O2"
_cell_formula_units_Z 16
_cell_length_a 5.531238
_cell_length_b 10.523507
_cell_length_c 11.989297
_cell_angle_alpha 81.164474
_cell_angle_beta 67.938694
_cell_angle_gamma 83.990263
_cell_volume 638.259183
_symmetry_space_group_name_H-M "P -1"
_symmetry_group_IT_number 2
_symmetry_cell_setting 'triclinic'
loop_
_space_group_symop_operation_xyz
x,y,z
-x,-y,-z
loop_
_atom_site_type_symbol
_atom_site_label
_atom_site_fract_x
_atom_site_fract_y
_atom_site_fract_z
Si Si1 0.092886 0.506656 0.187085
Si Si2 0.316886 0.356828 0.373711
Si Si3 0.359501 0.376460 0.620585
Si Si4 0.780175 0.215822 0.965540
Si Si5 0.261551 0.861084 0.672520
Si Si6 0.172174 0.804036 0.454541
Si Si7 0.066722 0.111312 0.726953
Si Si8 0.168982 0.238242 0.100487
O O1 0.247762 0.459993 0.277375
O O2 0.192797 0.638441 0.104130
O O3 0.131310 0.391743 0.107717
O O4 0.793644 0.527364 0.281019
O O5 0.361896 0.412654 0.483200
O O6 0.550821 0.258902 0.307956
O O7 0.072171 0.269162 0.446772
O O8 0.637083 0.309448 0.612901
O O9 0.183722 0.250641 0.676018
O O10 0.880039 0.118716 0.864166
O O11 0.475411 0.200806 0.044786
O O12 0.989005 0.202581 0.031605
O O13 0.298980 0.865551 0.532585
O O14 0.970580 0.826486 0.762643
O O15 0.288762 0.997674 0.707737
O O16 0.086177 0.902801 0.360617
#
# Coordination Sequence:
#
# PCOD9013043 Si02
#       8
#     2   2   2   2   2   2   2   2
#     4  11  22  45  71 100 138 182 233 287 346 416
#     4  10  21  41  63 106 140 178 222 282 354 420
#     4   9  22  40  66 103 140 179 222 283 351 420
#     4  11  28  48  73 102 139 187 239 291 349 407
#     4  11  24  43  71  99 140 180 229 286 350 417
#     4  10  21  42  67 104 137 173 228 282 353 418
#     4  10  24  44  69 101 136 182 229 288 348 416
#     4  12  26  49  69 105 140 186 239 288 349 410
#
# _framework density 25.068183999999999
#
# number of rings (size 3 to 8) (size 9 to 14) (size 15 to 20)
#    0.000    1.500    1.250    2.250    3.500    8.000 
#    9.000    0.000    0.000    0.000    0.000    0.000 
#    0.000    0.000    0.000    0.000    0.000    0.000 
#
# Total GULP energy -89619.735337 kJ/mol
# GULP energy per Si atom -5601.233459 kJ/mol
# Density = 2.501113 g / cm^3
# Si number density = 25.068184 Si / 1000 Ang^3
#
#
#
# Elastic Constant Matrix: (Units=GPa)
#
#
# Indices 1 2 3 4 5 6 
#
# 1 109.4512 13.3593 53.7375 0.6706 -11.4684 -18.8700
# 2 13.3593 76.6383 15.9831 8.5471 12.6541 -24.4053
# 3 53.7375 15.9831 101.0321 5.0277 -7.7349 -15.1500
# 4 0.6706 8.5471 5.0277 33.3284 -1.5643 -4.7503
# 5 -11.4684 12.6541 -7.7349 -1.5643 31.6755 4.3976
# 6 -18.8700 -24.4053 -15.1500 -4.7503 4.3976 18.3954
#
#
#
# Elastic Compliance Matrix: (Units=1/GPa)
#
#
# Indices 1 2 3 4 5 6 
#
# 1 0.014128 0.002755 -0.005953 0.001874 0.000773 0.013544
# 2 0.002755 0.030961 -0.000568 -0.002027 -0.018171 0.047256
# 3 -0.005953 -0.000568 0.013888 -0.001211 0.000839 0.004065
# 4 0.001874 -0.002027 -0.001211 0.031606 0.001929 0.005936
# 5 0.000773 -0.018171 0.000839 0.001929 0.043939 -0.032629
# 6 0.013544 0.047256 0.004065 0.005936 -0.032629 0.143630
#
#
# Mechanical properties :
#
#
# Convention : Reuss Voigt Hill
#
# Bulk Modulus (GPa) = 19.43803 50.36463 34.90133
# Shear Modulus (GPa) = 16.51083 30.28263 23.39673
#
# Velocity S-wave (km/s) = 2.56918 3.47942 3.05835
# Velocity P-wave (km/s) = 4.07085 6.02299 5.14044
#
# Compressibility (1/GPa) = 0.05144553
#
# Stress axis : x y z
#
# Youngs Moduli (GPa) = 70.78338 32.29846 72.00400
#
# Poissons Ratio (x) = -0.08899 0.42866
# Poissons Ratio (y) = -0.19503 0.04087
# Poissons Ratio (z) = 0.42140 0.01833
#
# Static dielectric constant tensor:
#      x y z
#    x 2.015560 0.088330 0.015830 
#    y 0.088330 2.050340 0.003980 
#    z 0.015830 0.003980 1.942560 
# 
# From -- ./inp_files/364246.got.cif
#   From: 2010.05.17/outbox.cif.g08.bks.cpg/sg2_183_cif.got.tgz:364246.got - 2010.06.03 11:33:40.
