data_PCOD9013036
_publ_section_title
;
Structure prediction by ZEFSAII (Michael W. Deem and Ramdas Pophale) SiO2 
 PCOD9013036
Probable space group: P -1
;
_chemical_formula_sum "Si O2"
_cell_formula_units_Z 14
_cell_length_a 19.806759
_cell_length_b 8.177237
_cell_length_c 11.648129
_cell_angle_alpha 58.649097
_cell_angle_beta 32.481371
_cell_angle_gamma 40.643411
_cell_volume 619.998937
_symmetry_space_group_name_H-M "P -1"
_symmetry_group_IT_number 2
_symmetry_cell_setting 'triclinic'
loop_
_space_group_symop_operation_xyz
x,y,z
-x,-y,-z
loop_
_atom_site_type_symbol
_atom_site_label
_atom_site_fract_x
_atom_site_fract_y
_atom_site_fract_z
Si Si1 0.310076 0.075101 0.334236
Si Si2 0.820994 0.080874 0.599596
Si Si3 0.381793 0.495069 0.835648
Si Si4 0.209966 0.620189 0.266986
Si Si5 0.195224 0.168523 0.708245
Si Si6 0.416145 0.360124 0.585829
Si Si7 0.100913 0.650935 0.775159
O O1 0.284928 0.327942 0.276298
O O2 0.195868 0.119130 0.590611
O O3 0.264691 0.008975 0.307684
O O4 0.507317 0.810701 0.180038
O O5 0.724400 0.305449 0.755449
O O6 0.864541 0.189867 0.398680
O O7 0.000130 0.823643 0.497214
O O8 0.326320 0.526092 0.772513
O O9 0.516495 0.528290 0.622820
O O10 0.252589 0.658428 0.066294
O O11 0.108867 0.469059 0.739369
O O12 0.400890 0.940493 0.535135
O O13 0.076371 0.164063 0.963186
O O14 0.264067 0.426400 0.706812
#
# Coordination Sequence:
#
# PCOD9013036 Si02
#       7
#     2   2   2   2   2   2   2
#     4  11  22  43  63  93 131 166 216 267 318 389
#     4  11  24  41  65  92 126 173 214 264 325 380
#     4  10  22  40  65  94 128 167 215 266 327 379
#     4  11  24  43  63  92 132 166 217 272 310 392
#     4  10  23  38  67  98 131 167 214 269 324 387
#     4  10  21  41  63 100 128 165 218 268 318 393
#     4  11  21  42  66  96 131 169 213 268 331 376
#
# _framework density 22.580684999999999
#
# number of rings (size 3 to 8) (size 9 to 14) (size 15 to 20)
#    0.000    1.429    2.857    2.143    2.000    1.143 
#    0.000    0.000    0.000    0.000    0.000    0.000 
#    0.000    0.000    0.000    0.000    0.000    0.000 
#
# Total GULP energy -78173.923429 kJ/mol
# GULP energy per Si atom -5583.851673 kJ/mol
# Density = 2.252929 g / cm^3
# Si number density = 22.580685 Si / 1000 Ang^3
#
#
#
# Elastic Constant Matrix: (Units=GPa)
#
#
# Indices 1 2 3 4 5 6 
#
# 1 5.8897 109.0709 7.4687 -32.5604 -17.0298 18.0458
# 2 109.0709 -20.7998 51.1955 52.9895 35.7833 15.1190
# 3 7.4687 51.1955 61.7487 -14.3370 23.5025 3.6780
# 4 -32.5604 52.9895 -14.3370 -3.6062 -17.0172 1.3954
# 5 -17.0298 35.7833 23.5025 -17.0172 16.2007 8.8324
# 6 18.0458 15.1190 3.6780 1.3954 8.8324 32.6731
#
#
#
# Elastic Compliance Matrix: (Units=1/GPa)
#
#
# Indices 1 2 3 4 5 6 
#
# 1 0.015710 0.007883 -0.015697 -0.017489 0.010383 -0.012617
# 2 0.007883 0.010157 -0.017097 0.008606 0.027892 -0.015037
# 3 -0.015697 -0.017097 0.060488 0.008473 -0.073559 0.029295
# 4 -0.017489 0.008606 0.008473 0.038198 -0.013191 0.006658
# 5 0.010383 0.027892 -0.073559 -0.013191 0.128112 -0.044430
# 6 -0.012617 -0.015037 0.029295 0.006658 -0.044430 0.052961
#
#
# Mechanical properties :
#
#
# Convention : Reuss Voigt Hill
#
# Bulk Modulus (GPa) = 27.37211 42.47875 34.92543
# Shear Modulus (GPa) = 13.60080 0.99375 7.29727
#
# Velocity S-wave (km/s) = 2.45688 0.66411 1.79963
# Velocity P-wave (km/s) = 4.49406 4.40918 4.45182
#
# Compressibility (1/GPa) = 0.03653354
#
# Stress axis : x y z
#
# Youngs Moduli (GPa) = 63.65407 98.45445 16.53215
#
# Poissons Ratio (x) = -0.77609 0.25950
# Poissons Ratio (y) = -0.50177 0.28265
# Poissons Ratio (z) = 0.99915 1.68327
#
# Static dielectric constant tensor:
#      x y z
#    x 1.854970 0.006780 0.023690 
#    y 0.006780 1.871470 0.017850 
#    z 0.023690 0.017850 1.871010 
# 
# From -- ./inp_files/151256.got.cif
#   From: 2010.05.17/outbox.cif.g08.bks.cpg/sg2_76_cif.got.tgz:151256.got - 2010.06.03 11:33:40.
