data_PCOD9013249
_publ_section_title
;
Structure prediction by ZEFSAII (Michael W. Deem and Ramdas Pophale) SiO2 
 PCOD9013249
Probable space group: P -1
;
_chemical_formula_sum "Si O2"
_cell_formula_units_Z 16
_cell_length_a 12.561741
_cell_length_b 15.645437
_cell_length_c 10.890056
_cell_angle_alpha 24.717044
_cell_angle_beta 46.702156
_cell_angle_gamma 45.755215
_cell_volume 631.363336
_symmetry_space_group_name_H-M "P -1"
_symmetry_group_IT_number 2
_symmetry_cell_setting 'triclinic'
loop_
_space_group_symop_operation_xyz
x,y,z
-x,-y,-z
loop_
_atom_site_type_symbol
_atom_site_label
_atom_site_fract_x
_atom_site_fract_y
_atom_site_fract_z
Si Si1 0.137226 0.675546 0.214511
Si Si2 0.563647 0.201022 0.219795
Si Si3 0.678550 0.487333 0.375962
Si Si4 0.568611 0.329485 0.325348
Si Si5 0.315717 0.237721 0.774758
Si Si6 0.864179 0.385609 0.109314
Si Si7 0.977091 0.240065 0.557640
Si Si8 0.033562 0.123338 0.132657
O O1 0.231327 0.443512 0.488085
O O2 0.011819 0.780252 0.277557
O O3 0.050693 0.683530 0.142877
O O4 0.259995 0.816650 0.919334
O O5 0.528677 0.265266 0.305410
O O6 0.500000 0.000000 0.500000
O O7 0.486865 0.420136 0.926626
O O8 0.500000 0.500000 0.500000
O O9 0.690422 0.698794 0.160863
O O10 0.793100 0.318157 0.591366
O O11 0.769912 0.438161 0.240918
O O12 0.488309 0.198975 0.649153
O O13 0.744607 0.302827 0.228709
O O14 0.215067 0.077369 0.036796
O O15 0.005390 0.200669 0.194276
O O16 0.928888 0.588773 0.770240
O O17 0.014948 0.068005 0.644836
#
# Coordination Sequence:
#
# PCOD9013249 Si02
#       8
#     2   2   2   2   2   2   2   2
#     4  10  21  41  63  99 133 175 209 263 333 391
#     4  10  22  36  61  94 140 167 218 266 320 387
#     4  11  23  48  71  92 129 176 223 274 328 378
#     4  10  22  39  62  96 125 181 214 261 327 389
#     4  10  22  42  68  94 132 174 218 268 326 389
#     4  12  24  43  70  92 136 170 220 271 330 385
#     4  11  27  42  68 101 131 175 218 270 330 390
#     4  12  24  42  68 100 137 168 217 269 332 399
#
# _framework density 25.341985999999999
#
# number of rings (size 3 to 8) (size 9 to 14) (size 15 to 20)
#    0.000    1.250    5.000    1.125    3.500    0.500 
#    0.000    1.875    0.000    0.000    0.000    0.000 
#    0.000    0.000    0.000    0.000    0.000    0.000 
#
# Total GULP energy -89137.276456 kJ/mol
# GULP energy per Si atom -5571.079778 kJ/mol
# Density = 2.528431 g / cm^3
# Si number density = 25.341986 Si / 1000 Ang^3
#
#
#
# Elastic Constant Matrix: (Units=GPa)
#
#
# Indices 1 2 3 4 5 6 
#
# 1 69.0878 9.1821 22.1284 9.9337 -27.5069 5.6664
# 2 9.1821 135.0008 65.9237 19.8450 -4.9677 35.2144
# 3 22.1284 65.9237 124.5303 0.2806 -46.7091 12.0903
# 4 9.9337 19.8450 0.2806 49.9737 4.3025 -7.5851
# 5 -27.5069 -4.9677 -46.7091 4.3025 42.7005 3.2533
# 6 5.6664 35.2144 12.0903 -7.5851 3.2533 42.8423
#
#
#
# Elastic Compliance Matrix: (Units=1/GPa)
#
#
# Indices 1 2 3 4 5 6 
#
# 1 0.023153 -0.000025 0.004597 -0.007555 0.021257 -0.007291
# 2 -0.000025 0.016199 -0.010494 -0.007354 -0.008028 -0.011043
# 3 0.004597 -0.010494 0.022766 0.000793 0.026586 -0.000286
# 4 -0.007555 -0.007354 0.000793 0.027020 -0.008511 0.012250
# 5 0.021257 -0.008028 0.026586 -0.008511 0.066903 -0.010303
# 6 -0.007291 -0.011043 -0.000286 0.012250 -0.010303 0.036414
#
#
# Mechanical properties :
#
#
# Convention : Reuss Voigt Hill
#
# Bulk Modulus (GPa) = 19.89029 58.12080 39.00555
# Shear Modulus (GPa) = 22.61845 42.52893 32.57369
#
# Velocity S-wave (km/s) = 2.99076 4.10103 3.58909
# Velocity P-wave (km/s) = 4.44882 6.73862 5.70968
#
# Compressibility (1/GPa) = 0.05027579
#
# Stress axis : x y z
#
# Youngs Moduli (GPa) = 43.19097 61.73048 43.92433
#
# Poissons Ratio (x) = 0.00156 -0.20194
# Poissons Ratio (y) = 0.00109 0.46093
# Poissons Ratio (z) = -0.19856 0.64778
#
# Static dielectric constant tensor:
#      x y z
#    x 2.211280 -0.171440 0.065800 
#    y -0.171440 2.156050 0.080800 
#    z 0.065800 0.080800 2.088010 
# 
# From -- ./inp_files/455361.got.cif
#   From: 2010.05.17/outbox.cif.g08.bks.cpg/sg2_228_cif.got.tgz:455361.got - 2010.06.03 11:33:40.
