data_PCOD9013946
_publ_section_title
;
Structure prediction by ZEFSAII (Michael W. Deem and Ramdas Pophale) SiO2 
 PCOD9013946
Probable space group: P -1
;
_chemical_formula_sum "Si O2"
_cell_formula_units_Z 15
_cell_length_a 8.716020
_cell_length_b 11.289235
_cell_length_c 13.526629
_cell_angle_alpha 148.012063
_cell_angle_beta 112.110228
_cell_angle_gamma 68.309539
_cell_volume 649.778179
_symmetry_space_group_name_H-M "P -1"
_symmetry_group_IT_number 2
_symmetry_cell_setting 'triclinic'
loop_
_space_group_symop_operation_xyz
x,y,z
-x,-y,-z
loop_
_atom_site_type_symbol
_atom_site_label
_atom_site_fract_x
_atom_site_fract_y
_atom_site_fract_z
Si Si1 0.688054 0.470107 0.982269
Si Si2 0.500000 0.000000 0.000000
Si Si3 0.381810 0.147063 0.278092
Si Si4 0.856300 0.248333 0.044089
Si Si5 0.146480 0.387418 0.536621
Si Si6 0.261353 0.045877 0.701980
Si Si7 0.132139 0.911868 0.775516
Si Si8 0.700959 0.000983 0.549128
O O1 0.724847 0.246618 0.769638
O O2 0.500000 0.500000 0.000000
O O3 0.807196 0.432696 0.078884
O O4 0.713946 0.693843 0.088139
O O5 0.594509 0.838404 0.822487
O O6 0.319573 0.912880 0.859818
O O7 0.277128 0.348054 0.450775
O O8 0.561644 0.097002 0.336453
O O9 0.286420 0.922205 0.110180
O O10 0.863823 0.381758 0.241894
O O11 0.021412 0.097921 0.944890
O O12 0.970568 0.305037 0.403682
O O13 0.222991 0.192679 0.495592
O O14 0.227920 0.026692 0.564064
O O15 0.136820 0.977036 0.706142
O O16 0.500000 0.000000 0.500000
#
# Coordination Sequence:
#
# PCOD9013946 Si02
#       8
#     2   1   2   2   2   2   2   2
#     4  12  19  33  58  91 128 167 200 234 292 368
#     4  10  24  50  70  80 124 156 212 270 320 350
#     4  10  21  41  66  92 115 168 206 256 307 363
#     4  11  21  39  63  93 129 157 205 249 302 371
#     4  11  21  39  63  93 129 157 205 249 302 371
#     4  11  22  35  60  90 134 165 206 242 298 363
#     4  10  25  45  60  90 121 168 206 261 309 357
#     4  12  19  33  58  91 128 167 200 234 292 368
#
# _framework density 23.084803999999998
#
# number of rings (size 3 to 8) (size 9 to 14) (size 15 to 20)
#    0.000    1.067    8.000    0.000    0.000    4.267 
#    0.000    8.000    0.000    0.000    0.000    0.000 
#    0.000    0.000    0.000    0.000    0.000    0.000 
#
# Total GULP energy -83676.424916 kJ/mol
# GULP energy per Si atom -5578.428328 kJ/mol
# Density = 2.303226 g / cm^3
# Si number density = 23.084804 Si / 1000 Ang^3
#
#
#
# Elastic Constant Matrix: (Units=GPa)
#
#
# Indices 1 2 3 4 5 6 
#
# 1 116.6151 14.5390 49.5540 -0.0939 -27.0148 1.8537
# 2 14.5390 50.8456 21.4834 -10.5225 -14.4072 -11.5659
# 3 49.5540 21.4834 133.0886 -15.2894 -48.0992 1.9323
# 4 -0.0939 -10.5225 -15.2894 42.7287 3.0513 -6.4264
# 5 -27.0148 -14.4072 -48.0992 3.0513 45.7494 -11.6922
# 6 1.8537 -11.5659 1.9323 -6.4264 -11.6922 40.3591
#
#
#
# Elastic Compliance Matrix: (Units=1/GPa)
#
#
# Indices 1 2 3 4 5 6 
#
# 1 0.010638 -0.001368 -0.002871 -0.001571 0.002898 -0.000154
# 2 -0.001368 0.027449 0.001014 0.008179 0.011559 0.012531
# 3 -0.002871 0.001014 0.014092 0.004969 0.014305 0.004683
# 4 -0.001571 0.008179 0.004969 0.027988 0.007237 0.008731
# 5 0.002898 0.011559 0.014305 0.007237 0.046113 0.017006
# 6 -0.000154 0.012531 0.004683 0.008731 0.017006 0.034469
#
#
# Mechanical properties :
#
#
# Convention : Reuss Voigt Hill
#
# Bulk Modulus (GPa) = 21.86814 52.41134 37.13974
# Shear Modulus (GPa) = 27.40593 40.09897 33.75245
#
# Velocity S-wave (km/s) = 3.44929 4.17229 3.82790
# Velocity P-wave (km/s) = 5.03558 6.77966 5.97163
#
# Compressibility (1/GPa) = 0.04572864
#
# Stress axis : x y z
#
# Youngs Moduli (GPa) = 93.99971 36.43170 70.96244
#
# Poissons Ratio (x) = 0.04983 0.20374
# Poissons Ratio (y) = 0.12857 -0.07193
# Poissons Ratio (z) = 0.26988 -0.03693
#
# Static dielectric constant tensor:
#      x y z
#    x 1.854190 0.027100 0.007500 
#    y 0.027100 1.957350 -0.011350 
#    z 0.007500 -0.011350 1.823150 
# 
# From -- ./inp_files/499596.got.cif
#   From: 2010.05.17/outbox.cif.g08.bks.cpg/sg2_250_cif.got.tgz:499596.got - 2010.06.03 11:33:40.
