data_PCOD9013288
_publ_section_title
;
Structure prediction by ZEFSAII (Michael W. Deem and Ramdas Pophale) SiO2 
 PCOD9013288
Probable space group: P -1
;
_chemical_formula_sum "Si O2"
_cell_formula_units_Z 14
_cell_length_a 27.236959
_cell_length_b 7.090306
_cell_length_c 9.938401
_cell_angle_alpha 132.729566
_cell_angle_beta 155.016190
_cell_angle_gamma 55.919585
_cell_volume 586.138878
_symmetry_space_group_name_H-M "P -1"
_symmetry_group_IT_number 2
_symmetry_cell_setting 'triclinic'
loop_
_space_group_symop_operation_xyz
x,y,z
-x,-y,-z
loop_
_atom_site_type_symbol
_atom_site_label
_atom_site_fract_x
_atom_site_fract_y
_atom_site_fract_z
Si Si1 0.172070 0.086851 0.130155
Si Si2 0.941764 0.273369 0.647091
Si Si3 0.302481 0.303609 0.006961
Si Si4 0.431172 0.823780 0.061652
Si Si5 0.700179 0.427051 0.140932
Si Si6 0.903381 0.466437 0.356591
Si Si7 0.330277 0.313294 0.398188
O O1 0.240062 0.296155 0.506447
O O2 0.214482 0.194100 0.138921
O O3 0.030711 0.071466 0.784681
O O4 0.191802 0.790466 0.047634
O O5 0.801202 0.243432 0.309100
O O6 0.955157 0.386444 0.585583
O O7 0.000000 0.500000 0.000000
O O8 0.335114 0.513886 0.069421
O O9 0.160182 0.289092 0.650757
O O10 0.328193 0.347705 0.250104
O O11 0.362982 0.063120 0.997385
O O12 0.571089 0.864068 0.408869
O O13 0.404466 0.703084 0.086292
O O14 0.375266 0.596372 0.711192
O O15 0.000000 0.500000 0.500000
#
# Coordination Sequence:
#
# PCOD9013288 Si02
#       7
#     2   2   2   2   2   2   2
#     4  10  21  41  64  87 134 165 210 259 316 376
#     4   9  19  39  61  86 120 165 204 253 316 368
#     4  11  24  40  66  96 128 163 216 262 313 374
#     4  10  23  45  66  89 134 162 217 258 316 377
#     4   9  22  41  63  98 122 169 208 262 316 368
#     4  11  24  38  59  98 127 165 214 254 317 380
#     4  10  23  44  66  94 120 176 209 260 319 373
#
# _framework density 23.885124000000001
#
# number of rings (size 3 to 8) (size 9 to 14) (size 15 to 20)
#    0.000    2.000    0.000    1.714    8.000    0.571 
#    2.571    4.286    0.000    0.000    0.000    0.000 
#    0.000    0.000    0.000    0.000    0.000    0.000 
#
# Total GULP energy -78202.455826 kJ/mol
# GULP energy per Si atom -5585.889702 kJ/mol
# Density = 2.383076 g / cm^3
# Si number density = 23.885124 Si / 1000 Ang^3
#
#
#
# Elastic Constant Matrix: (Units=GPa)
#
#
# Indices 1 2 3 4 5 6 
#
# 1 116.0057 39.9144 25.3316 3.3808 -0.7794 -12.0471
# 2 39.9144 117.5275 37.3637 -15.7893 4.5584 -27.7607
# 3 25.3316 37.3637 38.4702 4.1468 3.9417 -2.2168
# 4 3.3808 -15.7893 4.1468 20.8777 -12.5557 3.1254
# 5 -0.7794 4.5584 3.9417 -12.5557 44.5044 0.6339
# 6 -12.0471 -27.7607 -2.2168 3.1254 0.6339 41.2474
#
#
#
# Elastic Compliance Matrix: (Units=1/GPa)
#
#
# Indices 1 2 3 4 5 6 
#
# 1 0.010587 -0.002134 -0.004524 -0.002651 0.000034 0.001613
# 2 -0.002134 0.021805 -0.022276 0.023293 0.006117 0.010996
# 3 -0.004524 -0.022276 0.054666 -0.032347 -0.011612 -0.010747
# 4 -0.002651 0.023293 -0.032347 0.086278 0.024685 0.006248
# 5 0.000034 0.006117 -0.011612 0.024685 0.029820 0.001174
# 6 0.001613 0.010996 -0.010747 0.006248 0.001174 0.031047
#
#
# Mechanical properties :
#
#
# Convention : Reuss Voigt Hill
#
# Bulk Modulus (GPa) = 34.25851 53.02474 43.64163
# Shear Modulus (GPa) = 16.56724 32.61881 24.59303
#
# Velocity S-wave (km/s) = 2.63653 3.69948 3.21228
# Velocity P-wave (km/s) = 4.86236 6.36367 5.66299
#
# Compressibility (1/GPa) = 0.02918982
#
# Stress axis : x y z
#
# Youngs Moduli (GPa) = 94.45264 45.86162 18.29297
#
# Poissons Ratio (x) = 0.09786 0.08275
# Poissons Ratio (y) = 0.20155 0.40750
# Poissons Ratio (z) = 0.42728 1.02163
#
# Static dielectric constant tensor:
#      x y z
#    x 1.898000 -0.062620 -0.012170 
#    y -0.062620 1.981390 0.014170 
#    z -0.012170 0.014170 1.942980 
# 
# From -- ./inp_files/356070.got.cif
#   From: 2010.05.17/outbox.cif.g08.bks.cpg/sg2_179_cif.got.tgz:356070.got - 2010.06.03 11:33:40.
