data_PCOD9013572
_publ_section_title
;
Structure prediction by ZEFSAII (Michael W. Deem and Ramdas Pophale) SiO2 
 PCOD9013572
Probable space group: P -1
;
_chemical_formula_sum "Si O2"
_cell_formula_units_Z 16
_cell_length_a 12.091453
_cell_length_b 9.188613
_cell_length_c 13.587874
_cell_angle_alpha 69.265545
_cell_angle_beta 139.751571
_cell_angle_gamma 135.109039
_cell_volume 628.059033
_symmetry_space_group_name_H-M "P -1"
_symmetry_group_IT_number 2
_symmetry_cell_setting 'triclinic'
loop_
_space_group_symop_operation_xyz
x,y,z
-x,-y,-z
loop_
_atom_site_type_symbol
_atom_site_label
_atom_site_fract_x
_atom_site_fract_y
_atom_site_fract_z
Si Si1 0.161950 0.274134 0.923229
Si Si2 0.460330 0.908297 0.607142
Si Si3 0.260674 0.459115 0.161354
Si Si4 0.071131 0.958253 0.658238
Si Si5 0.490995 0.254205 0.023317
Si Si6 0.329227 0.519760 0.515573
Si Si7 0.272607 0.836982 0.080933
Si Si8 0.739206 0.930605 0.584431
O O1 0.345241 0.266760 0.001204
O O2 0.885237 0.042239 0.760353
O O3 0.195038 0.327623 0.046855
O O4 0.244730 0.491098 0.875636
O O5 0.374177 0.675676 0.594454
O O6 0.256070 0.899381 0.505382
O O7 0.500000 0.000000 0.500000
O O8 0.674206 0.081470 0.789131
O O9 0.500491 0.520962 0.343993
O O10 0.302149 0.672006 0.126564
O O11 0.011142 0.294267 0.098531
O O12 0.958525 0.711780 0.631279
O O13 0.897939 0.918822 0.633021
O O14 0.000000 0.000000 0.500000
O O15 0.341681 0.160600 0.840223
O O16 0.461031 0.061206 0.089642
O O17 0.460566 0.685516 0.470555
#
# Coordination Sequence:
#
# PCOD9013572 Si02
#       8
#     2   2   2   2   2   2   2   2
#     4  10  21  41  65  89 123 163 207 251 309 371
#     4  10  22  39  62  92 124 159 205 259 308 362
#     4  11  22  38  63  93 124 163 208 257 308 366
#     4  11  23  40  63  93 129 166 205 250 308 374
#     4  10  23  41  63  92 127 165 205 253 307 371
#     4  11  22  39  66  90 120 164 209 254 309 368
#     4  11  24  39  60  94 129 159 205 258 308 366
#     4  10  22  40  63  91 123 161 207 261 308 363
#
# _framework density 25.475314000000001
#
# number of rings (size 3 to 8) (size 9 to 14) (size 15 to 20)
#    0.000    1.500    0.000    5.625    0.000   10.000 
#    0.000    3.750    0.000    0.000    0.000    0.000 
#    0.000    0.000    0.000    0.000    0.000    0.000 
#
# Total GULP energy -89455.083151 kJ/mol
# GULP energy per Si atom -5590.942697 kJ/mol
# Density = 2.541733 g / cm^3
# Si number density = 25.475314 Si / 1000 Ang^3
#
#
#
# Elastic Constant Matrix: (Units=GPa)
#
#
# Indices 1 2 3 4 5 6 
#
# 1 54.9416 26.0638 18.9622 4.2354 -14.8139 -17.0519
# 2 26.0638 130.1499 30.8231 5.1950 0.0138 -13.2648
# 3 18.9622 30.8231 90.9218 10.2017 -24.5421 -11.5451
# 4 4.2354 5.1950 10.2017 45.5923 -7.3917 -0.1679
# 5 -14.8139 0.0138 -24.5421 -7.3917 36.0132 1.3957
# 6 -17.0519 -13.2648 -11.5451 -0.1679 1.3957 42.5588
#
#
#
# Elastic Compliance Matrix: (Units=1/GPa)
#
#
# Indices 1 2 3 4 5 6 
#
# 1 0.025653 -0.004238 -0.000061 -0.000212 0.010136 0.008608
# 2 -0.004238 0.009382 -0.003283 -0.000608 -0.004127 0.000468
# 3 -0.000061 -0.003283 0.015345 -0.001417 0.010035 0.002780
# 4 -0.000212 -0.000608 -0.001417 0.022934 0.003682 -0.000689
# 5 0.010136 -0.004127 0.010035 0.003682 0.039369 0.004220
# 6 0.008608 0.000468 0.002780 -0.000689 0.004220 0.027705
#
#
# Mechanical properties :
#
#
# Convention : Reuss Voigt Hill
#
# Bulk Modulus (GPa) = 28.39597 47.52351 37.95974
# Shear Modulus (GPa) = 29.88803 38.17715 34.03259
#
# Velocity S-wave (km/s) = 3.42894 3.87537 3.65897
# Velocity P-wave (km/s) = 5.18146 6.22253 5.72570
#
# Compressibility (1/GPa) = 0.03521627
#
# Stress axis : x y z
#
# Youngs Moduli (GPa) = 38.98106 106.58502 65.16880
#
# Poissons Ratio (x) = 0.45174 0.00396
# Poissons Ratio (y) = 0.16521 0.21395
# Poissons Ratio (z) = 0.00237 0.34992
#
# Static dielectric constant tensor:
#      x y z
#    x 2.081440 -0.040570 0.015710 
#    y -0.040570 2.062400 -0.029390 
#    z 0.015710 -0.029390 2.041160 
# 
# From -- ./inp_files/528305.got.cif
#   From: 2010.05.17/outbox.cif.g08.bks.cpg/sg2_265_cif.got.tgz:528305.got - 2010.06.03 11:33:40.
