data_PCOD9013585
_publ_section_title
;
Structure prediction by ZEFSAII (Michael W. Deem and Ramdas Pophale) SiO2 
 PCOD9013585
Probable space group: P -1
;
_chemical_formula_sum "Si O2"
_cell_formula_units_Z 14
_cell_length_a 9.109693
_cell_length_b 8.131231
_cell_length_c 12.714124
_cell_angle_alpha 130.515449
_cell_angle_beta 75.846068
_cell_angle_gamma 75.213942
_cell_volume 574.358381
_symmetry_space_group_name_H-M "P -1"
_symmetry_group_IT_number 2
_symmetry_cell_setting 'triclinic'
loop_
_space_group_symop_operation_xyz
x,y,z
-x,-y,-z
loop_
_atom_site_type_symbol
_atom_site_label
_atom_site_fract_x
_atom_site_fract_y
_atom_site_fract_z
Si Si1 0.275899 0.259659 0.526507
Si Si2 0.182054 0.721084 0.891768
Si Si3 0.771648 0.356677 0.479300
Si Si4 0.103757 0.603272 0.305583
Si Si5 0.949769 0.208100 0.829486
Si Si6 0.345030 0.010359 0.710264
Si Si7 0.658292 0.966947 0.030217
O O1 0.238205 0.480024 0.707975
O O2 0.259348 0.397105 0.474425
O O3 0.112621 0.221011 0.556301
O O4 0.485870 0.012676 0.386874
O O5 0.157081 0.668240 0.994021
O O6 0.331987 0.787041 0.887470
O O7 0.000000 0.000000 0.000000
O O8 0.785910 0.386411 0.612675
O O9 0.641261 0.260417 0.430110
O O10 0.968537 0.099539 0.304627
O O11 0.142956 0.684432 0.221273
O O12 0.163640 0.307229 0.153865
O O13 0.866190 0.791136 0.203996
O O14 0.355785 0.049986 0.848750
O O15 0.500000 0.000000 0.000000
#
# Coordination Sequence:
#
# PCOD9013585 Si02
#       7
#     2   2   2   2   2   2   2
#     4  12  22  38  72  95 125 170 222 259 319 378
#     4  12  20  45  66  95 125 176 213 260 324 383
#     4  10  21  41  65  89 130 168 212 256 323 375
#     4  12  25  40  67 101 125 171 218 267 310 383
#     4  10  23  42  68  88 139 170 211 257 329 381
#     4  10  23  41  65  92 130 170 207 263 326 374
#     4  12  25  42  67  99 128 162 221 274 311 380
#
# _framework density 24.375024
#
# number of rings (size 3 to 8) (size 9 to 14) (size 15 to 20)
#    0.857    0.000    5.714    2.143    2.000    4.000 
#    0.000    0.714    0.000    0.000    0.000    0.000 
#    0.000    0.000    0.000    0.000    0.000    0.000 
#
# Total GULP energy -78287.041918 kJ/mol
# GULP energy per Si atom -5591.931566 kJ/mol
# Density = 2.431955 g / cm^3
# Si number density = 24.375024 Si / 1000 Ang^3
#
#
#
# Elastic Constant Matrix: (Units=GPa)
#
#
# Indices 1 2 3 4 5 6 
#
# 1 73.5454 -2.4633 33.2237 -18.0112 13.3594 -18.3713
# 2 -2.4633 70.7048 10.0703 -35.0766 12.4597 -17.8295
# 3 33.2237 10.0703 114.8005 -21.9284 7.3351 -25.2131
# 4 -18.0112 -35.0766 -21.9284 43.0392 -3.1161 19.2896
# 5 13.3594 12.4597 7.3351 -3.1161 39.8538 -8.8529
# 6 -18.3713 -17.8295 -25.2131 19.2896 -8.8529 23.9794
#
#
#
# Elastic Compliance Matrix: (Units=1/GPa)
#
#
# Indices 1 2 3 4 5 6 
#
# 1 0.021585 0.010503 -0.002312 0.011318 -0.006931 0.010252
# 2 0.010503 0.031012 0.001665 0.026099 -0.009638 0.008302
# 3 -0.002312 0.001665 0.011898 0.001605 0.000614 0.010912
# 4 0.011318 0.026099 0.001605 0.059260 -0.012629 -0.022568
# 5 -0.006931 -0.009638 0.000614 -0.012629 0.031543 0.009974
# 6 0.010252 0.008302 0.010912 -0.022568 0.009974 0.089040
#
#
# Mechanical properties :
#
#
# Convention : Reuss Voigt Hill
#
# Bulk Modulus (GPa) = 11.87571 37.85688 24.86630
# Shear Modulus (GPa) = 19.78677 35.92247 27.85462
#
# Velocity S-wave (km/s) = 2.85224 3.84310 3.38413
# Velocity P-wave (km/s) = 3.96607 5.93778 5.04911
#
# Compressibility (1/GPa) = 0.08420551
#
# Stress axis : x y z
#
# Youngs Moduli (GPa) = 46.32882 32.24592 84.05020
#
# Poissons Ratio (x) = -0.33867 0.19430
# Poissons Ratio (y) = -0.48658 -0.13990
# Poissons Ratio (z) = 0.10710 -0.05367
#
# Static dielectric constant tensor:
#      x y z
#    x 1.964740 -0.054710 -0.049010 
#    y -0.054710 2.007120 0.065280 
#    z -0.049010 0.065280 1.942070 
# 
# From -- ./inp_files/380577.got.cif
#   From: 2010.05.17/outbox.cif.g08.bks.cpg/sg2_191_cif.got.tgz:380577.got - 2010.06.03 11:33:40.
