data_PCOD9013493
_publ_section_title
;
Structure prediction by ZEFSAII (Michael W. Deem and Ramdas Pophale) SiO2 
 PCOD9013493
Probable space group: P -1
;
_chemical_formula_sum "Si O2"
_cell_formula_units_Z 12
_cell_length_a 18.881969
_cell_length_b 5.285538
_cell_length_c 6.880803
_cell_angle_alpha 133.169794
_cell_angle_beta 80.782156
_cell_angle_gamma 84.444336
_cell_volume 473.617263
_symmetry_space_group_name_H-M "P -1"
_symmetry_group_IT_number 2
_symmetry_cell_setting 'triclinic'
loop_
_space_group_symop_operation_xyz
x,y,z
-x,-y,-z
loop_
_atom_site_type_symbol
_atom_site_label
_atom_site_fract_x
_atom_site_fract_y
_atom_site_fract_z
Si Si1 0.416402 0.377351 0.689103
Si Si2 0.551219 0.015595 0.172071
Si Si3 0.208460 0.923911 0.791538
Si Si4 0.164158 0.999137 0.253112
Si Si5 0.285745 0.116861 0.493921
Si Si6 0.913391 0.620628 0.150150
O O1 0.390373 0.786610 0.833783
O O2 0.414868 0.345409 0.906307
O O3 0.500470 0.756176 0.511127
O O4 0.370039 0.133070 0.483198
O O5 0.500000 0.000000 0.000000
O O6 0.184184 0.146027 0.116883
O O7 0.131257 0.015793 0.753143
O O8 0.263322 0.046486 0.686103
O O9 0.244670 0.514901 0.632233
O O10 0.245242 0.872438 0.258996
O O11 0.107259 0.280013 0.565199
O O12 0.874685 0.314430 0.940312
O O13 0.000000 0.500000 0.000000
#
# Coordination Sequence:
#
# PCOD9013493 Si02
#       6
#     2   2   2   2   2   2
#     4  10  22  40  65  98 132 177 226 278 339 411
#     4  10  21  41  64  98 137 172 226 281 334 406
#     4  11  24  46  66 101 140 181 230 293 338 420
#     4  11  24  47  68 105 141 181 233 292 340 421
#     4  11  25  43  70 100 141 186 235 283 356 408
#     4  11  26  47  75 104 139 186 234 289 354 412
#
# _framework density 25.336914
#
# number of rings (size 3 to 8) (size 9 to 14) (size 15 to 20)
#    0.000    1.333    3.333    2.000    4.667    4.000 
#    0.000    0.000    0.000    0.000    0.000    0.000 
#    0.000    0.000    0.000    0.000    0.000    0.000 
#
# Total GULP energy -67008.278705 kJ/mol
# GULP energy per Si atom -5584.023225 kJ/mol
# Density = 2.527925 g / cm^3
# Si number density = 25.336914 Si / 1000 Ang^3
#
#
#
# Elastic Constant Matrix: (Units=GPa)
#
#
# Indices 1 2 3 4 5 6 
#
# 1 124.5357 41.1429 11.6698 -1.5688 16.1473 24.5004
# 2 41.1429 179.1172 51.5183 -35.6444 7.7349 21.1974
# 3 11.6698 51.5183 91.4080 -18.1214 26.4398 26.2295
# 4 -1.5688 -35.6444 -18.1214 48.3704 5.3945 -2.3725
# 5 16.1473 7.7349 26.4398 5.3945 30.6907 7.7836
# 6 24.5004 21.1974 26.2295 -2.3725 7.7836 35.5225
#
#
#
# Elastic Compliance Matrix: (Units=1/GPa)
#
#
# Indices 1 2 3 4 5 6 
#
# 1 0.010835 -0.002401 0.004295 0.000593 -0.006960 -0.007647
# 2 -0.002401 0.008035 -0.003811 0.004180 0.001904 -0.000463
# 3 0.004295 -0.003811 0.023519 0.007671 -0.019546 -0.013259
# 4 0.000593 0.004180 0.007671 0.027762 -0.011807 -0.004126
# 5 -0.006960 0.001904 -0.019546 -0.011807 0.053249 0.005641
# 6 -0.007647 -0.000463 -0.013259 -0.004126 0.005641 0.041980
#
#
# Mechanical properties :
#
#
# Convention : Reuss Voigt Hill
#
# Bulk Modulus (GPa) = 25.93747 67.08032 46.50890
# Shear Modulus (GPa) = 27.46272 42.29872 34.88072
#
# Velocity S-wave (km/s) = 3.29584 4.09032 3.71438
# Velocity P-wave (km/s) = 4.97420 6.98860 6.06560
#
# Compressibility (1/GPa) = 0.03855426
#
# Stress axis : x y z
#
# Youngs Moduli (GPa) = 92.29542 124.45580 42.51910
#
# Poissons Ratio (x) = 0.29876 -0.18261
# Poissons Ratio (y) = 0.22156 0.16205
# Poissons Ratio (z) = -0.39638 0.47434
#
# Static dielectric constant tensor:
#      x y z
#    x 1.976910 -0.018720 0.027670 
#    y -0.018720 2.205840 0.115510 
#    z 0.027670 0.115510 2.089530 
# 
# From -- ./inp_files/9783.got.cif
#   From: 2010.05.17/outbox.cif.g08.bks.cpg/sg2_5_cif.got.tgz:9783.got - 2010.06.03 11:33:40.
