data_PCOD9013174
_publ_section_title
;
Structure prediction by ZEFSAII (Michael W. Deem and Ramdas Pophale) SiO2 
 PCOD9013174
Probable space group: P -1
;
_chemical_formula_sum "Si O2"
_cell_formula_units_Z 16
_cell_length_a 18.516997
_cell_length_b 9.257325
_cell_length_c 12.320715
_cell_angle_alpha 98.472508
_cell_angle_beta 140.341672
_cell_angle_gamma 51.233768
_cell_volume 777.687312
_symmetry_space_group_name_H-M "P -1"
_symmetry_group_IT_number 2
_symmetry_cell_setting 'triclinic'
loop_
_space_group_symop_operation_xyz
x,y,z
-x,-y,-z
loop_
_atom_site_type_symbol
_atom_site_label
_atom_site_fract_x
_atom_site_fract_y
_atom_site_fract_z
Si Si1 0.025972 0.477523 0.396099
Si Si2 0.715537 0.232623 0.240580
Si Si3 0.059373 0.936335 0.907882
Si Si4 0.147017 0.393344 0.006093
Si Si5 0.432884 0.348732 0.326508
Si Si6 0.995483 0.834799 0.357104
Si Si7 0.256013 0.962122 0.524993
Si Si8 0.157268 0.116878 0.147063
O O1 0.073908 0.588546 0.419376
O O2 0.000000 0.500000 0.500000
O O3 0.854491 0.613043 0.127718
O O4 0.180035 0.195880 0.506568
O O5 0.720328 0.154884 0.353275
O O6 0.848374 0.236392 0.402358
O O7 0.802051 0.036541 0.227857
O O8 0.500000 0.500000 0.000000
O O9 0.053582 0.025637 0.793957
O O10 0.895857 0.981308 0.713084
O O11 0.032402 0.102594 0.975241
O O12 0.263245 0.646264 0.144328
O O13 0.321340 0.319067 0.228988
O O14 0.165311 0.216569 0.063600
O O15 0.950365 0.671532 0.861868
O O16 0.545514 0.223269 0.329089
O O17 0.621993 0.164826 0.602709
#
# Coordination Sequence:
#
# PCOD9013174 Si02
#       8
#     2   2   2   2   2   2   2   2
#     4  12  22  45  69  92 129 178 218 265 327 386
#     4  10  21  41  63  94 127 171 218 272 323 383
#     4  11  23  41  67  95 132 174 212 275 328 392
#     4  11  25  46  67  95 136 170 220 277 323 389
#     4  12  23  42  66  98 135 168 218 274 329 391
#     4  10  22  40  65  90 131 170 219 268 326 381
#     4  11  24  42  64  97 135 171 219 272 327 389
#     4  11  24  44  71  95 130 177 221 266 332 392
#
# _framework density 20.573820000000001
#
# number of rings (size 3 to 8) (size 9 to 14) (size 15 to 20)
#    0.000    1.000    5.000    1.500    0.000    4.000 
#    2.250    2.500    0.000    0.000    0.000    0.000 
#    0.000    0.000    0.000    0.000    0.000    0.000 
#
# Total GULP energy -89155.040432 kJ/mol
# GULP energy per Si atom -5572.190027 kJ/mol
# Density = 2.052699 g / cm^3
# Si number density = 20.573820 Si / 1000 Ang^3
#
#
#
# Elastic Constant Matrix: (Units=GPa)
#
#
# Indices 1 2 3 4 5 6 
#
# 1 91.7870 35.5585 27.8210 -6.6288 -5.3415 3.3508
# 2 35.5585 119.5552 49.9194 -3.0052 2.6421 15.8069
# 3 27.8210 49.9194 88.0461 -11.6148 -1.0723 1.5311
# 4 -6.6288 -3.0052 -11.6148 21.6823 -5.1586 -7.0481
# 5 -5.3415 2.6421 -1.0723 -5.1586 34.3752 4.6459
# 6 3.3508 15.8069 1.5311 -7.0481 4.6459 44.6022
#
#
#
# Elastic Compliance Matrix: (Units=1/GPa)
#
#
# Indices 1 2 3 4 5 6 
#
# 1 0.013057 -0.003128 -0.001890 0.003320 0.002649 0.000441
# 2 -0.003128 0.012633 -0.006739 -0.004720 -0.001757 -0.004574
# 3 -0.001890 -0.006739 0.016927 0.008992 0.001670 0.003196
# 4 0.003320 -0.004720 0.008992 0.056257 0.008367 0.009133
# 5 0.002649 -0.001757 0.001670 0.008367 0.031155 -0.001557
# 6 0.000441 -0.004574 0.003196 0.009133 -0.001557 0.025504
#
#
# Mechanical properties :
#
#
# Convention : Reuss Voigt Hill
#
# Bulk Modulus (GPa) = 52.34587 58.44288 55.39437
# Shear Modulus (GPa) = 26.96657 32.53790 29.75224
#
# Velocity S-wave (km/s) = 3.62432 3.98115 3.80692
# Velocity P-wave (km/s) = 6.55839 7.04278 6.80490
#
# Compressibility (1/GPa) = 0.01910371
#
# Stress axis : x y z
#
# Youngs Moduli (GPa) = 76.58645 79.15603 59.07884
#
# Poissons Ratio (x) = 0.24758 0.11166
# Poissons Ratio (y) = 0.23954 0.39813
# Poissons Ratio (z) = 0.14475 0.53342
#
# Static dielectric constant tensor:
#      x y z
#    x 1.737140 0.014410 -0.048000 
#    y 0.014410 1.813280 0.020660 
#    z -0.048000 0.020660 1.739050 
# 
# From -- ./inp_files/106465.got.cif
#   From: 2010.05.17/outbox.cif.g08.bks.cpg/sg2_54_cif.got.tgz:106465.got - 2010.06.03 11:33:40.
