data_PCOD9013238
_publ_section_title
;
Structure prediction by ZEFSAII (Michael W. Deem and Ramdas Pophale) SiO2 
 PCOD9013238
Probable space group: P -1
;
_chemical_formula_sum "Si O2"
_cell_formula_units_Z 14
_cell_length_a 11.446085
_cell_length_b 8.993946
_cell_length_c 17.914397
_cell_angle_alpha 54.494816
_cell_angle_beta 156.493558
_cell_angle_gamma 134.320506
_cell_volume 514.523872
_symmetry_space_group_name_H-M "P -1"
_symmetry_group_IT_number 2
_symmetry_cell_setting 'triclinic'
loop_
_space_group_symop_operation_xyz
x,y,z
-x,-y,-z
loop_
_atom_site_type_symbol
_atom_site_label
_atom_site_fract_x
_atom_site_fract_y
_atom_site_fract_z
Si Si1 0.166990 0.634313 0.899268
Si Si2 0.249973 0.251616 0.074931
Si Si3 0.275276 0.548462 0.561467
Si Si4 0.404409 0.307943 0.444498
Si Si5 0.855859 0.116067 0.627733
Si Si6 0.561274 0.859739 0.927427
Si Si7 0.609377 0.293721 0.843548
O O1 0.923114 0.696616 0.780391
O O2 0.074048 0.390942 0.912772
O O3 0.251830 0.736914 0.838912
O O4 0.474003 0.742497 0.105871
O O5 0.428192 0.323964 0.238903
O O6 0.486101 0.274044 0.135890
O O7 0.000000 0.000000 0.000000
O O8 0.325761 0.619461 0.483692
O O9 0.048485 0.656574 0.417957
O O10 0.317274 0.343496 0.633556
O O11 0.500000 0.500000 0.500000
O O12 0.259414 0.064903 0.451666
O O13 0.129744 0.127071 0.845128
O O14 0.500000 0.000000 0.500000
O O15 0.601302 0.087059 0.866981
O O16 0.000000 0.500000 0.000000
#
# Coordination Sequence:
#
# PCOD9013238 Si02
#       7
#     2   2   2   2   2   2   2
#     4  11  24  41  66 103 133 171 224 276 335 389
#     4  11  24  40  68  98 132 177 224 273 319 404
#     4  10  23  40  64  97 129 168 226 269 326 377
#     4  11  23  38  69  97 133 173 225 273 327 404
#     4  10  21  41  63  98 131 177 219 268 331 398
#     4  12  24  42  73  97 135 173 226 277 330 395
#     4  11  19  40  67  98 125 174 222 270 320 394
#
# _framework density 27.209620999999999
#
# number of rings (size 3 to 8) (size 9 to 14) (size 15 to 20)
#    0.000    1.143    2.857    5.143    6.000    0.000 
#    0.000    2.857    0.000    1.714    0.000    0.000 
#    0.000    0.000    0.000    0.000    0.000    0.000 
#
# Total GULP energy -77980.425205 kJ/mol
# GULP energy per Si atom -5570.030372 kJ/mol
# Density = 2.714769 g / cm^3
# Si number density = 27.209621 Si / 1000 Ang^3
#
#
#
# Elastic Constant Matrix: (Units=GPa)
#
#
# Indices 1 2 3 4 5 6 
#
# 1 65.1140 -10.7829 -13.2005 18.3207 -8.2761 -9.7388
# 2 -10.7829 165.1965 42.3727 -17.2653 -0.0744 -26.0779
# 3 -13.2005 42.3727 54.0783 -3.8630 1.2466 -8.8909
# 4 18.3207 -17.2653 -3.8630 47.7247 -12.0614 6.9020
# 5 -8.2761 -0.0744 1.2466 -12.0614 38.8811 -4.0303
# 6 -9.7388 -26.0779 -8.8909 6.9020 -4.0303 48.1871
#
#
#
# Elastic Compliance Matrix: (Units=1/GPa)
#
#
# Indices 1 2 3 4 5 6 
#
# 1 0.019761 0.000199 0.005120 -0.007405 0.002399 0.006308
# 2 0.000199 0.008307 -0.005791 0.002319 0.001300 0.003244
# 3 0.005120 -0.005791 0.024560 -0.002526 -0.000204 0.002777
# 4 -0.007405 0.002319 -0.002526 0.026613 0.006351 -0.003988
# 5 0.002399 0.001300 -0.000204 0.006351 0.028481 0.002623
# 6 0.006308 0.003244 0.002777 -0.003988 0.002623 0.025086
#
#
# Mechanical properties :
#
#
# Convention : Reuss Voigt Hill
#
# Bulk Modulus (GPa) = 19.34836 35.68528 27.51682
# Shear Modulus (GPa) = 33.11733 44.69188 38.90460
#
# Velocity S-wave (km/s) = 3.49251 4.05718 3.78539
# Velocity P-wave (km/s) = 4.83630 5.92377 5.40744
#
# Compressibility (1/GPa) = 0.05168398
#
# Stress axis : x y z
#
# Youngs Moduli (GPa) = 50.60592 120.38231 40.71678
#
# Poissons Ratio (x) = -0.02401 -0.20847
# Poissons Ratio (y) = -0.01009 0.23579
# Poissons Ratio (z) = -0.25910 0.69715
#
# Static dielectric constant tensor:
#      x y z
#    x 2.418240 0.025750 0.627200 
#    y 0.025750 2.269060 0.096990 
#    z 0.627200 0.096990 4.045970 
# 
# From -- ./inp_files/566660.got.cif
#   From: 2010.05.17/outbox.cif.g08.bks.cpg/sg2_284_cif.got.tgz:566660.got - 2010.06.03 11:33:40.
