data_PCOD9013886
_publ_section_title
;
Structure prediction by ZEFSAII (Michael W. Deem and Ramdas Pophale) SiO2 
 PCOD9013886
Probable space group: P -1
;
_chemical_formula_sum "Si O2"
_cell_formula_units_Z 16
_cell_length_a 19.696089
_cell_length_b 5.876305
_cell_length_c 25.807009
_cell_angle_alpha 100.706352
_cell_angle_beta 162.357513
_cell_angle_gamma 70.218526
_cell_volume 747.543180
_symmetry_space_group_name_H-M "P -1"
_symmetry_group_IT_number 2
_symmetry_cell_setting 'triclinic'
loop_
_space_group_symop_operation_xyz
x,y,z
-x,-y,-z
loop_
_atom_site_type_symbol
_atom_site_label
_atom_site_fract_x
_atom_site_fract_y
_atom_site_fract_z
Si Si1 0.577355 0.682436 0.528822
Si Si2 0.728304 0.035336 0.782156
Si Si3 0.485985 0.575746 0.189980
Si Si4 0.079350 0.892963 0.449932
Si Si5 0.561175 0.474405 0.122383
Si Si6 0.268717 0.308509 0.831475
Si Si7 0.526072 0.992503 0.300370
Si Si8 0.051042 0.538959 0.925390
O O1 0.500000 0.500000 0.500000
O O2 0.437962 0.733399 0.373262
O O3 0.896124 0.509623 0.763415
O O4 0.500000 0.000000 0.500000
O O5 0.543669 0.077252 0.698155
O O6 0.835986 0.745518 0.819370
O O7 0.000000 0.000000 0.000000
O O8 0.705057 0.268499 0.355325
O O9 0.463489 0.578305 0.112773
O O10 0.582942 0.766547 0.289337
O O11 0.213482 0.664314 0.025092
O O12 0.226372 0.971051 0.518402
O O13 0.997760 0.690272 0.358569
O O14 0.814063 0.159473 0.290548
O O15 0.674120 0.635783 0.182352
O O16 0.323408 0.495477 0.916324
O O17 0.500000 0.000000 0.000000
O O18 0.263075 0.267498 0.098894
#
# Coordination Sequence:
#
# PCOD9013886 Si02
#       8
#     2   2   2   2   2   2   2   2
#     4  10  23  43  69  98 132 179 228 278 344 410
#     4  11  21  43  73  95 131 177 221 275 334 401
#     4  11  23  40  63  97 127 170 220 268 336 396
#     4  10  22  40  64  92 130 162 223 273 323 405
#     4  10  21  41  66  87 129 174 212 274 329 396
#     4   9  20  40  63  90 122 168 220 264 334 389
#     4  11  23  39  67 101 131 172 223 276 337 400
#     4  10  23  43  64  94 136 171 222 276 334 409
#
# _framework density 21.403445999999999
#
# number of rings (size 3 to 8) (size 9 to 14) (size 15 to 20)
#    0.000    1.750    1.250    2.250    1.750    7.000 
#    9.000    0.000    0.000    0.000    0.000    0.000 
#    0.000    0.000    0.000    0.000    0.000    0.000 
#
# Total GULP energy -89235.365378 kJ/mol
# GULP energy per Si atom -5577.210336 kJ/mol
# Density = 2.135473 g / cm^3
# Si number density = 21.403446 Si / 1000 Ang^3
#
#
#
# Elastic Constant Matrix: (Units=GPa)
#
#
# Indices 1 2 3 4 5 6 
#
# 1 140.8655 39.3006 26.6989 17.4301 -11.7404 8.0753
# 2 39.3006 62.5720 13.3643 12.2317 4.4584 19.6103
# 3 26.6989 13.3643 67.6116 28.2521 -12.4775 1.7782
# 4 17.4301 12.2317 28.2521 42.7555 6.6701 13.4243
# 5 -11.7404 4.4584 -12.4775 6.6701 28.7428 0.7492
# 6 8.0753 19.6103 1.7782 13.4243 0.7492 25.9979
#
#
#
# Elastic Compliance Matrix: (Units=1/GPa)
#
#
# Indices 1 2 3 4 5 6 
#
# 1 0.009896 -0.007352 0.000642 -0.004854 0.006464 0.004749
# 2 -0.007352 0.028855 -0.008735 0.009964 -0.012966 -0.023656
# 3 0.000642 -0.008735 0.030914 -0.026967 0.020836 0.017599
# 4 -0.004854 0.009964 -0.026967 0.054446 -0.027048 -0.031498
# 5 0.006464 -0.012966 0.020836 -0.027048 0.054276 0.018750
# 6 0.004749 -0.023656 0.017599 -0.031498 0.018750 0.069353
#
#
# Mechanical properties :
#
#
# Convention : Reuss Voigt Hill
#
# Bulk Modulus (GPa) = 25.78996 47.75295 36.77146
# Shear Modulus (GPa) = 17.14947 32.27827 24.71387
#
# Velocity S-wave (km/s) = 2.83370 3.88762 3.40173
# Velocity P-wave (km/s) = 4.77306 6.52003 5.71371
#
# Compressibility (1/GPa) = 0.03877478
#
# Stress axis : x y z
#
# Youngs Moduli (GPa) = 101.05395 34.65624 32.34785
#
# Poissons Ratio (x) = 0.25480 -0.02077
# Poissons Ratio (y) = 0.74298 0.28255
# Poissons Ratio (z) = -0.06489 0.30271
#
# Static dielectric constant tensor:
#      x y z
#    x 1.746830 0.011680 -0.021760 
#    y 0.011680 1.848350 0.021550 
#    z -0.021760 0.021550 1.831890 
# 
# From -- ./inp_files/55290.got.cif
#   From: 2010.05.17/outbox.cif.g08.bks.cpg/sg2_28_cif.got.tgz:55290.got - 2010.06.03 11:33:40.
