data_PCOD9013481
_publ_section_title
;
Structure prediction by ZEFSAII (Michael W. Deem and Ramdas Pophale) SiO2 
 PCOD9013481
Probable space group: P -1
;
_chemical_formula_sum "Si O2"
_cell_formula_units_Z 16
_cell_length_a 7.555311
_cell_length_b 7.214014
_cell_length_c 14.090713
_cell_angle_alpha 76.937723
_cell_angle_beta 97.430721
_cell_angle_gamma 60.142712
_cell_volume 621.675998
_symmetry_space_group_name_H-M "P -1"
_symmetry_group_IT_number 2
_symmetry_cell_setting 'triclinic'
loop_
_space_group_symop_operation_xyz
x,y,z
-x,-y,-z
loop_
_atom_site_type_symbol
_atom_site_label
_atom_site_fract_x
_atom_site_fract_y
_atom_site_fract_z
Si Si1 0.639594 0.984934 0.138097
Si Si2 0.105431 0.808630 0.799224
Si Si3 0.315055 0.443739 0.537593
Si Si4 0.248573 0.907613 0.535424
Si Si5 0.961173 0.663222 0.638564
Si Si6 0.781438 0.624178 0.029599
Si Si7 0.615661 0.177871 0.744864
Si Si8 0.652353 0.591192 0.679671
O O1 0.761409 0.816329 0.077583
O O2 0.540909 0.861822 0.200935
O O3 0.793135 0.042762 0.195828
O O4 0.432400 0.226423 0.064466
O O5 0.098493 0.739537 0.698430
O O6 0.220545 0.577014 0.893365
O O7 0.856812 0.968416 0.791804
O O8 0.337173 0.656494 0.531964
O O9 0.519670 0.229969 0.625655
O O10 0.270678 0.457815 0.421234
O O11 0.123950 0.492972 0.589753
O O12 0.426290 0.831280 0.638538
O O13 0.229460 0.115636 0.454321
O O14 0.000000 0.000000 0.500000
O O15 0.857053 0.595032 0.723149
O O16 0.000000 0.500000 0.000000
O O17 0.625979 0.398265 0.743325
#
# Coordination Sequence:
#
# PCOD9013481 Si02
#       8
#     2   2   2   2   2   2   2   2
#     4  11  27  53  83 112 159 191 240 318 372 459
#     4  12  26  48  76 115 153 196 250 303 382 455
#     4  10  21  41  64  97 147 201 256 312 368 427
#     4   9  19  38  59  90 134 189 252 304 362 426
#     4  11  23  41  66 108 144 197 258 312 373 442
#     4  11  25  55  83 121 147 192 245 297 390 465
#     4  11  24  45  71 108 148 199 252 306 378 435
#     4  11  22  40  70  99 148 203 254 319 366 432
#
# _framework density 25.736877
#
# number of rings (size 3 to 8) (size 9 to 14) (size 15 to 20)
#    0.000    1.250    1.250    4.875    3.500    0.500 
#   20.250    0.000    0.000    0.000    0.000    0.000 
#    0.000    0.000    0.000    0.000    0.000    0.000 
#
# Total GULP energy -89344.336498 kJ/mol
# GULP energy per Si atom -5584.021031 kJ/mol
# Density = 2.567830 g / cm^3
# Si number density = 25.736877 Si / 1000 Ang^3
#
#
#
# Elastic Constant Matrix: (Units=GPa)
#
#
# Indices 1 2 3 4 5 6 
#
# 1 156.8908 46.4595 22.1266 5.8406 -18.3472 2.0229
# 2 46.4595 100.7391 19.8529 -11.2328 -2.6385 -17.4566
# 3 22.1266 19.8529 84.0089 -21.5279 -11.5111 -5.5972
# 4 5.8406 -11.2328 -21.5279 48.0573 0.1903 -3.2479
# 5 -18.3472 -2.6385 -11.5111 0.1903 37.4471 -8.0446
# 6 2.0229 -17.4566 -5.5972 -3.2479 -8.0446 50.0998
#
#
#
# Elastic Compliance Matrix: (Units=1/GPa)
#
#
# Indices 1 2 3 4 5 6 
#
# 1 0.008259 -0.004000 -0.001656 -0.002802 0.002921 -0.001625
# 2 -0.004000 0.013164 -0.000878 0.003498 -0.000282 0.004832
# 3 -0.001656 -0.000878 0.015075 0.006907 0.004280 0.002580
# 4 -0.002802 0.003498 0.006907 0.025326 0.001732 0.004023
# 5 0.002921 -0.000282 0.004280 0.001732 0.030557 0.005281
# 6 -0.001625 0.004832 0.002580 0.004023 0.005281 0.023106
#
#
# Mechanical properties :
#
#
# Convention : Reuss Voigt Hill
#
# Bulk Modulus (GPa) = 42.67904 57.61299 50.14602
# Shear Modulus (GPa) = 36.66631 44.00082 40.33357
#
# Velocity S-wave (km/s) = 3.77856 4.13927 3.96302
# Velocity P-wave (km/s) = 5.97123 6.72894 6.36138
#
# Compressibility (1/GPa) = 0.02343071
#
# Stress axis : x y z
#
# Youngs Moduli (GPa) = 121.08447 75.96337 66.33315
#
# Poissons Ratio (x) = 0.30385 0.10985
# Poissons Ratio (y) = 0.48433 0.05823
# Poissons Ratio (z) = 0.20052 0.06669
#
# Static dielectric constant tensor:
#      x y z
#    x 2.116370 0.005730 -0.102070 
#    y 0.005730 2.101770 0.056590 
#    z -0.102070 0.056590 2.038940 
# 
# From -- ./inp_files/556068.got.cif
#   From: 2010.05.17/outbox.cif.g08.bks.cpg/sg2_279_cif.got.tgz:556068.got - 2010.06.03 11:33:40.
