data_PCOD9013512
_publ_section_title
;
Structure prediction by ZEFSAII (Michael W. Deem and Ramdas Pophale) SiO2 
 PCOD9013512
Probable space group: P -1
;
_chemical_formula_sum "Si O2"
_cell_formula_units_Z 14
_cell_length_a 11.109128
_cell_length_b 6.900318
_cell_length_c 14.117316
_cell_angle_alpha 43.661030
_cell_angle_beta 51.322323
_cell_angle_gamma 72.621479
_cell_volume 559.135067
_symmetry_space_group_name_H-M "P -1"
_symmetry_group_IT_number 2
_symmetry_cell_setting 'triclinic'
loop_
_space_group_symop_operation_xyz
x,y,z
-x,-y,-z
loop_
_atom_site_type_symbol
_atom_site_label
_atom_site_fract_x
_atom_site_fract_y
_atom_site_fract_z
Si Si1 0.110188 0.272141 0.412829
Si Si2 0.030799 0.187768 0.697056
Si Si3 0.899994 0.148224 0.069088
Si Si4 0.714914 0.457658 0.938015
Si Si5 0.536752 0.866725 0.432058
Si Si6 0.330474 0.646846 0.446847
Si Si7 0.438577 0.088779 0.094862
O O1 0.096660 0.171076 0.564429
O O2 0.261642 0.362152 0.236455
O O3 0.084991 0.601817 0.319305
O O4 0.000000 0.000000 0.500000
O O5 0.166353 0.394640 0.625814
O O6 0.000915 0.874921 0.874693
O O7 0.709906 0.032332 0.240691
O O8 0.872785 0.410533 0.924109
O O9 0.000000 0.000000 0.000000
O O10 0.634808 0.644271 0.978696
O O11 0.583779 0.165034 0.072337
O O12 0.390093 0.837265 0.442313
O O13 0.541409 0.535082 0.568595
O O14 0.500000 0.000000 0.500000
O O15 0.309172 0.825084 0.302408
O O16 0.500000 0.000000 0.000000
#
# Coordination Sequence:
#
# PCOD9013512 Si02
#       7
#     2   2   2   2   2   2   2
#     4  11  23  43  67  97 133 181 240 277 350 426
#     4  10  23  41  69  96 135 184 226 292 340 419
#     4  11  22  45  70 102 145 180 223 296 353 405
#     4  11  24  43  68  98 141 182 227 294 352 408
#     4  10  23  40  72 100 139 183 233 281 346 422
#     4  10  21  41  65 100 133 178 235 283 339 407
#     4  11  24  40  68  98 136 178 233 286 347 413
#
# _framework density 25.038671000000001
#
# number of rings (size 3 to 8) (size 9 to 14) (size 15 to 20)
#    0.000    1.429    2.857    1.714    2.000    5.714 
#    0.000    2.143    0.000    0.000    0.000    0.000 
#    0.000    0.000    0.000    0.000    0.000    0.000 
#
# Total GULP energy -77941.665702 kJ/mol
# GULP energy per Si atom -5567.261836 kJ/mol
# Density = 2.498168 g / cm^3
# Si number density = 25.038671 Si / 1000 Ang^3
#
#
#
# Elastic Constant Matrix: (Units=GPa)
#
#
# Indices 1 2 3 4 5 6 
#
# 1 88.0600 53.0924 20.5869 13.5637 28.2638 -2.0803
# 2 53.0924 148.7819 42.7866 40.2912 21.1682 -1.6688
# 3 20.5869 42.7866 84.4558 26.1246 20.1552 1.9734
# 4 13.5637 40.2912 26.1246 42.1177 0.2503 4.9448
# 5 28.2638 21.1682 20.1552 0.2503 47.7579 -5.9032
# 6 -2.0803 -1.6688 1.9734 4.9448 -5.9032 37.1255
#
#
#
# Elastic Compliance Matrix: (Units=1/GPa)
#
#
# Indices 1 2 3 4 5 6 
#
# 1 0.016854 -0.004702 0.000615 -0.001211 -0.008198 -0.000442
# 2 -0.004702 0.011387 -0.001717 -0.008453 -0.001341 0.001252
# 3 0.000615 -0.001717 0.016976 -0.008946 -0.006824 -0.000839
# 4 -0.001211 -0.008453 -0.008946 0.038176 0.007562 -0.003855
# 5 -0.008198 -0.001341 -0.006824 0.007562 0.029664 0.003553
# 6 -0.000442 0.001252 -0.000839 -0.003855 0.003553 0.028090
#
#
# Mechanical properties :
#
#
# Convention : Reuss Voigt Hill
#
# Bulk Modulus (GPa) = 29.75419 61.58105 45.66762
# Shear Modulus (GPa) = 30.49550 39.05568 34.77559
#
# Velocity S-wave (km/s) = 3.49368 3.95373 3.73080
# Velocity P-wave (km/s) = 5.30881 6.74466 6.06935
#
# Compressibility (1/GPa) = 0.03360871
#
# Stress axis : x y z
#
# Youngs Moduli (GPa) = 59.33176 87.82099 58.90678
#
# Poissons Ratio (x) = 0.41293 -0.03623
# Poissons Ratio (y) = 0.27898 0.10116
# Poissons Ratio (z) = -0.03649 0.15081
#
# Static dielectric constant tensor:
#      x y z
#    x 2.152580 -0.037780 0.029820 
#    y -0.037780 2.075510 -0.182280 
#    z 0.029820 -0.182280 2.200500 
# 
# From -- ./inp_files/119206.got.cif
#   From: 2010.05.17/outbox.cif.g08.bks.cpg/sg2_60_cif.got.tgz:119206.got - 2010.06.03 11:33:40.
