data_PCOD9013205
_publ_section_title
;
Structure prediction by ZEFSAII (Michael W. Deem and Ramdas Pophale) SiO2 
 PCOD9013205
Probable space group: P -1
;
_chemical_formula_sum "Si O2"
_cell_formula_units_Z 16
_cell_length_a 9.188391
_cell_length_b 13.099789
_cell_length_c 8.984344
_cell_angle_alpha 94.106466
_cell_angle_beta 80.826349
_cell_angle_gamma 131.661230
_cell_volume 796.708478
_symmetry_space_group_name_H-M "P -1"
_symmetry_group_IT_number 2
_symmetry_cell_setting 'triclinic'
loop_
_space_group_symop_operation_xyz
x,y,z
-x,-y,-z
loop_
_atom_site_type_symbol
_atom_site_label
_atom_site_fract_x
_atom_site_fract_y
_atom_site_fract_z
Si Si1 0.434212 0.369771 0.083967
Si Si2 0.011672 0.525549 0.676035
Si Si3 0.177098 0.971456 0.817772
Si Si4 0.407195 0.886128 0.128734
Si Si5 0.886271 0.686931 0.670287
Si Si6 0.891266 0.837065 0.119018
Si Si7 0.991834 0.276067 0.687210
Si Si8 0.777922 0.371937 0.077496
O O1 0.307520 0.343706 0.245725
O O2 0.625751 0.394002 0.093952
O O3 0.500000 0.500000 0.000000
O O4 0.286069 0.244777 0.980572
O O5 0.199454 0.648853 0.755021
O O6 0.000000 0.500000 0.500000
O O7 0.873723 0.563031 0.718458
O O8 0.994613 0.400123 0.720537
O O9 0.067452 0.831680 0.731391
O O10 0.411156 0.068540 0.796501
O O11 0.117769 0.058537 0.784686
O O12 0.087443 0.922490 0.994705
O O13 0.236833 0.856252 0.256089
O O14 0.308261 0.752612 0.030664
O O15 0.500000 0.000000 0.000000
O O16 0.928001 0.706374 0.489731
O O17 0.888081 0.737327 0.215887
O O18 0.000000 0.500000 0.000000
#
# Coordination Sequence:
#
# PCOD9013205 Si02
#       8
#     2   2   2   2   2   2   2   2
#     4  11  23  39  67  97 123 169 223 269 328 397
#     4  10  22  42  63  91 134 173 210 271 333 390
#     4  10  21  41  63  95 133 171 218 277 321 395
#     4  12  23  38  68  99 127 170 227 269 326 393
#     4  10  24  43  64  96 136 177 218 273 339 392
#     4  10  21  41  64  93 134 167 219 275 327 385
#     4  11  23  41  66  95 138 176 216 277 335 388
#     4  12  23  41  68  95 126 171 221 271 330 389
#
# _framework density 20.082628
#
# number of rings (size 3 to 8) (size 9 to 14) (size 15 to 20)
#    0.000    1.250    3.750    2.250    1.750    1.000 
#    0.000    9.375    0.000    0.000    0.000    0.000 
#    0.000    0.000    0.000    0.000    0.000    0.000 
#
# Total GULP energy -89150.166189 kJ/mol
# GULP energy per Si atom -5571.885387 kJ/mol
# Density = 2.003692 g / cm^3
# Si number density = 20.082628 Si / 1000 Ang^3
#
#
#
# Elastic Constant Matrix: (Units=GPa)
#
#
# Indices 1 2 3 4 5 6 
#
# 1 143.5145 38.4578 58.3981 -7.7924 -2.0655 1.8681
# 2 38.4578 81.6944 28.5140 3.9631 -13.7989 -6.7187
# 3 58.3981 28.5140 109.5683 -0.5417 -9.8808 -1.2161
# 4 -7.7924 3.9631 -0.5417 26.9967 -4.5714 2.8439
# 5 -2.0655 -13.7989 -9.8808 -4.5714 27.2070 -5.0009
# 6 1.8681 -6.7187 -1.2161 2.8439 -5.0009 43.2953
#
#
#
# Elastic Compliance Matrix: (Units=1/GPa)
#
#
# Indices 1 2 3 4 5 6 
#
# 1 0.010013 -0.003850 -0.004576 0.003092 -0.002641 -0.001666
# 2 -0.003850 0.016295 -0.001468 -0.002623 0.007681 0.003713
# 3 -0.004576 -0.001468 0.012264 -0.000355 0.003437 0.000734
# 4 0.003092 -0.002623 -0.000355 0.039417 0.004926 -0.002571
# 5 -0.002641 0.007681 0.003437 0.004926 0.043652 0.006121
# 6 -0.001666 0.003713 0.000734 -0.002571 0.006121 0.024642
#
#
# Mechanical properties :
#
#
# Convention : Reuss Voigt Hill
#
# Bulk Modulus (GPa) = 53.23440 65.05747 59.14593
# Shear Modulus (GPa) = 29.01359 33.46028 31.23694
#
# Velocity S-wave (km/s) = 3.80506 4.08625 3.94816
# Velocity P-wave (km/s) = 6.77273 7.39787 7.09219
#
# Compressibility (1/GPa) = 0.01878485
#
# Stress axis : x y z
#
# Youngs Moduli (GPa) = 99.86715 61.36720 81.53713
#
# Poissons Ratio (x) = 0.23624 0.37315
# Poissons Ratio (y) = 0.38444 0.11970
# Poissons Ratio (z) = 0.45704 0.09009
#
# Static dielectric constant tensor:
#      x y z
#    x 1.735930 -0.007200 0.017200 
#    y -0.007200 1.764020 0.006450 
#    z 0.017200 0.006450 1.747540 
# 
# From -- ./inp_files/188453.got.cif
#   From: 2010.05.17/outbox.cif.g08.bks.cpg/sg2_95_cif.got.tgz:188453.got - 2010.06.03 11:33:40.
