data_PCOD9013111
_publ_section_title
;
Structure prediction by ZEFSAII (Michael W. Deem and Ramdas Pophale) SiO2 
 PCOD9013111
Probable space group: P -1
;
_chemical_formula_sum "Si O2"
_cell_formula_units_Z 16
_cell_length_a 6.197605
_cell_length_b 17.835987
_cell_length_c 8.447997
_cell_angle_alpha 82.470382
_cell_angle_beta 89.675270
_cell_angle_gamma 54.949098
_cell_volume 755.101739
_symmetry_space_group_name_H-M "P -1"
_symmetry_group_IT_number 2
_symmetry_cell_setting 'triclinic'
loop_
_space_group_symop_operation_xyz
x,y,z
-x,-y,-z
loop_
_atom_site_type_symbol
_atom_site_label
_atom_site_fract_x
_atom_site_fract_y
_atom_site_fract_z
Si Si1 0.303751 0.248886 0.799370
Si Si2 0.451340 0.674894 0.018541
Si Si3 0.308416 0.588424 0.271911
Si Si4 0.869062 0.801854 0.889464
Si Si5 0.784964 0.943475 0.592580
Si Si6 0.663857 0.718085 0.710307
Si Si7 0.720538 0.128835 0.555093
Si Si8 0.295357 0.432934 0.454737
O O1 0.512485 0.186701 0.679679
O O2 0.995235 0.321154 0.733765
O O3 0.394634 0.310186 0.853051
O O4 0.311675 0.189158 0.965798
O O5 0.581597 0.674801 0.856340
O O6 0.150291 0.762972 0.975501
O O7 0.423589 0.595797 0.103788
O O8 0.323708 0.495104 0.310574
O O9 0.483881 0.590309 0.409950
O O10 0.789351 0.888217 0.758263
O O11 0.883640 0.726840 0.788555
O O12 0.014261 0.876476 0.481789
O O13 0.500000 0.000000 0.500000
O O14 0.822267 0.023505 0.615247
O O15 0.444152 0.822412 0.620385
O O16 0.697733 0.654221 0.582473
O O17 0.000000 0.500000 0.500000
#
# Coordination Sequence:
#
# PCOD9013111 Si02
#       8
#     2   2   2   2   2   2   2   2
#     4  10  23  42  67  94 129 171 215 265 316 380
#     4  10  21  41  63  90 129 168 215 262 313 384
#     4  10  22  42  65  91 130 168 207 267 324 374
#     4  10  22  42  64  93 129 173 212 258 327 381
#     4  11  23  41  64  95 133 162 214 270 318 385
#     4  11  22  39  66  91 125 171 212 261 317 383
#     4  11  23  39  66  96 124 168 216 268 319 372
#     4  11  24  41  64  97 131 161 215 272 311 382
#
# _framework density 21.189197
#
# number of rings (size 3 to 8) (size 9 to 14) (size 15 to 20)
#    0.000    1.500    2.500    2.250    0.000    7.000 
#    2.250   10.000    0.000    0.000    0.000    0.000 
#    0.000    0.000    0.000    0.000    0.000    0.000 
#
# Total GULP energy -89164.446420 kJ/mol
# GULP energy per Si atom -5572.777901 kJ/mol
# Density = 2.114097 g / cm^3
# Si number density = 21.189197 Si / 1000 Ang^3
#
#
#
# Elastic Constant Matrix: (Units=GPa)
#
#
# Indices 1 2 3 4 5 6 
#
# 1 101.3503 34.6125 51.6741 -4.7470 -8.3934 -25.0732
# 2 34.6125 75.6551 47.2632 -15.5983 -9.6810 7.8497
# 3 51.6741 47.2632 88.4729 -35.8525 -10.2386 20.7230
# 4 -4.7470 -15.5983 -35.8525 39.7287 16.4089 -2.6861
# 5 -8.3934 -9.6810 -10.2386 16.4089 25.0122 -26.5067
# 6 -25.0732 7.8497 20.7230 -2.6861 -26.5067 21.1833
#
#
#
# Elastic Compliance Matrix: (Units=1/GPa)
#
#
# Indices 1 2 3 4 5 6 
#
# 1 0.006132 -0.003375 0.001943 0.006736 -0.015442 -0.011860
# 2 -0.003375 0.020193 -0.008215 -0.000297 0.000528 -0.002819
# 3 0.001943 -0.008215 0.013678 0.002190 0.020205 0.017523
# 4 0.006736 -0.000297 0.002190 0.024816 0.011063 0.022931
# 5 -0.015442 0.000528 0.020205 0.011063 0.009264 -0.025244
# 6 -0.011860 -0.002819 0.017523 0.022931 -0.025244 -0.011608
#
#
# Mechanical properties :
#
#
# Convention : Reuss Voigt Hill
#
# Bulk Modulus (GPa) = 48.29199 59.17535 53.73367
# Shear Modulus (GPa) = 56.38775 25.98005 41.18390
#
# Velocity S-wave (km/s) = 5.16424 3.50537 4.41344
# Velocity P-wave (km/s) = 7.64195 6.66117 7.16836
#
# Compressibility (1/GPa) = 0.02070737
#
# Stress axis : x y z
#
# Youngs Moduli (GPa) = 163.08734 49.52243 73.11105
#
# Poissons Ratio (x) = 0.16716 -0.14203
# Poissons Ratio (y) = 0.55049 0.60059
# Poissons Ratio (z) = -0.31683 0.40682
#
# Static dielectric constant tensor:
#      x y z
#    x 1.793610 0.026810 -0.014940 
#    y 0.026810 1.818050 0.012670 
#    z -0.014940 0.012670 1.830080 
# 
# From -- ./inp_files/56425.got.cif
#   From: 2010.05.17/outbox.cif.g08.bks.cpg/sg2_29_cif.got.tgz:56425.got - 2010.06.03 11:33:40.
