data_PCOD9013986
_publ_section_title
;
Structure prediction by ZEFSAII (Michael W. Deem and Ramdas Pophale) SiO2 
 PCOD9013986
Probable space group: P -1
;
_chemical_formula_sum "Si O2"
_cell_formula_units_Z 16
_cell_length_a 8.460257
_cell_length_b 6.495113
_cell_length_c 14.555310
_cell_angle_alpha 105.032362
_cell_angle_beta 102.966649
_cell_angle_gamma 80.099795
_cell_volume 747.235204
_symmetry_space_group_name_H-M "P -1"
_symmetry_group_IT_number 2
_symmetry_cell_setting 'triclinic'
loop_
_space_group_symop_operation_xyz
x,y,z
-x,-y,-z
loop_
_atom_site_type_symbol
_atom_site_label
_atom_site_fract_x
_atom_site_fract_y
_atom_site_fract_z
Si Si1 0.267119 0.959717 0.035590
Si Si2 0.803456 0.422212 0.511625
Si Si3 0.433282 0.821984 0.858870
Si Si4 0.988275 0.269152 0.929207
Si Si5 0.948983 0.832859 0.604113
Si Si6 0.618189 0.148466 0.582058
Si Si7 0.167564 0.135634 0.762468
Si Si8 0.352571 0.413342 0.685097
O O1 0.381679 0.124363 0.111763
O O2 0.184261 0.815213 0.081107
O O3 0.122803 0.099181 0.977101
O O4 0.373278 0.816441 0.956290
O O5 0.883003 0.609393 0.595874
O O6 0.664819 0.333010 0.541915
O O7 0.726595 0.510968 0.414849
O O8 0.950110 0.236331 0.483832
O O9 0.396541 0.613475 0.774069
O O10 0.327572 0.029653 0.824516
O O11 0.041590 0.267551 0.830280
O O12 0.000000 0.500000 0.000000
O O13 0.789160 0.003566 0.602981
O O14 0.079361 0.934593 0.694308
O O15 0.517834 0.256299 0.666782
O O16 0.500000 0.000000 0.500000
O O17 0.226639 0.281164 0.706762
#
# Coordination Sequence:
#
# PCOD9013986 Si02
#       8
#     2   2   2   2   2   2   2   2
#     4   9  21  41  67  93 122 172 203 259 321 382
#     4  11  25  44  67  89 123 179 213 260 322 382
#     4  10  22  42  65  92 130 164 214 260 322 378
#     4  10  21  41  66  93 130 159 212 258 318 382
#     4  11  25  42  67  91 128 168 218 261 322 379
#     4  12  26  41  63  93 128 164 216 270 317 376
#     4  11  25  40  63  96 127 171 210 269 316 376
#     4  12  25  41  66  95 128 168 218 262 319 380
#
# _framework density 21.412268000000001
#
# number of rings (size 3 to 8) (size 9 to 14) (size 15 to 20)
#    0.000    1.250    2.500    2.250    3.500    4.000 
#    0.000    3.750    0.000    0.000    0.000    0.000 
#    0.000    0.000    0.000    0.000    0.000    0.000 
#
# Total GULP energy -89433.331820 kJ/mol
# GULP energy per Si atom -5589.583239 kJ/mol
# Density = 2.136353 g / cm^3
# Si number density = 21.412268 Si / 1000 Ang^3
#
#
#
# Elastic Constant Matrix: (Units=GPa)
#
#
# Indices 1 2 3 4 5 6 
#
# 1 142.6927 42.5735 45.0477 0.2856 -11.6845 29.4693
# 2 42.5735 64.7419 37.9766 14.7334 -22.2569 17.7656
# 3 45.0477 37.9766 79.8203 22.3729 -11.3403 22.1539
# 4 0.2856 14.7334 22.3729 38.3019 0.0108 1.3931
# 5 -11.6845 -22.2569 -11.3403 0.0108 42.6840 1.6291
# 6 29.4693 17.7656 22.1539 1.3931 1.6291 49.6351
#
#
#
# Elastic Compliance Matrix: (Units=1/GPa)
#
#
# Indices 1 2 3 4 5 6 
#
# 1 0.010191 -0.004828 -0.004004 0.004216 -0.000692 -0.002631
# 2 -0.004828 0.029740 -0.005961 -0.007732 0.012807 -0.005321
# 3 -0.004004 -0.005961 0.022286 -0.010506 0.001918 -0.005204
# 4 0.004216 -0.007732 -0.010506 0.035038 -0.005837 0.004162
# 5 -0.000692 0.012807 0.001918 -0.005837 0.030652 -0.005871
# 6 -0.002631 -0.005321 -0.005204 0.004162 -0.005871 0.026012
#
#
# Mechanical properties :
#
#
# Convention : Reuss Voigt Hill
#
# Bulk Modulus (GPa) = 30.64718 59.82781 45.23750
# Shear Modulus (GPa) = 25.72256 36.90135 31.31195
#
# Velocity S-wave (km/s) = 3.46974 4.15586 3.82820
# Velocity P-wave (km/s) = 5.51326 7.14351 6.38067
#
# Compressibility (1/GPa) = 0.03262942
#
# Stress axis : x y z
#
# Youngs Moduli (GPa) = 98.12699 33.62458 44.87200
#
# Poissons Ratio (x) = 0.16235 0.17967
# Poissons Ratio (y) = 0.47378 0.26749
# Poissons Ratio (z) = 0.39291 0.20045
#
# Static dielectric constant tensor:
#      x y z
#    x 1.790270 -0.031210 -0.004080 
#    y -0.031210 1.782960 -0.021500 
#    z -0.004080 -0.021500 1.773810 
# 
# From -- ./inp_files/488688.got.cif
#   From: 2010.05.17/outbox.cif.g08.bks.cpg/sg2_245_cif.got.tgz:488688.got - 2010.06.03 11:33:40.
