data_PCOD9013121
_publ_section_title
;
Structure prediction by ZEFSAII (Michael W. Deem and Ramdas Pophale) SiO2 
 PCOD9013121
Probable space group: P -1
;
_chemical_formula_sum "Si O2"
_cell_formula_units_Z 14
_cell_length_a 16.999174
_cell_length_b 8.406370
_cell_length_c 23.199669
_cell_angle_alpha 32.293894
_cell_angle_beta 19.912390
_cell_angle_gamma 39.047906
_cell_volume 600.235047
_symmetry_space_group_name_H-M "P -1"
_symmetry_group_IT_number 2
_symmetry_cell_setting 'triclinic'
loop_
_space_group_symop_operation_xyz
x,y,z
-x,-y,-z
loop_
_atom_site_type_symbol
_atom_site_label
_atom_site_fract_x
_atom_site_fract_y
_atom_site_fract_z
Si Si1 0.492489 0.437412 0.820267
Si Si2 0.165930 0.804945 0.003179
Si Si3 0.306489 0.397149 0.490949
Si Si4 0.600063 0.216444 0.938196
Si Si5 0.230921 0.454312 0.712833
Si Si6 0.202760 0.709384 0.766616
Si Si7 0.175051 0.449051 0.212519
O O1 0.639819 0.562911 0.626197
O O2 0.614445 0.340444 0.825016
O O3 0.331655 0.683802 0.877607
O O4 0.349731 0.127694 0.992601
O O5 0.246200 0.726216 0.035088
O O6 0.922707 0.607954 0.218734
O O7 0.162845 0.151318 0.888623
O O8 0.554045 0.424882 0.344225
O O9 0.103144 0.607550 0.579925
O O10 0.212046 0.052200 0.675153
O O11 0.748686 0.435777 0.812106
O O12 0.335114 0.211326 0.147921
O O13 0.500000 0.500000 0.500000
O O14 0.174880 0.710081 0.716674
O O15 0.000000 0.500000 0.000000
#
# Coordination Sequence:
#
# PCOD9013121 Si02
#       7
#     2   2   2   2   2   2   2
#     4  10  21  41  63  91 124 164 209 265 308 374
#     4  10  22  39  60  90 126 161 206 250 312 372
#     4  11  24  38  66 100 126 160 218 251 312 386
#     4   9  22  41  66  88 124 169 212 259 326 350
#     4  11  22  37  60  89 124 163 206 249 302 385
#     4  11  24  41  62  98 131 166 201 258 313 384
#     4  10  21  41  63  91 124 164 209 265 308 374
#
# _framework density 23.324197000000002
#
# number of rings (size 3 to 8) (size 9 to 14) (size 15 to 20)
#    0.000    1.714    0.000    3.429    6.000    5.714 
#    0.000    0.000    6.286    0.000    0.000    0.000 
#    0.000    0.000    0.000    0.000    0.000    0.000 
#
# Total GULP energy -78218.275298 kJ/mol
# GULP energy per Si atom -5587.019664 kJ/mol
# Density = 2.327111 g / cm^3
# Si number density = 23.324197 Si / 1000 Ang^3
#
#
#
# Elastic Constant Matrix: (Units=GPa)
#
#
# Indices 1 2 3 4 5 6 
#
# 1 105.0159 10.9176 32.4142 1.7821 8.4821 10.5768
# 2 10.9176 56.4976 0.1220 16.8041 -7.7737 0.3881
# 3 32.4142 0.1220 98.1797 17.0542 -2.3171 -4.6486
# 4 1.7821 16.8041 17.0542 34.3777 -0.9017 -2.6866
# 5 8.4821 -7.7737 -2.3171 -0.9017 32.2050 3.2036
# 6 10.5768 0.3881 -4.6486 -2.6866 3.2036 27.0720
#
#
#
# Elastic Compliance Matrix: (Units=1/GPa)
#
#
# Indices 1 2 3 4 5 6 
#
# 1 0.012163 -0.003786 -0.004878 0.003166 -0.003906 -0.004759
# 2 -0.003786 0.023103 0.003571 -0.012719 0.006502 -0.000270
# 3 -0.004878 0.003571 0.013354 -0.007810 0.002584 0.003067
# 4 0.003166 -0.012719 -0.007810 0.039072 -0.003561 0.001903
# 5 -0.003906 0.006502 0.002584 -0.003561 0.033984 -0.002498
# 6 -0.004759 -0.000270 0.003067 0.001903 -0.002498 0.039813
#
#
# Mechanical properties :
#
#
# Convention : Reuss Voigt Hill
#
# Bulk Modulus (GPa) = 26.01861 38.51120 32.26491
# Shear Modulus (GPa) = 27.10224 33.14690 30.12457
#
# Velocity S-wave (km/s) = 3.41248 3.77389 3.59773
# Velocity P-wave (km/s) = 5.16780 5.96127 5.57866
#
# Compressibility (1/GPa) = 0.03843402
#
# Stress axis : x y z
#
# Youngs Moduli (GPa) = 82.21783 43.28395 74.88158
#
# Poissons Ratio (x) = 0.16388 0.36530
# Poissons Ratio (y) = 0.31129 -0.26742
# Poissons Ratio (z) = 0.40108 -0.15458
#
# Static dielectric constant tensor:
#      x y z
#    x 1.899770 -0.018710 -0.036840 
#    y -0.018710 1.892580 0.022240 
#    z -0.036840 0.022240 1.886030 
# 
# From -- ./inp_files/117262.got.cif
#   From: 2010.05.17/outbox.cif.g08.bks.cpg/sg2_59_cif.got.tgz:117262.got - 2010.06.03 11:33:40.
