data_PCOD9013082
_publ_section_title
;
Structure prediction by ZEFSAII (Michael W. Deem and Ramdas Pophale) SiO2 
 PCOD9013082
Probable space group: P -1
;
_chemical_formula_sum "Si O2"
_cell_formula_units_Z 16
_cell_length_a 20.567749
_cell_length_b 9.266744
_cell_length_c 17.062394
_cell_angle_alpha 57.831066
_cell_angle_beta 160.522556
_cell_angle_gamma 132.243341
_cell_volume 731.890118
_symmetry_space_group_name_H-M "P -1"
_symmetry_group_IT_number 2
_symmetry_cell_setting 'triclinic'
loop_
_space_group_symop_operation_xyz
x,y,z
-x,-y,-z
loop_
_atom_site_type_symbol
_atom_site_label
_atom_site_fract_x
_atom_site_fract_y
_atom_site_fract_z
Si Si1 0.498644 0.933500 0.127490
Si Si2 0.755113 0.897145 0.301869
Si Si3 0.407822 0.440989 0.000292
Si Si4 0.595871 0.722924 0.581701
Si Si5 0.099089 0.448382 0.761047
Si Si6 0.095031 0.104916 0.959620
Si Si7 0.399525 0.956418 0.310423
Si Si8 0.573566 0.175658 0.289896
O O1 0.739156 0.984498 0.342433
O O2 0.515589 0.984649 0.223496
O O3 0.288322 0.686146 0.940533
O O4 0.419300 0.070590 0.957677
O O5 0.627313 0.646272 0.239272
O O6 0.000000 0.000000 0.500000
O O7 0.381654 0.228056 0.049270
O O8 0.500000 0.500000 0.000000
O O9 0.179663 0.434833 0.769500
O O10 0.500000 0.500000 0.500000
O O11 0.710705 0.758887 0.788604
O O12 0.378212 0.747194 0.325237
O O13 0.826089 0.926954 0.738756
O O14 0.828560 0.375890 0.486470
O O15 0.105389 0.274154 0.866844
O O16 0.175606 0.968163 0.052174
O O17 0.584052 0.133115 0.404965
O O18 0.500000 0.000000 0.500000
#
# Coordination Sequence:
#
# PCOD9013082 Si02
#       8
#     2   2   2   2   2   2   2   2
#     4  10  24  39  60  94 125 161 218 260 306 380
#     4  10  21  42  61  88 129 164 206 271 316 362
#     4  11  23  40  63  91 124 167 216 259 314 380
#     4  10  22  40  67  94 120 162 206 255 320 381
#     4  11  24  40  62  93 127 167 208 262 319 367
#     4  10  21  41  63  88 131 160 200 263 315 374
#     4  10  22  42  65  93 127 163 208 263 319 376
#     4  12  23  41  67  92 126 170 215 261 316 385
#
# _framework density 21.861204000000001
#
# number of rings (size 3 to 8) (size 9 to 14) (size 15 to 20)
#    0.000    1.500    3.750    0.750    3.500    1.000 
#    0.000    2.500    0.000    0.000    0.000    0.000 
#    0.000    0.000    0.000    0.000    0.000    0.000 
#
# Total GULP energy -89247.040661 kJ/mol
# GULP energy per Si atom -5577.940041 kJ/mol
# Density = 2.181145 g / cm^3
# Si number density = 21.861204 Si / 1000 Ang^3
#
#
#
# Elastic Constant Matrix: (Units=GPa)
#
#
# Indices 1 2 3 4 5 6 
#
# 1 130.2819 22.6957 15.8810 -6.4369 8.2850 -9.5505
# 2 22.6957 92.1704 7.5915 -13.3704 -15.3095 -26.6040
# 3 15.8810 7.5915 42.1004 -5.5132 8.0107 -17.7630
# 4 -6.4369 -13.3704 -5.5132 37.4783 -10.2273 -2.7567
# 5 8.2850 -15.3095 8.0107 -10.2273 23.1476 -10.6545
# 6 -9.5505 -26.6040 -17.7630 -2.7567 -10.6545 41.9448
#
#
#
# Elastic Compliance Matrix: (Units=1/GPa)
#
#
# Indices 1 2 3 4 5 6 
#
# 1 0.009323 -0.006947 -0.003708 -0.005346 -0.012396 -0.007354
# 2 -0.006947 0.040945 0.007082 0.035250 0.063825 0.045916
# 3 -0.003708 0.007082 0.032078 0.010502 0.008832 0.020166
# 4 -0.005346 0.035250 0.010502 0.062891 0.071410 0.047860
# 5 -0.012396 0.063825 0.008832 0.071410 0.158039 0.086237
# 6 -0.007354 0.045916 0.020166 0.047860 0.086237 0.084880
#
#
# Mechanical properties :
#
#
# Convention : Reuss Voigt Hill
#
# Bulk Modulus (GPa) = 13.29821 39.65436 26.47629
# Shear Modulus (GPa) = 11.89432 35.07309 23.48370
#
# Velocity S-wave (km/s) = 2.33509 4.00978 3.28108
# Velocity P-wave (km/s) = 3.65601 6.29415 5.14698
#
# Compressibility (1/GPa) = 0.07519809
#
# Stress axis : x y z
#
# Youngs Moduli (GPa) = 107.26163 24.42304 31.17449
#
# Poissons Ratio (x) = 0.16968 0.11561
# Poissons Ratio (y) = 0.74519 -0.22078
# Poissons Ratio (z) = 0.39777 -0.17297
#
# Static dielectric constant tensor:
#      x y z
#    x 1.865090 -0.015830 0.010030 
#    y -0.015830 1.788220 -0.012400 
#    z 0.010030 -0.012400 1.820870 
# 
# From -- ./inp_files/337806.got.cif
#   From: 2010.05.17/outbox.cif.g08.bks.cpg/sg2_169_cif.got.tgz:337806.got - 2010.06.03 11:33:40.
