data_PCOD9013144
_publ_section_title
;
Structure prediction by ZEFSAII (Michael W. Deem and Ramdas Pophale) SiO2 
 PCOD9013144
Probable space group: P -1
;
_chemical_formula_sum "Si O2"
_cell_formula_units_Z 14
_cell_length_a 11.513499
_cell_length_b 14.103111
_cell_length_c 12.307190
_cell_angle_alpha 78.816738
_cell_angle_beta 124.059934
_cell_angle_gamma 148.479982
_cell_volume 654.379567
_symmetry_space_group_name_H-M "P -1"
_symmetry_group_IT_number 2
_symmetry_cell_setting 'triclinic'
loop_
_space_group_symop_operation_xyz
x,y,z
-x,-y,-z
loop_
_atom_site_type_symbol
_atom_site_label
_atom_site_fract_x
_atom_site_fract_y
_atom_site_fract_z
Si Si1 0.773794 0.794370 0.775793
Si Si2 0.527925 0.680514 0.991975
Si Si3 0.489700 0.990981 0.820372
Si Si4 0.691739 0.967436 0.112112
Si Si5 0.153937 0.545656 0.463039
Si Si6 0.240324 0.358865 0.743543
Si Si7 0.538614 0.098426 0.597367
O O1 0.513323 0.718503 0.639263
O O2 0.554645 0.580230 0.777715
O O3 0.925954 0.840230 0.735867
O O4 0.141624 0.064999 0.955713
O O5 0.680919 0.690679 0.142583
O O6 0.436525 0.715904 0.008824
O O7 0.266143 0.463957 0.820751
O O8 0.412828 0.039935 0.835488
O O9 0.664793 0.126339 0.767024
O O10 0.128699 0.710154 0.665517
O O11 0.681643 0.037713 0.991315
O O12 0.000000 0.500000 0.500000
O O13 0.235597 0.672274 0.382520
O O14 0.861333 0.119064 0.544687
O O15 0.500000 0.000000 0.500000
#
# Coordination Sequence:
#
# PCOD9013144 Si02
#       7
#     2   2   2   2   2   2   2
#     4  10  21  41  63  92 130 167 216 262 324 376
#     4   9  22  38  62  91 131 162 219 261 316 384
#     4  11  24  46  65  92 137 170 219 266 319 390
#     4   9  24  46  64  93 131 180 213 261 321 390
#     4  12  24  42  68  97 130 166 215 277 331 376
#     4  11  20  38  63  97 125 165 215 271 321 375
#     4  12  24  38  65  98 126 168 215 269 331 379
#
# _framework density 21.394310999999998
#
# number of rings (size 3 to 8) (size 9 to 14) (size 15 to 20)
#    0.857    0.571    4.286    0.429    4.000    2.857 
#    2.571    2.857    0.000    0.000    0.000    0.000 
#    0.000    0.000    0.000    0.000    0.000    0.000 
#
# Total GULP energy -78113.913825 kJ/mol
# GULP energy per Si atom -5579.565273 kJ/mol
# Density = 2.134562 g / cm^3
# Si number density = 21.394311 Si / 1000 Ang^3
#
#
#
# Elastic Constant Matrix: (Units=GPa)
#
#
# Indices 1 2 3 4 5 6 
#
# 1 133.6837 22.5442 20.4306 1.5627 -9.6509 -10.4063
# 2 22.5442 124.1508 6.4624 -0.1369 -13.4348 -2.3512
# 3 20.4306 6.4624 48.0949 7.7632 1.1452 7.7611
# 4 1.5627 -0.1369 7.7632 33.8890 5.4659 -7.0988
# 5 -9.6509 -13.4348 1.1452 5.4659 28.1860 4.4145
# 6 -10.4063 -2.3512 7.7611 -7.0988 4.4145 24.3163
#
#
#
# Elastic Compliance Matrix: (Units=1/GPa)
#
#
# Indices 1 2 3 4 5 6 
#
# 1 0.008916 -0.001094 -0.004804 0.001565 0.001575 0.005414
# 2 -0.001094 0.008709 -0.000687 -0.000443 0.003929 -0.000250
# 3 -0.004804 -0.000687 0.026455 -0.008733 0.000721 -0.013247
# 4 0.001565 -0.000443 -0.008733 0.036103 -0.008756 0.015543
# 5 0.001575 0.003929 0.000721 -0.008756 0.040996 -0.009175
# 6 0.005414 -0.000250 -0.013247 0.015543 -0.009175 0.053849
#
#
# Mechanical properties :
#
#
# Convention : Reuss Voigt Hill
#
# Bulk Modulus (GPa) = 32.35287 44.97821 38.66554
# Shear Modulus (GPa) = 25.18851 34.37775 29.78313
#
# Velocity S-wave (km/s) = 3.43497 4.01292 3.73514
# Velocity P-wave (km/s) = 5.55761 6.52230 6.05919
#
# Compressibility (1/GPa) = 0.03090916
#
# Stress axis : x y z
#
# Youngs Moduli (GPa) = 112.15836 114.82113 37.79938
#
# Poissons Ratio (x) = 0.12564 0.18160
# Poissons Ratio (y) = 0.12273 0.02598
# Poissons Ratio (z) = 0.53884 0.07890
#
# Static dielectric constant tensor:
#      x y z
#    x 1.822730 0.006180 0.003500 
#    y 0.006180 1.791640 -0.007520 
#    z 0.003500 -0.007520 1.804260 
# 
# From -- ./inp_files/433951.got.cif
#   From: 2010.05.17/outbox.cif.g08.bks.cpg/sg2_217_cif.got.tgz:433951.got - 2010.06.03 11:33:40.
