data_PCOD9013284
_publ_section_title
;
Structure prediction by ZEFSAII (Michael W. Deem and Ramdas Pophale) SiO2 
 PCOD9013284
Probable space group: P -1
;
_chemical_formula_sum "Si O2"
_cell_formula_units_Z 16
_cell_length_a 9.843667
_cell_length_b 8.549354
_cell_length_c 16.707125
_cell_angle_alpha 90.659246
_cell_angle_beta 138.920321
_cell_angle_gamma 70.768571
_cell_volume 806.323232
_symmetry_space_group_name_H-M "P -1"
_symmetry_group_IT_number 2
_symmetry_cell_setting 'triclinic'
loop_
_space_group_symop_operation_xyz
x,y,z
-x,-y,-z
loop_
_atom_site_type_symbol
_atom_site_label
_atom_site_fract_x
_atom_site_fract_y
_atom_site_fract_z
Si Si1 0.644098 0.507760 0.639919
Si Si2 0.126325 0.998483 0.726467
Si Si3 0.429019 0.923533 0.708811
Si Si4 0.181257 0.215907 0.883354
Si Si5 0.345600 0.507452 0.177693
Si Si6 0.111783 0.116045 0.017667
Si Si7 0.397201 0.913925 0.516169
Si Si8 0.510449 0.386962 0.080333
O O1 0.500000 0.500000 0.500000
O O2 0.576933 0.462734 0.698228
O O3 0.594523 0.709998 0.617458
O O4 0.920210 0.377155 0.752049
O O5 0.244275 0.092925 0.832262
O O6 0.846214 0.083813 0.616357
O O7 0.208836 0.999411 0.672283
O O8 0.238912 0.790813 0.798943
O O9 0.567518 0.705236 0.777461
O O10 0.636012 0.960846 0.828801
O O11 0.349842 0.994594 0.584895
O O12 0.159551 0.099017 0.944417
O O13 0.335005 0.304071 0.984901
O O14 0.449960 0.503534 0.135743
O O15 0.073205 0.669455 0.051449
O O16 0.000000 0.000000 0.000000
O O17 0.500000 0.000000 0.500000
O O18 0.500000 0.500000 0.000000
#
# Coordination Sequence:
#
# PCOD9013284 Si02
#       8
#     2   2   2   2   2   2   2   2
#     4  10  21  41  64  87 119 167 206 259 321 364
#     4  11  23  43  63  89 133 168 206 258 325 385
#     4  10  22  41  63  88 127 171 207 255 326 372
#     4  11  23  41  62  93 128 162 215 255 322 384
#     4   9  21  39  60  87 123 161 212 253 310 373
#     4  11  23  35  64  94 126 161 210 266 313 370
#     4  11  25  39  66  94 122 160 225 266 304 379
#     4  11  25  39  66  92 126 169 210 263 321 375
#
# _framework density 19.843157000000001
#
# number of rings (size 3 to 8) (size 9 to 14) (size 15 to 20)
#    0.000    1.500    3.750    1.125    8.750    0.000 
#    0.000    0.000    0.000    1.500    0.000    0.000 
#    0.000    0.000    0.000    0.000    0.000    0.000 
#
# Total GULP energy -89104.537964 kJ/mol
# GULP energy per Si atom -5569.033623 kJ/mol
# Density = 1.979799 g / cm^3
# Si number density = 19.843157 Si / 1000 Ang^3
#
#
#
# Elastic Constant Matrix: (Units=GPa)
#
#
# Indices 1 2 3 4 5 6 
#
# 1 116.3985 35.0471 28.8505 1.7286 -31.8038 5.5103
# 2 35.0471 37.5356 5.2496 3.0119 -9.6632 -14.7201
# 3 28.8505 5.2496 61.7954 8.7416 -13.9410 -0.5325
# 4 1.7286 3.0119 8.7416 24.3687 -3.4096 -0.6088
# 5 -31.8038 -9.6632 -13.9410 -3.4096 45.5978 2.9564
# 6 5.5103 -14.7201 -0.5325 -0.6088 2.9564 32.5408
#
#
#
# Elastic Compliance Matrix: (Units=1/GPa)
#
#
# Indices 1 2 3 4 5 6 
#
# 1 0.019001 -0.020261 -0.005976 0.004132 0.008294 -0.013157
# 2 -0.020261 0.055965 0.005263 -0.007073 -0.003070 0.028980
# 3 -0.005976 0.005263 0.020075 -0.007016 0.002341 0.003377
# 4 0.004132 -0.007073 -0.007016 0.044438 0.002784 -0.003436
# 5 0.008294 -0.003070 0.002341 0.002784 0.028331 -0.005277
# 6 -0.013157 0.028980 0.003377 -0.003436 -0.005277 0.046538
#
#
# Mechanical properties :
#
#
# Convention : Reuss Voigt Hill
#
# Bulk Modulus (GPa) = 18.83547 39.33598 29.08573
# Shear Modulus (GPa) = 18.24852 30.27362 24.26107
#
# Velocity S-wave (km/s) = 3.03584 3.91019 3.50042
# Velocity P-wave (km/s) = 4.66918 6.34449 5.57018
#
# Compressibility (1/GPa) = 0.05309131
#
# Stress axis : x y z
#
# Youngs Moduli (GPa) = 52.63001 17.86827 49.81235
#
# Poissons Ratio (x) = 0.36203 0.29770
# Poissons Ratio (y) = 1.06634 -0.26215
# Poissons Ratio (z) = 0.31454 -0.09403
#
# Static dielectric constant tensor:
#      x y z
#    x 1.712960 -0.051360 -0.014180 
#    y -0.051360 1.745900 0.054040 
#    z -0.014180 0.054040 1.756260 
# 
# From -- ./inp_files/217297.got.cif
#   From: 2010.05.17/outbox.cif.g08.bks.cpg/sg2_109_cif.got.tgz:217297.got - 2010.06.03 11:33:40.
