data_PCOD9013858
_publ_section_title
;
Structure prediction by ZEFSAII (Michael W. Deem and Ramdas Pophale) SiO2 
 PCOD9013858
Probable space group: P -1
;
_chemical_formula_sum "Si O2"
_cell_formula_units_Z 16
_cell_length_a 9.477682
_cell_length_b 8.145407
_cell_length_c 11.446977
_cell_angle_alpha 50.614317
_cell_angle_beta 102.094000
_cell_angle_gamma 105.380918
_cell_volume 657.535552
_symmetry_space_group_name_H-M "P -1"
_symmetry_group_IT_number 2
_symmetry_cell_setting 'triclinic'
loop_
_space_group_symop_operation_xyz
x,y,z
-x,-y,-z
loop_
_atom_site_type_symbol
_atom_site_label
_atom_site_fract_x
_atom_site_fract_y
_atom_site_fract_z
Si Si1 0.751285 0.301619 0.611500
Si Si2 0.393077 0.812660 0.717481
Si Si3 0.873607 0.101928 0.274285
Si Si4 0.402535 0.803491 0.140944
Si Si5 0.294644 0.092823 0.359651
Si Si6 0.335923 0.418043 0.742833
Si Si7 0.120966 0.964160 0.943312
Si Si8 0.901175 0.682188 0.616343
O O1 0.618003 0.204111 0.718788
O O2 0.695521 0.448416 0.436717
O O3 0.866668 0.462994 0.636419
O O4 0.800650 0.101080 0.644196
O O5 0.298569 0.883547 0.774494
O O6 0.566416 0.823297 0.735872
O O7 0.326922 0.567623 0.784727
O O8 0.353943 0.969557 0.535799
O O9 0.947703 0.270984 0.308097
O O10 0.944636 0.131436 0.147013
O O11 0.892852 0.873848 0.436079
O O12 0.496735 0.618667 0.217061
O O13 0.500000 0.000000 0.000000
O O14 0.236411 0.813316 0.070353
O O15 0.213222 0.270117 0.324238
O O16 0.221678 0.196854 0.829956
O O17 0.000000 0.000000 0.000000
#
# Coordination Sequence:
#
# PCOD9013858 Si02
#       8
#     2   2   2   2   2   2   2   2
#     4  11  21  39  75 101 130 178 235 286 335 401
#     4   9  19  38  61  99 132 164 221 286 337 393
#     4  10  22  42  65  93 140 177 221 291 339 392
#     4  10  24  40  65 100 135 175 223 275 350 412
#     4   9  20  34  63 101 137 162 216 293 345 382
#     4  10  21  43  70 100 128 178 235 279 339 412
#     4  11  25  45  66  94 143 187 221 276 352 414
#     4  10  21  41  66 102 133 175 238 284 332 400
#
# _framework density 24.333286000000001
#
# number of rings (size 3 to 8) (size 9 to 14) (size 15 to 20)
#    0.000    2.000    1.250    1.125    5.250    3.000 
#    0.000    6.250    0.000    0.000    0.000    0.000 
#    0.000    0.000    0.000    0.000    0.000    0.000 
#
# Total GULP energy -89344.909045 kJ/mol
# GULP energy per Si atom -5584.056815 kJ/mol
# Density = 2.427790 g / cm^3
# Si number density = 24.333286 Si / 1000 Ang^3
#
#
#
# Elastic Constant Matrix: (Units=GPa)
#
#
# Indices 1 2 3 4 5 6 
#
# 1 137.8209 20.8281 32.2021 21.0900 4.9285 -20.1545
# 2 20.8281 100.3695 18.1349 21.4429 -1.3232 8.7606
# 3 32.2021 18.1349 80.9192 9.4088 -5.6709 -3.4142
# 4 21.0900 21.4429 9.4088 15.4661 -7.4753 -12.7576
# 5 4.9285 -1.3232 -5.6709 -7.4753 31.2911 3.7630
# 6 -20.1545 8.7606 -3.4142 -12.7576 3.7630 31.6301
#
#
#
# Elastic Compliance Matrix: (Units=1/GPa)
#
#
# Indices 1 2 3 4 5 6 
#
# 1 0.010978 0.003903 -0.002993 -0.025357 -0.007717 -0.003719
# 2 0.003903 0.032446 -0.001030 -0.092091 -0.016402 -0.041804
# 3 -0.002993 -0.001030 0.014277 -0.003476 0.002397 -0.001768
# 4 -0.025357 -0.092091 -0.003476 0.397717 0.075187 0.160444
# 5 -0.007717 -0.016402 0.002397 0.075187 0.047929 0.024509
# 6 -0.003719 -0.041804 -0.001768 0.160444 0.024509 0.102431
#
#
# Mechanical properties :
#
#
# Convention : Reuss Voigt Hill
#
# Bulk Modulus (GPa) = 17.40298 51.27110 34.33704
# Shear Modulus (GPa) = 7.99780 32.20709 20.10245
#
# Velocity S-wave (km/s) = 1.81491 3.64205 2.87737
# Velocity P-wave (km/s) = 3.39990 6.22914 5.01804
#
# Compressibility (1/GPa) = 0.05746142
#
# Stress axis : x y z
#
# Youngs Moduli (GPa) = 91.09429 30.82013 70.04089
#
# Poissons Ratio (x) = -0.12029 0.20960
# Poissons Ratio (y) = -0.35552 0.07216
# Poissons Ratio (z) = 0.27261 0.03175
#
# Static dielectric constant tensor:
#      x y z
#    x 1.967450 0.048540 -0.024180 
#    y 0.048540 1.954920 0.003970 
#    z -0.024180 0.003970 1.910010 
# 
# From -- ./inp_files/381080.got.cif
#   From: 2010.05.17/outbox.cif.g08.bks.cpg/sg2_191_cif.got.tgz:381080.got - 2010.06.03 11:33:40.
