data_PCOD9013818
_publ_section_title
;
Structure prediction by ZEFSAII (Michael W. Deem and Ramdas Pophale) SiO2 
 PCOD9013818
Probable space group: P -1
;
_chemical_formula_sum "Si O2"
_cell_formula_units_Z 16
_cell_length_a 14.024396
_cell_length_b 9.393740
_cell_length_c 8.300922
_cell_angle_alpha 65.117816
_cell_angle_beta 43.474651
_cell_angle_gamma 65.326477
_cell_volume 671.472139
_symmetry_space_group_name_H-M "P -1"
_symmetry_group_IT_number 2
_symmetry_cell_setting 'triclinic'
loop_
_space_group_symop_operation_xyz
x,y,z
-x,-y,-z
loop_
_atom_site_type_symbol
_atom_site_label
_atom_site_fract_x
_atom_site_fract_y
_atom_site_fract_z
Si Si1 0.304467 0.438963 0.100609
Si Si2 0.666526 0.889690 0.975995
Si Si3 0.552037 0.541363 0.593333
Si Si4 0.964959 0.850152 0.711302
Si Si5 0.212691 0.694003 0.682510
Si Si6 0.955293 0.493574 0.796994
Si Si7 0.737826 0.715117 0.446290
Si Si8 0.352074 0.967743 0.419797
O O1 0.333592 0.286148 0.015937
O O2 0.140403 0.517986 0.238276
O O3 0.324952 0.370107 0.285333
O O4 0.417445 0.546756 0.867625
O O5 0.799058 0.888471 0.929657
O O6 0.690076 0.990332 0.736697
O O7 0.519299 0.956097 0.207762
O O8 0.500000 0.500000 0.500000
O O9 0.679710 0.391546 0.543970
O O10 0.635222 0.686805 0.440437
O O11 0.980967 0.674985 0.690584
O O12 0.075085 0.813375 0.736739
O O13 0.000000 0.000000 0.500000
O O14 0.305417 0.804313 0.607088
O O15 0.154060 0.554056 0.913362
O O16 0.099991 0.373510 0.713302
O O17 0.721684 0.895202 0.437656
#
# Coordination Sequence:
#
# PCOD9013818 Si02
#       8
#     2   2   2   2   2   2   2   2
#     4  10  21  42  70  99 133 181 240 288 345 419
#     4   9  19  37  66  97 134 186 234 285 337 417
#     4  12  24  44  70 101 138 188 239 293 355 421
#     4  11  22  39  67 105 135 183 246 286 336 420
#     4  12  23  42  72  99 143 190 237 284 356 424
#     4  11  24  43  69 104 141 185 229 294 359 422
#     4  11  25  42  69 103 144 179 239 292 350 419
#     4  10  21  41  65  98 139 184 231 292 346 408
#
# _framework density 23.828240999999998
#
# number of rings (size 3 to 8) (size 9 to 14) (size 15 to 20)
#    0.000    1.250    5.000    1.125    0.000    0.500 
#    2.250    0.625    0.000    0.000    0.000    0.000 
#    0.000    0.000    0.000    0.000    0.000    0.000 
#
# Total GULP energy -89374.999686 kJ/mol
# GULP energy per Si atom -5585.937480 kJ/mol
# Density = 2.377401 g / cm^3
# Si number density = 23.828241 Si / 1000 Ang^3
#
#
#
# Elastic Constant Matrix: (Units=GPa)
#
#
# Indices 1 2 3 4 5 6 
#
# 1 77.5368 13.4953 22.4277 -0.4747 -24.0195 -7.5480
# 2 13.4953 124.6500 48.7648 -12.1132 -15.4003 2.4758
# 3 22.4277 48.7648 99.0132 -14.8109 -26.8356 6.8954
# 4 -0.4747 -12.1132 -14.8109 39.1582 -7.4763 -3.0907
# 5 -24.0195 -15.4003 -26.8356 -7.4763 42.4988 -1.8370
# 6 -7.5480 2.4758 6.8954 -3.0907 -1.8370 32.2476
#
#
#
# Elastic Compliance Matrix: (Units=1/GPa)
#
#
# Indices 1 2 3 4 5 6 
#
# 1 0.016575 -0.000079 -0.001347 0.001771 0.009010 0.004857
# 2 -0.000079 0.010048 -0.004397 0.001690 0.001134 0.000377
# 3 -0.001347 -0.004397 0.016027 0.006174 0.008751 -0.002314
# 4 0.001771 0.001690 0.006174 0.030722 0.011026 0.002537
# 5 0.009010 0.001134 0.008751 0.011026 0.036642 0.003295
# 6 0.004857 0.000377 -0.002314 0.002537 0.003295 0.033044
#
#
# Mechanical properties :
#
#
# Convention : Reuss Voigt Hill
#
# Bulk Modulus (GPa) = 32.25299 52.28616 42.26958
# Shear Modulus (GPa) = 30.29602 37.21505 33.75553
#
# Velocity S-wave (km/s) = 3.56958 3.95625 3.76788
# Velocity P-wave (km/s) = 5.52759 6.54674 6.05863
#
# Compressibility (1/GPa) = 0.03100487
#
# Stress axis : x y z
#
# Youngs Moduli (GPa) = 60.33058 99.52218 62.39510
#
# Poissons Ratio (x) = 0.00784 0.08404
# Poissons Ratio (y) = 0.00475 0.27435
# Poissons Ratio (z) = 0.08126 0.43760
#
# Static dielectric constant tensor:
#      x y z
#    x 1.981630 -0.024860 0.045060 
#    y -0.024860 1.896600 -0.011800 
#    z 0.045060 -0.011800 1.923690 
# 
# From -- ./inp_files/297750.got.cif
#   From: 2010.05.17/outbox.cif.g08.bks.cpg/sg2_149_cif.got.tgz:297750.got - 2010.06.03 11:33:40.
