data_PCOD9013433
_publ_section_title
;
Structure prediction by ZEFSAII (Michael W. Deem and Ramdas Pophale) SiO2 
 PCOD9013433
Probable space group: P -1
;
_chemical_formula_sum "Si O2"
_cell_formula_units_Z 14
_cell_length_a 9.413331
_cell_length_b 9.011983
_cell_length_c 13.070008
_cell_angle_alpha 50.923978
_cell_angle_beta 69.534719
_cell_angle_gamma 50.170566
_cell_volume 658.286073
_symmetry_space_group_name_H-M "P -1"
_symmetry_group_IT_number 2
_symmetry_cell_setting 'triclinic'
loop_
_space_group_symop_operation_xyz
x,y,z
-x,-y,-z
loop_
_atom_site_type_symbol
_atom_site_label
_atom_site_fract_x
_atom_site_fract_y
_atom_site_fract_z
Si Si1 0.057490 0.176949 0.422022
Si Si2 0.628818 0.455492 0.146223
Si Si3 0.059046 0.161803 0.867996
Si Si4 0.710188 0.670249 0.211734
Si Si5 0.304903 0.489033 0.107510
Si Si6 0.782715 0.933021 0.359403
Si Si7 0.464157 0.968946 0.324424
O O1 0.079302 0.214088 0.519844
O O2 0.893227 0.418516 0.307701
O O3 0.264477 0.046038 0.379395
O O4 0.000000 0.000000 0.500000
O O5 0.633794 0.623942 0.150532
O O6 0.430167 0.558903 0.099123
O O7 0.693744 0.206979 0.285953
O O8 0.755122 0.408829 0.035567
O O9 0.217432 0.164005 0.887853
O O10 0.122122 0.115610 0.754608
O O11 0.869672 0.418750 0.817252
O O12 0.000000 0.000000 0.000000
O O13 0.558450 0.779125 0.293244
O O14 0.426595 0.210947 0.187631
O O15 0.620347 0.893568 0.404340
#
# Coordination Sequence:
#
# PCOD9013433 Si02
#       7
#     2   2   2   2   2   2   2
#     4  12  24  44  67  95 130 171 220 273 318 372
#     4  10  21  41  64  95 130 172 211 271 322 388
#     4  11  22  42  67  99 130 170 218 264 324 393
#     4  11  25  44  66  99 133 167 222 267 321 385
#     4  10  21  42  67  91 134 172 213 263 334 385
#     4  10  22  42  67  92 133 170 216 266 319 385
#     4  10  24  44  64  94 132 172 216 264 322 391
#
# _framework density 21.267351000000001
#
# number of rings (size 3 to 8) (size 9 to 14) (size 15 to 20)
#    0.000    1.429    4.286    0.429    2.000    5.143 
#    7.714    0.000    0.000    0.000    0.000    0.000 
#    0.000    0.000    0.000    0.000    0.000    0.000 
#
# Total GULP energy -78171.953125 kJ/mol
# GULP energy per Si atom -5583.710937 kJ/mol
# Density = 2.121895 g / cm^3
# Si number density = 21.267351 Si / 1000 Ang^3
#
#
#
# Elastic Constant Matrix: (Units=GPa)
#
#
# Indices 1 2 3 4 5 6 
#
# 1 137.9145 62.8067 58.5991 29.3792 -2.9879 20.9503
# 2 62.8067 104.7041 20.1686 28.9674 -4.2257 2.4874
# 3 58.5991 20.1686 59.0497 13.6610 -0.7661 7.9635
# 4 29.3792 28.9674 13.6610 36.1761 0.1923 0.2206
# 5 -2.9879 -4.2257 -0.7661 0.1923 35.6562 7.8786
# 6 20.9503 2.4874 7.9635 0.2206 7.8786 37.3782
#
#
#
# Elastic Compliance Matrix: (Units=1/GPa)
#
#
# Indices 1 2 3 4 5 6 
#
# 1 0.018305 -0.006938 -0.013855 -0.004045 0.002038 -0.007252
# 2 -0.006938 0.015237 0.003220 -0.007800 0.000883 0.002048
# 3 -0.013855 0.003220 0.030028 -0.002671 -0.000397 0.001253
# 4 -0.004045 -0.007800 -0.002671 0.038172 -0.002327 0.003620
# 5 0.002038 0.000883 -0.000397 -0.002327 0.029964 -0.007419
# 6 -0.007252 0.002048 0.001253 0.003620 -0.007419 0.031957
#
#
# Mechanical properties :
#
#
# Convention : Reuss Voigt Hill
#
# Bulk Modulus (GPa) = 35.18091 64.97969 50.08030
# Shear Modulus (GPa) = 24.00569 32.51503 28.26036
#
# Velocity S-wave (km/s) = 3.36334 3.91432 3.64925
# Velocity P-wave (km/s) = 5.62680 7.14488 6.43079
#
# Compressibility (1/GPa) = 0.02842450
#
# Stress axis : x y z
#
# Youngs Moduli (GPa) = 54.63060 65.63056 33.30175
#
# Poissons Ratio (x) = 0.45532 0.46141
# Poissons Ratio (y) = 0.37901 -0.10724
# Poissons Ratio (z) = 0.75692 -0.21134
#
# Static dielectric constant tensor:
#      x y z
#    x 1.765320 -0.005620 -0.032820 
#    y -0.005620 1.809090 -0.025890 
#    z -0.032820 -0.025890 1.793000 
# 
# From -- ./inp_files/186351.got.cif
#   From: 2010.05.17/outbox.cif.g08.bks.cpg/sg2_94_cif.got.tgz:186351.got - 2010.06.03 11:33:40.
