data_PCOD9013768
_publ_section_title
;
Structure prediction by ZEFSAII (Michael W. Deem and Ramdas Pophale) SiO2 
 PCOD9013768
Probable space group: P -1
;
_chemical_formula_sum "Si O2"
_cell_formula_units_Z 16
_cell_length_a 15.005079
_cell_length_b 12.432948
_cell_length_c 12.557111
_cell_angle_alpha 130.660392
_cell_angle_beta 26.549133
_cell_angle_gamma 134.321833
_cell_volume 746.512886
_symmetry_space_group_name_H-M "P -1"
_symmetry_group_IT_number 2
_symmetry_cell_setting 'triclinic'
loop_
_space_group_symop_operation_xyz
x,y,z
-x,-y,-z
loop_
_atom_site_type_symbol
_atom_site_label
_atom_site_fract_x
_atom_site_fract_y
_atom_site_fract_z
Si Si1 0.575030 0.805352 0.883815
Si Si2 0.456724 0.969455 0.652186
Si Si3 0.913862 0.051396 0.817746
Si Si4 0.528250 0.521929 0.132721
Si Si5 0.510245 0.351517 0.529777
Si Si6 0.761390 0.668793 0.404295
Si Si7 0.862074 0.581333 0.639313
Si Si8 0.770704 0.113416 0.595590
O O1 0.774648 0.933480 0.804438
O O2 0.493442 0.653749 0.946583
O O3 0.645669 0.744125 0.661892
O O4 0.385990 0.873599 0.135017
O O5 0.454892 0.803576 0.580539
O O6 0.500000 0.000000 0.500000
O O7 0.635735 0.085013 0.611629
O O8 0.231315 0.973709 0.938206
O O9 0.128159 0.015884 0.584914
O O10 0.996407 0.222458 0.797251
O O11 0.594587 0.603289 0.225306
O O12 0.292402 0.516260 0.349554
O O13 0.694646 0.602897 0.916852
O O14 0.718712 0.498167 0.378725
O O15 0.358274 0.340002 0.584949
O O16 0.000000 0.500000 0.500000
O O17 0.026240 0.735925 0.523050
#
# Coordination Sequence:
#
# PCOD9013768 Si02
#       8
#     2   2   2   2   2   2   2   2
#     4  10  21  41  65  96 126 161 217 274 316 373
#     4  11  27  43  65  97 134 169 214 263 319 390
#     4  11  23  43  67  97 125 171 216 264 326 375
#     4  10  22  38  63  93 130 165 215 265 314 383
#     4  10  23  45  64  93 132 172 211 264 315 381
#     4  10  22  45  69  91 130 173 216 265 318 380
#     4  11  22  37  63  94 128 171 211 264 322 380
#     4  11  23  41  64  97 131 166 216 263 325 379
#
# _framework density 21.432986
#
# number of rings (size 3 to 8) (size 9 to 14) (size 15 to 20)
#    0.000    1.500    3.750    0.375    3.500    2.500 
#    2.250    0.000    0.000    0.000    0.000    0.000 
#    0.000    0.000    0.000    0.000    0.000    0.000 
#
# Total GULP energy -89367.627234 kJ/mol
# GULP energy per Si atom -5585.476702 kJ/mol
# Density = 2.138420 g / cm^3
# Si number density = 21.432986 Si / 1000 Ang^3
#
#
#
# Elastic Constant Matrix: (Units=GPa)
#
#
# Indices 1 2 3 4 5 6 
#
# 1 82.9983 27.2201 49.4411 -0.2336 20.3729 8.7285
# 2 27.2201 62.7904 30.3009 -0.9624 1.5509 6.8703
# 3 49.4411 30.3009 96.3079 -14.6551 2.8249 11.1159
# 4 -0.2336 -0.9624 -14.6551 29.1458 -0.8903 -2.8298
# 5 20.3729 1.5509 2.8249 -0.8903 36.7671 5.4222
# 6 8.7285 6.8703 11.1159 -2.8298 5.4222 34.4136
#
#
#
# Elastic Compliance Matrix: (Units=1/GPa)
#
#
# Indices 1 2 3 4 5 6 
#
# 1 0.022863 -0.004463 -0.010866 -0.005789 -0.011783 -0.000017
# 2 -0.004463 0.019961 -0.004056 -0.001544 0.002203 -0.002017
# 3 -0.010866 -0.004056 0.018768 0.009128 0.005353 -0.002590
# 4 -0.005789 -0.001544 0.009128 0.039051 0.003293 0.001520
# 5 -0.011783 0.002203 0.005353 0.003293 0.033930 -0.004255
# 6 -0.000017 -0.002017 -0.002590 0.001520 -0.004255 0.031097
#
#
# Mechanical properties :
#
#
# Convention : Reuss Voigt Hill
#
# Bulk Modulus (GPa) = 43.81740 50.66896 47.24318
# Shear Modulus (GPa) = 23.57961 29.07428 26.32694
#
# Velocity S-wave (km/s) = 3.32046 3.68709 3.50857
# Velocity P-wave (km/s) = 5.93202 6.46670 6.20512
#
# Compressibility (1/GPa) = 0.02282198
#
# Stress axis : x y z
#
# Youngs Moduli (GPa) = 43.73925 50.09860 53.28080
#
# Poissons Ratio (x) = 0.22361 0.57895
# Poissons Ratio (y) = 0.19522 0.21609
# Poissons Ratio (z) = 0.47527 0.20318
#
# Static dielectric constant tensor:
#      x y z
#    x 1.778230 -0.038330 -0.003400 
#    y -0.038330 1.845270 0.009210 
#    z -0.003400 0.009210 1.770360 
# 
# From -- ./inp_files/451587.got.cif
#   From: 2010.05.17/outbox.cif.g08.bks.cpg/sg2_226_cif.got.tgz:451587.got - 2010.06.03 11:33:40.
