data_PCOD9013446
_publ_section_title
;
Structure prediction by ZEFSAII (Michael W. Deem and Ramdas Pophale) SiO2 
 PCOD9013446
Probable space group: P -1
;
_chemical_formula_sum "Si O2"
_cell_formula_units_Z 13
_cell_length_a 15.592963
_cell_length_b 9.771533
_cell_length_c 7.091370
_cell_angle_alpha 76.201148
_cell_angle_beta 93.648655
_cell_angle_gamma 152.009213
_cell_volume 466.163761
_symmetry_space_group_name_H-M "P -1"
_symmetry_group_IT_number 2
_symmetry_cell_setting 'triclinic'
loop_
_space_group_symop_operation_xyz
x,y,z
-x,-y,-z
loop_
_atom_site_type_symbol
_atom_site_label
_atom_site_fract_x
_atom_site_fract_y
_atom_site_fract_z
Si Si1 0.987002 0.735669 0.455418
Si Si2 0.669112 0.627622 0.481617
Si Si3 0.840100 0.551145 0.055729
Si Si4 0.303642 0.372280 0.942440
Si Si5 0.263255 0.994574 0.203620
Si Si6 0.441323 0.852496 0.334837
Si Si7 0.000000 0.500000 0.000000
O O1 0.914199 0.654808 0.253229
O O2 0.781303 0.429979 0.630440
O O3 0.141974 0.066220 0.466286
O O4 0.126573 0.802708 0.431161
O O5 0.500000 0.500000 0.500000
O O6 0.747655 0.726467 0.248926
O O7 0.567317 0.330514 0.616161
O O8 0.819311 0.684561 0.963091
O O9 0.969058 0.627467 0.943256
O O10 0.624027 0.171229 0.137145
O O11 0.523209 0.749645 0.831502
O O12 0.299047 0.214074 0.092009
O O13 0.157640 0.759897 0.101311
O O14 0.500000 0.000000 0.500000
#
# Coordination Sequence:
#
# PCOD9013446 Si02
#       7
#     2   2   2   2   2   2   1
#     4  10  21  41  67 101 134 172 230 278 334 411
#     4  12  23  40  68 105 133 181 230 274 347 405
#     4  10  23  45  68  99 141 178 226 288 346 397
#     4  11  23  44  68  97 140 187 221 280 348 401
#     4  10  24  45  66  98 140 177 234 284 325 420
#     4  10  21  41  64  95 139 170 222 287 331 405
#     4  10  24  44  66  98 132 176 230 284 338 402
#
# _framework density 27.887194999999998
#
# number of rings (size 3 to 8) (size 9 to 14) (size 15 to 20)
#    0.000    1.538    4.615    0.462    2.154    3.077 
#    2.769    3.846    0.000    0.000    0.000    0.000 
#    0.000    0.000    0.000    0.000    0.000    0.000 
#
# Total GULP energy -72513.704406 kJ/mol
# GULP energy per Si atom -5577.977262 kJ/mol
# Density = 2.782372 g / cm^3
# Si number density = 27.887195 Si / 1000 Ang^3
#
#
#
# Elastic Constant Matrix: (Units=GPa)
#
#
# Indices 1 2 3 4 5 6 
#
# 1 195.8221 71.9178 24.2369 -12.4617 -15.1488 -8.7160
# 2 71.9178 272.1867 31.8899 1.2079 -5.5994 3.4058
# 3 24.2369 31.8899 38.3588 -0.7219 2.7171 0.1341
# 4 -12.4617 1.2079 -0.7219 55.4242 2.4019 -0.8247
# 5 -15.1488 -5.5994 2.7171 2.4019 37.0160 -6.0639
# 6 -8.7160 3.4058 0.1341 -0.8247 -6.0639 54.7835
#
#
#
# Elastic Compliance Matrix: (Units=1/GPa)
#
#
# Indices 1 2 3 4 5 6 
#
# 1 0.006320 -0.001272 -0.003112 0.001309 0.002770 0.001418
# 2 -0.001272 0.004357 -0.002847 -0.000438 0.000304 -0.000439
# 3 -0.003112 -0.002847 0.030695 -0.000073 -0.004092 -0.000847
# 4 0.001309 -0.000438 -0.000073 0.018380 -0.000645 0.000441
# 5 0.002770 0.000304 -0.004092 -0.000645 0.029135 0.003647
# 6 0.001418 -0.000439 -0.000847 0.000441 0.003647 0.018919
#
#
# Mechanical properties :
#
#
# Convention : Reuss Voigt Hill
#
# Bulk Modulus (GPa) = 37.16214 84.71742 60.93978
# Shear Modulus (GPa) = 38.09895 54.66630 46.38263
#
# Velocity S-wave (km/s) = 3.70020 4.43229 4.08269
# Velocity P-wave (km/s) = 5.62229 7.52583 6.64260
#
# Compressibility (1/GPa) = 0.02690911
#
# Stress axis : x y z
#
# Youngs Moduli (GPa) = 158.23630 229.50324 32.57906
#
# Poissons Ratio (x) = 0.29187 0.10140
# Poissons Ratio (y) = 0.20123 0.09276
# Poissons Ratio (z) = 0.49248 0.65343
#
# Static dielectric constant tensor:
#      x y z
#    x 2.162980 0.021970 -0.023520 
#    y 0.021970 2.150610 -0.038840 
#    z -0.023520 -0.038840 2.338740 
# 
# From -- ./inp_files/233407.got.cif
#   From: 2010.05.17/outbox.cif.g08.bks.cpg/sg2_117_cif.got.tgz:233407.got - 2010.06.03 11:33:40.
