data_PCOD9013064
_publ_section_title
;
Structure prediction by ZEFSAII (Michael W. Deem and Ramdas Pophale) SiO2 
 PCOD9013064
Probable space group: P -1
;
_chemical_formula_sum "Si O2"
_cell_formula_units_Z 14
_cell_length_a 18.267394
_cell_length_b 9.490137
_cell_length_c 11.699329
_cell_angle_alpha 40.183652
_cell_angle_beta 25.577134
_cell_angle_gamma 49.706952
_cell_volume 558.399759
_symmetry_space_group_name_H-M "P -1"
_symmetry_group_IT_number 2
_symmetry_cell_setting 'triclinic'
loop_
_space_group_symop_operation_xyz
x,y,z
-x,-y,-z
loop_
_atom_site_type_symbol
_atom_site_label
_atom_site_fract_x
_atom_site_fract_y
_atom_site_fract_z
Si Si1 0.408701 0.164218 0.241928
Si Si2 0.732718 0.684003 0.853830
Si Si3 0.167826 0.686112 0.171694
Si Si4 0.436576 0.713190 0.403904
Si Si5 0.340671 0.124534 0.610114
Si Si6 0.038722 0.763918 0.544345
Si Si7 0.263445 0.570225 0.519833
O O1 0.246385 0.179606 0.377965
O O2 0.381524 0.242668 0.358052
O O3 0.422887 0.906285 0.390345
O O4 0.575285 0.296813 0.862229
O O5 0.689277 0.439903 0.010851
O O6 0.869848 0.672130 0.766983
O O7 0.591790 0.797065 0.047495
O O8 0.176010 0.749804 0.255353
O O9 0.000000 0.500000 0.500000
O O10 0.182939 0.923618 0.945212
O O11 0.500000 0.500000 0.500000
O O12 0.278603 0.653361 0.577460
O O13 0.285641 0.313546 0.650394
O O14 0.500000 0.000000 0.500000
O O15 0.099202 0.626727 0.648514
O O16 0.000000 0.000000 0.500000
#
# Coordination Sequence:
#
# PCOD9013064 Si02
#       7
#     2   2   2   2   2   2   2
#     4  11  21  39  65  94 128 170 215 262 321 386
#     4  10  21  41  63  87 125 173 210 254 318 387
#     4  10  23  43  63  88 128 173 210 256 324 390
#     4  11  22  39  62  94 129 168 213 263 319 385
#     4  12  23  40  68 100 129 165 217 276 320 375
#     4  11  22  41  64  89 124 168 212 264 318 375
#     4  11  23  39  64  98 128 165 215 269 322 376
#
# _framework density 25.071643999999999
#
# number of rings (size 3 to 8) (size 9 to 14) (size 15 to 20)
#    0.000    1.143    0.000    9.000    0.000    1.143 
#    0.000   17.143    0.000    0.000    0.000    0.000 
#    0.000    0.000    0.000    0.000    0.000    0.000 
#
# Total GULP energy -78095.740968 kJ/mol
# GULP energy per Si atom -5578.267212 kJ/mol
# Density = 2.501458 g / cm^3
# Si number density = 25.071644 Si / 1000 Ang^3
#
#
#
# Elastic Constant Matrix: (Units=GPa)
#
#
# Indices 1 2 3 4 5 6 
#
# 1 141.2226 22.6335 8.4272 2.6076 -8.5394 -17.2697
# 2 22.6335 149.3774 8.6562 -30.8138 -17.8306 9.3138
# 3 8.4272 8.6562 64.8939 -14.8765 -8.4944 -8.0927
# 4 2.6076 -30.8138 -14.8765 39.2939 -5.2189 0.7626
# 5 -8.5394 -17.8306 -8.4944 -5.2189 25.3300 5.1691
# 6 -17.2697 9.3138 -8.0927 0.7626 5.1691 58.4622
#
#
#
# Elastic Compliance Matrix: (Units=1/GPa)
#
#
# Indices 1 2 3 4 5 6 
#
# 1 0.007765 -0.001731 -0.000981 -0.002278 0.000100 0.002455
# 2 -0.001731 0.010407 0.002233 0.010539 0.010255 -0.002904
# 3 -0.000981 0.002233 0.018954 0.010235 0.009501 0.001005
# 4 -0.002278 0.010539 0.010235 0.040329 0.019034 -0.003144
# 5 0.000100 0.010255 0.009501 0.019034 0.054940 -0.005395
# 6 0.002455 -0.002904 0.001005 -0.003144 -0.005395 0.018950
#
#
# Mechanical properties :
#
#
# Convention : Reuss Voigt Hill
#
# Bulk Modulus (GPa) = 27.64768 48.32532 37.98650
# Shear Modulus (GPa) = 30.42122 45.66901 38.04511
#
# Velocity S-wave (km/s) = 3.48713 4.27258 3.89968
# Velocity P-wave (km/s) = 5.22157 6.60732 5.95489
#
# Compressibility (1/GPa) = 0.03616940
#
# Stress axis : x y z
#
# Youngs Moduli (GPa) = 128.77931 96.09333 52.75808
#
# Poissons Ratio (x) = 0.16631 0.05173
# Poissons Ratio (y) = 0.22288 -0.11780
# Poissons Ratio (z) = 0.12627 -0.21456
#
# Static dielectric constant tensor:
#      x y z
#    x 2.109840 -0.149530 -0.321130 
#    y -0.149530 2.092150 0.328320 
#    z -0.321130 0.328320 2.797030 
# 
# From -- ./inp_files/308582.got.cif
#   From: 2010.05.17/outbox.cif.g08.bks.cpg/sg2_155_cif.got.tgz:308582.got - 2010.06.03 11:33:40.
