data_PCOD9013756
_publ_section_title
;
Structure prediction by ZEFSAII (Michael W. Deem and Ramdas Pophale) SiO2 
 PCOD9013756
Probable space group: P -1
;
_chemical_formula_sum "Si O2"
_cell_formula_units_Z 16
_cell_length_a 12.553785
_cell_length_b 9.090057
_cell_length_c 9.509640
_cell_angle_alpha 119.613415
_cell_angle_beta 67.923225
_cell_angle_gamma 129.906458
_cell_volume 720.884653
_symmetry_space_group_name_H-M "P -1"
_symmetry_group_IT_number 2
_symmetry_cell_setting 'triclinic'
loop_
_space_group_symop_operation_xyz
x,y,z
-x,-y,-z
loop_
_atom_site_type_symbol
_atom_site_label
_atom_site_fract_x
_atom_site_fract_y
_atom_site_fract_z
Si Si1 0.210408 0.671935 0.206972
Si Si2 0.877481 0.065833 0.747591
Si Si3 0.434281 0.580192 0.671129
Si Si4 0.838152 0.682944 0.448929
Si Si5 0.470153 0.649019 0.007394
Si Si6 0.900519 0.260898 0.110104
Si Si7 0.158278 0.654506 0.540599
Si Si8 0.399129 0.909231 0.870421
O O1 0.224028 0.866981 0.219179
O O2 0.320009 0.616296 0.086278
O O3 0.232815 0.727877 0.388710
O O4 0.052836 0.475863 0.151138
O O5 0.011292 0.200776 0.643225
O O6 0.825460 0.836064 0.627165
O O7 0.911526 0.122523 0.922583
O O8 0.500000 0.500000 0.500000
O O9 0.271520 0.399012 0.661062
O O10 0.450249 0.785964 0.706293
O O11 0.488746 0.624265 0.822222
O O12 0.807247 0.490768 0.464757
O O13 0.576872 0.886879 0.110427
O O14 0.500000 0.500000 0.000000
O O15 0.848208 0.202883 0.271079
O O16 0.767940 0.255428 0.109304
O O17 0.000000 0.500000 0.500000
O O18 0.500000 0.000000 0.000000
#
# Coordination Sequence:
#
# PCOD9013756 Si02
#       8
#     2   2   2   2   2   2   2   2
#     4  11  23  43  71  93 137 174 221 276 344 388
#     4  11  22  37  69  99 127 166 221 284 319 388
#     4  11  24  42  67  91 130 182 227 262 327 407
#     4  11  23  40  63  99 135 165 227 272 325 391
#     4  11  27  46  65 101 138 171 224 288 339 396
#     4  11  21  41  72  96 123 176 227 263 330 401
#     4  10  21  41  65  95 132 174 214 272 336 394
#     4  10  22  43  69  95 132 177 224 266 334 407
#
# _framework density 22.194949000000001
#
# number of rings (size 3 to 8) (size 9 to 14) (size 15 to 20)
#    0.000    1.250    3.750    2.625    7.000    0.000 
#    2.250    6.875    0.000    0.000    0.000    0.000 
#    0.000    0.000    0.000    0.000    0.000    0.000 
#
# Total GULP energy -89147.849109 kJ/mol
# GULP energy per Si atom -5571.740569 kJ/mol
# Density = 2.214443 g / cm^3
# Si number density = 22.194949 Si / 1000 Ang^3
#
#
#
# Elastic Constant Matrix: (Units=GPa)
#
#
# Indices 1 2 3 4 5 6 
#
# 1 112.1733 40.9196 39.5316 11.0038 -11.9321 5.7035
# 2 40.9196 66.1480 49.8365 16.5720 -2.5617 -14.5699
# 3 39.5316 49.8365 195.2027 18.1842 -9.7756 -17.3550
# 4 11.0038 16.5720 18.1842 36.2393 -1.3144 -1.7639
# 5 -11.9321 -2.5617 -9.7756 -1.3144 41.3040 5.4109
# 6 5.7035 -14.5699 -17.3550 -1.7639 5.4109 41.4214
#
#
#
# Elastic Compliance Matrix: (Units=1/GPa)
#
#
# Indices 1 2 3 4 5 6 
#
# 1 0.012990 -0.008612 -0.000765 0.000241 0.003782 -0.005622
# 2 -0.008612 0.027115 -0.003815 -0.007536 -0.003156 0.009216
# 3 -0.000765 -0.003815 0.006526 -0.001201 0.000874 0.001332
# 4 0.000241 -0.007536 -0.001201 0.031497 0.000572 -0.001921
# 5 0.003782 -0.003156 0.000874 0.000572 0.025939 -0.004629
# 6 -0.005622 0.009216 0.001332 -0.001921 -0.004629 0.029239
#
#
# Mechanical properties :
#
#
# Convention : Reuss Voigt Hill
#
# Bulk Modulus (GPa) = 49.38934 70.45549 59.92241
# Shear Modulus (GPa) = 30.04076 40.00870 35.02473
#
# Velocity S-wave (km/s) = 3.68298 4.25031 3.97678
# Velocity P-wave (km/s) = 6.35505 7.47661 6.93853
#
# Compressibility (1/GPa) = 0.02024728
#
# Stress axis : x y z
#
# Youngs Moduli (GPa) = 76.98002 36.87959 153.23349
#
# Poissons Ratio (x) = 0.31760 0.11723
# Poissons Ratio (y) = 0.66294 0.58463
# Poissons Ratio (z) = 0.05889 0.14071
#
# Static dielectric constant tensor:
#      x y z
#    x 1.772430 0.056010 0.011300 
#    y 0.056010 1.877940 -0.047330 
#    z 0.011300 -0.047330 1.889210 
# 
# From -- ./inp_files/245434.got.cif
#   From: 2010.05.17/outbox.cif.g08.bks.cpg/sg2_123_cif.got.tgz:245434.got - 2010.06.03 11:33:40.
