data_PCOD9013265
_publ_section_title
;
Structure prediction by ZEFSAII (Michael W. Deem and Ramdas Pophale) SiO2 
 PCOD9013265
Probable space group: P -1
;
_chemical_formula_sum "Si O2"
_cell_formula_units_Z 14
_cell_length_a 18.789201
_cell_length_b 8.274805
_cell_length_c 8.635376
_cell_angle_alpha 47.682680
_cell_angle_beta 46.348230
_cell_angle_gamma 36.950256
_cell_volume 560.666210
_symmetry_space_group_name_H-M "P -1"
_symmetry_group_IT_number 2
_symmetry_cell_setting 'triclinic'
loop_
_space_group_symop_operation_xyz
x,y,z
-x,-y,-z
loop_
_atom_site_type_symbol
_atom_site_label
_atom_site_fract_x
_atom_site_fract_y
_atom_site_fract_z
Si Si1 0.135512 0.199985 0.454435
Si Si2 0.963811 0.118771 0.303983
Si Si3 0.314043 0.066897 0.989627
Si Si4 0.278723 0.385050 0.583151
Si Si5 0.379771 0.928197 0.474286
Si Si6 0.241643 0.758643 0.121811
Si Si7 0.539716 0.645485 0.136962
O O1 0.202743 0.206558 0.194544
O O2 0.000000 0.500000 0.500000
O O3 0.104848 0.986860 0.609075
O O4 0.242242 0.074900 0.507390
O O5 0.868656 0.451025 0.255605
O O6 0.000000 0.000000 0.500000
O O7 0.101890 0.963736 0.129828
O O8 0.282978 0.947555 0.971174
O O9 0.438107 0.797759 0.055466
O O10 0.335916 0.270294 0.741709
O O11 0.261936 0.626089 0.348863
O O12 0.356771 0.133678 0.508870
O O13 0.472660 0.865084 0.235673
O O14 0.438095 0.629971 0.654485
O O15 0.324695 0.498385 0.048329
#
# Coordination Sequence:
#
# PCOD9013265 Si02
#       7
#     2   2   2   2   2   2   2
#     4  11  22  43  71  97 139 173 213 276 337 392
#     4  10  21  41  64 102 130 163 220 275 318 393
#     4  11  23  42  70  96 131 180 218 273 328 389
#     4  11  23  41  70 104 125 173 229 265 335 387
#     4  10  23  42  70  96 132 180 217 271 335 393
#     4  11  22  41  68  95 138 165 219 282 314 395
#     4  10  23  45  64  95 135 179 222 266 333 387
#
# _framework density 24.970293999999999
#
# number of rings (size 3 to 8) (size 9 to 14) (size 15 to 20)
#    0.000    1.429    4.286    2.143    0.000    2.857 
#    0.000    5.714    0.000    0.000    0.000    0.000 
#    0.000    0.000    0.000    0.000    0.000    0.000 
#
# Total GULP energy -78157.908818 kJ/mol
# GULP energy per Si atom -5582.707773 kJ/mol
# Density = 2.491346 g / cm^3
# Si number density = 24.970294 Si / 1000 Ang^3
#
#
#
# Elastic Constant Matrix: (Units=GPa)
#
#
# Indices 1 2 3 4 5 6 
#
# 1 59.2622 28.1772 4.8984 8.4568 -5.6485 -19.2504
# 2 28.1772 211.0597 37.4342 36.3226 7.7005 -15.8312
# 3 4.8984 37.4342 103.3800 3.3243 11.7161 -14.0404
# 4 8.4568 36.3226 3.3243 54.4378 -4.8079 2.7475
# 5 -5.6485 7.7005 11.7161 -4.8079 20.6709 -5.2319
# 6 -19.2504 -15.8312 -14.0404 2.7475 -5.2319 35.6937
#
#
#
# Elastic Compliance Matrix: (Units=1/GPa)
#
#
# Indices 1 2 3 4 5 6 
#
# 1 0.023507 -0.002228 0.000462 -0.001996 0.009940 0.013482
# 2 -0.002228 0.006154 -0.001578 -0.003945 -0.002719 0.000813
# 3 0.000462 -0.001578 0.011231 -0.000302 -0.004894 0.003273
# 4 -0.001996 -0.003945 -0.000302 0.021988 0.005230 -0.003871
# 5 0.009940 -0.002719 -0.004894 0.005230 0.058738 0.010437
# 6 0.013482 0.000813 0.003273 -0.003871 0.010437 0.038763
#
#
# Mechanical properties :
#
#
# Convention : Reuss Voigt Hill
#
# Bulk Modulus (GPa) = 29.23576 57.19129 43.21352
# Shear Modulus (GPa) = 28.01578 42.37330 35.19454
#
# Velocity S-wave (km/s) = 3.35321 4.12387 3.75835
# Velocity P-wave (km/s) = 5.16968 6.75489 6.01474
#
# Compressibility (1/GPa) = 0.03420469
#
# Stress axis : x y z
#
# Youngs Moduli (GPa) = 42.54057 162.48680 89.03697
#
# Poissons Ratio (x) = 0.36203 -0.04110
# Poissons Ratio (y) = 0.09478 0.14046
# Poissons Ratio (z) = -0.01964 0.25633
#
# Static dielectric constant tensor:
#      x y z
#    x 1.961890 -0.045740 -0.055630 
#    y -0.045740 2.027100 0.014200 
#    z -0.055630 0.014200 2.122750 
# 
# From -- ./inp_files/343300.got.cif
#   From: 2010.05.17/outbox.cif.g08.bks.cpg/sg2_172_cif.got.tgz:343300.got - 2010.06.03 11:33:40.
