data_PCOD9013427
_publ_section_title
;
Structure prediction by ZEFSAII (Michael W. Deem and Ramdas Pophale) SiO2 
 PCOD9013427
Probable space group: P -1
;
_chemical_formula_sum "Si O2"
_cell_formula_units_Z 16
_cell_length_a 17.177188
_cell_length_b 9.384687
_cell_length_c 18.249491
_cell_angle_alpha 38.372709
_cell_angle_beta 30.668501
_cell_angle_gamma 24.978449
_cell_volume 633.524505
_symmetry_space_group_name_H-M "P -1"
_symmetry_group_IT_number 2
_symmetry_cell_setting 'triclinic'
loop_
_space_group_symop_operation_xyz
x,y,z
-x,-y,-z
loop_
_atom_site_type_symbol
_atom_site_label
_atom_site_fract_x
_atom_site_fract_y
_atom_site_fract_z
Si Si1 0.878896 0.595611 0.181193
Si Si2 0.239977 0.497733 0.317870
Si Si3 0.604051 0.451654 0.264563
Si Si4 0.714311 0.823632 0.059276
Si Si5 0.308235 0.759480 0.886577
Si Si6 0.457760 0.775450 0.470635
Si Si7 0.916885 0.888238 0.559423
Si Si8 0.812110 0.493382 0.807558
O O1 0.788082 0.782687 0.099282
O O2 0.707511 0.600692 0.348827
O O3 0.853952 0.843690 0.151427
O O4 0.125436 0.238319 0.105845
O O5 0.462203 0.402113 0.195072
O O6 0.143238 0.640460 0.257609
O O7 0.056403 0.744869 0.429136
O O8 0.320719 0.139736 0.400072
O O9 0.742992 0.518826 0.149181
O O10 0.620131 0.408277 0.182876
O O11 0.658949 0.167200 0.382082
O O12 0.348816 0.780826 0.362909
O O13 0.458083 0.163164 0.115810
O O14 0.175035 0.721403 0.057449
O O15 0.500000 0.500000 0.500000
O O16 0.929520 0.605272 0.686995
O O17 0.000000 0.000000 0.500000
#
# Coordination Sequence:
#
# PCOD9013427 Si02
#       8
#     2   2   2   2   2   2   2   2
#     4  10  22  41  65  97 130 165 228 266 322 401
#     4  11  23  44  68 101 131 170 229 270 328 398
#     4  11  24  44  67  91 139 173 215 274 333 387
#     4  10  21  41  64  95 126 170 219 270 327 390
#     4  11  24  43  65  98 135 173 218 271 329 391
#     4  11  21  43  70  96 129 175 220 274 330 388
#     4  11  24  46  65 101 136 172 226 270 329 396
#     4  11  23  44  69  93 134 177 217 273 330 388
#
# _framework density 25.255535999999999
#
# number of rings (size 3 to 8) (size 9 to 14) (size 15 to 20)
#    0.000    1.250    5.000    1.500    0.000    6.500 
#    4.500    0.000    0.000    0.000    0.000    0.000 
#    0.000    0.000    0.000    0.000    0.000    0.000 
#
# Total GULP energy -89636.536218 kJ/mol
# GULP energy per Si atom -5602.283514 kJ/mol
# Density = 2.519805 g / cm^3
# Si number density = 25.255536 Si / 1000 Ang^3
#
#
#
# Elastic Constant Matrix: (Units=GPa)
#
#
# Indices 1 2 3 4 5 6 
#
# 1 121.6614 45.8009 78.2412 -1.9241 -7.8152 28.6976
# 2 45.8009 99.7155 40.1848 14.9184 5.7019 26.6062
# 3 78.2412 40.1848 164.6774 -6.8595 12.4950 32.8811
# 4 -1.9241 14.9184 -6.8595 42.6112 0.2934 3.5346
# 5 -7.8152 5.7019 12.4950 0.2934 39.6722 7.2030
# 6 28.6976 26.6062 32.8811 3.5346 7.2030 37.1944
#
#
#
# Elastic Compliance Matrix: (Units=1/GPa)
#
#
# Indices 1 2 3 4 5 6 
#
# 1 0.014810 -0.003780 -0.005476 0.001501 0.006120 -0.005210
# 2 -0.003780 0.014447 -0.000588 -0.004803 -0.001483 -0.006154
# 3 -0.005476 -0.000588 0.009876 0.001870 -0.003466 -0.003591
# 4 0.001501 -0.004803 0.001870 0.025674 0.000556 -0.001923
# 5 0.006120 -0.001483 -0.003466 0.000556 0.028845 -0.006236
# 6 -0.005210 -0.006154 -0.003591 -0.001923 -0.006236 0.039873
#
#
# Mechanical properties :
#
#
# Convention : Reuss Voigt Hill
#
# Bulk Modulus (GPa) = 51.42729 79.38980 65.40854
# Shear Modulus (GPa) = 31.30985 38.68403 34.99694
#
# Velocity S-wave (km/s) = 3.52479 3.91795 3.72656
# Velocity P-wave (km/s) = 6.08050 7.20902 6.66867
#
# Compressibility (1/GPa) = 0.01944493
#
# Stress axis : x y z
#
# Youngs Moduli (GPa) = 67.52313 69.21712 101.26048
#
# Poissons Ratio (x) = 0.26165 0.55446
# Poissons Ratio (y) = 0.25525 0.05955
# Poissons Ratio (z) = 0.36973 0.04071
#
# Static dielectric constant tensor:
#      x y z
#    x 1.967230 -0.044710 -0.000330 
#    y -0.044710 2.035320 -0.000370 
#    z -0.000330 -0.000370 2.001680 
# 
# From -- ./inp_files/575501.got.cif
#   From: 2010.05.17/outbox.cif.g08.bks.cpg/sg2_288_cif.got.tgz:575501.got - 2010.06.03 11:33:40.
