data_PCOD9013933
_publ_section_title
;
Structure prediction by ZEFSAII (Michael W. Deem and Ramdas Pophale) SiO2 
 PCOD9013933
Probable space group: P -1
;
_chemical_formula_sum "Si O2"
_cell_formula_units_Z 12
_cell_length_a 9.491117
_cell_length_b 12.753253
_cell_length_c 8.256229
_cell_angle_alpha 63.110993
_cell_angle_beta 65.293062
_cell_angle_gamma 35.466823
_cell_volume 514.782001
_symmetry_space_group_name_H-M "P -1"
_symmetry_group_IT_number 2
_symmetry_cell_setting 'triclinic'
loop_
_space_group_symop_operation_xyz
x,y,z
-x,-y,-z
loop_
_atom_site_type_symbol
_atom_site_label
_atom_site_fract_x
_atom_site_fract_y
_atom_site_fract_z
Si Si1 0.682424 0.665544 0.742384
Si Si2 0.559193 0.874027 0.202813
Si Si3 0.126040 0.190092 0.398964
Si Si4 0.707667 0.561453 0.149241
Si Si5 0.033082 0.695137 0.266425
Si Si6 0.254302 0.785486 0.004348
O O1 0.723864 0.779432 0.641247
O O2 0.814710 0.514196 0.645931
O O3 0.588842 0.228107 0.186551
O O4 0.800229 0.559417 0.934052
O O5 0.650806 0.699709 0.203682
O O6 0.774035 0.811356 0.239975
O O7 0.321576 0.998434 0.342944
O O8 0.500000 0.000000 0.000000
O O9 0.904907 0.358813 0.270783
O O10 0.008888 0.216809 0.604289
O O11 0.442350 0.668537 0.147177
O O12 0.179633 0.694474 0.073693
O O13 0.000000 0.000000 0.000000
#
# Coordination Sequence:
#
# PCOD9013933 Si02
#       6
#     2   2   2   2   2   2
#     4  10  21  41  66  91 125 170 212 253 311 384
#     4  12  22  40  68  93 125 171 219 254 307 385
#     4  12  23  41  66 100 129 160 214 273 312 367
#     4  10  23  41  67  89 127 167 220 248 316 376
#     4  12  24  40  66  98 129 165 209 268 326 361
#     4  10  23  43  63  93 127 169 216 256 312 390
#
# _framework density 23.310839999999999
#
# number of rings (size 3 to 8) (size 9 to 14) (size 15 to 20)
#    1.000    0.000    3.333    5.000    0.000    0.667 
#    0.000    0.833    0.000    0.000    0.000    0.000 
#    0.000    0.000    0.000    0.000    0.000    0.000 
#
# Total GULP energy -67062.690596 kJ/mol
# GULP energy per Si atom -5588.557550 kJ/mol
# Density = 2.325778 g / cm^3
# Si number density = 23.310840 Si / 1000 Ang^3
#
#
#
# Elastic Constant Matrix: (Units=GPa)
#
#
# Indices 1 2 3 4 5 6 
#
# 1 80.4124 38.7564 17.3732 -5.0763 0.4451 -21.1389
# 2 38.7564 127.4168 15.1120 14.1787 4.1547 -24.4689
# 3 17.3732 15.1120 62.3010 13.2094 7.5924 -11.2707
# 4 -5.0763 14.1787 13.2094 30.0917 -0.5779 1.4735
# 5 0.4451 4.1547 7.5924 -0.5779 31.4278 -0.5325
# 6 -21.1389 -24.4689 -11.2707 1.4735 -0.5325 42.2856
#
#
#
# Elastic Compliance Matrix: (Units=1/GPa)
#
#
# Indices 1 2 3 4 5 6 
#
# 1 0.017284 -0.004679 -0.004543 0.006927 0.001675 0.004501
# 2 -0.004679 0.010774 0.001087 -0.006590 -0.001667 0.004394
# 3 -0.004543 0.001087 0.020709 -0.010674 -0.005208 0.004184
# 4 0.006927 -0.006590 -0.010674 0.042495 0.004055 -0.004626
# 5 0.001675 -0.001667 -0.005208 0.004055 0.033327 -0.001237
# 6 0.004501 0.004394 0.004184 -0.004626 -0.001237 0.029702
#
#
# Mechanical properties :
#
#
# Convention : Reuss Voigt Hill
#
# Bulk Modulus (GPa) = 30.77330 45.84596 38.30963
# Shear Modulus (GPa) = 27.56400 34.02026 30.79213
#
# Velocity S-wave (km/s) = 3.44241 3.82438 3.63841
# Velocity P-wave (km/s) = 5.38797 6.26187 5.84129
#
# Compressibility (1/GPa) = 0.03249570
#
# Stress axis : x y z
#
# Youngs Moduli (GPa) = 57.85644 92.81468 48.28795
#
# Poissons Ratio (x) = 0.43432 0.21938
# Poissons Ratio (y) = 0.27074 -0.05248
# Poissons Ratio (z) = 0.26285 -0.10087
#
# Static dielectric constant tensor:
#      x y z
#    x 1.874350 0.000730 -0.031080 
#    y 0.000730 1.907810 -0.028390 
#    z -0.031080 -0.028390 1.975290 
# 
# From -- ./inp_files/160573.got.cif
#   From: 2010.05.17/outbox.cif.g08.bks.cpg/sg2_81_cif.got.tgz:160573.got - 2010.06.03 11:33:40.
