data_PCOD9013649
_publ_section_title
;
Structure prediction by ZEFSAII (Michael W. Deem and Ramdas Pophale) SiO2 
 PCOD9013649
Probable space group: P -1
;
_chemical_formula_sum "Si O2"
_cell_formula_units_Z 16
_cell_length_a 19.324222
_cell_length_b 8.669370
_cell_length_c 23.029706
_cell_angle_alpha 46.469896
_cell_angle_beta 25.198376
_cell_angle_gamma 30.838851
_cell_volume 770.275486
_symmetry_space_group_name_H-M "P -1"
_symmetry_group_IT_number 2
_symmetry_cell_setting 'triclinic'
loop_
_space_group_symop_operation_xyz
x,y,z
-x,-y,-z
loop_
_atom_site_type_symbol
_atom_site_label
_atom_site_fract_x
_atom_site_fract_y
_atom_site_fract_z
Si Si1 0.028694 0.361459 0.451305
Si Si2 0.982743 0.229863 0.241989
Si Si3 0.474404 0.396245 0.227572
Si Si4 0.034473 0.378357 0.940144
Si Si5 0.492938 0.400475 0.967231
Si Si6 0.462735 0.404214 0.760950
Si Si7 0.972335 0.800586 0.290604
Si Si8 0.499274 0.750596 0.552194
O O1 0.000000 0.500000 0.500000
O O2 0.801337 0.423385 0.600125
O O3 0.986086 0.583905 0.377683
O O4 0.299679 0.978747 0.338456
O O5 0.958493 0.434707 0.158790
O O6 0.762142 0.447642 0.399363
O O7 0.972759 0.011452 0.274893
O O8 0.254808 0.987504 0.127447
O O9 0.511601 0.554645 0.202103
O O10 0.701375 0.006505 0.167195
O O11 0.494169 0.439362 0.134218
O O12 0.000000 0.500000 0.000000
O O13 0.798068 0.459641 0.086407
O O14 0.229392 0.545260 0.124942
O O15 0.500000 0.500000 0.000000
O O16 0.469538 0.615899 0.663047
O O17 0.730696 0.054102 0.367894
O O18 0.500000 0.000000 0.500000
#
# Coordination Sequence:
#
# PCOD9013649 Si02
#       8
#     2   2   2   2   2   2   2   2
#     4  12  24  43  69  98 130 175 225 273 326 395
#     4  11  23  42  66  95 127 167 216 270 323 382
#     4  12  25  43  66  97 135 172 216 276 335 392
#     4  12  24  43  69  98 130 175 225 273 326 395
#     4  10  21  41  65  92 125 166 211 264 320 387
#     4  12  26  45  66  98 135 174 219 276 336 391
#     4  11  23  42  66  95 127 167 216 270 323 382
#     4  12  25  43  64  93 132 172 213 262 323 394
#
# _framework density 20.771788000000001
#
# number of rings (size 3 to 8) (size 9 to 14) (size 15 to 20)
#    0.000    0.500    0.000   10.875    0.000    2.000 
#    0.000    1.875    0.000    0.000    0.000    0.000 
#    0.000    0.000    0.000    0.000    0.000    0.000 
#
# Total GULP energy -89543.843506 kJ/mol
# GULP energy per Si atom -5596.490219 kJ/mol
# Density = 2.072451 g / cm^3
# Si number density = 20.771788 Si / 1000 Ang^3
#
#
#
# Elastic Constant Matrix: (Units=GPa)
#
#
# Indices 1 2 3 4 5 6 
#
# 1 53.3168 -34.1031 15.6341 -8.2965 -36.2579 9.0612
# 2 -34.1031 132.6727 -33.2921 7.1899 71.2113 -5.7093
# 3 15.6341 -33.2921 82.3319 -9.8525 2.2609 -18.3979
# 4 -8.2965 7.1899 -9.8525 54.8311 -10.7492 3.3523
# 5 -36.2579 71.2113 2.2609 -10.7492 43.2211 -3.0568
# 6 9.0612 -5.7093 -18.3979 3.3523 -3.0568 30.9863
#
#
#
# Elastic Compliance Matrix: (Units=1/GPa)
#
#
# Indices 1 2 3 4 5 6 
#
# 1 0.006374 0.021546 0.008635 -0.006872 -0.031972 0.004823
# 2 0.021546 -0.005171 -0.008220 0.008667 0.028454 -0.010265
# 3 0.008635 -0.008220 0.007993 0.008113 0.022532 0.002051
# 4 -0.006872 0.008667 0.008113 0.013937 -0.016629 0.005275
# 5 -0.031972 0.028454 0.022532 -0.016629 -0.054151 0.024428
# 6 0.004823 -0.010265 0.002051 0.005275 0.024428 0.032028
#
#
# Mechanical properties :
#
#
# Convention : Reuss Voigt Hill
#
# Bulk Modulus (GPa) = 18.82617 18.31104 18.56860
# Shear Modulus (GPa) = -198.35497 47.14654 -75.60422
#
# Velocity S-wave (km/s) = -9.78263 4.76935 -6.03958
# Velocity P-wave (km/s) = 10.88654 6.25806 6.29894
#
# Compressibility (1/GPa) = 0.05311755
#
# Stress axis : x y z
#
# Youngs Moduli (GPa) = 156.88951 -193.39210 125.11644
#
# Poissons Ratio (x) = 4.16681 -1.08042
# Poissons Ratio (y) = -3.38032 1.02849
# Poissons Ratio (z) = -1.35479 -1.58973
#
# Static dielectric constant tensor:
#      x y z
#    x 1.707130 -0.037350 -0.026480 
#    y -0.037350 2.032500 -0.040510 
#    z -0.026480 -0.040510 1.709100 
# 
# From -- ./inp_files/418464.got.cif
#   From: 2010.05.17/outbox.cif.g08.bks.cpg/sg2_210_cif.got.tgz:418464.got - 2010.06.03 11:33:40.
