data_PCOD9013075
_publ_section_title
;
Structure prediction by ZEFSAII (Michael W. Deem and Ramdas Pophale) SiO2 
 PCOD9013075
Probable space group: P -1
;
_chemical_formula_sum "Si O2"
_cell_formula_units_Z 14
_cell_length_a 11.692419
_cell_length_b 7.637979
_cell_length_c 8.710285
_cell_angle_alpha 128.326182
_cell_angle_beta 83.477577
_cell_angle_gamma 75.279250
_cell_volume 551.231635
_symmetry_space_group_name_H-M "P -1"
_symmetry_group_IT_number 2
_symmetry_cell_setting 'triclinic'
loop_
_space_group_symop_operation_xyz
x,y,z
-x,-y,-z
loop_
_atom_site_type_symbol
_atom_site_label
_atom_site_fract_x
_atom_site_fract_y
_atom_site_fract_z
Si Si1 0.311971 0.919208 0.832902
Si Si2 0.982294 0.900414 0.614700
Si Si3 0.216450 0.530841 0.523864
Si Si4 0.439024 0.067331 0.326225
Si Si5 0.906192 0.764324 0.101660
Si Si6 0.297988 0.794887 0.110194
Si Si7 0.737596 0.631968 0.245236
O O1 0.181283 0.165144 0.995200
O O2 0.279681 0.727029 0.629094
O O3 0.426487 0.969478 0.776391
O O4 0.338601 0.802281 0.932457
O O5 0.017908 0.069915 0.818177
O O6 0.834795 0.976114 0.703296
O O7 0.000000 0.000000 0.500000
O O8 0.093005 0.634676 0.491532
O O9 0.667770 0.734004 0.663999
O O10 0.179026 0.514203 0.699735
O O11 0.405834 0.832800 0.209944
O O12 0.397080 0.215190 0.572364
O O13 0.796388 0.812438 0.272161
O O14 0.000000 0.500000 0.000000
O O15 0.271213 0.551083 0.982847
#
# Coordination Sequence:
#
# PCOD9013075 Si02
#       7
#     2   2   2   2   2   2   2
#     4  10  22  38  65  89 117 167 204 244 301 364
#     4  11  23  39  61  92 122 155 209 250 304 364
#     4   8  21  38  64  85 119 166 194 252 302 353
#     4  10  21  41  63  88 124 159 207 246 297 362
#     4  11  22  39  62  90 124 159 199 254 305 352
#     4  11  22  38  64  89 122 159 204 249 299 368
#     4   9  21  40  61  89 122 163 198 249 304 355
#
# _framework density 25.397672
#
# number of rings (size 3 to 8) (size 9 to 14) (size 15 to 20)
#    0.857    1.143    1.429    1.714    2.000    4.000 
#    0.000    0.714    0.000    0.000    0.000    0.000 
#    0.000    0.000    0.000    0.000    0.000    0.000 
#
# Total GULP energy -78119.550511 kJ/mol
# GULP energy per Si atom -5579.967894 kJ/mol
# Density = 2.533987 g / cm^3
# Si number density = 25.397672 Si / 1000 Ang^3
#
#
#
# Elastic Constant Matrix: (Units=GPa)
#
#
# Indices 1 2 3 4 5 6 
#
# 1 128.2953 12.9462 20.5875 1.7820 -1.4231 13.5814
# 2 12.9462 68.2005 -3.2314 7.9076 5.8089 -0.4127
# 3 20.5875 -3.2314 56.3536 11.8649 4.3742 3.2562
# 4 1.7820 7.9076 11.8649 32.9691 5.4645 -2.2232
# 5 -1.4231 5.8089 4.3742 5.4645 27.2842 4.5503
# 6 13.5814 -0.4127 3.2562 -2.2232 4.5503 48.9522
#
#
#
# Elastic Compliance Matrix: (Units=1/GPa)
#
#
# Indices 1 2 3 4 5 6 
#
# 1 0.008827 -0.002100 -0.003521 0.000854 0.001693 -0.002351
# 2 -0.002100 0.015950 0.002764 -0.004128 -0.003229 0.000646
# 3 -0.003521 0.002764 0.021027 -0.007656 -0.002525 -0.000512
# 4 0.000854 -0.004128 -0.007656 0.035058 -0.005257 0.002318
# 5 0.001693 -0.003229 -0.002525 -0.005257 0.039593 -0.004248
# 6 -0.002351 0.000646 -0.000512 0.002318 -0.004248 0.021620
#
#
# Mechanical properties :
#
#
# Convention : Reuss Voigt Hill
#
# Bulk Modulus (GPa) = 24.94291 34.82820 29.88556
# Shear Modulus (GPa) = 31.02653 36.67757 33.85205
#
# Velocity S-wave (km/s) = 3.49897 3.80430 3.65482
# Velocity P-wave (km/s) = 5.11527 5.74803 5.44086
#
# Compressibility (1/GPa) = 0.04009155
#
# Stress axis : x y z
#
# Youngs Moduli (GPa) = 113.28649 62.69653 47.55737
#
# Poissons Ratio (x) = 0.13166 0.16743
# Poissons Ratio (y) = 0.23789 -0.13146
# Poissons Ratio (z) = 0.39884 -0.17331
#
# Static dielectric constant tensor:
#      x y z
#    x 2.030070 -0.103670 0.038620 
#    y -0.103670 2.134780 0.051240 
#    z 0.038620 0.051240 2.039310 
# 
# From -- ./inp_files/245835.got.cif
#   From: 2010.05.17/outbox.cif.g08.bks.cpg/sg2_123_cif.got.tgz:245835.got - 2010.06.03 11:33:40.
