data_PCOD9013386
_publ_section_title
;
Structure prediction by ZEFSAII (Michael W. Deem and Ramdas Pophale) SiO2 
 PCOD9013386
Probable space group: P -1
;
_chemical_formula_sum "Si O2"
_cell_formula_units_Z 10
_cell_length_a 7.920390
_cell_length_b 10.463165
_cell_length_c 7.973237
_cell_angle_alpha 60.488490
_cell_angle_beta 101.109129
_cell_angle_gamma 138.772325
_cell_volume 360.305603
_symmetry_space_group_name_H-M "P -1"
_symmetry_group_IT_number 2
_symmetry_cell_setting 'triclinic'
loop_
_space_group_symop_operation_xyz
x,y,z
-x,-y,-z
loop_
_atom_site_type_symbol
_atom_site_label
_atom_site_fract_x
_atom_site_fract_y
_atom_site_fract_z
Si Si1 0.988744 0.928039 0.277985
Si Si2 0.596449 0.132789 0.758634
Si Si3 0.224192 0.477672 0.621904
Si Si4 0.065368 0.806502 0.719442
Si Si5 0.429713 0.625477 0.929799
O O1 0.008714 0.852183 0.506374
O O2 0.765032 0.690788 0.287229
O O3 0.287849 0.117266 0.132972
O O4 0.939643 0.065611 0.224316
O O5 0.626714 0.329607 0.614623
O O6 0.903917 0.292902 0.675424
O O7 0.361225 0.933334 0.712053
O O8 0.500000 0.000000 0.000000
O O9 0.339260 0.608679 0.735437
O O10 0.826904 0.538388 0.892442
O O11 0.500000 0.500000 0.000000
#
# Coordination Sequence:
#
# PCOD9013386 Si02
#       5
#     2   2   2   2   2
#     4  10  23  42  65  95 122 163 210 260 307 365
#     4  11  23  43  63  91 129 167 206 256 307 373
#     4  11  24  42  67  90 127 167 206 255 314 365
#     4  10  21  42  64  91 131 159 206 261 307 363
#     4  10  21  41  64  93 128 158 203 264 308 361
#
# _framework density 27.754216
#
# number of rings (size 3 to 8) (size 9 to 14) (size 15 to 20)
#    0.000    1.600    4.000    0.000    0.000    6.400 
#    0.000    2.000    0.000    0.000    0.000    0.000 
#    0.000    0.000    0.000    0.000    0.000    0.000 
#
# Total GULP energy -56027.024619 kJ/mol
# GULP energy per Si atom -5602.702462 kJ/mol
# Density = 2.769105 g / cm^3
# Si number density = 27.754216 Si / 1000 Ang^3
#
#
#
# Elastic Constant Matrix: (Units=GPa)
#
#
# Indices 1 2 3 4 5 6 
#
# 1 78.1441 22.5813 18.9859 -11.2308 -11.1948 15.0461
# 2 22.5813 108.9700 64.6742 -29.8709 -6.0105 -10.4460
# 3 18.9859 64.6742 193.5480 -35.5295 -13.3122 6.2733
# 4 -11.2308 -29.8709 -35.5295 62.0095 12.0413 -1.9249
# 5 -11.1948 -6.0105 -13.3122 12.0413 30.0645 -11.1516
# 6 15.0461 -10.4460 6.2733 -1.9249 -11.1516 43.6072
#
#
#
# Elastic Compliance Matrix: (Units=1/GPa)
#
#
# Indices 1 2 3 4 5 6 
#
# 1 0.015280 -0.003469 0.000112 0.000434 0.002883 -0.005363
# 2 -0.003469 0.013666 -0.003651 0.003994 0.000157 0.005212
# 3 0.000112 -0.003651 0.006852 0.001947 0.000987 -0.001561
# 4 0.000434 0.003994 0.001947 0.020494 -0.006468 -0.000223
# 5 0.002883 0.000157 0.000987 -0.006468 0.040746 0.009035
# 6 -0.005363 0.005212 -0.001561 -0.000223 0.009035 0.028556
#
#
# Mechanical properties :
#
#
# Convention : Reuss Voigt Hill
#
# Bulk Modulus (GPa) = 45.91043 65.90499 55.90771
# Shear Modulus (GPa) = 34.04371 45.43096 39.73733
#
# Velocity S-wave (km/s) = 3.50610 4.05025 3.78796
# Velocity P-wave (km/s) = 5.74178 6.75798 6.27050
#
# Compressibility (1/GPa) = 0.02178154
#
# Stress axis : x y z
#
# Youngs Moduli (GPa) = 65.44481 73.17517 145.95128
#
# Poissons Ratio (x) = 0.25384 -0.01636
# Poissons Ratio (y) = 0.22703 0.53288
# Poissons Ratio (z) = -0.00734 0.26717
#
# Static dielectric constant tensor:
#      x y z
#    x 2.270500 -0.044280 0.027010 
#    y -0.044280 2.134970 0.004550 
#    z 0.027010 0.004550 2.110850 
# 
# From -- ./inp_files/18648.got.cif
#   From: 2010.05.17/outbox.cif.g08.bks.cpg/sg2_10_cif.got.tgz:18648.got - 2010.06.03 11:33:40.
