data_PCOD9013360
_publ_section_title
;
Structure prediction by ZEFSAII (Michael W. Deem and Ramdas Pophale) SiO2 
 PCOD9013360
Probable space group: P -1
;
_chemical_formula_sum "Si O2"
_cell_formula_units_Z 16
_cell_length_a 12.289587
_cell_length_b 13.918233
_cell_length_c 15.941571
_cell_angle_alpha 52.511141
_cell_angle_beta 150.913930
_cell_angle_gamma 106.538841
_cell_volume 807.427782
_symmetry_space_group_name_H-M "P -1"
_symmetry_group_IT_number 2
_symmetry_cell_setting 'triclinic'
loop_
_space_group_symop_operation_xyz
x,y,z
-x,-y,-z
loop_
_atom_site_type_symbol
_atom_site_label
_atom_site_fract_x
_atom_site_fract_y
_atom_site_fract_z
Si Si1 0.393977 0.218107 0.329740
Si Si2 0.326775 0.631407 0.503437
Si Si3 0.186421 0.672169 0.202968
Si Si4 0.695195 0.036918 0.290786
Si Si5 0.917189 0.669469 0.349677
Si Si6 0.310904 0.017952 0.496066
Si Si7 0.328751 0.734927 0.106473
Si Si8 0.709599 0.834833 0.278514
O O1 0.483230 0.317166 0.372407
O O2 0.410418 0.111600 0.471895
O O3 0.600522 0.107190 0.450446
O O4 0.070945 0.317538 0.017885
O O5 0.148980 0.713662 0.253182
O O6 0.531164 0.443033 0.726416
O O7 0.108555 0.672211 0.408750
O O8 0.500000 0.500000 0.500000
O O9 0.221240 0.772853 0.110631
O O10 0.590763 0.054237 0.307010
O O11 0.758943 0.884546 0.372402
O O12 0.423443 0.196710 0.976289
O O13 0.000000 0.000000 0.500000
O O14 0.963103 0.716491 0.446368
O O15 0.000000 0.500000 0.500000
O O16 0.963433 0.144250 0.205921
O O17 0.554950 0.761503 0.229188
O O18 0.500000 0.000000 0.000000
#
# Coordination Sequence:
#
# PCOD9013360 Si02
#       8
#     2   2   2   2   2   2   2   2
#     4  10  23  41  65  97 131 171 210 274 324 382
#     4  11  23  40  69  92 130 174 215 268 331 386
#     4   9  21  40  61  95 130 162 215 262 319 390
#     4  11  25  41  67  93 126 174 216 268 328 394
#     4  11  23  44  65  92 128 166 218 273 324 388
#     4  10  22  42  62  94 133 160 216 264 321 394
#     4  10  21  41  64  92 127 168 211 267 318 395
#     4  10  22  40  64  89 125 170 214 259 327 383
#
# _framework density 19.816012000000001
#
# number of rings (size 3 to 8) (size 9 to 14) (size 15 to 20)
#    0.000    1.750    1.250    2.250    7.000    4.500 
#    2.250    3.125    0.000    0.000    0.000    0.000 
#    0.000    0.000    0.000    0.000    0.000    0.000 
#
# Total GULP energy -89214.678966 kJ/mol
# GULP energy per Si atom -5575.917435 kJ/mol
# Density = 1.977091 g / cm^3
# Si number density = 19.816012 Si / 1000 Ang^3
#
#
#
# Elastic Constant Matrix: (Units=GPa)
#
#
# Indices 1 2 3 4 5 6 
#
# 1 129.7419 66.4540 21.5497 15.0490 3.9041 -7.1630
# 2 66.4540 145.4282 28.0929 1.0451 -2.6744 8.3056
# 3 21.5497 28.0929 75.8862 0.1841 0.7565 5.3042
# 4 15.0490 1.0451 0.1841 24.1695 -2.2348 5.6932
# 5 3.9041 -2.6744 0.7565 -2.2348 29.9763 -1.0905
# 6 -7.1630 8.3056 5.3042 5.6932 -1.0905 24.3516
#
#
#
# Elastic Compliance Matrix: (Units=1/GPa)
#
#
# Indices 1 2 3 4 5 6 
#
# 1 0.012740 -0.005896 -0.001972 -0.009874 -0.002567 0.008381
# 2 -0.005896 0.010242 -0.001736 0.004801 0.001869 -0.005888
# 3 -0.001972 -0.001736 0.014634 0.002031 -0.000249 -0.003661
# 4 -0.009874 0.004801 0.002031 0.051724 0.004906 -0.016857
# 5 -0.002567 0.001869 -0.000249 0.004906 0.034198 -0.000954
# 6 0.008381 -0.005888 -0.003661 -0.016857 -0.000954 0.050234
#
#
# Mechanical properties :
#
#
# Convention : Reuss Voigt Hill
#
# Bulk Modulus (GPa) = 54.32120 64.80548 59.56334
# Shear Modulus (GPa) = 25.11111 31.36346 28.23729
#
# Velocity S-wave (km/s) = 3.56366 3.98267 3.77898
# Velocity P-wave (km/s) = 6.66372 7.34326 7.01173
#
# Compressibility (1/GPa) = 0.01840902
#
# Stress axis : x y z
#
# Youngs Moduli (GPa) = 78.49176 97.63889 68.33583
#
# Poissons Ratio (x) = 0.57565 0.13473
# Poissons Ratio (y) = 0.46277 0.11863
# Poissons Ratio (z) = 0.15475 0.16950
#
# Static dielectric constant tensor:
#      x y z
#    x 1.746620 -0.075560 -0.030960 
#    y -0.075560 1.644810 0.081910 
#    z -0.030960 0.081910 1.739590 
# 
# From -- ./inp_files/519650.got.cif
#   From: 2010.05.17/outbox.cif.g08.bks.cpg/sg2_260_cif.got.tgz:519650.got - 2010.06.03 11:33:40.
