data_PCOD9013916
_publ_section_title
;
Structure prediction by ZEFSAII (Michael W. Deem and Ramdas Pophale) SiO2 
 PCOD9013916
Probable space group: P -1
;
_chemical_formula_sum "Si O2"
_cell_formula_units_Z 16
_cell_length_a 9.364500
_cell_length_b 18.689164
_cell_length_c 9.665104
_cell_angle_alpha 38.689969
_cell_angle_beta 61.957758
_cell_angle_gamma 45.385514
_cell_volume 741.023541
_symmetry_space_group_name_H-M "P -1"
_symmetry_group_IT_number 2
_symmetry_cell_setting 'triclinic'
loop_
_space_group_symop_operation_xyz
x,y,z
-x,-y,-z
loop_
_atom_site_type_symbol
_atom_site_label
_atom_site_fract_x
_atom_site_fract_y
_atom_site_fract_z
Si Si1 0.978797 0.573449 0.042229
Si Si2 0.539504 0.463400 0.374160
Si Si3 0.771241 0.072861 0.446843
Si Si4 0.552890 0.594975 0.905188
Si Si5 0.361175 0.104855 0.276109
Si Si6 0.860947 0.481519 0.491935
Si Si7 0.079303 0.774246 0.310515
Si Si8 0.735871 0.076122 0.127172
O O1 0.852240 0.743833 0.818553
O O2 0.212556 0.483549 0.118185
O O3 0.858910 0.551170 0.243902
O O4 0.000000 0.500000 0.000000
O O5 0.500000 0.500000 0.500000
O O6 0.525985 0.578001 0.107004
O O7 0.359713 0.450650 0.441963
O O8 0.774216 0.323970 0.479977
O O9 0.771242 0.068895 0.285886
O O10 0.691215 0.981553 0.663376
O O11 0.605360 0.238740 0.314238
O O12 0.000000 0.000000 0.500000
O O13 0.500000 0.500000 0.000000
O O14 0.506085 0.141347 0.096139
O O15 0.500000 0.000000 0.500000
O O16 0.940530 0.321138 0.646790
O O17 0.000000 0.500000 0.500000
O O18 0.192251 0.834795 0.101184
O O19 0.869254 0.914549 0.249655
#
# Coordination Sequence:
#
# PCOD9013916 Si02
#       8
#     2   2   2   2   2   2   2   2
#     4  12  24  40  68 100 126 169 226 275 317 394
#     4  10  21  41  66  90 129 174 223 263 332 390
#     4  11  24  41  65  93 139 174 207 270 347 391
#     4  12  26  41  66 100 132 170 222 272 327 397
#     4  10  23  39  64  93 136 167 217 271 335 383
#     4  11  24  41  65  96 136 169 218 280 346 382
#     4  10  22  39  70  89 125 174 225 273 310 410
#     4  10  22  42  63  95 127 171 228 261 328 392
#
# _framework density 21.591757000000001
#
# number of rings (size 3 to 8) (size 9 to 14) (size 15 to 20)
#    0.000    1.250    0.000    6.750   10.500    1.000 
#    0.000    0.000    0.000    3.750    0.000    0.000 
#    0.000    0.000    0.000    0.000    0.000    0.000 
#
# Total GULP energy -89337.858618 kJ/mol
# GULP energy per Si atom -5583.616164 kJ/mol
# Density = 2.154261 g / cm^3
# Si number density = 21.591757 Si / 1000 Ang^3
#
#
#
# Elastic Constant Matrix: (Units=GPa)
#
#
# Indices 1 2 3 4 5 6 
#
# 1 151.8504 46.8547 35.0178 -33.8671 -23.4833 -19.2617
# 2 46.8547 103.1276 45.2059 -37.6411 -4.9540 -17.2448
# 3 35.0178 45.2059 90.8423 -26.8864 -8.6467 -6.4178
# 4 -33.8671 -37.6411 -26.8864 54.7282 0.1138 -1.3460
# 5 -23.4833 -4.9540 -8.6467 0.1138 29.3121 -3.2831
# 6 -19.2617 -17.2448 -6.4178 -1.3460 -3.2831 43.5016
#
#
#
# Elastic Compliance Matrix: (Units=1/GPa)
#
#
# Indices 1 2 3 4 5 6 
#
# 1 0.010147 -0.001255 -0.000632 0.005204 0.008235 0.004685
# 2 -0.001255 0.016324 -0.004708 0.008272 0.000954 0.005549
# 3 -0.000632 -0.004708 0.015040 0.003763 0.003168 0.000428
# 4 0.005204 0.008272 0.003763 0.029202 0.007415 0.007602
# 5 0.008235 0.000954 0.003168 0.007415 0.042670 0.007942
# 6 0.004685 0.005549 0.000428 0.007602 0.007942 0.028159
#
#
# Mechanical properties :
#
#
# Convention : Reuss Voigt Hill
#
# Bulk Modulus (GPa) = 35.31024 66.66413 50.98718
# Shear Modulus (GPa) = 30.45587 40.09116 35.27351
#
# Velocity S-wave (km/s) = 3.75978 4.31371 4.04624
# Velocity P-wave (km/s) = 5.93608 7.46677 6.74499
#
# Compressibility (1/GPa) = 0.02832040
#
# Stress axis : x y z
#
# Youngs Moduli (GPa) = 98.55493 61.26069 66.48756
#
# Poissons Ratio (x) = 0.07686 0.04202
# Poissons Ratio (y) = 0.12366 0.31305
# Poissons Ratio (z) = 0.06229 0.28844
#
# Static dielectric constant tensor:
#      x y z
#    x 1.812290 -0.025710 0.009290 
#    y -0.025710 1.828720 -0.007760 
#    z 0.009290 -0.007760 1.875860 
# 
# From -- ./inp_files/405276.got.cif
#   From: 2010.05.17/outbox.cif.g08.bks.cpg/sg2_203_cif.got.tgz:405276.got - 2010.06.03 11:33:40.
