data_PCOD9013316
_publ_section_title
;
Structure prediction by ZEFSAII (Michael W. Deem and Ramdas Pophale) SiO2 
 PCOD9013316
Probable space group: P -1
;
_chemical_formula_sum "Si O2"
_cell_formula_units_Z 16
_cell_length_a 12.243267
_cell_length_b 13.283732
_cell_length_c 8.934476
_cell_angle_alpha 100.701104
_cell_angle_beta 76.190021
_cell_angle_gamma 36.345532
_cell_volume 630.669955
_symmetry_space_group_name_H-M "P -1"
_symmetry_group_IT_number 2
_symmetry_cell_setting 'triclinic'
loop_
_space_group_symop_operation_xyz
x,y,z
-x,-y,-z
loop_
_atom_site_type_symbol
_atom_site_label
_atom_site_fract_x
_atom_site_fract_y
_atom_site_fract_z
Si Si1 0.309529 0.633918 0.300633
Si Si2 0.386501 0.245812 0.041341
Si Si3 0.918417 0.269713 0.350009
Si Si4 0.854398 0.135297 0.894855
Si Si5 0.370709 0.759937 0.558235
Si Si6 0.502130 0.845327 0.340945
Si Si7 0.859237 0.722282 0.266454
Si Si8 0.761920 0.866872 0.012436
O O1 0.114707 0.711125 0.455205
O O2 0.215453 0.751079 0.205822
O O3 0.300535 0.738176 0.442915
O O4 0.593516 0.364197 0.127450
O O5 0.331290 0.172095 0.999186
O O6 0.125714 0.510299 0.192505
O O7 0.523071 0.173115 0.825689
O O8 0.532616 0.127259 0.115724
O O9 0.627934 0.507355 0.466957
O O10 0.040834 0.261732 0.214364
O O11 0.069924 0.045233 0.190508
O O12 0.124482 0.965484 0.799786
O O13 0.436795 0.812341 0.471549
O O14 0.771326 0.678045 0.238782
O O15 0.325925 0.084047 0.496004
O O16 0.846624 0.797473 0.137028
#
# Coordination Sequence:
#
# PCOD9013316 Si02
#       8
#     2   2   2   2   2   2   2   2
#     4  10  23  42  61  84 124 157 200 257 306 369
#     4  10  21  41  64  90 128 171 204 259 313 363
#     4  11  22  38  61  90 121 158 200 257 306 369
#     4  10  23  41  60  88 120 157 201 255 309 368
#     4  11  22  37  64  91 117 161 203 251 309 371
#     4  10  22  38  67  92 126 167 210 251 307 377
#     4  10  21  44  61  92 133 167 205 259 310 364
#     4  10  22  39  64  95 127 162 215 256 308 377
#
# _framework density 25.369848000000001
#
# number of rings (size 3 to 8) (size 9 to 14) (size 15 to 20)
#    0.000    1.750    0.000    6.000    3.500    5.000 
#    2.250   13.750    0.000    0.000    0.000    0.000 
#    0.000    0.000    0.000    0.000    0.000    0.000 
#
# Total GULP energy -89432.734292 kJ/mol
# GULP energy per Si atom -5589.545893 kJ/mol
# Density = 2.531210 g / cm^3
# Si number density = 25.369848 Si / 1000 Ang^3
#
#
#
# Elastic Constant Matrix: (Units=GPa)
#
#
# Indices 1 2 3 4 5 6 
#
# 1 58.1447 16.6874 14.8630 -0.9795 -16.3731 14.0583
# 2 16.6874 133.0151 31.2080 29.7232 -7.7874 -7.6861
# 3 14.8630 31.2080 120.7318 26.3201 -23.6634 6.0518
# 4 -0.9795 29.7232 26.3201 42.1650 5.3904 -12.9703
# 5 -16.3731 -7.7874 -23.6634 5.3904 37.5385 -4.4614
# 6 14.0583 -7.6861 6.0518 -12.9703 -4.4614 29.8652
#
#
#
# Elastic Compliance Matrix: (Units=1/GPa)
#
#
# Indices 1 2 3 4 5 6 
#
# 1 0.023028 -0.002576 0.000812 -0.002870 0.009060 -0.011560
# 2 -0.002576 0.009529 -0.000546 -0.006235 0.001559 0.001300
# 3 0.000812 -0.000546 0.012745 -0.010673 0.009048 -0.006389
# 4 -0.002870 -0.006235 -0.010673 0.041979 -0.013142 0.018178
# 5 0.009060 0.001559 0.009048 -0.013142 0.037821 -0.005754
# 6 -0.011560 0.001300 -0.006389 0.018178 -0.005754 0.047590
#
#
# Mechanical properties :
#
#
# Convention : Reuss Voigt Hill
#
# Bulk Modulus (GPa) = 24.58135 48.60094 36.59115
# Shear Modulus (GPa) = 26.19549 38.52261 32.35905
#
# Velocity S-wave (km/s) = 3.21681 3.90095 3.57528
# Velocity P-wave (km/s) = 4.84844 6.28398 5.61230
#
# Compressibility (1/GPa) = 0.04068124
#
# Stress axis : x y z
#
# Youngs Moduli (GPa) = 43.42530 104.94292 78.46429
#
# Poissons Ratio (x) = 0.27029 -0.06370
# Poissons Ratio (y) = 0.11185 0.04287
# Poissons Ratio (z) = -0.03525 0.05734
#
# Static dielectric constant tensor:
#      x y z
#    x 2.054460 -0.037660 -0.046610 
#    y -0.037660 2.025890 0.007650 
#    z -0.046610 0.007650 2.012440 
# 
# From -- ./inp_files/315226.got.cif
#   From: 2010.05.17/outbox.cif.g08.bks.cpg/sg2_158_cif.got.tgz:315226.got - 2010.06.03 11:33:40.
