data_PCOD9013867
_publ_section_title
;
Structure prediction by ZEFSAII (Michael W. Deem and Ramdas Pophale) SiO2 
 PCOD9013867
Probable space group: P -1
;
_chemical_formula_sum "Si O2"
_cell_formula_units_Z 14
_cell_length_a 8.992381
_cell_length_b 13.975165
_cell_length_c 14.616570
_cell_angle_alpha 45.362850
_cell_angle_beta 152.466671
_cell_angle_gamma 136.442542
_cell_volume 574.635122
_symmetry_space_group_name_H-M "P -1"
_symmetry_group_IT_number 2
_symmetry_cell_setting 'triclinic'
loop_
_space_group_symop_operation_xyz
x,y,z
-x,-y,-z
loop_
_atom_site_type_symbol
_atom_site_label
_atom_site_fract_x
_atom_site_fract_y
_atom_site_fract_z
Si Si1 0.755696 0.869102 0.370401
Si Si2 0.183904 0.813961 0.788150
Si Si3 0.848970 0.577024 0.442397
Si Si4 0.901217 0.565257 0.164258
Si Si5 0.200203 0.165677 0.015473
Si Si6 0.229514 0.651587 0.098908
Si Si7 0.332139 0.867213 0.557537
O O1 0.492272 0.769353 0.225779
O O2 0.841163 0.789565 0.558772
O O3 0.118127 0.912416 0.488810
O O4 0.678953 0.014946 0.244529
O O5 0.491916 0.780538 0.925264
O O6 0.111564 0.734731 0.898265
O O7 0.455091 0.564230 0.233651
O O8 0.000000 0.500000 0.500000
O O9 0.924730 0.527192 0.618070
O O10 0.072004 0.740883 0.446456
O O11 0.982873 0.567204 0.099951
O O12 0.500000 0.500000 0.000000
O O13 0.005643 0.722469 0.161789
O O14 0.379110 0.178719 0.203334
O O15 0.000000 0.000000 0.000000
O O16 0.500000 0.000000 0.500000
#
# Coordination Sequence:
#
# PCOD9013867 Si02
#       7
#     2   2   2   2   2   2   2
#     4   9  21  40  66 101 147 178 233 302 352 431
#     4  10  21  41  66 105 139 182 242 291 357 429
#     4  11  25  49  71 104 146 190 241 297 359 440
#     4  12  26  48  70 102 147 188 242 301 366 423
#     4  11  24  41  70 103 138 184 234 296 352 430
#     4  11  24  44  73  98 139 198 237 293 363 434
#     4  10  23  40  68 103 141 180 233 299 356 418
#
# _framework density 24.363287
#
# number of rings (size 3 to 8) (size 9 to 14) (size 15 to 20)
#    0.000    1.429    1.429    2.571    8.000    0.000 
#    2.571    1.429    0.000    0.000    0.000    0.000 
#    0.000    0.000    0.000    0.000    0.000    0.000 
#
# Total GULP energy -78381.408713 kJ/mol
# GULP energy per Si atom -5598.672051 kJ/mol
# Density = 2.430784 g / cm^3
# Si number density = 24.363287 Si / 1000 Ang^3
#
#
#
# Elastic Constant Matrix: (Units=GPa)
#
#
# Indices 1 2 3 4 5 6 
#
# 1 148.6203 46.1526 58.2150 -18.3086 -12.9610 13.5470
# 2 46.1526 106.1888 18.3335 -6.1874 -3.0576 6.7911
# 3 58.2150 18.3335 105.5674 -20.5543 -23.8936 21.2264
# 4 -18.3086 -6.1874 -20.5543 28.7314 -2.2290 -4.1392
# 5 -12.9610 -3.0576 -23.8936 -2.2290 48.1242 -13.9498
# 6 13.5470 6.7911 21.2264 -4.1392 -13.9498 46.8015
#
#
#
# Elastic Compliance Matrix: (Units=1/GPa)
#
#
# Indices 1 2 3 4 5 6 
#
# 1 0.009772 -0.003357 -0.004202 0.002518 0.000424 -0.000087
# 2 -0.003357 0.010912 0.000032 0.000096 -0.000405 -0.000738
# 3 -0.004202 0.000032 0.015417 0.008351 0.005965 -0.003264
# 4 0.002518 0.000096 0.008351 0.043176 0.007250 0.001449
# 5 0.000424 -0.000405 0.005965 0.007250 0.025776 0.005555
# 6 -0.000087 -0.000738 -0.003264 0.001449 0.005555 0.024763
#
#
# Mechanical properties :
#
#
# Convention : Reuss Voigt Hill
#
# Bulk Modulus (GPa) = 47.51604 67.30874 57.41239
# Shear Modulus (GPa) = 32.91938 40.57643 36.74791
#
# Velocity S-wave (km/s) = 3.67984 4.08545 3.88794
# Velocity P-wave (km/s) = 6.13192 7.06694 6.61597
#
# Compressibility (1/GPa) = 0.02104553
#
# Stress axis : x y z
#
# Youngs Moduli (GPa) = 102.33089 91.64224 64.86459
#
# Poissons Ratio (x) = 0.30767 0.27257
# Poissons Ratio (y) = 0.34355 -0.00206
# Poissons Ratio (z) = 0.43001 -0.00291
#
# Static dielectric constant tensor:
#      x y z
#    x 2.001890 -0.047800 0.002330 
#    y -0.047800 2.009690 -0.030120 
#    z 0.002330 -0.030120 1.989890 
# 
# From -- ./inp_files/505335.got.cif
#   From: 2010.05.17/outbox.cif.g08.bks.cpg/sg2_253_cif.got.tgz:505335.got - 2010.06.03 11:33:40.
