data_PCOD9013559
_publ_section_title
;
Structure prediction by ZEFSAII (Michael W. Deem and Ramdas Pophale) SiO2 
 PCOD9013559
Probable space group: P -1
;
_chemical_formula_sum "Si O2"
_cell_formula_units_Z 16
_cell_length_a 14.385715
_cell_length_b 9.011974
_cell_length_c 12.416970
_cell_angle_alpha 141.058516
_cell_angle_beta 139.056138
_cell_angle_gamma 49.485727
_cell_volume 655.458072
_symmetry_space_group_name_H-M "P -1"
_symmetry_group_IT_number 2
_symmetry_cell_setting 'triclinic'
loop_
_space_group_symop_operation_xyz
x,y,z
-x,-y,-z
loop_
_atom_site_type_symbol
_atom_site_label
_atom_site_fract_x
_atom_site_fract_y
_atom_site_fract_z
Si Si1 0.570101 0.887790 0.163091
Si Si2 0.149193 0.324974 0.128153
Si Si3 0.302695 0.814836 0.028731
Si Si4 0.145010 0.430631 0.735402
Si Si5 0.827364 0.395077 0.894884
Si Si6 0.580943 0.287780 0.261906
Si Si7 0.434402 0.768245 0.342931
Si Si8 0.899738 0.235188 0.499447
O O1 0.435232 0.816343 0.066428
O O2 0.721464 0.777645 0.282056
O O3 0.566930 0.168090 0.297407
O O4 0.545975 0.783871 0.964419
O O5 0.214541 0.398707 0.114101
O O6 0.135256 0.560186 0.323750
O O7 0.229882 0.089988 0.123547
O O8 0.987056 0.276006 0.934250
O O9 0.380010 0.702604 0.141026
O O10 0.179378 0.648795 0.815449
O O11 0.992165 0.340862 0.547681
O O12 0.151780 0.504824 0.910309
O O13 0.707545 0.223138 0.703677
O O14 0.552647 0.571659 0.388635
O O15 0.740730 0.187608 0.302199
O O16 0.500000 0.000000 0.500000
O O17 0.000000 0.000000 0.500000
#
# Coordination Sequence:
#
# PCOD9013559 Si02
#       8
#     2   2   2   2   2   2   2   2
#     4  11  22  40  67  87 123 163 213 249 296 365
#     4  10  22  38  66  91 119 160 206 256 300 364
#     4  11  23  38  64  94 121 160 210 251 304 365
#     4  10  21  41  65  88 124 165 199 257 302 359
#     4   9  20  40  62  89 120 159 212 241 303 359
#     4  11  23  38  65  89 118 168 202 251 307 353
#     4  11  23  39  58  89 130 161 196 253 309 362
#     4  11  23  41  62  90 125 157 206 253 308 360
#
# _framework density 24.410408
#
# number of rings (size 3 to 8) (size 9 to 14) (size 15 to 20)
#    0.000    1.500    3.750    1.875    1.750    7.500 
#    0.000    3.125    0.000    0.000    0.000    0.000 
#    0.000    0.000    0.000    0.000    0.000    0.000 
#
# Total GULP energy -89364.770795 kJ/mol
# GULP energy per Si atom -5585.298175 kJ/mol
# Density = 2.435485 g / cm^3
# Si number density = 24.410408 Si / 1000 Ang^3
#
#
#
# Elastic Constant Matrix: (Units=GPa)
#
#
# Indices 1 2 3 4 5 6 
#
# 1 127.4706 40.9737 43.1428 9.4607 45.9401 16.7106
# 2 40.9737 109.3444 38.5482 22.6865 0.0741 14.2644
# 3 43.1428 38.5482 75.7199 -0.1823 34.1405 6.7932
# 4 9.4607 22.6865 -0.1823 38.3993 5.3188 14.4774
# 5 45.9401 0.0741 34.1405 5.3188 48.5717 7.6447
# 6 16.7106 14.2644 6.7932 14.4774 7.6447 35.2478
#
#
#
# Elastic Compliance Matrix: (Units=1/GPa)
#
#
# Indices 1 2 3 4 5 6 
#
# 1 0.015053 -0.006788 0.002244 0.003578 -0.015743 -0.002877
# 2 -0.006788 0.019003 -0.013586 -0.011720 0.017350 -0.000803
# 3 0.002244 -0.013586 0.029844 0.011223 -0.024201 -0.000679
# 4 0.003578 -0.011720 0.011223 0.038545 -0.013587 -0.012001
# 5 -0.015743 0.017350 -0.024201 -0.013587 0.054116 -0.001050
# 6 -0.002877 -0.000803 -0.000679 -0.012001 -0.001050 0.035347
#
#
# Mechanical properties :
#
#
# Convention : Reuss Voigt Hill
#
# Bulk Modulus (GPa) = 36.17877 61.98491 49.08184
# Shear Modulus (GPa) = 21.06326 37.10176 29.08251
#
# Velocity S-wave (km/s) = 2.94067 3.90284 3.45541
# Velocity P-wave (km/s) = 5.13646 6.76443 6.00586
#
# Compressibility (1/GPa) = 0.02764052
#
# Stress axis : x y z
#
# Youngs Moduli (GPa) = 66.43285 52.62292 33.50774
#
# Poissons Ratio (x) = 0.35721 -0.07520
# Poissons Ratio (y) = 0.45095 0.45523
# Poissons Ratio (z) = -0.14909 0.71492
#
# Static dielectric constant tensor:
#      x y z
#    x 1.952890 -0.008630 0.005870 
#    y -0.008630 1.918900 0.027150 
#    z 0.005870 0.027150 2.169880 
# 
# From -- ./inp_files/272387.got.cif
#   From: 2010.05.17/outbox.cif.g08.bks.cpg/sg2_137_cif.got.tgz:272387.got - 2010.06.03 11:33:40.
