data_PCOD9013992
_publ_section_title
;
Structure prediction by ZEFSAII (Michael W. Deem and Ramdas Pophale) SiO2 
 PCOD9013992
Probable space group: P -1
;
_chemical_formula_sum "Si O2"
_cell_formula_units_Z 16
_cell_length_a 6.795584
_cell_length_b 11.049394
_cell_length_c 13.585641
_cell_angle_alpha 106.321176
_cell_angle_beta 132.315770
_cell_angle_gamma 79.001835
_cell_volume 723.913747
_symmetry_space_group_name_H-M "P -1"
_symmetry_group_IT_number 2
_symmetry_cell_setting 'triclinic'
loop_
_space_group_symop_operation_xyz
x,y,z
-x,-y,-z
loop_
_atom_site_type_symbol
_atom_site_label
_atom_site_fract_x
_atom_site_fract_y
_atom_site_fract_z
Si Si1 0.305355 0.385066 0.882325
Si Si2 0.937566 0.545777 0.657040
Si Si3 0.722679 0.773451 0.768064
Si Si4 0.822651 0.804717 0.353159
Si Si5 0.776488 0.006971 0.538390
Si Si6 0.894665 0.069949 0.190460
Si Si7 0.818555 0.345544 0.427284
Si Si8 0.680685 0.804036 0.985322
O O1 0.066502 0.449974 0.756804
O O2 0.373140 0.268682 0.803260
O O3 0.500000 0.500000 0.000000
O O4 0.256691 0.313473 0.950974
O O5 0.142956 0.605686 0.659635
O O6 0.821648 0.656840 0.708846
O O7 0.752391 0.465005 0.502721
O O8 0.406097 0.758591 0.658682
O O9 0.786391 0.775208 0.905362
O O10 0.867869 0.888933 0.791956
O O11 0.730101 0.932897 0.403859
O O12 0.909903 0.709773 0.447822
O O13 0.089543 0.855611 0.399206
O O14 0.988218 0.932378 0.660893
O O15 0.500000 0.000000 0.500000
O O16 0.635125 0.159165 0.113155
O O17 0.811930 0.929199 0.102184
#
# Coordination Sequence:
#
# PCOD9013992 Si02
#       8
#     2   2   2   2   2   2   2   2
#     4  11  22  44  65  91 132 178 216 266 322 389
#     4  10  23  40  65  96 128 169 220 266 329 384
#     4  12  21  38  65  98 122 170 220 269 322 384
#     4  10  22  40  64  94 128 171 212 267 330 383
#     4  11  22  41  66  98 129 163 216 274 328 382
#     4  11  24  44  65  93 130 173 218 270 328 393
#     4  10  21  41  66  93 132 167 214 272 327 391
#     4  11  25  44  64  90 134 177 218 265 322 392
#
# _framework density 22.102080999999998
#
# number of rings (size 3 to 8) (size 9 to 14) (size 15 to 20)
#    0.000    1.250    1.250    5.250    0.000    1.500 
#    4.500    8.750    0.000    0.000    0.000    0.000 
#    0.000    0.000    0.000    0.000    0.000    0.000 
#
# Total GULP energy -89302.019675 kJ/mol
# GULP energy per Si atom -5581.376230 kJ/mol
# Density = 2.205178 g / cm^3
# Si number density = 22.102081 Si / 1000 Ang^3
#
#
#
# Elastic Constant Matrix: (Units=GPa)
#
#
# Indices 1 2 3 4 5 6 
#
# 1 94.1228 42.1879 42.6794 6.5625 -14.0147 14.8574
# 2 42.1879 103.1238 48.5222 3.3557 -5.1704 32.0161
# 3 42.6794 48.5222 122.5640 21.5964 -26.3729 7.3932
# 4 6.5625 3.3557 21.5964 60.6304 4.0947 -5.6708
# 5 -14.0147 -5.1704 -26.3729 4.0947 37.1334 5.5607
# 6 14.8574 32.0161 7.3932 -5.6708 5.5607 34.9531
#
#
#
# Elastic Compliance Matrix: (Units=1/GPa)
#
#
# Indices 1 2 3 4 5 6 
#
# 1 0.014465 -0.003577 -0.002421 -0.001058 0.003829 -0.003141
# 2 -0.003577 0.017732 -0.005036 -0.000044 -0.000417 -0.013597
# 3 -0.002421 -0.005036 0.013643 -0.004836 0.008515 0.000617
# 4 -0.001058 -0.000044 -0.004836 0.019331 -0.006831 0.005736
# 5 0.003829 -0.000417 0.008515 -0.006831 0.036612 -0.009980
# 6 -0.003141 -0.013597 0.000617 0.005736 -0.009980 0.044787
#
#
# Mechanical properties :
#
#
# Convention : Reuss Voigt Hill
#
# Bulk Modulus (GPa) = 42.06711 65.17662 53.62186
# Shear Modulus (GPa) = 28.31844 38.97147 33.64495
#
# Velocity S-wave (km/s) = 3.58335 4.20366 3.90584
# Velocity P-wave (km/s) = 6.01622 7.28793 6.68240
#
# Compressibility (1/GPa) = 0.02377154
#
# Stress axis : x y z
#
# Youngs Moduli (GPa) = 69.13133 56.39526 73.29641
#
# Poissons Ratio (x) = 0.20172 0.17748
# Poissons Ratio (y) = 0.24728 0.36913
# Poissons Ratio (z) = 0.16739 0.28401
#
# Static dielectric constant tensor:
#      x y z
#    x 1.821440 -0.016690 0.002260 
#    y -0.016690 1.851140 0.028300 
#    z 0.002260 0.028300 1.850730 
# 
# From -- ./inp_files/364889.got.cif
#   From: 2010.05.17/outbox.cif.g08.bks.cpg/sg2_183_cif.got.tgz:364889.got - 2010.06.03 11:33:40.
