data_PCOD9013864
_publ_section_title
;
Structure prediction by ZEFSAII (Michael W. Deem and Ramdas Pophale) SiO2 
 PCOD9013864
Probable space group: P -1
;
_chemical_formula_sum "Si O2"
_cell_formula_units_Z 14
_cell_length_a 11.356698
_cell_length_b 10.884151
_cell_length_c 7.504174
_cell_angle_alpha 114.519902
_cell_angle_beta 139.724564
_cell_angle_gamma 61.383400
_cell_volume 524.379092
_symmetry_space_group_name_H-M "P -1"
_symmetry_group_IT_number 2
_symmetry_cell_setting 'triclinic'
loop_
_space_group_symop_operation_xyz
x,y,z
-x,-y,-z
loop_
_atom_site_type_symbol
_atom_site_label
_atom_site_fract_x
_atom_site_fract_y
_atom_site_fract_z
Si Si1 0.839844 0.710103 0.433741
Si Si2 0.758963 0.006788 0.928376
Si Si3 0.876986 0.012077 0.544246
Si Si4 0.525240 0.152831 0.402659
Si Si5 0.594009 0.303634 0.072377
Si Si6 0.060429 0.525118 0.885813
Si Si7 0.542444 0.443546 0.727026
O O1 0.619993 0.711269 0.185628
O O2 0.933092 0.605371 0.318136
O O3 0.857734 0.861858 0.493953
O O4 0.929979 0.654105 0.695921
O O5 0.651291 0.061777 0.653302
O O6 0.722934 0.150281 0.085688
O O7 0.658151 0.903389 0.849721
O O8 0.982052 0.938399 0.128215
O O9 0.000000 0.000000 0.500000
O O10 0.665022 0.114918 0.373117
O O11 0.475728 0.315643 0.492854
O O12 0.622325 0.389243 0.981563
O O13 0.604320 0.406317 0.309212
O O14 0.273521 0.539523 0.149634
O O15 0.000000 0.500000 0.000000
#
# Coordination Sequence:
#
# PCOD9013864 Si02
#       7
#     2   2   2   2   2   2   2
#     4  10  21  42  64  98 137 181 234 292 346 418
#     4  10  21  41  70  94 134 181 230 290 343 422
#     4  12  26  42  69  99 140 189 229 282 358 421
#     4  10  21  41  66 103 131 173 235 286 348 418
#     4   9  17  38  67  93 132 182 224 280 363 403
#     4  10  22  40  69  96 136 182 234 290 350 422
#     4   9  19  36  66  96 130 170 223 287 342 416
#
# _framework density 26.698242
#
# number of rings (size 3 to 8) (size 9 to 14) (size 15 to 20)
#    0.000    2.000    1.429    2.143    2.000    1.714 
#    0.000    0.714    6.286    0.000    0.000    0.000 
#    0.000    0.000    0.000    0.000    0.000    0.000 
#
# Total GULP energy -78455.625958 kJ/mol
# GULP energy per Si atom -5603.973283 kJ/mol
# Density = 2.663748 g / cm^3
# Si number density = 26.698242 Si / 1000 Ang^3
#
#
#
# Elastic Constant Matrix: (Units=GPa)
#
#
# Indices 1 2 3 4 5 6 
#
# 1 189.8194 45.5259 35.3905 14.2177 -1.8351 23.2829
# 2 45.5259 124.9091 41.3490 37.5395 -5.2882 7.9457
# 3 35.3905 41.3490 55.3514 23.5473 1.6889 10.6201
# 4 14.2177 37.5395 23.5473 49.7984 7.6320 -6.0605
# 5 -1.8351 -5.2882 1.6889 7.6320 51.1308 -1.7964
# 6 23.2829 7.9457 10.6201 -6.0605 -1.7964 31.6090
#
#
#
# Elastic Compliance Matrix: (Units=1/GPa)
#
#
# Indices 1 2 3 4 5 6 
#
# 1 0.006490 -0.001263 -0.002403 -0.000227 0.000086 -0.003694
# 2 -0.001263 0.012596 -0.005276 -0.007223 0.002450 -0.001709
# 3 -0.002403 -0.005276 0.029685 -0.010399 -0.000373 -0.008892
# 4 -0.000227 -0.007223 -0.010399 0.032651 -0.004883 0.011460
# 5 0.000086 0.002450 -0.000373 -0.004883 0.020544 -0.000322
# 6 -0.003694 -0.001709 -0.008892 0.011460 -0.000322 0.039954
#
#
# Mechanical properties :
#
#
# Convention : Reuss Voigt Hill
#
# Bulk Modulus (GPa) = 32.37588 68.29007 50.33298
# Shear Modulus (GPa) = 29.39438 43.02861 36.21150
#
# Velocity S-wave (km/s) = 3.32171 4.01891 3.68683
# Velocity P-wave (km/s) = 5.18311 6.86801 6.08417
#
# Compressibility (1/GPa) = 0.03088719
#
# Stress axis : x y z
#
# Youngs Moduli (GPa) = 154.07978 79.39067 33.68650
#
# Poissons Ratio (x) = 0.10027 0.08096
# Poissons Ratio (y) = 0.19460 0.17773
# Poissons Ratio (z) = 0.37030 0.41886
#
# Static dielectric constant tensor:
#      x y z
#    x 2.126540 0.034830 -0.087900 
#    y 0.034830 2.123880 -0.108960 
#    z -0.087900 -0.108960 2.140800 
# 
# From -- ./inp_files/260454.got.cif
#   From: 2010.05.17/outbox.cif.g08.bks.cpg/sg2_131_cif.got.tgz:260454.got - 2010.06.03 11:33:40.
