data_PCOD9013465
_publ_section_title
;
Structure prediction by ZEFSAII (Michael W. Deem and Ramdas Pophale) SiO2 
 PCOD9013465
Probable space group: P -1
;
_chemical_formula_sum "Si O2"
_cell_formula_units_Z 14
_cell_length_a 14.934923
_cell_length_b 5.978017
_cell_length_c 7.111014
_cell_angle_alpha 113.819585
_cell_angle_beta 76.880888
_cell_angle_gamma 102.569847
_cell_volume 559.961451
_symmetry_space_group_name_H-M "P -1"
_symmetry_group_IT_number 2
_symmetry_cell_setting 'triclinic'
loop_
_space_group_symop_operation_xyz
x,y,z
-x,-y,-z
loop_
_atom_site_type_symbol
_atom_site_label
_atom_site_fract_x
_atom_site_fract_y
_atom_site_fract_z
Si Si1 0.289695 0.402732 0.379899
Si Si2 0.891419 0.919116 0.671162
Si Si3 0.341519 0.383910 0.772581
Si Si4 0.748093 0.107461 0.286645
Si Si5 0.514970 0.707661 0.891770
Si Si6 0.925276 0.850049 0.215111
Si Si7 0.186032 0.627312 0.045418
O O1 0.288754 0.336595 0.582150
O O2 0.284163 0.692281 0.489973
O O3 0.381845 0.310721 0.231513
O O4 0.196069 0.268785 0.285371
O O5 0.973682 0.991519 0.804853
O O6 0.926552 0.804863 0.425429
O O7 0.850684 0.174278 0.737312
O O8 0.434358 0.566452 0.748810
O O9 0.280289 0.512639 0.996112
O O10 0.339061 0.110125 0.761258
O O11 0.779872 0.226224 0.112411
O O12 0.840912 0.001800 0.268693
O O13 0.500000 0.500000 0.000000
O O14 0.500000 0.000000 0.000000
O O15 0.896603 0.591746 0.036559
#
# Coordination Sequence:
#
# PCOD9013465 Si02
#       7
#     2   2   2   2   2   2   2
#     4  11  24  44  68  97 133 187 228 285 360 415
#     4  11  21  40  66  91 138 178 232 285 348 418
#     4  10  23  45  68  95 139 177 229 292 348 425
#     4  10  21  41  67  93 136 176 230 285 351 414
#     4  12  30  47  73 109 141 178 242 292 352 431
#     4  10  22  42  59  98 133 181 230 289 345 414
#     4  10  21  41  64  96 135 177 232 289 350 409
#
# _framework density 25.001721
#
# number of rings (size 3 to 8) (size 9 to 14) (size 15 to 20)
#    0.000    1.429    4.286    1.714    8.000    2.857 
#    2.571    0.000    0.000    0.000    0.000    0.000 
#    0.000    0.000    0.000    0.000    0.000    0.000 
#
# Total GULP energy -78205.700175 kJ/mol
# GULP energy per Si atom -5586.121441 kJ/mol
# Density = 2.494482 g / cm^3
# Si number density = 25.001721 Si / 1000 Ang^3
#
#
#
# Elastic Constant Matrix: (Units=GPa)
#
#
# Indices 1 2 3 4 5 6 
#
# 1 105.4305 53.7172 18.6002 17.8721 -14.3908 33.5215
# 2 53.7172 144.4879 40.4512 33.6245 -3.7098 21.5288
# 3 18.6002 40.4512 87.5472 23.9702 -15.7231 5.8733
# 4 17.8721 33.6245 23.9702 54.4445 -4.7915 6.4379
# 5 -14.3908 -3.7098 -15.7231 -4.7915 40.5869 2.6108
# 6 33.5215 21.5288 5.8733 6.4379 2.6108 52.8057
#
#
#
# Elastic Compliance Matrix: (Units=1/GPa)
#
#
# Indices 1 2 3 4 5 6 
#
# 1 0.014994 -0.004119 0.000579 -0.001196 0.005540 -0.008031
# 2 -0.004119 0.010245 -0.003194 -0.003682 -0.002154 -0.000651
# 3 0.000579 -0.003194 0.014912 -0.004269 0.005216 -0.000461
# 4 -0.001196 -0.003682 -0.004269 0.022949 0.000300 -0.000078
# 5 0.005540 -0.002154 0.005216 0.000300 0.028762 -0.004677
# 6 -0.008031 -0.000651 -0.000461 -0.000078 -0.004677 0.024593
#
#
# Mechanical properties :
#
#
# Convention : Reuss Voigt Hill
#
# Bulk Modulus (GPa) = 37.47834 62.55588 50.01711
# Shear Modulus (GPa) = 36.01843 44.54721 40.28282
#
# Velocity S-wave (km/s) = 3.79969 4.22568 4.01833
# Velocity P-wave (km/s) = 5.85432 6.99167 6.44812
#
# Compressibility (1/GPa) = 0.02668208
#
# Stress axis : x y z
#
# Youngs Moduli (GPa) = 66.69342 97.60793 67.06171
#
# Poissons Ratio (x) = 0.40208 -0.03881
# Poissons Ratio (y) = 0.27473 0.21418
# Poissons Ratio (z) = -0.03860 0.31173
#
# Static dielectric constant tensor:
#      x y z
#    x 2.093630 -0.023940 0.060430 
#    y -0.023940 2.058690 -0.032140 
#    z 0.060430 -0.032140 2.001820 
# 
# From -- ./inp_files/38371.got.cif
#   From: 2010.05.17/outbox.cif.g08.bks.cpg/sg2_20_cif.got.tgz:38371.got - 2010.06.03 11:33:40.
