data_PCOD9013755
_publ_section_title
;
Structure prediction by ZEFSAII (Michael W. Deem and Ramdas Pophale) SiO2 
 PCOD9013755
Probable space group: P -1
;
_chemical_formula_sum "Si O2"
_cell_formula_units_Z 16
_cell_length_a 5.952709
_cell_length_b 11.919286
_cell_length_c 14.120987
_cell_angle_alpha 49.171495
_cell_angle_beta 81.350026
_cell_angle_gamma 104.505396
_cell_volume 663.033631
_symmetry_space_group_name_H-M "P -1"
_symmetry_group_IT_number 2
_symmetry_cell_setting 'triclinic'
loop_
_space_group_symop_operation_xyz
x,y,z
-x,-y,-z
loop_
_atom_site_type_symbol
_atom_site_label
_atom_site_fract_x
_atom_site_fract_y
_atom_site_fract_z
Si Si1 0.010783 0.721685 0.288988
Si Si2 0.800742 0.139282 0.518850
Si Si3 0.984990 0.871165 0.672340
Si Si4 0.203521 0.455001 0.419355
Si Si5 0.570836 0.410621 0.129057
Si Si6 0.300508 0.862951 0.807386
Si Si7 0.575546 0.925913 0.945626
Si Si8 0.304446 0.368505 0.829537
O O1 0.796725 0.627606 0.434225
O O2 0.908867 0.702926 0.199058
O O3 0.184716 0.626652 0.338805
O O4 0.168851 0.916225 0.196291
O O5 0.806951 0.144510 0.401029
O O6 0.946119 0.321443 0.455521
O O7 0.533080 0.023011 0.651547
O O8 0.977191 0.045998 0.572362
O O9 0.041919 0.850843 0.788669
O O10 0.707036 0.727583 0.738923
O O11 0.446031 0.496523 0.316761
O O12 0.696057 0.304539 0.135111
O O13 0.735275 0.535567 0.132301
O O14 0.500000 0.500000 0.000000
O O15 0.359934 0.879129 0.905058
O O16 0.629105 0.774008 0.055490
O O17 0.500000 0.000000 0.000000
#
# Coordination Sequence:
#
# PCOD9013755 Si02
#       8
#     2   2   2   2   2   2   2   2
#     4  11  26  44  69  96 129 180 217 274 333 378
#     4  10  21  41  65  95 132 165 216 269 323 394
#     4  10  23  40  65  96 130 171 212 269 329 384
#     4  11  23  45  66  99 133 164 228 277 318 394
#     4  11  24  42  63  98 131 167 220 265 322 393
#     4  11  24  43  67  95 132 174 215 271 328 391
#     4  12  25  47  67  97 135 174 225 267 322 405
#     4  12  25  44  70  96 135 175 218 274 330 389
#
# _framework density 24.131504
#
# number of rings (size 3 to 8) (size 9 to 14) (size 15 to 20)
#    0.000    1.000    5.000    1.125    1.750    3.500 
#    0.000    0.000    0.000    0.000    0.000    0.000 
#    0.000    0.000    0.000    0.000    0.000    0.000 
#
# Total GULP energy -89591.745496 kJ/mol
# GULP energy per Si atom -5599.484094 kJ/mol
# Density = 2.407658 g / cm^3
# Si number density = 24.131504 Si / 1000 Ang^3
#
#
#
# Elastic Constant Matrix: (Units=GPa)
#
#
# Indices 1 2 3 4 5 6 
#
# 1 18.7952 16.8003 7.6555 6.9795 4.8632 15.1960
# 2 16.8003 148.5650 31.6970 18.8634 12.0889 16.1779
# 3 7.6555 31.6970 102.8751 7.7191 5.3303 6.2770
# 4 6.9795 18.8634 7.7191 43.0923 7.7601 5.1192
# 5 4.8632 12.0889 5.3303 7.7601 34.0767 14.9492
# 6 15.1960 16.1779 6.2770 5.1192 14.9492 35.6104
#
#
#
# Elastic Compliance Matrix: (Units=1/GPa)
#
#
# Indices 1 2 3 4 5 6 
#
# 1 0.090838 -0.005085 -0.002614 -0.008934 0.007979 -0.038057
# 2 -0.005085 0.008116 -0.001877 -0.002131 -0.001212 -0.000371
# 3 -0.002614 -0.001877 0.010543 -0.000577 -0.000691 0.000483
# 4 -0.008934 -0.002131 -0.000577 0.026250 -0.005323 0.003343
# 5 0.007979 -0.001212 -0.000691 -0.005323 0.037777 -0.017826
# 6 -0.038057 -0.000371 0.000483 0.003343 -0.017826 0.051408
#
#
# Mechanical properties :
#
#
# Convention : Reuss Voigt Hill
#
# Bulk Modulus (GPa) = 11.06872 42.50457 26.78665
# Shear Modulus (GPa) = 18.23486 36.82806 27.53146
#
# Velocity S-wave (km/s) = 2.75188 3.91082 3.38137
# Velocity P-wave (km/s) = 3.83327 6.16804 5.13511
#
# Compressibility (1/GPa) = 0.09034471
#
# Stress axis : x y z
#
# Youngs Moduli (GPa) = 11.00863 123.21123 94.85016
#
# Poissons Ratio (x) = 0.62656 0.24793
# Poissons Ratio (y) = 0.05598 0.17803
# Poissons Ratio (z) = 0.02878 0.23126
#
# Static dielectric constant tensor:
#      x y z
#    x 1.931350 0.020110 -0.038540 
#    y 0.020110 1.923770 0.040850 
#    z -0.038540 0.040850 2.008140 
# 
# From -- ./inp_files/95328.got.cif
#   From: 2010.05.17/outbox.cif.g08.bks.cpg/sg2_48_cif.got.tgz:95328.got - 2010.06.03 11:33:40.
