data_PCOD9013830
_publ_section_title
;
Structure prediction by ZEFSAII (Michael W. Deem and Ramdas Pophale) SiO2 
 PCOD9013830
Probable space group: P -1
;
_chemical_formula_sum "Si O2"
_cell_formula_units_Z 15
_cell_length_a 22.623808
_cell_length_b 6.123181
_cell_length_c 6.397823
_cell_angle_alpha 102.153043
_cell_angle_beta 59.904787
_cell_angle_gamma 70.414962
_cell_volume 639.790148
_symmetry_space_group_name_H-M "P -1"
_symmetry_group_IT_number 2
_symmetry_cell_setting 'triclinic'
loop_
_space_group_symop_operation_xyz
x,y,z
-x,-y,-z
loop_
_atom_site_type_symbol
_atom_site_label
_atom_site_fract_x
_atom_site_fract_y
_atom_site_fract_z
Si Si1 0.347792 0.967207 0.203324
Si Si2 0.127168 0.751873 0.628781
Si Si3 0.439409 0.162742 0.822731
Si Si4 0.500000 0.500000 0.000000
Si Si5 0.779262 0.542051 0.213982
Si Si6 0.971147 0.826445 0.398953
Si Si7 0.275041 0.675597 0.085764
Si Si8 0.884030 0.631208 0.752134
O O1 0.291175 0.236411 0.476787
O O2 0.401627 0.723419 0.209757
O O3 0.293615 0.903453 0.137197
O O4 0.412873 0.985337 0.952671
O O5 0.146384 0.654553 0.810596
O O6 0.109889 0.560292 0.484444
O O7 0.058874 0.047753 0.750136
O O8 0.209158 0.712502 0.379344
O O9 0.481431 0.276086 0.912854
O O10 0.358349 0.407269 0.926336
O O11 0.500000 0.000000 0.500000
O O12 0.751982 0.373432 0.098838
O O13 0.807357 0.686766 0.031500
O O14 0.896556 0.845532 0.661276
O O15 0.042174 0.530553 0.249768
O O16 0.000000 0.000000 0.500000
#
# Coordination Sequence:
#
# PCOD9013830 Si02
#       8
#     2   2   2   1   2   2   2   2
#     4  11  24  45  67  97 139 170 225 281 327 408
#     4  10  21  41  65  99 137 173 227 279 333 405
#     4  11  23  43  66  95 134 175 218 277 336 396
#     4  10  24  42  68  96 124 180 222 270 330 400
#     4  11  23  44  71 100 135 181 226 279 344 395
#     4   9  19  41  66  94 140 175 221 286 328 399
#     4  10  24  43  63 102 133 176 221 277 338 400
#     4   9  21  42  66  97 135 178 225 279 336 396
#
# _framework density 23.445188999999999
#
# number of rings (size 3 to 8) (size 9 to 14) (size 15 to 20)
#    0.000    1.867    1.333    1.200    1.867    3.733 
#    9.600    6.000    0.000    0.000    0.000    0.000 
#    0.000    0.000    0.000    0.000    0.000    0.000 
#
# Total GULP energy -83632.996441 kJ/mol
# GULP energy per Si atom -5575.533096 kJ/mol
# Density = 2.339183 g / cm^3
# Si number density = 23.445189 Si / 1000 Ang^3
#
#
#
# Elastic Constant Matrix: (Units=GPa)
#
#
# Indices 1 2 3 4 5 6 
#
# 1 140.3792 39.4282 31.5456 -9.4949 6.1954 20.3027
# 2 39.4282 64.8335 17.5281 -4.8867 9.9543 11.6056
# 3 31.5456 17.5281 60.1048 -5.1667 1.4642 19.5195
# 4 -9.4949 -4.8867 -5.1667 30.2039 -4.3347 -5.1673
# 5 6.1954 9.9543 1.4642 -4.3347 23.7585 -7.0408
# 6 20.3027 11.6056 19.5195 -5.1673 -7.0408 58.1031
#
#
#
# Elastic Compliance Matrix: (Units=1/GPa)
#
#
# Indices 1 2 3 4 5 6 
#
# 1 0.009367 -0.004452 -0.003065 0.001405 -0.000515 -0.001292
# 2 -0.004452 0.020547 -0.002604 -0.000140 -0.008104 -0.002668
# 3 -0.003065 -0.002604 0.020883 0.001147 -0.000794 -0.005419
# 4 0.001405 -0.000140 0.001147 0.035262 0.006984 0.003134
# 5 -0.000515 -0.008104 -0.000794 0.006984 0.049517 0.008687
# 6 -0.001292 -0.002668 -0.005419 0.003134 0.008687 0.021347
#
#
# Mechanical properties :
#
#
# Convention : Reuss Voigt Hill
#
# Bulk Modulus (GPa) = 32.72678 49.14683 40.93681
# Shear Modulus (GPa) = 26.68802 34.20080 30.44441
#
# Velocity S-wave (km/s) = 3.37755 3.82351 3.60743
# Velocity P-wave (km/s) = 5.40367 6.36398 5.90338
#
# Compressibility (1/GPa) = 0.03055602
#
# Stress axis : x y z
#
# Youngs Moduli (GPa) = 106.75386 48.66980 47.88502
#
# Poissons Ratio (x) = 0.21667 0.14678
# Poissons Ratio (y) = 0.47525 0.12467
# Poissons Ratio (z) = 0.32724 0.12671
#
# Static dielectric constant tensor:
#      x y z
#    x 1.890970 -0.049910 -0.017330 
#    y -0.049910 1.922110 -0.022950 
#    z -0.017330 -0.022950 1.852960 
# 
# From -- ./inp_files/111640.got.cif
#   From: 2010.05.17/outbox.cif.g08.bks.cpg/sg2_56_cif.got.tgz:111640.got - 2010.06.03 11:33:40.
