data_PCOD9013353
_publ_section_title
;
Structure prediction by ZEFSAII (Michael W. Deem and Ramdas Pophale) SiO2 
 PCOD9013353
Probable space group: P -1
;
_chemical_formula_sum "Si O2"
_cell_formula_units_Z 14
_cell_length_a 10.553394
_cell_length_b 12.363248
_cell_length_c 9.137955
_cell_angle_alpha 132.401117
_cell_angle_beta 63.871808
_cell_angle_gamma 131.986715
_cell_volume 654.292116
_symmetry_space_group_name_H-M "P -1"
_symmetry_group_IT_number 2
_symmetry_cell_setting 'triclinic'
loop_
_space_group_symop_operation_xyz
x,y,z
-x,-y,-z
loop_
_atom_site_type_symbol
_atom_site_label
_atom_site_fract_x
_atom_site_fract_y
_atom_site_fract_z
Si Si1 0.436663 0.030070 0.359598
Si Si2 0.292775 0.039663 0.733023
Si Si3 0.352871 0.402023 0.104503
Si Si4 0.358922 0.592743 0.539175
Si Si5 0.121062 0.487805 0.121671
Si Si6 0.262046 0.698003 0.952854
Si Si7 0.027374 0.657006 0.527032
O O1 0.312654 0.042295 0.548041
O O2 0.582694 0.231554 0.424181
O O3 0.538333 0.950351 0.299018
O O4 0.339710 0.895121 0.152245
O O5 0.129211 0.856493 0.708365
O O6 0.294362 0.201209 0.945962
O O7 0.422625 0.500089 0.315104
O O8 0.203924 0.419668 0.128168
O O9 0.500000 0.500000 0.000000
O O10 0.163506 0.424188 0.499311
O O11 0.384954 0.676502 0.763685
O O12 0.209339 0.557889 0.984024
O O13 0.142462 0.659605 0.340809
O O14 0.916749 0.359195 0.086593
O O15 0.000000 0.500000 0.500000
#
# Coordination Sequence:
#
# PCOD9013353 Si02
#       7
#     2   2   2   2   2   2   2
#     4  11  20  41  63  96 119 164 220 256 307 378
#     4  11  23  36  69  94 125 164 211 264 312 370
#     4  12  23  40  64  96 130 166 205 264 319 367
#     4  11  23  39  65  94 125 162 213 264 308 369
#     4  10  21  41  64  92 125 166 209 257 317 371
#     4  10  22  38  69  90 123 170 214 254 310 375
#     4  11  19  39  66  93 117 159 219 263 296 366
#
# _framework density 21.397169999999999
#
# number of rings (size 3 to 8) (size 9 to 14) (size 15 to 20)
#    0.000    1.143    5.714    1.286    0.000    0.571 
#    0.000    3.571    0.000    0.000    0.000    0.000 
#    0.000    0.000    0.000    0.000    0.000    0.000 
#
# Total GULP energy -77934.126746 kJ/mol
# GULP energy per Si atom -5566.723339 kJ/mol
# Density = 2.134847 g / cm^3
# Si number density = 21.397170 Si / 1000 Ang^3
#
#
#
# Elastic Constant Matrix: (Units=GPa)
#
#
# Indices 1 2 3 4 5 6 
#
# 1 33.4247 3.6183 3.1808 14.1898 -3.3030 7.1580
# 2 3.6183 85.5690 46.8627 11.1641 -2.9593 7.7656
# 3 3.1808 46.8627 164.1515 8.5679 -4.1784 1.6963
# 4 14.1898 11.1641 8.5679 55.0823 3.5932 5.1143
# 5 -3.3030 -2.9593 -4.1784 3.5932 26.2311 5.4729
# 6 7.1580 7.7656 1.6963 5.1143 5.4729 21.5121
#
#
#
# Elastic Compliance Matrix: (Units=1/GPa)
#
#
# Indices 1 2 3 4 5 6 
#
# 1 0.037340 0.001224 -0.000236 -0.009205 0.008752 -0.012886
# 2 0.001224 0.014711 -0.003977 -0.002338 0.002653 -0.005523
# 3 -0.000236 -0.003977 0.007256 -0.000380 0.000543 0.000894
# 4 -0.009205 -0.002338 -0.000380 0.021348 -0.004404 -0.000018
# 5 0.008752 0.002653 0.000543 -0.004404 0.043099 -0.013830
# 6 -0.012886 -0.005523 0.000894 -0.000018 -0.013830 0.056219
#
#
# Mechanical properties :
#
#
# Convention : Reuss Voigt Hill
#
# Bulk Modulus (GPa) = 18.75188 43.38543 31.06865
# Shear Modulus (GPa) = 24.54243 35.86399 30.20321
#
# Velocity S-wave (km/s) = 3.39040 4.09847 3.76114
# Velocity P-wave (km/s) = 4.91011 6.53582 5.78040
#
# Compressibility (1/GPa) = 0.05332799
#
# Stress axis : x y z
#
# Youngs Moduli (GPa) = 26.78079 67.97770 137.81251
#
# Poissons Ratio (x) = -0.08318 0.03259
# Poissons Ratio (y) = -0.03277 0.54804
# Poissons Ratio (z) = 0.00633 0.27033
#
# Static dielectric constant tensor:
#      x y z
#    x 1.846800 -0.010190 0.032650 
#    y -0.010190 1.803310 -0.070760 
#    z 0.032650 -0.070760 1.893170 
# 
# From -- ./inp_files/180035.got.cif
#   From: 2010.05.17/outbox.cif.g08.bks.cpg/sg2_91_cif.got.tgz:180035.got - 2010.06.03 11:33:40.
