data_PCOD9013080
_publ_section_title
;
Structure prediction by ZEFSAII (Michael W. Deem and Ramdas Pophale) SiO2 
 PCOD9013080
Probable space group: P -1
;
_chemical_formula_sum "Si O2"
_cell_formula_units_Z 16
_cell_length_a 9.243546
_cell_length_b 22.740342
_cell_length_c 8.544457
_cell_angle_alpha 30.033918
_cell_angle_beta 51.831032
_cell_angle_gamma 65.759987
_cell_volume 670.472100
_symmetry_space_group_name_H-M "P -1"
_symmetry_group_IT_number 2
_symmetry_cell_setting 'triclinic'
loop_
_space_group_symop_operation_xyz
x,y,z
-x,-y,-z
loop_
_atom_site_type_symbol
_atom_site_label
_atom_site_fract_x
_atom_site_fract_y
_atom_site_fract_z
Si Si1 0.125722 0.411238 0.673637
Si Si2 0.542016 0.575758 0.033700
Si Si3 0.435387 0.875808 0.222833
Si Si4 0.884753 0.583641 0.957273
Si Si5 0.903939 0.169870 0.936801
Si Si6 0.781011 0.008017 0.124804
Si Si7 0.219506 0.219107 0.844537
Si Si8 0.573989 0.226393 0.210045
O O1 0.345825 0.485967 0.307483
O O2 0.113070 0.277584 0.912507
O O3 0.000000 0.500000 0.500000
O O4 0.111169 0.406046 0.882961
O O5 0.679410 0.515873 0.169266
O O6 0.666153 0.667529 0.607612
O O7 0.485808 0.652672 0.033787
O O8 0.617787 0.848827 0.076367
O O9 0.374073 0.778145 0.629377
O O10 0.268834 0.889959 0.188004
O O11 0.500000 0.000000 0.000000
O O12 0.969491 0.724347 0.508999
O O13 0.000000 0.500000 0.000000
O O14 0.049766 0.135372 0.038119
O O15 0.766696 0.052770 0.206703
O O16 0.762523 0.227917 0.988717
O O17 0.614648 0.884073 0.467206
O O18 0.000000 0.000000 0.000000
#
# Coordination Sequence:
#
# PCOD9013080 Si02
#       8
#     2   2   2   2   2   2   2   2
#     4  12  24  40  65  97 129 170 215 262 322 386
#     4  10  21  41  63  88 126 164 208 266 319 381
#     4   9  20  40  63  91 125 164 213 266 318 377
#     4  11  24  41  62  90 127 170 212 262 321 382
#     4  11  23  41  61  89 128 165 210 265 314 379
#     4  11  22  40  65  93 126 167 212 265 324 382
#     4  10  22  40  63  92 128 171 213 262 322 384
#     4  10  21  41  65  92 124 167 211 262 324 383
#
# _framework density 23.863782
#
# number of rings (size 3 to 8) (size 9 to 14) (size 15 to 20)
#    0.000    1.500    0.000    7.125    0.000    5.000 
#    0.000    9.375    0.000    0.000    0.000    0.000 
#    0.000    0.000    0.000    0.000    0.000    0.000 
#
# Total GULP energy -89297.034045 kJ/mol
# GULP energy per Si atom -5581.064628 kJ/mol
# Density = 2.380947 g / cm^3
# Si number density = 23.863782 Si / 1000 Ang^3
#
#
#
# Elastic Constant Matrix: (Units=GPa)
#
#
# Indices 1 2 3 4 5 6 
#
# 1 173.0880 55.8856 24.6792 4.1983 -6.7836 -24.8453
# 2 55.8856 143.0624 -3.8948 5.9991 12.3499 -13.7291
# 3 24.6792 -3.8948 37.8438 6.7347 -0.7391 -0.7958
# 4 4.1983 5.9991 6.7347 33.4051 3.2123 -5.3391
# 5 -6.7836 12.3499 -0.7391 3.2123 22.0691 -5.0928
# 6 -24.8453 -13.7291 -0.7958 -5.3391 -5.0928 46.6577
#
#
#
# Elastic Compliance Matrix: (Units=1/GPa)
#
#
# Indices 1 2 3 4 5 6 
#
# 1 0.008554 -0.003604 -0.005923 0.000912 0.005254 0.004071
# 2 -0.003604 0.009052 0.003397 -0.001291 -0.005868 0.000014
# 3 -0.005923 0.003397 0.031684 -0.006446 -0.002324 -0.002605
# 4 0.000912 -0.001291 -0.006446 0.032187 -0.003128 0.003337
# 5 0.005254 -0.005868 -0.002324 -0.003128 0.052056 0.006356
# 6 0.004071 0.000014 -0.002605 0.003337 0.006356 0.024636
#
#
# Mechanical properties :
#
#
# Convention : Reuss Voigt Hill
#
# Bulk Modulus (GPa) = 27.00475 56.37048 41.68762
# Shear Modulus (GPa) = 27.35666 38.91464 33.13565
#
# Velocity S-wave (km/s) = 3.38948 4.04257 3.73035
# Velocity P-wave (km/s) = 5.16322 6.74262 6.00507
#
# Compressibility (1/GPa) = 0.03703052
#
# Stress axis : x y z
#
# Youngs Moduli (GPa) = 116.90827 110.46894 31.56194
#
# Poissons Ratio (x) = 0.39811 0.18694
# Poissons Ratio (y) = 0.42131 -0.10722
# Poissons Ratio (z) = 0.69246 -0.37529
#
# Static dielectric constant tensor:
#      x y z
#    x 1.644120 0.288540 -0.115530 
#    y 0.288540 1.667670 0.066300 
#    z -0.115530 0.066300 1.981710 
# 
# From -- ./inp_files/225821.got.cif
#   From: 2010.05.17/outbox.cif.g08.bks.cpg/sg2_113_cif.got.tgz:225821.got - 2010.06.03 11:33:40.
