data_PCOD9013156
_publ_section_title
;
Structure prediction by ZEFSAII (Michael W. Deem and Ramdas Pophale) SiO2 
 PCOD9013156
Probable space group: P -1
;
_chemical_formula_sum "Si O2"
_cell_formula_units_Z 15
_cell_length_a 13.659298
_cell_length_b 13.903824
_cell_length_c 12.073134
_cell_angle_alpha 117.737644
_cell_angle_beta 150.744010
_cell_angle_gamma 43.462151
_cell_volume 667.888374
_symmetry_space_group_name_H-M "P -1"
_symmetry_group_IT_number 2
_symmetry_cell_setting 'triclinic'
loop_
_space_group_symop_operation_xyz
x,y,z
-x,-y,-z
loop_
_atom_site_type_symbol
_atom_site_label
_atom_site_fract_x
_atom_site_fract_y
_atom_site_fract_z
Si Si1 0.846172 0.224532 0.220979
Si Si2 0.670780 0.453470 0.994883
Si Si3 0.823521 0.988356 0.016038
Si Si4 0.139257 0.567777 0.408993
Si Si5 0.351797 0.114225 0.807545
Si Si6 0.170405 0.672749 0.284576
Si Si7 0.142333 0.328497 0.208920
Si Si8 0.500000 0.000000 0.500000
O O1 0.526580 0.379400 0.044480
O O2 0.104931 0.135166 0.518561
O O3 0.888394 0.301544 0.211263
O O4 0.850995 0.106038 0.106576
O O5 0.420062 0.470341 0.713612
O O6 0.861590 0.417829 0.061694
O O7 0.591440 0.047344 0.915215
O O8 0.711095 0.981667 0.787996
O O9 0.122163 0.809104 0.256065
O O10 0.123288 0.678119 0.371083
O O11 0.179255 0.442373 0.312935
O O12 0.832472 0.702922 0.244801
O O13 0.500000 0.000000 0.000000
O O14 0.500000 0.500000 0.500000
O O15 0.943860 0.684274 0.002232
O O16 0.408817 0.152075 0.428748
#
# Coordination Sequence:
#
# PCOD9013156 Si02
#       8
#     2   2   2   2   2   2   2   1
#     4  10  23  40  67  97 124 169 207 265 328 371
#     4  10  21  41  63  93 127 156 218 262 309 387
#     4  11  23  45  65  95 133 168 209 267 321 370
#     4  11  22  41  65  92 122 171 209 260 324 367
#     4  11  23  41  66  98 132 159 217 268 309 388
#     4  11  23  42  59  91 130 165 219 256 302 392
#     4  11  22  40  64  86 127 170 206 266 312 373
#     4  10  24  42  62  94 128 166 216 258 306 386
#
# _framework density 22.458843000000002
#
# number of rings (size 3 to 8) (size 9 to 14) (size 15 to 20)
#    0.000    1.333    2.667    2.800    0.000    1.600 
#    7.200    9.333    0.000    0.000    0.000    0.000 
#    0.000    0.000    0.000    0.000    0.000    0.000 
#
# Total GULP energy -83631.545684 kJ/mol
# GULP energy per Si atom -5575.436379 kJ/mol
# Density = 2.240773 g / cm^3
# Si number density = 22.458843 Si / 1000 Ang^3
#
#
#
# Elastic Constant Matrix: (Units=GPa)
#
#
# Indices 1 2 3 4 5 6 
#
# 1 44.3900 -13.3875 17.3710 -9.9060 -4.8001 -3.5083
# 2 -13.3875 101.4449 25.6111 2.2201 -3.1531 16.9292
# 3 17.3710 25.6111 97.6873 -20.7387 -31.3937 15.1536
# 4 -9.9060 2.2201 -20.7387 30.7846 0.1320 -4.5676
# 5 -4.8001 -3.1531 -31.3937 0.1320 28.9751 -4.1908
# 6 -3.5083 16.9292 15.1536 -4.5676 -4.1908 22.1371
#
#
#
# Elastic Compliance Matrix: (Units=1/GPa)
#
#
# Indices 1 2 3 4 5 6 
#
# 1 0.027757 0.003939 -0.005951 0.005608 -0.000503 0.006523
# 2 0.003939 0.012929 -0.005460 -0.004415 -0.004901 -0.007364
# 3 -0.005951 -0.005460 0.024209 0.013795 0.023718 -0.006003
# 4 0.005608 -0.004415 0.013795 0.044892 0.016226 0.007157
# 5 -0.000503 -0.004901 0.023718 0.016226 0.059824 0.002106
# 6 0.006523 -0.007364 -0.006003 0.007157 0.002106 0.057823
#
#
# Mechanical properties :
#
#
# Convention : Reuss Voigt Hill
#
# Bulk Modulus (GPa) = 20.02040 33.63459 26.82749
# Shear Modulus (GPa) = 19.30277 30.64119 24.97198
#
# Velocity S-wave (km/s) = 2.93486 3.69769 3.33813
# Velocity P-wave (km/s) = 4.51864 5.76534 5.17964
#
# Compressibility (1/GPa) = 0.04994905
#
# Stress axis : x y z
#
# Youngs Moduli (GPa) = 36.02694 77.34504 41.30754
#
# Poissons Ratio (x) = -0.30463 0.24584
# Poissons Ratio (y) = -0.14190 0.22554
# Poissons Ratio (z) = 0.21441 0.42231
#
# Static dielectric constant tensor:
#      x y z
#    x 1.897490 -0.045500 0.033280 
#    y -0.045500 1.879290 -0.041750 
#    z 0.033280 -0.041750 1.793930 
# 
# From -- ./inp_files/80554.got.cif
#   From: 2010.05.17/outbox.cif.g08.bks.cpg/sg2_41_cif.got.tgz:80554.got - 2010.06.03 11:33:40.
