data_PCOD9013279
_publ_section_title
;
Structure prediction by ZEFSAII (Michael W. Deem and Ramdas Pophale) SiO2 
 PCOD9013279
Probable space group: P -1
;
_chemical_formula_sum "Si O2"
_cell_formula_units_Z 16
_cell_length_a 18.800125
_cell_length_b 12.399609
_cell_length_c 22.653511
_cell_angle_alpha 151.324828
_cell_angle_beta 160.823958
_cell_angle_gamma 37.454777
_cell_volume 811.753272
_symmetry_space_group_name_H-M "P -1"
_symmetry_group_IT_number 2
_symmetry_cell_setting 'triclinic'
loop_
_space_group_symop_operation_xyz
x,y,z
-x,-y,-z
loop_
_atom_site_type_symbol
_atom_site_label
_atom_site_fract_x
_atom_site_fract_y
_atom_site_fract_z
Si Si1 0.433447 0.322701 0.648265
Si Si2 0.765502 0.193609 0.750220
Si Si3 0.829410 0.116667 0.457806
Si Si4 0.823981 0.487436 0.717976
Si Si5 0.549389 0.300245 0.860431
Si Si6 0.493851 0.774556 0.557413
Si Si7 0.690170 0.215784 0.272474
Si Si8 0.804145 0.728721 0.334302
O O1 0.613615 0.257962 0.714372
O O2 0.533236 0.378896 0.818585
O O3 0.353360 0.541372 0.665955
O O4 0.250951 0.081315 0.394644
O O5 0.659453 0.254087 0.634752
O O6 0.006908 0.341960 0.025724
O O7 0.931821 0.329263 0.682772
O O8 0.696855 0.204437 0.343540
O O9 0.708320 0.911811 0.307323
O O10 0.000000 0.000000 0.500000
O O11 0.684888 0.631394 0.638870
O O12 0.656053 0.317059 0.547401
O O13 0.312973 0.281611 0.699263
O O14 0.595682 0.046065 0.773336
O O15 0.726816 0.482648 0.123910
O O16 0.929731 0.197292 0.424458
O O17 0.500000 0.000000 0.000000
#
# Coordination Sequence:
#
# PCOD9013279 Si02
#       8
#     2   2   2   2   2   2   2   2
#     4  10  23  41  58  93 123 163 210 254 322 377
#     4  10  23  41  63  88 131 166 205 269 319 375
#     4  10  22  40  61  91 121 161 213 252 317 378
#     4  11  22  39  68  92 125 169 212 263 320 377
#     4  10  21  41  64  85 131 162 209 259 313 386
#     4  10  22  41  62  99 122 164 220 263 312 384
#     4  11  24  38  62  92 125 161 210 262 311 384
#     4  10  22  39  63  91 121 170 205 258 320 375
#
# _framework density 19.710422000000001
#
# number of rings (size 3 to 8) (size 9 to 14) (size 15 to 20)
#    0.000    1.750    1.250    1.875    8.750    0.500 
#    0.000    5.000    0.000    0.000    0.000    0.000 
#    0.000    0.000    0.000    0.000    0.000    0.000 
#
# Total GULP energy -89294.761010 kJ/mol
# GULP energy per Si atom -5580.922563 kJ/mol
# Density = 1.966556 g / cm^3
# Si number density = 19.710422 Si / 1000 Ang^3
#
#
#
# Elastic Constant Matrix: (Units=GPa)
#
#
# Indices 1 2 3 4 5 6 
#
# 1 77.5153 43.3500 14.7445 0.1933 -15.2329 0.3744
# 2 43.3500 131.0307 39.8988 11.4303 -9.7439 22.4012
# 3 14.7445 39.8988 84.9306 8.5420 -6.0153 -0.8340
# 4 0.1933 11.4303 8.5420 15.7450 -5.0097 -2.3825
# 5 -15.2329 -9.7439 -6.0153 -5.0097 28.2820 0.7345
# 6 0.3744 22.4012 -0.8340 -2.3825 0.7345 33.9207
#
#
#
# Elastic Compliance Matrix: (Units=1/GPa)
#
#
# Indices 1 2 3 4 5 6 
#
# 1 0.018549 -0.007006 -0.000102 0.008486 0.008933 0.004822
# 2 -0.007006 0.013674 -0.004464 -0.009335 -0.001414 -0.009688
# 3 -0.000102 -0.004464 0.014357 -0.003869 0.000697 0.003015
# 4 0.008486 -0.009335 -0.003869 0.078476 0.014142 0.011182
# 5 0.008933 -0.001414 0.000697 0.014142 0.042312 0.000929
# 6 0.004822 -0.009688 0.003015 0.011182 0.000929 0.036665
#
#
# Mechanical properties :
#
#
# Convention : Reuss Voigt Hill
#
# Bulk Modulus (GPa) = 42.66926 54.38482 48.52704
# Shear Modulus (GPa) = 21.27751 28.62177 24.94964
#
# Velocity S-wave (km/s) = 3.28915 3.81479 3.56168
# Velocity P-wave (km/s) = 6.00997 6.85969 6.44884
#
# Compressibility (1/GPa) = 0.02343608
#
# Stress axis : x y z
#
# Youngs Moduli (GPa) = 53.91058 73.12906 69.65065
#
# Poissons Ratio (x) = 0.51234 0.00713
# Poissons Ratio (y) = 0.37770 0.31093
# Poissons Ratio (z) = 0.00552 0.32646
#
# Static dielectric constant tensor:
#      x y z
#    x 1.696720 0.000880 0.013500 
#    y 0.000880 1.703300 -0.000200 
#    z 0.013500 -0.000200 1.693120 
# 
# From -- ./inp_files/259665.got.cif
#   From: 2010.05.17/outbox.cif.g08.bks.cpg/sg2_130_cif.got.tgz:259665.got - 2010.06.03 11:33:40.
