data_PCOD9013598
_publ_section_title
;
Structure prediction by ZEFSAII (Michael W. Deem and Ramdas Pophale) SiO2 
 PCOD9013598
Probable space group: P -1
;
_chemical_formula_sum "Si O2"
_cell_formula_units_Z 14
_cell_length_a 5.837016
_cell_length_b 22.362805
_cell_length_c 13.862805
_cell_angle_alpha 22.376861
_cell_angle_beta 80.436984
_cell_angle_gamma 92.574283
_cell_volume 576.539970
_symmetry_space_group_name_H-M "P -1"
_symmetry_group_IT_number 2
_symmetry_cell_setting 'triclinic'
loop_
_space_group_symop_operation_xyz
x,y,z
-x,-y,-z
loop_
_atom_site_type_symbol
_atom_site_label
_atom_site_fract_x
_atom_site_fract_y
_atom_site_fract_z
Si Si1 0.757404 0.065368 0.628039
Si Si2 0.484018 0.258147 0.159978
Si Si3 0.752694 0.147071 0.155418
Si Si4 0.108556 0.197078 0.889457
Si Si5 0.381041 0.051165 0.839625
Si Si6 0.949268 0.428694 0.001857
Si Si7 0.546126 0.399887 0.409056
O O1 0.598690 0.113407 0.645735
O O2 0.961891 0.244218 0.286183
O O3 0.521972 0.923634 0.783407
O O4 0.900715 0.981791 0.802005
O O5 0.717427 0.253102 0.087024
O O6 0.640670 0.356489 0.100776
O O7 0.270784 0.040082 0.521455
O O8 0.431969 0.405316 0.894671
O O9 0.003163 0.257427 0.899245
O O10 0.411024 0.328367 0.629935
O O11 0.887559 0.124346 0.926931
O O12 0.350055 0.221593 0.619787
O O13 0.500000 0.000000 0.000000
O O14 0.163220 0.560497 0.709497
O O15 0.000000 0.500000 0.000000
#
# Coordination Sequence:
#
# PCOD9013598 Si02
#       7
#     2   2   2   2   2   2   2
#     4  10  21  41  65  90 124 173 210 255 314 373
#     4  10  24  44  67  92 128 167 213 264 311 365
#     4   9  22  47  66  89 125 171 218 258 305 375
#     4  11  24  39  68  92 125 175 209 257 315 379
#     4  11  23  39  61  93 133 168 207 255 316 383
#     4  11  24  39  62  96 133 159 205 267 313 377
#     4  12  25  37  64  98 127 167 206 260 319 379
#
# _framework density 24.282789999999999
#
# number of rings (size 3 to 8) (size 9 to 14) (size 15 to 20)
#    0.000    1.429    2.857    1.286    4.000    2.286 
#    0.000    5.714    0.000    0.000    0.000    0.000 
#    0.000    0.000    0.000    0.000    0.000    0.000 
#
# Total GULP energy -78115.258772 kJ/mol
# GULP energy per Si atom -5579.661341 kJ/mol
# Density = 2.422752 g / cm^3
# Si number density = 24.282790 Si / 1000 Ang^3
#
#
#
# Elastic Constant Matrix: (Units=GPa)
#
#
# Indices 1 2 3 4 5 6 
#
# 1 20.4233 11.6095 15.6709 9.5402 4.7639 -8.7426
# 2 11.6095 103.5850 18.9663 14.4488 -18.4199 -15.6015
# 3 15.6709 18.9663 71.6645 24.4425 -9.3619 -9.1320
# 4 9.5402 14.4488 24.4425 41.2490 -13.1449 -3.6205
# 5 4.7639 -18.4199 -9.3619 -13.1449 33.4952 11.7522
# 6 -8.7426 -15.6015 -9.1320 -3.6205 11.7522 40.6361
#
#
#
# Elastic Compliance Matrix: (Units=1/GPa)
#
#
# Indices 1 2 3 4 5 6 
#
# 1 0.091246 -0.008226 -0.012760 -0.020476 -0.036991 0.022479
# 2 -0.008226 0.012045 -0.000469 0.000445 0.007633 0.000581
# 3 -0.012760 -0.000469 0.019884 -0.007304 0.004379 -0.000374
# 4 -0.020476 0.000445 -0.007304 0.038514 0.019017 -0.007944
# 5 -0.036991 0.007633 0.004379 0.019017 0.054339 -0.018064
# 6 0.022479 0.000581 -0.000374 -0.007944 -0.018064 0.034100
#
#
# Mechanical properties :
#
#
# Convention : Reuss Voigt Hill
#
# Bulk Modulus (GPa) = 12.45894 32.01845 22.23869
# Shear Modulus (GPa) = 15.63507 33.03782 24.33645
#
# Velocity S-wave (km/s) = 2.54022 3.69256 3.16920
# Velocity P-wave (km/s) = 3.70750 5.60306 4.75078
#
# Compressibility (1/GPa) = 0.08026364
#
# Stress axis : x y z
#
# Youngs Moduli (GPa) = 10.95937 83.02446 50.29184
#
# Poissons Ratio (x) = 0.68298 0.64171
# Poissons Ratio (y) = 0.09015 0.02361
# Poissons Ratio (z) = 0.13984 0.03898
#
# Static dielectric constant tensor:
#      x y z
#    x 2.023720 -0.023260 -0.018750 
#    y -0.023260 1.957490 -0.039440 
#    z -0.018750 -0.039440 1.978080 
# 
# From -- ./inp_files/68182.got.cif
#   From: 2010.05.17/outbox.cif.g08.bks.cpg/sg2_35_cif.got.tgz:68182.got - 2010.06.03 11:33:40.
