data_PCOD9013640
_publ_section_title
;
Structure prediction by ZEFSAII (Michael W. Deem and Ramdas Pophale) SiO2 
 PCOD9013640
Probable space group: P -1
;
_chemical_formula_sum "Si O2"
_cell_formula_units_Z 16
_cell_length_a 10.651451
_cell_length_b 7.753971
_cell_length_c 11.275837
_cell_angle_alpha 122.298955
_cell_angle_beta 104.819121
_cell_angle_gamma 57.383195
_cell_volume 662.362769
_symmetry_space_group_name_H-M "P -1"
_symmetry_group_IT_number 2
_symmetry_cell_setting 'triclinic'
loop_
_space_group_symop_operation_xyz
x,y,z
-x,-y,-z
loop_
_atom_site_type_symbol
_atom_site_label
_atom_site_fract_x
_atom_site_fract_y
_atom_site_fract_z
Si Si1 0.807901 0.409455 0.686996
Si Si2 0.680522 0.172406 0.834876
Si Si3 0.004813 0.939637 0.216589
Si Si4 0.901508 0.686386 0.943625
Si Si5 0.277430 0.282088 0.456331
Si Si6 0.379419 0.648610 0.874620
Si Si7 0.509852 0.432500 0.612033
Si Si8 0.886225 0.429670 0.274702
O O1 0.960572 0.192611 0.697266
O O2 0.792192 0.518538 0.592030
O O3 0.683882 0.329801 0.642594
O O4 0.776566 0.621503 0.849343
O O5 0.835112 0.172975 0.852710
O O6 0.537275 0.416601 0.856442
O O7 0.688942 0.956870 0.685777
O O8 0.657463 0.156467 0.964237
O O9 0.890477 0.909964 0.090721
O O10 0.950250 0.212418 0.301918
O O11 0.994815 0.630853 0.822882
O O12 0.000000 0.500000 0.000000
O O13 0.426197 0.280585 0.540461
O O14 0.170946 0.349248 0.570710
O O15 0.410416 0.667463 0.751365
O O16 0.255049 0.568312 0.820513
O O17 0.500000 0.500000 0.500000
#
# Coordination Sequence:
#
# PCOD9013640 Si02
#       8
#     2   2   2   2   2   2   2   2
#     4  10  21  41  65  91 137 176 214 266 328 387
#     4  11  22  40  70  98 123 175 220 275 328 384
#     4  11  22  39  67  96 135 173 217 270 331 384
#     4  10  22  38  66  95 134 170 218 272 323 387
#     4  10  24  41  69  97 133 170 224 272 329 387
#     4  10  22  40  71  95 129 166 229 266 330 388
#     4   9  19  41  65  91 134 171 206 274 328 382
#     4  11  23  41  67 100 132 172 220 270 330 394
#
# _framework density 24.155949
#
# number of rings (size 3 to 8) (size 9 to 14) (size 15 to 20)
#    0.000    1.750    2.500    1.125    1.750    4.500 
#    0.000    3.750   24.750    0.000    0.000    0.000 
#    0.000    0.000    0.000    0.000    0.000    0.000 
#
# Total GULP energy -89233.902601 kJ/mol
# GULP energy per Si atom -5577.118913 kJ/mol
# Density = 2.410097 g / cm^3
# Si number density = 24.155949 Si / 1000 Ang^3
#
#
#
# Elastic Constant Matrix: (Units=GPa)
#
#
# Indices 1 2 3 4 5 6 
#
# 1 48.8024 8.0423 26.6268 -4.6605 14.2014 -6.5251
# 2 8.0423 69.8982 19.5709 -10.8300 2.0756 1.5600
# 3 26.6268 19.5709 184.5310 1.8429 -2.3938 6.6931
# 4 -4.6605 -10.8300 1.8429 36.5725 -2.7835 5.5885
# 5 14.2014 2.0756 -2.3938 -2.7835 40.2391 -13.1938
# 6 -6.5251 1.5600 6.6931 5.5885 -13.1938 35.9114
#
#
#
# Elastic Compliance Matrix: (Units=1/GPa)
#
#
# Indices 1 2 3 4 5 6 
#
# 1 0.025689 -0.001370 -0.003765 0.002110 -0.008415 0.002009
# 2 -0.001370 0.015661 -0.001460 0.004738 -0.000615 -0.001620
# 3 -0.003765 -0.001460 0.006185 -0.000949 0.001334 -0.001136
# 4 0.002110 0.004738 -0.000949 0.029706 -0.000444 -0.004431
# 5 -0.008415 -0.000615 0.001334 -0.000444 0.031096 0.009743
# 6 0.002009 -0.001620 -0.001136 -0.004431 0.009743 0.032763
#
#
# Mechanical properties :
#
#
# Convention : Reuss Voigt Hill
#
# Bulk Modulus (GPa) = 29.11425 45.74573 37.42999
# Shear Modulus (GPa) = 30.16804 39.14403 34.65604
#
# Velocity S-wave (km/s) = 3.53779 4.02988 3.79183
# Velocity P-wave (km/s) = 5.36346 6.37432 5.89062
#
# Compressibility (1/GPa) = 0.03434744
#
# Stress axis : x y z
#
# Youngs Moduli (GPa) = 38.92652 63.85161 161.67711
#
# Poissons Ratio (x) = 0.08746 0.60866
# Poissons Ratio (y) = 0.05332 0.23603
# Poissons Ratio (z) = 0.14655 0.09322
#
# Static dielectric constant tensor:
#      x y z
#    x 1.981680 -0.001080 0.026180 
#    y -0.001080 2.064220 -0.043760 
#    z 0.026180 -0.043760 2.001890 
# 
# From -- ./inp_files/420060.got.cif
#   From: 2010.05.17/outbox.cif.g08.bks.cpg/sg2_211_cif.got.tgz:420060.got - 2010.06.03 11:33:40.
