data_PCOD9013018
_publ_section_title
;
Structure prediction by ZEFSAII (Michael W. Deem and Ramdas Pophale) SiO2 
 PCOD9013018
Probable space group: P -1
;
_chemical_formula_sum "Si O2"
_cell_formula_units_Z 15
_cell_length_a 11.744486
_cell_length_b 15.128812
_cell_length_c 7.396608
_cell_angle_alpha 85.260263
_cell_angle_beta 94.584369
_cell_angle_gamma 153.835102
_cell_volume 577.486328
_symmetry_space_group_name_H-M "P -1"
_symmetry_group_IT_number 2
_symmetry_cell_setting 'triclinic'
loop_
_space_group_symop_operation_xyz
x,y,z
-x,-y,-z
loop_
_atom_site_type_symbol
_atom_site_label
_atom_site_fract_x
_atom_site_fract_y
_atom_site_fract_z
Si Si1 0.742667 0.950001 0.646197
Si Si2 0.211487 0.807760 0.417129
Si Si3 0.524902 0.101396 0.857034
Si Si4 0.700432 0.656985 0.734393
Si Si5 0.000000 0.000000 0.500000
Si Si6 0.779493 0.761235 0.111625
Si Si7 0.962712 0.666455 0.743045
Si Si8 0.584885 0.328118 0.023654
O O1 0.803695 0.097113 0.651633
O O2 0.990097 0.066070 0.745567
O O3 0.789181 0.941378 0.457777
O O4 0.494524 0.747254 0.764928
O O5 0.234086 0.754664 0.265480
O O6 0.007361 0.639393 0.574062
O O7 0.500000 0.000000 0.500000
O O8 0.554555 0.212525 0.946375
O O9 0.244020 0.904509 0.763379
O O10 0.500000 0.000000 0.000000
O O11 0.761131 0.773498 0.581902
O O12 0.406826 0.444715 0.800070
O O13 0.769773 0.609990 0.675478
O O14 0.860319 0.784109 0.919969
O O15 0.619847 0.739384 0.057018
O O16 0.853504 0.550394 0.935096
#
# Coordination Sequence:
#
# PCOD9013018 Si02
#       8
#     2   2   2   2   1   2   2   2
#     4  12  23  41  65  97 126 172 216 263 322 394
#     4  10  23  44  63  89 133 170 211 274 320 372
#     4  11  23  41  68  93 122 174 221 258 319 383
#     4  10  21  41  62  96 129 173 204 263 336 380
#     4  12  24  36  64  96 132 166 214 260 328 382
#     4  10  23  40  66  93 133 164 215 264 319 399
#     4  10  23  43  65  90 135 164 209 279 319 374
#     4  11  23  41  68  97 123 170 217 262 324 385
#
# _framework density 25.974640999999998
#
# number of rings (size 3 to 8) (size 9 to 14) (size 15 to 20)
#    0.000    1.333    4.000    1.200    1.867    1.600 
#    0.000    0.000    0.000    0.000    0.000    0.000 
#    0.000    0.000    0.000    0.000    0.000    0.000 
#
# Total GULP energy -83630.761510 kJ/mol
# GULP energy per Si atom -5575.384101 kJ/mol
# Density = 2.591552 g / cm^3
# Si number density = 25.974641 Si / 1000 Ang^3
#
#
#
# Elastic Constant Matrix: (Units=GPa)
#
#
# Indices 1 2 3 4 5 6 
#
# 1 126.7338 19.8666 44.7217 -11.8088 -29.5858 -12.5647
# 2 19.8666 53.7341 24.8540 -26.3942 8.0790 -7.3175
# 3 44.7217 24.8540 106.4965 -35.3928 -25.8634 7.9684
# 4 -11.8088 -26.3942 -35.3928 46.4027 6.4595 2.9858
# 5 -29.5858 8.0790 -25.8634 6.4595 56.2653 -4.9548
# 6 -12.5647 -7.3175 7.9684 2.9858 -4.9548 30.9447
#
#
#
# Elastic Compliance Matrix: (Units=1/GPa)
#
#
# Indices 1 2 3 4 5 6 
#
# 1 0.011654 -0.004309 -0.004244 -0.003921 0.005784 0.006110
# 2 -0.004309 0.030999 -0.002834 0.015486 -0.009507 0.003294
# 3 -0.004244 -0.002834 0.016624 0.009870 0.004069 -0.006975
# 4 -0.003921 0.015486 0.009870 0.037830 -0.004518 -0.004845
# 5 0.005784 -0.009507 0.004069 -0.004518 0.024875 0.003471
# 6 0.006110 0.003294 -0.006975 -0.004845 0.003471 0.038395
#
#
# Mechanical properties :
#
#
# Convention : Reuss Voigt Hill
#
# Bulk Modulus (GPa) = 27.39474 51.76100 39.57787
# Shear Modulus (GPa) = 25.59932 39.89068 32.74500
#
# Velocity S-wave (km/s) = 3.14275 3.92312 3.55442
# Velocity P-wave (km/s) = 4.87225 6.36333 5.66704
#
# Compressibility (1/GPa) = 0.03650336
#
# Stress axis : x y z
#
# Youngs Moduli (GPa) = 85.80397 32.25950 60.15505
#
# Poissons Ratio (x) = 0.13902 0.25528
# Poissons Ratio (y) = 0.36976 0.17046
# Poissons Ratio (z) = 0.36413 0.09141
#
# Static dielectric constant tensor:
#      x y z
#    x 1.952970 0.164480 0.120970 
#    y 0.164480 2.041220 -0.155290 
#    z 0.120970 -0.155290 1.845030 
# 
# From -- ./inp_files/272934.got.cif
#   From: 2010.05.17/outbox.cif.g08.bks.cpg/sg2_137_cif.got.tgz:272934.got - 2010.06.03 11:33:40.
