data_PCOD9013226
_publ_section_title
;
Structure prediction by ZEFSAII (Michael W. Deem and Ramdas Pophale) SiO2 
 PCOD9013226
Probable space group: P -1
;
_chemical_formula_sum "Si O2"
_cell_formula_units_Z 14
_cell_length_a 9.552991
_cell_length_b 9.244771
_cell_length_c 12.348239
_cell_angle_alpha 59.266708
_cell_angle_beta 117.304403
_cell_angle_gamma 71.622125
_cell_volume 578.283738
_symmetry_space_group_name_H-M "P -1"
_symmetry_group_IT_number 2
_symmetry_cell_setting 'triclinic'
loop_
_space_group_symop_operation_xyz
x,y,z
-x,-y,-z
loop_
_atom_site_type_symbol
_atom_site_label
_atom_site_fract_x
_atom_site_fract_y
_atom_site_fract_z
Si Si1 0.656655 0.022171 0.094737
Si Si2 0.331065 0.377029 0.217976
Si Si3 0.504667 0.981192 0.275516
Si Si4 0.083184 0.099459 0.055534
Si Si5 0.723338 0.308040 0.084776
Si Si6 0.122398 0.538089 0.447481
Si Si7 0.791856 0.165670 0.565427
O O1 0.612484 0.028516 0.207499
O O2 0.645849 0.229638 0.997760
O O3 0.903338 0.791606 0.223867
O O4 0.500000 0.000000 0.000000
O O5 0.395623 0.144536 0.282213
O O6 0.569286 0.263375 0.392298
O O7 0.248981 0.532768 0.019359
O O8 0.119241 0.604808 0.127059
O O9 0.311030 0.021228 0.133447
O O10 0.708775 0.694450 0.478467
O O11 0.160338 0.960949 0.253371
O O12 0.000000 0.000000 0.000000
O O13 0.500000 0.500000 0.000000
O O14 0.960286 0.061826 0.314430
O O15 0.238858 0.609154 0.518545
O O16 0.000000 0.500000 0.500000
#
# Coordination Sequence:
#
# PCOD9013226 Si02
#       7
#     2   2   2   2   2   2   2
#     4  10  22  38  63  95 130 165 209 261 316 379
#     4  11  24  43  66  95 131 167 213 267 319 382
#     4  11  23  42  64  94 127 170 214 262 319 377
#     4  11  26  45  68  91 125 171 220 265 316 381
#     4  10  21  41  63  97 130 166 207 258 328 377
#     4   9  21  39  60  93 126 161 212 254 312 381
#     4  10  24  43  64  94 129 166 216 264 318 381
#
# _framework density 24.209568000000001
#
# number of rings (size 3 to 8) (size 9 to 14) (size 15 to 20)
#    0.000    1.714    1.429    1.286   10.000    4.571 
#    0.000    0.000    0.000    0.000    0.000    0.000 
#    0.000    0.000    0.000    0.000    0.000    0.000 
#
# Total GULP energy -78019.494008 kJ/mol
# GULP energy per Si atom -5572.821001 kJ/mol
# Density = 2.415447 g / cm^3
# Si number density = 24.209568 Si / 1000 Ang^3
#
#
#
# Elastic Constant Matrix: (Units=GPa)
#
#
# Indices 1 2 3 4 5 6 
#
# 1 73.6994 14.4493 18.4976 -11.7304 12.0966 4.4798
# 2 14.4493 135.6657 61.3529 -39.4495 9.6225 21.0490
# 3 18.4976 61.3529 99.2345 -22.7115 15.4896 5.1652
# 4 -11.7304 -39.4495 -22.7115 51.0321 -1.7188 10.6095
# 5 12.0966 9.6225 15.4896 -1.7188 36.2632 2.5512
# 6 4.4798 21.0490 5.1652 10.6095 2.5512 38.0717
#
#
#
# Elastic Compliance Matrix: (Units=1/GPa)
#
#
# Indices 1 2 3 4 5 6 
#
# 1 0.015331 0.001154 -0.001812 0.004102 -0.004237 -0.003055
# 2 0.001154 0.015116 -0.006340 0.011355 -0.000392 -0.010771
# 3 -0.001812 -0.006340 0.015119 0.000915 -0.004247 0.001697
# 4 0.004102 0.011355 0.000915 0.032965 -0.002089 -0.015931
# 5 -0.004237 -0.000392 -0.004247 -0.002089 0.030822 -0.000192
# 6 -0.003055 -0.010771 0.001697 -0.015931 -0.000192 0.036803
#
#
# Mechanical properties :
#
#
# Convention : Reuss Voigt Hill
#
# Bulk Modulus (GPa) = 31.67571 55.24434 43.46003
# Shear Modulus (GPa) = 29.29508 39.36004 34.32756
#
# Velocity S-wave (km/s) = 3.48237 4.03650 3.76963
# Velocity P-wave (km/s) = 5.41124 6.67782 6.07761
#
# Compressibility (1/GPa) = 0.03156993
#
# Stress axis : x y z
#
# Youngs Moduli (GPa) = 65.22611 66.15344 66.14254
#
# Poissons Ratio (x) = -0.07634 0.11985
# Poissons Ratio (y) = -0.07527 0.41937
# Poissons Ratio (z) = 0.11819 0.41944
#
# Static dielectric constant tensor:
#      x y z
#    x 2.472490 0.323570 -0.148910 
#    y 0.323570 2.411730 -0.063240 
#    z -0.148910 -0.063240 1.982170 
# 
# From -- ./inp_files/500864.got.cif
#   From: 2010.05.17/outbox.cif.g08.bks.cpg/sg2_251_cif.got.tgz:500864.got - 2010.06.03 11:33:40.
