data_PCOD9013742
_publ_section_title
;
Structure prediction by ZEFSAII (Michael W. Deem and Ramdas Pophale) SiO2 
 PCOD9013742
Probable space group: P -1
;
_chemical_formula_sum "Si O2"
_cell_formula_units_Z 16
_cell_length_a 21.221691
_cell_length_b 12.156801
_cell_length_c 18.462519
_cell_angle_alpha 160.937123
_cell_angle_beta 28.468868
_cell_angle_gamma 149.939625
_cell_volume 722.975205
_symmetry_space_group_name_H-M "P -1"
_symmetry_group_IT_number 2
_symmetry_cell_setting 'triclinic'
loop_
_space_group_symop_operation_xyz
x,y,z
-x,-y,-z
loop_
_atom_site_type_symbol
_atom_site_label
_atom_site_fract_x
_atom_site_fract_y
_atom_site_fract_z
Si Si1 0.702364 0.796999 0.754139
Si Si2 0.280616 0.966682 0.761085
Si Si3 0.486250 0.349769 0.027355
Si Si4 0.151919 0.118520 0.840256
Si Si5 0.329707 0.790740 0.363513
Si Si6 0.876799 0.104743 0.645005
Si Si7 0.025279 0.908066 0.243257
Si Si8 0.900201 0.807565 0.812639
O O1 0.673357 0.383273 0.518170
O O2 0.578243 0.856577 0.965381
O O3 0.740216 0.940727 0.725045
O O4 0.837264 0.948379 0.759991
O O5 0.399089 0.309744 0.856950
O O6 0.182255 0.011912 0.823327
O O7 0.195741 0.944889 0.907313
O O8 0.374437 0.517173 0.203318
O O9 0.551170 0.131558 0.767544
O O10 0.283046 0.089286 0.641071
O O11 0.116026 0.489282 0.106588
O O12 0.025338 0.855330 0.769857
O O13 0.197125 0.568318 0.319924
O O14 0.000000 0.000000 0.500000
O O15 0.902474 0.989352 0.465983
O O16 0.047619 0.087143 0.254329
O O17 0.000000 0.500000 0.000000
#
# Coordination Sequence:
#
# PCOD9013742 Si02
#       8
#     2   2   2   2   2   2   2   2
#     4  11  20  41  64  93 121 171 213 256 307 375
#     4  11  23  38  67  96 127 167 213 261 308 373
#     4  10  21  41  65  95 128 164 219 254 310 369
#     4  12  23  40  61  95 133 166 206 264 319 370
#     4  10  22  38  62  98 128 164 207 270 308 371
#     4  10  24  42  61  89 132 165 211 254 316 389
#     4  11  21  38  60  90 125 165 206 256 315 375
#     4  11  21  36  61  97 129 161 202 263 324 371
#
# _framework density 22.130773000000001
#
# number of rings (size 3 to 8) (size 9 to 14) (size 15 to 20)
#    0.000    1.250    2.500    4.875    0.000    3.000 
#    0.000    1.250    0.000    0.000    0.000    0.000 
#    0.000    0.000    0.000    0.000    0.000    0.000 
#
# Total GULP energy -89415.529148 kJ/mol
# GULP energy per Si atom -5588.470572 kJ/mol
# Density = 2.208040 g / cm^3
# Si number density = 22.130773 Si / 1000 Ang^3
#
#
#
# Elastic Constant Matrix: (Units=GPa)
#
#
# Indices 1 2 3 4 5 6 
#
# 1 71.7876 29.2277 13.6523 -10.7861 18.2909 -3.4688
# 2 29.2277 112.0677 33.4011 -34.4453 20.4361 -26.6187
# 3 13.6523 33.4011 146.3940 -29.4602 21.2513 -22.2166
# 4 -10.7861 -34.4453 -29.4602 37.6389 -11.6351 14.9589
# 5 18.2909 20.4361 21.2513 -11.6351 30.5388 -8.0513
# 6 -3.4688 -26.6187 -22.2166 14.9589 -8.0513 35.8194
#
#
#
# Elastic Compliance Matrix: (Units=1/GPa)
#
#
# Indices 1 2 3 4 5 6 
#
# 1 0.017535 -0.003635 0.000059 0.000226 -0.008828 -0.003045
# 2 -0.003635 0.014579 0.000171 0.009186 -0.002571 0.006174
# 3 0.000059 0.000171 0.008688 0.004764 -0.003667 0.002708
# 4 0.000226 0.009186 0.004764 0.043120 0.004962 -0.007089
# 5 -0.008828 -0.002571 -0.003667 0.004962 0.044986 0.003000
# 6 -0.003045 0.006174 0.002708 -0.007089 0.003000 0.037526
#
#
# Mechanical properties :
#
#
# Convention : Reuss Voigt Hill
#
# Bulk Modulus (GPa) = 29.41800 53.64574 41.53187
# Shear Modulus (GPa) = 27.08962 37.73065 32.41013
#
# Velocity S-wave (km/s) = 3.50247 4.13352 3.83101
# Velocity P-wave (km/s) = 5.44775 6.86107 6.19485
#
# Compressibility (1/GPa) = 0.03399280
#
# Stress axis : x y z
#
# Youngs Moduli (GPa) = 57.02995 68.59333 115.09708
#
# Poissons Ratio (x) = 0.24932 -0.00678
# Poissons Ratio (y) = 0.20729 -0.01973
# Poissons Ratio (z) = -0.00336 -0.01176
#
# Static dielectric constant tensor:
#      x y z
#    x 1.884290 0.028100 0.011000 
#    y 0.028100 1.852520 -0.063080 
#    z 0.011000 -0.063080 1.842290 
# 
# From -- ./inp_files/578070.got.cif
#   From: 2010.05.17/outbox.cif.g08.bks.cpg/sg2_290_cif.got.tgz:578070.got - 2010.06.03 11:33:40.
