data_PCOD9013750
_publ_section_title
;
Structure prediction by ZEFSAII (Michael W. Deem and Ramdas Pophale) SiO2 
 PCOD9013750
Probable space group: P -1
;
_chemical_formula_sum "Si O2"
_cell_formula_units_Z 16
_cell_length_a 17.755061
_cell_length_b 7.394495
_cell_length_c 7.418318
_cell_angle_alpha 54.295345
_cell_angle_beta 132.119797
_cell_angle_gamma 109.914166
_cell_volume 584.541376
_symmetry_space_group_name_H-M "P -1"
_symmetry_group_IT_number 2
_symmetry_cell_setting 'triclinic'
loop_
_space_group_symop_operation_xyz
x,y,z
-x,-y,-z
loop_
_atom_site_type_symbol
_atom_site_label
_atom_site_fract_x
_atom_site_fract_y
_atom_site_fract_z
Si Si1 0.858452 0.279959 0.688758
Si Si2 0.162572 0.163290 0.230760
Si Si3 0.928839 0.746109 0.591500
Si Si4 0.092689 0.611677 0.683149
Si Si5 0.625522 0.000503 0.421487
Si Si6 0.636416 0.445702 0.293500
Si Si7 0.443506 0.715266 0.373083
Si Si8 0.705159 0.909027 0.011587
O O1 0.927116 0.472612 0.749539
O O2 0.845850 0.305968 0.435544
O O3 0.753679 0.356215 0.574656
O O4 0.879770 0.012383 0.878610
O O5 0.093709 0.164923 0.296597
O O6 0.282498 0.101282 0.496394
O O7 0.156489 0.412049 0.000189
O O8 0.824637 0.834774 0.269123
O O9 0.034701 0.775915 0.640682
O O10 0.000000 0.500000 0.500000
O O11 0.519395 0.898318 0.328357
O O12 0.610222 0.265117 0.205942
O O13 0.672761 0.942996 0.731189
O O14 0.567226 0.377954 0.385971
O O15 0.645015 0.699770 0.106003
O O16 0.500000 0.500000 0.500000
O O17 0.333966 0.857659 0.090224
#
# Coordination Sequence:
#
# PCOD9013750 Si02
#       8
#     2   2   2   2   2   2   2   2
#     4   9  21  40  64  92 125 170 209 252 318 372
#     4  11  22  41  64  93 131 167 211 263 311 370
#     4  10  22  40  65  95 128 167 213 260 313 374
#     4  10  21  41  65  95 131 167 212 258 312 377
#     4  10  22  40  64  88 125 167 214 257 317 379
#     4   9  19  39  64  87 119 166 210 251 318 369
#     4  11  25  40  60  98 125 161 212 263 321 380
#     4  10  21  44  64  88 129 168 209 265 313 376
#
# _framework density 27.371884999999999
#
# number of rings (size 3 to 8) (size 9 to 14) (size 15 to 20)
#    0.000    2.000    0.000    4.125    3.500    5.000 
#    9.000    5.000    0.000    0.000    0.000    0.000 
#    0.000    0.000    0.000    0.000    0.000    0.000 
#
# Total GULP energy -89415.466767 kJ/mol
# GULP energy per Si atom -5588.466673 kJ/mol
# Density = 2.730958 g / cm^3
# Si number density = 27.371885 Si / 1000 Ang^3
#
#
#
# Elastic Constant Matrix: (Units=GPa)
#
#
# Indices 1 2 3 4 5 6 
#
# 1 178.3395 38.7450 39.4648 -20.7758 11.9103 -9.7173
# 2 38.7450 91.6848 38.0947 -34.3943 -0.7528 -17.1947
# 3 39.4648 38.0947 114.1416 -38.5050 17.8097 -13.7317
# 4 -20.7758 -34.3943 -38.5050 43.3370 0.1882 6.9624
# 5 11.9103 -0.7528 17.8097 0.1882 38.7491 -16.7604
# 6 -9.7173 -17.1947 -13.7317 6.9624 -16.7604 57.2792
#
#
#
# Elastic Compliance Matrix: (Units=1/GPa)
#
#
# Indices 1 2 3 4 5 6 
#
# 1 0.006477 -0.002186 -0.001157 0.000409 -0.001664 -0.000372
# 2 -0.002186 0.017240 -0.001425 0.010685 0.003410 0.004162
# 3 -0.001157 -0.001425 0.014375 0.011187 -0.006527 -0.000447
# 4 0.000409 0.010685 0.011187 0.041838 -0.005593 -0.000763
# 5 -0.001664 0.003410 -0.006527 -0.005593 0.033603 0.009689
# 6 -0.000372 0.004162 -0.000447 -0.000763 0.009689 0.021465
#
#
# Mechanical properties :
#
#
# Convention : Reuss Voigt Hill
#
# Bulk Modulus (GPa) = 35.01923 68.53053 51.77488
# Shear Modulus (GPa) = 32.45677 45.73049 39.09363
#
# Velocity S-wave (km/s) = 3.44724 4.09187 3.78331
# Velocity P-wave (km/s) = 5.35409 6.88590 6.16774
#
# Compressibility (1/GPa) = 0.02855574
#
# Stress axis : x y z
#
# Youngs Moduli (GPa) = 154.39733 58.00621 69.56522
#
# Poissons Ratio (x) = 0.12682 0.08047
# Poissons Ratio (y) = 0.33756 0.09911
# Poissons Ratio (z) = 0.17860 0.08264
#
# Static dielectric constant tensor:
#      x y z
#    x 2.257050 0.018940 -0.055780 
#    y 0.018940 2.270570 -0.017790 
#    z -0.055780 -0.017790 2.229930 
# 
# From -- ./inp_files/327164.got.cif
#   From: 2010.05.17/outbox.cif.g08.bks.cpg/sg2_164_cif.got.tgz:327164.got - 2010.06.03 11:33:40.
