data_PCOD9013910
_publ_section_title
;
Structure prediction by ZEFSAII (Michael W. Deem and Ramdas Pophale) SiO2 
 PCOD9013910
Probable space group: P -1
;
_chemical_formula_sum "Si O2"
_cell_formula_units_Z 14
_cell_length_a 19.528972
_cell_length_b 8.208146
_cell_length_c 12.366671
_cell_angle_alpha 34.487407
_cell_angle_beta 38.790166
_cell_angle_gamma 35.715874
_cell_volume 617.746961
_symmetry_space_group_name_H-M "P -1"
_symmetry_group_IT_number 2
_symmetry_cell_setting 'triclinic'
loop_
_space_group_symop_operation_xyz
x,y,z
-x,-y,-z
loop_
_atom_site_type_symbol
_atom_site_label
_atom_site_fract_x
_atom_site_fract_y
_atom_site_fract_z
Si Si1 0.232092 0.874978 0.501218
Si Si2 0.981493 0.269124 0.064056
Si Si3 0.580744 0.671755 0.841114
Si Si4 0.227891 0.215823 0.529835
Si Si5 0.740421 0.162737 0.083513
Si Si6 0.035396 0.272786 0.356606
Si Si7 0.413432 0.166447 0.621020
O O1 0.348148 0.553981 0.489238
O O2 0.268760 0.042183 0.459685
O O3 0.157654 0.103780 0.369375
O O4 0.128445 0.797960 0.726584
O O5 0.949495 0.489781 0.876684
O O6 0.115986 0.946551 0.060389
O O7 0.000000 0.500000 0.000000
O O8 0.697093 0.579528 0.667296
O O9 0.488241 0.038034 0.711952
O O10 0.500000 0.500000 0.000000
O O11 0.641459 0.521334 0.965372
O O12 0.084029 0.475339 0.566255
O O13 0.259601 0.950547 0.730903
O O14 0.696712 0.931655 0.198464
O O15 0.000000 0.000000 0.500000
O O16 0.500000 0.000000 0.500000
#
# Coordination Sequence:
#
# PCOD9013910 Si02
#       7
#     2   2   2   2   2   2   2
#     4  12  25  41  64  98 135 165 207 277 321 376
#     4  11  21  38  66  96 125 162 219 257 324 385
#     4  10  23  39  68  89 121 174 222 258 306 381
#     4  11  24  42  63  98 134 163 208 271 336 368
#     4  10  21  41  66  90 124 168 216 267 310 386
#     4  11  23  39  69  97 127 173 211 259 322 393
#     4  11  22  42  66  92 121 176 224 256 308 381
#
# _framework density 22.663001999999999
#
# number of rings (size 3 to 8) (size 9 to 14) (size 15 to 20)
#    0.000    1.143    4.286    2.143    0.000    4.000 
#    2.571    0.714    0.000    0.000    0.000    0.000 
#    0.000    0.000    0.000    0.000    0.000    0.000 
#
# Total GULP energy -78150.236028 kJ/mol
# GULP energy per Si atom -5582.159716 kJ/mol
# Density = 2.261142 g / cm^3
# Si number density = 22.663002 Si / 1000 Ang^3
#
#
#
# Elastic Constant Matrix: (Units=GPa)
#
#
# Indices 1 2 3 4 5 6 
#
# 1 89.4267 59.3832 16.7281 -16.9441 31.0519 -21.1712
# 2 59.3832 129.1136 32.3048 -10.5056 34.0687 -25.5254
# 3 16.7281 32.3048 76.5635 -3.0174 4.2063 -17.7144
# 4 -16.9441 -10.5056 -3.0174 28.2699 -17.4790 13.6985
# 5 31.0519 34.0687 4.2063 -17.4790 40.0081 -11.9714
# 6 -21.1712 -25.5254 -17.7144 13.6985 -11.9714 39.4755
#
#
#
# Elastic Compliance Matrix: (Units=1/GPa)
#
#
# Indices 1 2 3 4 5 6 
#
# 1 0.019025 -0.005819 -0.000508 0.003158 -0.007530 0.002834
# 2 -0.005819 0.013693 -0.003433 -0.005557 -0.008116 0.003660
# 3 -0.000508 -0.003433 0.015760 -0.000829 0.003030 0.005787
# 4 0.003158 -0.005557 -0.000829 0.056263 0.022466 -0.014982
# 5 -0.007530 -0.008116 0.003030 0.022466 0.046788 -0.001534
# 6 0.002834 0.003660 0.005787 -0.014982 -0.001534 0.036549
#
#
# Mechanical properties :
#
#
# Convention : Reuss Voigt Hill
#
# Bulk Modulus (GPa) = 34.53060 56.88176 45.70618
# Shear Modulus (GPa) = 23.01490 33.99656 28.50573
#
# Velocity S-wave (km/s) = 3.19019 3.87730 3.55041
# Velocity P-wave (km/s) = 5.37023 6.72295 6.08430
#
# Compressibility (1/GPa) = 0.02895982
#
# Stress axis : x y z
#
# Youngs Moduli (GPa) = 52.56126 73.02856 63.45155
#
# Poissons Ratio (x) = 0.42497 0.03221
# Poissons Ratio (y) = 0.30587 0.21780
# Poissons Ratio (z) = 0.02669 0.25067
#
# Static dielectric constant tensor:
#      x y z
#    x 1.941390 -0.021610 -0.023300 
#    y -0.021610 1.836690 -0.017160 
#    z -0.023300 -0.017160 1.861240 
# 
# From -- ./inp_files/257255.got.cif
#   From: 2010.05.17/outbox.cif.g08.bks.cpg/sg2_129_cif.got.tgz:257255.got - 2010.06.03 11:33:40.
