data_PCOD9013148
_publ_section_title
;
Structure prediction by ZEFSAII (Michael W. Deem and Ramdas Pophale) SiO2 
 PCOD9013148
Probable space group: P -1
;
_chemical_formula_sum "Si O2"
_cell_formula_units_Z 16
_cell_length_a 5.213757
_cell_length_b 19.482939
_cell_length_c 8.532423
_cell_angle_alpha 129.717306
_cell_angle_beta 78.699817
_cell_angle_gamma 109.203477
_cell_volume 629.467302
_symmetry_space_group_name_H-M "P -1"
_symmetry_group_IT_number 2
_symmetry_cell_setting 'triclinic'
loop_
_space_group_symop_operation_xyz
x,y,z
-x,-y,-z
loop_
_atom_site_type_symbol
_atom_site_label
_atom_site_fract_x
_atom_site_fract_y
_atom_site_fract_z
Si Si1 0.793825 0.975284 0.632510
Si Si2 0.011661 0.902673 0.935521
Si Si3 0.160111 0.590769 0.905584
Si Si4 0.875204 0.724428 0.171296
Si Si5 0.329948 0.261394 0.102042
Si Si6 0.664025 0.573914 0.465583
Si Si7 0.576511 0.406481 0.798772
Si Si8 0.188465 0.864980 0.546696
O O1 0.477981 0.934247 0.573296
O O2 0.920926 0.899359 0.589501
O O3 0.000000 0.000000 0.500000
O O4 0.824048 0.060564 0.872247
O O5 0.165945 0.854235 0.721007
O O6 0.727835 0.830899 0.918718
O O7 0.000000 0.000000 0.000000
O O8 0.389839 0.666255 0.888023
O O9 0.139459 0.484920 0.712020
O O10 0.899558 0.626397 0.956062
O O11 0.205230 0.597621 0.098047
O O12 0.142250 0.779069 0.309868
O O13 0.643241 0.690894 0.276819
O O14 0.810263 0.774446 0.099366
O O15 0.204901 0.330318 0.322307
O O16 0.500000 0.500000 0.500000
O O17 0.459719 0.590068 0.379020
O O18 0.500000 0.500000 0.000000
#
# Coordination Sequence:
#
# PCOD9013148 Si02
#       8
#     2   2   2   2   2   2   2   2
#     4  11  24  44  71  99 133 180 233 296 359 428
#     4  10  23  45  68  98 140 181 235 294 367 429
#     4   9  21  38  62  94 130 178 229 283 344 422
#     4  11  23  38  64  96 132 177 239 285 349 421
#     4  10  21  41  63  92 134 175 232 288 354 421
#     4   9  18  37  62  91 131 174 221 279 350 415
#     4   9  19  37  60  86 127 171 220 281 338 406
#     4  11  25  43  67 101 137 180 233 293 356 428
#
# _framework density 25.418319
#
# number of rings (size 3 to 8) (size 9 to 14) (size 15 to 20)
#    0.000    2.000    0.000    3.000    5.250    2.500 
#    6.750    3.750    0.000    0.000    0.000    0.000 
#    0.000    0.000    0.000    0.000    0.000    0.000 
#
# Total GULP energy -89153.459822 kJ/mol
# GULP energy per Si atom -5572.091239 kJ/mol
# Density = 2.536047 g / cm^3
# Si number density = 25.418319 Si / 1000 Ang^3
#
#
#
# Elastic Constant Matrix: (Units=GPa)
#
#
# Indices 1 2 3 4 5 6 
#
# 1 36.4597 25.2861 0.6752 -0.6413 7.1208 8.8894
# 2 25.2861 187.8200 38.7192 -14.2324 14.3689 13.4030
# 3 0.6752 38.7192 123.5183 -10.3178 20.6390 9.4750
# 4 -0.6413 -14.2324 -10.3178 45.0412 -1.8795 5.5956
# 5 7.1208 14.3689 20.6390 -1.8795 32.0522 8.8615
# 6 8.8894 13.4030 9.4750 5.5956 8.8615 37.0546
#
#
#
# Elastic Compliance Matrix: (Units=1/GPa)
#
#
# Indices 1 2 3 4 5 6 
#
# 1 0.032660 -0.004063 0.002460 0.000231 -0.005420 -0.005733
# 2 -0.004063 0.006465 -0.001695 0.001708 -0.000509 -0.001067
# 3 0.002460 -0.001695 0.009799 0.001683 -0.005612 -0.001395
# 4 0.000231 0.001708 0.001683 0.023774 0.000847 -0.004896
# 5 -0.005420 -0.000509 -0.005612 0.000847 0.038038 -0.006305
# 6 -0.005733 -0.001067 -0.001395 -0.004896 -0.006305 0.031352
#
#
# Mechanical properties :
#
#
# Convention : Reuss Voigt Hill
#
# Bulk Modulus (GPa) = 23.62474 53.01767 38.32120
# Shear Modulus (GPa) = 30.71360 41.70410 36.20885
#
# Velocity S-wave (km/s) = 3.47987 4.05496 3.77837
# Velocity P-wave (km/s) = 5.04584 6.54423 5.84327
#
# Compressibility (1/GPa) = 0.04232852
#
# Stress axis : x y z
#
# Youngs Moduli (GPa) = 30.61841 154.67630 102.04967
#
# Poissons Ratio (x) = 0.62842 -0.25101
# Poissons Ratio (y) = 0.12440 0.17295
# Poissons Ratio (z) = -0.07531 0.26215
#
# Static dielectric constant tensor:
#      x y z
#    x 2.175820 -0.046200 -0.117430 
#    y -0.046200 2.101190 0.005050 
#    z -0.117430 0.005050 2.174530 
# 
# From -- ./inp_files/141586.got.cif
#   From: 2010.05.17/outbox.cif.g08.bks.cpg/sg2_71_cif.got.tgz:141586.got - 2010.06.03 11:33:40.
