data_PCOD9013841
_publ_section_title
;
Structure prediction by ZEFSAII (Michael W. Deem and Ramdas Pophale) SiO2 
 PCOD9013841
Probable space group: P -1
;
_chemical_formula_sum "Si O2"
_cell_formula_units_Z 11
_cell_length_a 7.671209
_cell_length_b 10.292194
_cell_length_c 7.404497
_cell_angle_alpha 63.924523
_cell_angle_beta 48.926608
_cell_angle_gamma 64.141496
_cell_volume 386.375376
_symmetry_space_group_name_H-M "P -1"
_symmetry_group_IT_number 2
_symmetry_cell_setting 'triclinic'
loop_
_space_group_symop_operation_xyz
x,y,z
-x,-y,-z
loop_
_atom_site_type_symbol
_atom_site_label
_atom_site_fract_x
_atom_site_fract_y
_atom_site_fract_z
Si Si1 0.500000 0.500000 0.000000
Si Si2 0.731839 0.540629 0.102279
Si Si3 0.413375 0.714181 0.525328
Si Si4 0.894868 0.213842 0.829727
Si Si5 0.709474 0.919068 0.097395
Si Si6 0.912692 0.847060 0.635270
O O1 0.312547 0.395999 0.103814
O O2 0.731869 0.374925 0.828120
O O3 0.591583 0.624853 0.311813
O O4 0.591272 0.402642 0.235330
O O5 0.000000 0.500000 0.000000
O O6 0.499278 0.867267 0.381384
O O7 0.150999 0.734911 0.613071
O O8 0.089173 0.179471 0.559418
O O9 0.046133 0.182702 0.928982
O O10 0.743822 0.085055 0.000246
O O11 0.712047 0.873938 0.911020
O O12 0.000000 0.000000 0.500000
#
# Coordination Sequence:
#
# PCOD9013841 Si02
#       6
#     1   2   2   2   2   2
#     4  12  22  46  72 108 140 190 244 288 366 434
#     4  11  25  45  71 102 144 186 235 299 365 433
#     4  11  22  45  68 100 137 188 233 294 368 416
#     4  10  22  43  71 106 142 188 241 294 351 439
#     4  10  23  46  71 100 147 184 238 303 356 419
#     4  10  21  41  66 100 134 184 236 287 349 424
#
# _framework density 28.469726000000001
#
# number of rings (size 3 to 8) (size 9 to 14) (size 15 to 20)
#    0.000    1.455    1.818    3.273    0.000    2.909 
#    9.818   15.455    0.000    0.000    0.000    0.000 
#    0.000    0.000    0.000    0.000    0.000    0.000 
#
# Total GULP energy -61354.913482 kJ/mol
# GULP energy per Si atom -5577.719407 kJ/mol
# Density = 2.840493 g / cm^3
# Si number density = 28.469726 Si / 1000 Ang^3
#
#
#
# Elastic Constant Matrix: (Units=GPa)
#
#
# Indices 1 2 3 4 5 6 
#
# 1 147.1361 8.6437 4.2401 24.1543 2.3522 -4.1350
# 2 8.6437 126.4572 50.5475 8.8606 3.7913 -4.2869
# 3 4.2401 50.5475 143.4887 -26.1032 7.6885 21.9516
# 4 24.1543 8.8606 -26.1032 77.1638 7.4482 -6.8359
# 5 2.3522 3.7913 7.6885 7.4482 43.8039 16.4682
# 6 -4.1350 -4.2869 21.9516 -6.8359 16.4682 48.8947
#
#
#
# Elastic Compliance Matrix: (Units=1/GPa)
#
#
# Indices 1 2 3 4 5 6 
#
# 1 0.007241 0.000003 -0.000755 -0.002459 -0.000077 0.000634
# 2 0.000003 0.009889 -0.004273 -0.002269 -0.000742 0.002718
# 3 -0.000755 -0.004273 0.009837 0.003717 -0.000365 -0.004212
# 4 -0.002459 -0.002269 0.003717 0.015697 -0.003478 0.001291
# 5 -0.000077 -0.000742 -0.000365 -0.003478 0.027137 -0.009534
# 6 0.000634 0.002718 -0.004212 0.001291 -0.009534 0.026027
#
#
# Mechanical properties :
#
#
# Convention : Reuss Voigt Hill
#
# Bulk Modulus (GPa) = 59.11304 60.43829 59.77567
# Shear Modulus (GPa) = 44.83674 57.54919 51.19296
#
# Velocity S-wave (km/s) = 3.97280 4.50089 4.24507
# Velocity P-wave (km/s) = 6.46937 6.94880 6.71336
#
# Compressibility (1/GPa) = 0.01691674
#
# Stress axis : x y z
#
# Youngs Moduli (GPa) = 138.10832 101.12388 101.65999
#
# Poissons Ratio (x) = -0.00030 0.07677
# Poissons Ratio (y) = -0.00041 0.43435
# Poissons Ratio (z) = 0.10429 0.43206
#
# Static dielectric constant tensor:
#      x y z
#    x 3.075670 -0.504350 0.448010 
#    y -0.504350 2.763380 -0.580170 
#    z 0.448010 -0.580170 2.636590 
# 
# From -- ./inp_files/167277.got.cif
#   From: 2010.05.17/outbox.cif.g08.bks.cpg/sg2_84_cif.got.tgz:167277.got - 2010.06.03 11:33:40.
