data_PCOD9013969
_publ_section_title
;
Structure prediction by ZEFSAII (Michael W. Deem and Ramdas Pophale) SiO2 
 PCOD9013969
Probable space group: P -1
;
_chemical_formula_sum "Si O2"
_cell_formula_units_Z 16
_cell_length_a 6.387150
_cell_length_b 17.296740
_cell_length_c 8.431557
_cell_angle_alpha 74.640000
_cell_angle_beta 98.864988
_cell_angle_gamma 132.105123
_cell_volume 666.043972
_symmetry_space_group_name_H-M "P -1"
_symmetry_group_IT_number 2
_symmetry_cell_setting 'triclinic'
loop_
_space_group_symop_operation_xyz
x,y,z
-x,-y,-z
loop_
_atom_site_type_symbol
_atom_site_label
_atom_site_fract_x
_atom_site_fract_y
_atom_site_fract_z
Si Si1 0.622260 0.793515 0.655144
Si Si2 0.600296 0.272495 0.990188
Si Si3 0.534508 0.598047 0.285299
Si Si4 0.542829 0.936773 0.418598
Si Si5 0.072525 0.566859 0.632669
Si Si6 0.777081 0.923383 0.153911
Si Si7 0.913891 0.792706 0.428555
Si Si8 0.787328 0.553313 0.095643
O O1 0.576193 0.774157 0.845044
O O2 0.670138 0.897164 0.559273
O O3 0.329933 0.692725 0.589332
O O4 0.868295 0.801992 0.602484
O O5 0.537613 0.341477 0.860768
O O6 0.502843 0.176450 0.916688
O O7 0.933484 0.352322 0.017324
O O8 0.672030 0.670166 0.417421
O O9 0.761913 0.599965 0.225384
O O10 0.237782 0.478445 0.334436
O O11 0.709406 0.974705 0.249612
O O12 0.217327 0.836112 0.394828
O O13 0.500000 0.000000 0.500000
O O14 0.174372 0.528045 0.798223
O O15 0.000000 0.500000 0.500000
O O16 0.871785 0.866654 0.290793
O O17 0.000000 0.000000 0.000000
O O18 0.500000 0.500000 0.000000
#
# Coordination Sequence:
#
# PCOD9013969 Si02
#       8
#     2   2   2   2   2   2   2   2
#     4  11  24  42  66  96 137 172 219 272 340 399
#     4  10  23  42  65  98 133 175 220 277 331 403
#     4  10  21  41  66  92 134 174 219 274 325 396
#     4  11  27  45  67  98 133 171 225 284 336 401
#     4  11  23  40  65  98 136 182 222 268 337 408
#     4  10  24  45  72  93 128 176 223 280 346 398
#     4  10  23  42  66  95 130 175 218 274 338 399
#     4  11  23  39  65  97 137 175 224 274 332 398
#
# _framework density 24.022438000000001
#
# number of rings (size 3 to 8) (size 9 to 14) (size 15 to 20)
#    0.000    1.500    1.250    2.250    7.000    7.000 
#    2.250    0.000    0.000    0.000    0.000    0.000 
#    0.000    0.000    0.000    0.000    0.000    0.000 
#
# Total GULP energy -89514.467906 kJ/mol
# GULP energy per Si atom -5594.654244 kJ/mol
# Density = 2.396776 g / cm^3
# Si number density = 24.022438 Si / 1000 Ang^3
#
#
#
# Elastic Constant Matrix: (Units=GPa)
#
#
# Indices 1 2 3 4 5 6 
#
# 1 94.4373 31.9185 38.5164 -4.7845 -24.9033 6.2710
# 2 31.9185 94.1128 28.6293 3.2464 -4.9659 -0.7913
# 3 38.5164 28.6293 118.1477 1.8143 -28.3373 -2.2663
# 4 -4.7845 3.2464 1.8143 33.8435 3.5618 -8.6223
# 5 -24.9033 -4.9659 -28.3373 3.5618 46.0257 5.7252
# 6 6.2710 -0.7913 -2.2663 -8.6223 5.7252 42.2682
#
#
#
# Elastic Compliance Matrix: (Units=1/GPa)
#
#
# Indices 1 2 3 4 5 6 
#
# 1 0.014896 -0.004046 -0.002411 0.001170 0.006428 -0.003047
# 2 -0.004046 0.012609 -0.002231 -0.001236 -0.002201 0.000763
# 3 -0.002411 -0.002231 0.011105 -0.001314 0.005405 -0.000089
# 4 0.001170 -0.001236 -0.001314 0.032004 -0.003625 0.006752
# 5 0.006428 -0.002201 0.005405 -0.003625 0.029248 -0.005406
# 6 -0.003047 0.000763 -0.000089 0.006752 -0.005406 0.026230
#
#
# Mechanical properties :
#
#
# Convention : Reuss Voigt Hill
#
# Bulk Modulus (GPa) = 47.08904 56.09181 51.59042
# Shear Modulus (GPa) = 33.21253 38.26971 35.74112
#
# Velocity S-wave (km/s) = 3.72232 3.99567 3.86141
# Velocity P-wave (km/s) = 6.17405 6.68488 6.43454
#
# Compressibility (1/GPa) = 0.02123636
#
# Stress axis : x y z
#
# Youngs Moduli (GPa) = 67.13129 79.30743 90.04708
#
# Poissons Ratio (x) = 0.32084 0.21707
# Poissons Ratio (y) = 0.27158 0.20089
# Poissons Ratio (z) = 0.16183 0.17693
#
# Static dielectric constant tensor:
#      x y z
#    x 1.890880 0.004840 -0.032490 
#    y 0.004840 1.967850 0.033180 
#    z -0.032490 0.033180 1.939660 
# 
# From -- ./inp_files/38764.got.cif
#   From: 2010.05.17/outbox.cif.g08.bks.cpg/sg2_20_cif.got.tgz:38764.got - 2010.06.03 11:33:40.
