data_PCOD9013543
_publ_section_title
;
Structure prediction by ZEFSAII (Michael W. Deem and Ramdas Pophale) SiO2 
 PCOD9013543
Probable space group: P -1
;
_chemical_formula_sum "Si O2"
_cell_formula_units_Z 15
_cell_length_a 13.185049
_cell_length_b 14.674526
_cell_length_c 8.017091
_cell_angle_alpha 108.405485
_cell_angle_beta 71.341687
_cell_angle_gamma 151.298769
_cell_volume 703.685334
_symmetry_space_group_name_H-M "P -1"
_symmetry_group_IT_number 2
_symmetry_cell_setting 'triclinic'
loop_
_space_group_symop_operation_xyz
x,y,z
-x,-y,-z
loop_
_atom_site_type_symbol
_atom_site_label
_atom_site_fract_x
_atom_site_fract_y
_atom_site_fract_z
Si Si1 0.145419 0.737599 0.996711
Si Si2 0.020920 0.200558 0.728384
Si Si3 0.021999 0.624399 0.624281
Si Si4 0.500000 0.000000 0.500000
Si Si5 0.441553 0.461011 0.815557
Si Si6 0.435090 0.240746 0.212563
Si Si7 0.295485 0.492541 0.476640
Si Si8 0.428937 0.826515 0.106739
O O1 0.026923 0.625974 0.822523
O O2 0.365054 0.959172 0.953452
O O3 0.226042 0.710641 0.046640
O O4 0.021378 0.721036 0.157144
O O5 0.193215 0.287574 0.811979
O O6 0.135604 0.296457 0.544774
O O7 0.797118 0.974034 0.733224
O O8 0.251906 0.838617 0.565767
O O9 0.000000 0.500000 0.500000
O O10 0.838256 0.548398 0.604688
O O11 0.424484 0.858733 0.317314
O O12 0.556790 0.642550 0.778430
O O13 0.524771 0.430989 0.662072
O O14 0.500000 0.500000 0.000000
O O15 0.591431 0.353595 0.354454
O O16 0.524274 0.245931 0.015507
#
# Coordination Sequence:
#
# PCOD9013543 Si02
#       8
#     2   2   2   1   2   2   2   2
#     4   9  18  35  58  87 123 158 199 254 308 362
#     4  10  21  41  65  87 121 165 208 260 314 368
#     4  11  23  38  59  90 125 163 205 252 313 378
#     4  10  22  38  58  88 124 158 204 256 306 366
#     4  11  25  43  61  91 128 160 209 268 314 367
#     4  10  22  42  66  91 122 168 214 253 314 378
#     4  11  24  40  63  93 124 162 211 264 309 366
#     4   9  18  35  60  89 121 160 204 251 305 370
#
# _framework density 21.316344999999998
#
# number of rings (size 3 to 8) (size 9 to 14) (size 15 to 20)
#    0.000    1.867    0.000    4.000    0.000    9.067 
#    0.000    7.333    0.000    0.000    0.000    0.000 
#    0.000    0.000    0.000    0.000    0.000    0.000 
#
# Total GULP energy -83565.975578 kJ/mol
# GULP energy per Si atom -5571.065039 kJ/mol
# Density = 2.126783 g / cm^3
# Si number density = 21.316345 Si / 1000 Ang^3
#
#
#
# Elastic Constant Matrix: (Units=GPa)
#
#
# Indices 1 2 3 4 5 6 
#
# 1 106.6998 40.8091 20.5185 12.7835 3.2938 33.6579
# 2 40.8091 122.5023 22.3458 0.4804 8.4960 23.1597
# 3 20.5185 22.3458 100.4449 11.5399 -4.5934 17.2568
# 4 12.7835 0.4804 11.5399 34.0823 9.7856 -2.7370
# 5 3.2938 8.4960 -4.5934 9.7856 34.0684 2.1908
# 6 33.6579 23.1597 17.2568 -2.7370 2.1908 25.5681
#
#
#
# Elastic Compliance Matrix: (Units=1/GPa)
#
#
# Indices 1 2 3 4 5 6 
#
# 1 0.019459 -0.002077 0.002649 -0.011503 0.004041 -0.027100
# 2 -0.002077 0.010266 -0.001206 0.001346 -0.002562 -0.005387
# 3 0.002649 -0.001206 0.012909 -0.007716 0.004795 -0.012345
# 4 -0.011503 0.001346 -0.007716 0.042265 -0.014002 0.024855
# 5 0.004041 -0.002562 0.004795 -0.014002 0.034959 -0.010729
# 6 -0.027100 -0.005387 -0.012345 0.024855 -0.010729 0.091577
#
#
# Mechanical properties :
#
#
# Convention : Reuss Voigt Hill
#
# Bulk Modulus (GPa) = 24.17415 55.22155 39.69785
# Shear Modulus (GPa) = 22.07587 35.14202 28.60895
#
# Velocity S-wave (km/s) = 3.22161 4.06469 3.66746
# Velocity P-wave (km/s) = 5.02033 6.92755 6.04957
#
# Compressibility (1/GPa) = 0.04136651
#
# Stress axis : x y z
#
# Youngs Moduli (GPa) = 51.39017 97.40969 77.46267
#
# Poissons Ratio (x) = 0.20236 -0.20522
# Poissons Ratio (y) = 0.10676 0.09340
# Poissons Ratio (z) = -0.13615 0.11745
#
# Static dielectric constant tensor:
#      x y z
#    x 1.733850 -0.021270 0.014810 
#    y -0.021270 1.806170 -0.012140 
#    z 0.014810 -0.012140 1.784520 
# 
# From -- ./inp_files/270870.got.cif
#   From: 2010.05.17/outbox.cif.g08.bks.cpg/sg2_136_cif.got.tgz:270870.got - 2010.06.03 11:33:40.
