data_PCOD9013330
_publ_section_title
;
Structure prediction by ZEFSAII (Michael W. Deem and Ramdas Pophale) SiO2 
 PCOD9013330
Probable space group: P -1
;
_chemical_formula_sum "Si O2"
_cell_formula_units_Z 14
_cell_length_a 12.237335
_cell_length_b 8.116622
_cell_length_c 19.704440
_cell_angle_alpha 144.034273
_cell_angle_beta 39.615695
_cell_angle_gamma 115.413425
_cell_volume 626.504281
_symmetry_space_group_name_H-M "P -1"
_symmetry_group_IT_number 2
_symmetry_cell_setting 'triclinic'
loop_
_space_group_symop_operation_xyz
x,y,z
-x,-y,-z
loop_
_atom_site_type_symbol
_atom_site_label
_atom_site_fract_x
_atom_site_fract_y
_atom_site_fract_z
Si Si1 0.725267 0.592821 0.642673
Si Si2 0.122751 0.226919 0.253217
Si Si3 0.054918 0.769539 0.047167
Si Si4 0.693857 0.178547 0.769253
Si Si5 0.066168 0.245450 0.603416
Si Si6 0.445749 0.370569 0.640843
Si Si7 0.823773 0.286068 0.226066
O O1 0.714794 0.730451 0.768937
O O2 0.594769 0.438667 0.634178
O O3 0.950302 0.325394 0.424380
O O4 0.674251 0.892617 0.717418
O O5 0.044628 0.485528 0.314602
O O6 0.151144 0.893007 0.098749
O O7 0.230569 0.590329 0.850122
O O8 0.862833 0.091567 0.213691
O O9 0.000000 0.500000 0.000000
O O10 0.897876 0.176580 0.689422
O O11 0.500000 0.500000 0.000000
O O12 0.746145 0.070194 0.628315
O O13 0.131156 0.423938 0.685294
O O14 0.394290 0.533800 0.644607
O O15 0.500000 0.000000 0.500000
O O16 0.000000 0.000000 0.000000
#
# Coordination Sequence:
#
# PCOD9013330 Si02
#       7
#     2   2   2   2   2   2   2
#     4  10  22  40  62  91 124 162 210 266 318 381
#     4   9  20  41  64  86 124 167 203 259 326 383
#     4  10  21  41  64  91 124 171 212 254 323 391
#     4  10  22  37  62  93 127 162 210 268 317 392
#     4   9  20  42  63  89 126 169 213 258 332 385
#     4  11  24  41  63  92 127 165 214 269 316 380
#     4   9  21  40  68  86 125 179 208 261 325 392
#
# _framework density 22.346214
#
# number of rings (size 3 to 8) (size 9 to 14) (size 15 to 20)
#    0.000    2.286    0.000    0.857    6.000    7.429 
#    2.571   10.000    0.000    0.000    0.000    0.000 
#    0.000    0.000    0.000    0.000    0.000    0.000 
#
# Total GULP energy -78004.390879 kJ/mol
# GULP energy per Si atom -5571.742206 kJ/mol
# Density = 2.229535 g / cm^3
# Si number density = 22.346214 Si / 1000 Ang^3
#
#
#
# Elastic Constant Matrix: (Units=GPa)
#
#
# Indices 1 2 3 4 5 6 
#
# 1 130.2678 43.5746 36.5858 21.2764 12.1234 26.3962
# 2 43.5746 103.1834 29.8265 24.6434 1.7214 24.2224
# 3 36.5858 29.8265 140.0074 10.7861 19.7653 12.0678
# 4 21.2764 24.6434 10.7861 35.8403 9.0873 10.7662
# 5 12.1234 1.7214 19.7653 9.0873 25.6671 6.9049
# 6 26.3962 24.2224 12.0678 10.7662 6.9049 25.6603
#
#
#
# Elastic Compliance Matrix: (Units=1/GPa)
#
#
# Indices 1 2 3 4 5 6 
#
# 1 0.010628 -0.001812 -0.001444 -0.002154 -0.001045 -0.007359
# 2 -0.001812 0.015138 -0.002291 -0.007360 0.006935 -0.010127
# 3 -0.001444 -0.002291 0.008773 0.001223 -0.006561 0.000774
# 4 -0.002154 -0.007360 0.001223 0.038136 -0.011792 -0.004239
# 5 -0.001045 0.006935 -0.006561 -0.011792 0.051236 -0.011225
# 6 -0.007359 -0.010127 0.000774 -0.004239 -0.011225 0.060536
#
#
# Mechanical properties :
#
#
# Convention : Reuss Voigt Hill
#
# Bulk Modulus (GPa) = 42.64825 65.93696 54.29260
# Shear Modulus (GPa) = 24.58754 34.99833 29.79293
#
# Velocity S-wave (km/s) = 3.32068 3.96180 3.65532
# Velocity P-wave (km/s) = 5.81629 7.10626 6.49338
#
# Compressibility (1/GPa) = 0.02344762
#
# Stress axis : x y z
#
# Youngs Moduli (GPa) = 94.09039 66.05839 113.98500
#
# Poissons Ratio (x) = 0.11967 0.16455
# Poissons Ratio (y) = 0.17045 0.26110
# Poissons Ratio (z) = 0.13583 0.15131
#
# Static dielectric constant tensor:
#      x y z
#    x 1.996750 -0.088950 0.011750 
#    y -0.088950 1.808030 -0.027770 
#    z 0.011750 -0.027770 1.846220 
# 
# From -- ./inp_files/594295.got.cif
#   From: 2010.05.17/outbox.cif.g08.bks.cpg/sg2_298_cif.got.tgz:594295.got - 2010.06.03 11:33:40.
