data_PCOD9013196
_publ_section_title
;
Structure prediction by ZEFSAII (Michael W. Deem and Ramdas Pophale) SiO2 
 PCOD9013196
Probable space group: P -1
;
_chemical_formula_sum "Si O2"
_cell_formula_units_Z 16
_cell_length_a 12.605148
_cell_length_b 5.914247
_cell_length_c 13.874571
_cell_angle_alpha 113.473180
_cell_angle_beta 45.105594
_cell_angle_gamma 92.188441
_cell_volume 623.358901
_symmetry_space_group_name_H-M "P -1"
_symmetry_group_IT_number 2
_symmetry_cell_setting 'triclinic'
loop_
_space_group_symop_operation_xyz
x,y,z
-x,-y,-z
loop_
_atom_site_type_symbol
_atom_site_label
_atom_site_fract_x
_atom_site_fract_y
_atom_site_fract_z
Si Si1 0.390344 0.081545 0.235567
Si Si2 0.552146 0.446237 0.261681
Si Si3 0.856104 0.973475 0.474729
Si Si4 0.292080 0.834081 0.606156
Si Si5 0.149632 0.037347 0.246509
Si Si6 0.979675 0.383422 0.239666
Si Si7 0.385804 0.451057 0.981227
Si Si8 0.165554 0.051927 0.912509
O O1 0.409939 0.333572 0.312819
O O2 0.287455 0.956557 0.345865
O O3 0.283237 0.143225 0.218902
O O4 0.570231 0.859712 0.076803
O O5 0.476635 0.662218 0.431096
O O6 0.580138 0.542353 0.154404
O O7 0.706636 0.201818 0.158165
O O8 0.986533 0.109711 0.426628
O O9 0.940414 0.656311 0.366280
O O10 0.783621 0.038481 0.425056
O O11 0.250578 0.049422 0.754943
O O12 0.189703 0.655004 0.674495
O O13 0.084483 0.149949 0.203882
O O14 0.230469 0.718583 0.138861
O O15 0.095402 0.330102 0.062857
O O16 0.500000 0.500000 0.000000
O O17 0.000000 0.000000 0.000000
#
# Coordination Sequence:
#
# PCOD9013196 Si02
#       8
#     2   2   2   2   2   2   2   2
#     4  11  24  40  64  98 129 171 214 257 319 384
#     4  12  22  43  70  92 132 169 212 266 318 385
#     4  11  22  40  64  93 135 166 216 260 311 384
#     4  10  22  42  64  93 126 170 214 270 320 368
#     4  10  23  39  63  93 133 172 209 261 315 377
#     4  10  21  41  63  95 128 171 217 259 317 384
#     4  10  23  41  63  95 131 170 209 259 316 376
#     4  10  23  43  69  93 125 168 216 269 329 374
#
# _framework density 25.667397999999999
#
# number of rings (size 3 to 8) (size 9 to 14) (size 15 to 20)
#    0.000    1.500    3.750    0.750    1.750    5.000 
#    0.000    3.125    0.000    0.000    0.000    0.000 
#    0.000    0.000    0.000    0.000    0.000    0.000 
#
# Total GULP energy -89378.992025 kJ/mol
# GULP energy per Si atom -5586.187002 kJ/mol
# Density = 2.560898 g / cm^3
# Si number density = 25.667398 Si / 1000 Ang^3
#
#
#
# Elastic Constant Matrix: (Units=GPa)
#
#
# Indices 1 2 3 4 5 6 
#
# 1 86.0664 12.9197 34.3870 -4.8492 -10.7507 -13.6835
# 2 12.9197 18.0240 14.8475 -4.9053 -6.9452 -2.2767
# 3 34.3870 14.8475 157.5589 -11.8166 9.3612 -7.3024
# 4 -4.8492 -4.9053 -11.8166 40.7852 -5.5806 -0.3203
# 5 -10.7507 -6.9452 9.3612 -5.5806 47.7409 -1.3864
# 6 -13.6835 -2.2767 -7.3024 -0.3203 -1.3864 29.7048
#
#
#
# Elastic Compliance Matrix: (Units=1/GPa)
#
#
# Indices 1 2 3 4 5 6 
#
# 1 0.014983 -0.006483 -0.002516 0.000755 0.003185 0.005943
# 2 -0.006483 0.070967 -0.005256 0.007740 0.010850 0.001750
# 3 -0.002516 -0.005256 0.007630 0.000909 -0.002715 0.000197
# 4 0.000755 0.007740 0.000909 0.026397 0.004251 0.001648
# 5 0.003185 0.010850 -0.002715 0.004251 0.024353 0.002814
# 6 0.005943 0.001750 0.000197 0.001648 0.002814 0.036734
#
#
# Mechanical properties :
#
#
# Convention : Reuss Voigt Hill
#
# Bulk Modulus (GPa) = 15.36828 42.88419 29.12623
# Shear Modulus (GPa) = 21.62030 36.94586 29.28308
#
# Velocity S-wave (km/s) = 2.90543 3.79807 3.38134
# Velocity P-wave (km/s) = 4.15402 5.99814 5.15914
#
# Compressibility (1/GPa) = 0.06506909
#
# Stress axis : x y z
#
# Youngs Moduli (GPa) = 66.74341 14.09109 131.06364
#
# Poissons Ratio (x) = 0.09136 0.32978
# Poissons Ratio (y) = 0.43273 0.68881
# Poissons Ratio (z) = 0.16794 0.07406
#
# Static dielectric constant tensor:
#      x y z
#    x 2.082470 0.031360 0.022600 
#    y 0.031360 1.975250 -0.008420 
#    z 0.022600 -0.008420 2.071300 
# 
# From -- ./inp_files/38052.got.cif
#   From: 2010.05.17/outbox.cif.g08.bks.cpg/sg2_20_cif.got.tgz:38052.got - 2010.06.03 11:33:40.
