data_PCOD9013423
_publ_section_title
;
Structure prediction by ZEFSAII (Michael W. Deem and Ramdas Pophale) SiO2 
 PCOD9013423
Probable space group: P -1
;
_chemical_formula_sum "Si O2"
_cell_formula_units_Z 16
_cell_length_a 11.898679
_cell_length_b 12.935619
_cell_length_c 12.143670
_cell_angle_alpha 126.870889
_cell_angle_beta 126.208775
_cell_angle_gamma 30.412462
_cell_volume 744.444961
_symmetry_space_group_name_H-M "P -1"
_symmetry_group_IT_number 2
_symmetry_cell_setting 'triclinic'
loop_
_space_group_symop_operation_xyz
x,y,z
-x,-y,-z
loop_
_atom_site_type_symbol
_atom_site_label
_atom_site_fract_x
_atom_site_fract_y
_atom_site_fract_z
Si Si1 0.606783 0.335327 0.857436
Si Si2 0.759162 0.895289 0.184712
Si Si3 0.558423 0.533834 0.392874
Si Si4 0.131597 0.772336 0.442081
Si Si5 0.942243 0.849941 0.043147
Si Si6 0.651686 0.752062 0.670228
Si Si7 0.408950 0.927716 0.216724
Si Si8 0.119693 0.437438 0.865793
O O1 0.463771 0.469160 0.750823
O O2 0.606298 0.181969 0.780612
O O3 0.866059 0.184555 0.886900
O O4 0.500000 0.500000 0.000000
O O5 0.795059 0.955224 0.136280
O O6 0.811080 0.704957 0.082339
O O7 0.953404 0.796002 0.318322
O O8 0.520459 0.091217 0.229163
O O9 0.343103 0.626129 0.387806
O O10 0.774471 0.315627 0.437932
O O11 0.572713 0.675848 0.521778
O O12 0.000000 0.000000 0.500000
O O13 0.082611 0.613885 0.984339
O O14 0.770423 0.970882 0.919636
O O15 0.896361 0.564105 0.747888
O O16 0.640700 0.884584 0.667172
O O17 0.663306 0.736056 0.197041
#
# Coordination Sequence:
#
# PCOD9013423 Si02
#       8
#     2   2   2   2   2   2   2   2
#     4  12  25  47  68  95 133 180 227 273 324 392
#     4  11  21  37  66 101 133 169 218 269 340 401
#     4  11  24  43  69  97 135 174 215 276 335 391
#     4  11  22  41  65 104 133 166 214 270 340 398
#     4  11  23  41  66  97 132 180 219 276 331 386
#     4  10  22  41  68  98 134 170 219 275 334 396
#     4  10  24  43  67  93 135 177 232 268 320 392
#     4  10  21  41  64  94 140 170 219 273 326 402
#
# _framework density 21.492522999999998
#
# number of rings (size 3 to 8) (size 9 to 14) (size 15 to 20)
#    0.000    1.250    5.000    0.750    0.000    7.000 
#    2.250    0.625    0.000    0.000    0.000    0.000 
#    0.000    0.000    0.000    0.000    0.000    0.000 
#
# Total GULP energy -89372.134708 kJ/mol
# GULP energy per Si atom -5585.758419 kJ/mol
# Density = 2.144361 g / cm^3
# Si number density = 21.492523 Si / 1000 Ang^3
#
#
#
# Elastic Constant Matrix: (Units=GPa)
#
#
# Indices 1 2 3 4 5 6 
#
# 1 106.7436 34.9267 14.1495 -12.2297 7.7069 4.6672
# 2 34.9267 93.0952 30.2044 -13.1354 -0.1027 17.0626
# 3 14.1495 30.2044 51.5762 -13.7039 -12.8379 3.8640
# 4 -12.2297 -13.1354 -13.7039 32.5468 6.3986 3.2424
# 5 7.7069 -0.1027 -12.8379 6.3986 28.4396 -10.1359
# 6 4.6672 17.0626 3.8640 3.2424 -10.1359 28.6202
#
#
#
# Elastic Compliance Matrix: (Units=1/GPa)
#
#
# Indices 1 2 3 4 5 6 
#
# 1 0.011446 -0.002765 -0.001726 0.003798 -0.005601 -0.002399
# 2 -0.002765 0.018051 -0.009785 0.005258 -0.009387 -0.012910
# 3 -0.001726 -0.009785 0.030080 0.004302 0.015566 0.007079
# 4 0.003798 0.005258 0.004302 0.039944 -0.012833 -0.013405
# 5 -0.005601 -0.009387 0.015566 -0.012833 0.055677 0.025580
# 6 -0.002399 -0.012910 0.007079 -0.013405 0.025580 0.052650
#
#
# Mechanical properties :
#
#
# Convention : Reuss Voigt Hill
#
# Bulk Modulus (GPa) = 32.23155 45.55290 38.89222
# Shear Modulus (GPa) = 20.26406 29.39693 24.83049
#
# Velocity S-wave (km/s) = 3.07390 3.70236 3.40267
# Velocity P-wave (km/s) = 5.25621 6.28628 5.79418
#
# Compressibility (1/GPa) = 0.03102550
#
# Stress axis : x y z
#
# Youngs Moduli (GPa) = 87.36576 55.39754 33.24468
#
# Poissons Ratio (x) = 0.15316 0.05738
# Poissons Ratio (y) = 0.24155 0.32530
# Poissons Ratio (z) = 0.15080 0.54207
#
# Static dielectric constant tensor:
#      x y z
#    x 1.927740 0.062670 0.099790 
#    y 0.062670 1.775540 0.047000 
#    z 0.099790 0.047000 1.863260 
# 
# From -- ./inp_files/71195.got.cif
#   From: 2010.05.17/outbox.cif.g08.bks.cpg/sg2_36_cif.got.tgz:71195.got - 2010.06.03 11:33:40.
