data_PCOD9013956
_publ_section_title
;
Structure prediction by ZEFSAII (Michael W. Deem and Ramdas Pophale) SiO2 
 PCOD9013956
Probable space group: P -1
;
_chemical_formula_sum "Si O2"
_cell_formula_units_Z 16
_cell_length_a 19.441802
_cell_length_b 24.522901
_cell_length_c 5.314939
_cell_angle_alpha 66.409505
_cell_angle_beta 113.607776
_cell_angle_gamma 160.410108
_cell_volume 776.341179
_symmetry_space_group_name_H-M "P -1"
_symmetry_group_IT_number 2
_symmetry_cell_setting 'triclinic'
loop_
_space_group_symop_operation_xyz
x,y,z
-x,-y,-z
loop_
_atom_site_type_symbol
_atom_site_label
_atom_site_fract_x
_atom_site_fract_y
_atom_site_fract_z
Si Si1 0.276184 0.359861 0.438037
Si Si2 0.919626 0.685284 0.035779
Si Si3 0.070137 0.983765 0.669056
Si Si4 0.418006 0.106500 0.481015
Si Si5 0.393859 0.946510 0.693202
Si Si6 0.936839 0.624213 0.681747
Si Si7 0.980140 0.143559 0.796699
Si Si8 0.490645 0.756918 0.157313
O O1 0.500000 0.500000 0.500000
O O2 0.104646 0.185369 0.415919
O O3 0.203261 0.320205 0.686756
O O4 0.266833 0.412930 0.163181
O O5 0.887293 0.621974 0.352154
O O6 0.066049 0.845886 0.058859
O O7 0.994417 0.704657 0.867919
O O8 0.310451 0.140660 0.688307
O O9 0.041895 0.940034 0.995881
O O10 0.000000 0.000000 0.500000
O O11 0.525793 0.207268 0.707316
O O12 0.416501 0.035110 0.564463
O O13 0.184677 0.956567 0.457525
O O14 0.486722 0.194364 0.171531
O O15 0.151953 0.750613 0.702997
O O16 0.500000 0.000000 0.500000
O O17 0.500000 0.000000 0.000000
O O18 0.726988 0.437311 0.796778
#
# Coordination Sequence:
#
# PCOD9013956 Si02
#       8
#     2   2   2   2   2   2   2   2
#     4  11  23  39  61  96 133 178 235 288 351 382
#     4  11  22  40  69  94 130 180 230 289 319 394
#     4  10  24  39  60  94 137 178 232 288 338 389
#     4  11  22  46  71  95 138 178 226 269 337 421
#     4  12  26  44  74 110 136 170 220 285 346 402
#     4  12  25  44  71 103 138 171 238 274 331 419
#     4  10  21  41  66  92 128 183 234 271 346 394
#     4  11  25  44  69  99 134 194 224 271 340 409
#
# _framework density 20.609493000000001
#
# number of rings (size 3 to 8) (size 9 to 14) (size 15 to 20)
#    0.000    1.000    3.750    2.250    5.250    3.500 
#    0.000    3.750    0.000    0.000    0.000    0.000 
#    0.000    0.000    0.000    0.000    0.000    0.000 
#
# Total GULP energy -89144.597965 kJ/mol
# GULP energy per Si atom -5571.537373 kJ/mol
# Density = 2.056258 g / cm^3
# Si number density = 20.609493 Si / 1000 Ang^3
#
#
#
# Elastic Constant Matrix: (Units=GPa)
#
#
# Indices 1 2 3 4 5 6 
#
# 1 97.7235 45.2496 60.9377 -3.5088 -4.6312 16.2339
# 2 45.2496 129.4823 43.0820 -10.9490 3.0373 29.6832
# 3 60.9377 43.0820 133.9416 -16.6593 3.5184 19.2195
# 4 -3.5088 -10.9490 -16.6593 26.6942 1.5227 1.9277
# 5 -4.6312 3.0373 3.5184 1.5227 43.4638 4.1314
# 6 16.2339 29.6832 19.2195 1.9277 4.1314 29.8072
#
#
#
# Elastic Compliance Matrix: (Units=1/GPa)
#
#
# Indices 1 2 3 4 5 6 
#
# 1 0.016163 -0.003556 -0.006544 -0.003488 0.002736 -0.001196
# 2 -0.003556 0.011706 -0.000087 0.005021 -0.000422 -0.009930
# 3 -0.006544 -0.000087 0.012002 0.006993 -0.001496 -0.004333
# 4 -0.003488 0.005021 0.006993 0.044270 -0.001869 -0.010213
# 5 0.002736 -0.000422 -0.001496 -0.001869 0.023828 -0.003287
# 6 -0.001196 -0.009930 -0.004333 -0.010213 -0.003287 0.048000
#
#
# Mechanical properties :
#
#
# Convention : Reuss Voigt Hill
#
# Bulk Modulus (GPa) = 51.28895 73.29843 62.29369
# Shear Modulus (GPa) = 27.34619 34.11826 30.73222
#
# Velocity S-wave (km/s) = 3.64658 4.07315 3.86575
# Velocity P-wave (km/s) = 6.53224 7.60022 7.08638
#
# Compressibility (1/GPa) = 0.01949738
#
# Stress axis : x y z
#
# Youngs Moduli (GPa) = 61.86885 85.42897 83.32103
#
# Poissons Ratio (x) = 0.30380 0.54524
# Poissons Ratio (y) = 0.22001 0.00722
# Poissons Ratio (z) = 0.40486 0.00741
#
# Static dielectric constant tensor:
#      x y z
#    x 1.863680 0.131580 -0.082130 
#    y 0.131580 2.047760 -0.066410 
#    z -0.082130 -0.066410 1.826570 
# 
# From -- ./inp_files/89815.got.cif
#   From: 2010.05.17/outbox.cif.g08.bks.cpg/sg2_45_cif.got.tgz:89815.got - 2010.06.03 11:33:40.
