data_PCOD9013262
_publ_section_title
;
Structure prediction by ZEFSAII (Michael W. Deem and Ramdas Pophale) SiO2 
 PCOD9013262
Probable space group: P -1
;
_chemical_formula_sum "Si O2"
_cell_formula_units_Z 11
_cell_length_a 9.345337
_cell_length_b 8.468559
_cell_length_c 12.004615
_cell_angle_alpha 42.350653
_cell_angle_beta 59.514298
_cell_angle_gamma 54.625633
_cell_volume 516.376233
_symmetry_space_group_name_H-M "P -1"
_symmetry_group_IT_number 2
_symmetry_cell_setting 'triclinic'
loop_
_space_group_symop_operation_xyz
x,y,z
-x,-y,-z
loop_
_atom_site_type_symbol
_atom_site_label
_atom_site_fract_x
_atom_site_fract_y
_atom_site_fract_z
Si Si1 0.933967 0.337502 0.246717
Si Si2 0.000000 0.500000 0.500000
Si Si3 0.206862 0.778198 0.406509
Si Si4 0.508206 0.979225 0.140448
Si Si5 0.239526 0.515159 0.995914
Si Si6 0.840488 0.959455 0.151231
O O1 0.830505 0.305223 0.412625
O O2 0.070149 0.481268 0.142121
O O3 0.811230 0.461960 0.126617
O O4 0.063372 0.060574 0.302345
O O5 0.155969 0.607742 0.426477
O O6 0.084169 0.252593 0.675798
O O7 0.398003 0.802901 0.309019
O O8 0.401347 0.258922 0.082783
O O9 0.703887 0.897845 0.154968
O O10 0.500000 0.000000 0.000000
O O11 0.260146 0.770606 0.892259
O O12 0.000000 0.000000 0.000000
#
# Coordination Sequence:
#
# PCOD9013262 Si02
#       6
#     2   1   2   2   2   2
#     4   9  19  38  72  95 129 175 227 277 342 411
#     4  12  24  40  68 100 134 176 228 274 338 406
#     4  10  21  41  64 101 134 176 225 283 336 402
#     4  11  26  44  69 101 138 181 230 287 344 405
#     4  10  21  43  70  99 132 181 227 279 347 406
#     4  12  26  46  70 100 140 182 232 285 347 413
#
# _framework density 21.302298
#
# number of rings (size 3 to 8) (size 9 to 14) (size 15 to 20)
#    0.000    1.455    1.818    2.727    7.636    0.727 
#    3.273    2.727    0.000    0.000    0.000    0.000 
#    0.000    0.000    0.000    0.000    0.000    0.000 
#
# Total GULP energy -61260.381671 kJ/mol
# GULP energy per Si atom -5569.125606 kJ/mol
# Density = 2.125381 g / cm^3
# Si number density = 21.302298 Si / 1000 Ang^3
#
#
#
# Elastic Constant Matrix: (Units=GPa)
#
#
# Indices 1 2 3 4 5 6 
#
# 1 165.3634 38.4078 73.1432 -0.6999 -28.0110 -3.2562
# 2 38.4078 59.0015 31.1200 -17.6221 -10.3653 2.7553
# 3 73.1432 31.1200 143.9750 -17.0018 -19.9819 -5.7631
# 4 -0.6999 -17.6221 -17.0018 36.9610 0.4032 -7.6363
# 5 -28.0110 -10.3653 -19.9819 0.4032 19.5061 -7.1662
# 6 -3.2562 2.7553 -5.7631 -7.6363 -7.1662 28.0065
#
#
#
# Elastic Compliance Matrix: (Units=1/GPa)
#
#
# Indices 1 2 3 4 5 6 
#
# 1 0.010150 -0.004119 -0.003021 -0.002676 0.010411 0.002898
# 2 -0.004119 0.024636 -0.000863 0.011567 0.006710 0.001791
# 3 -0.003021 -0.000863 0.010641 0.005467 0.007996 0.005460
# 4 -0.002676 0.011567 0.005467 0.037584 0.011890 0.012966
# 5 0.010411 0.006710 0.007996 0.011890 0.087998 0.027954
# 6 0.002898 0.001791 0.005460 0.012966 0.027954 0.047678
#
#
# Mechanical properties :
#
#
# Convention : Reuss Voigt Hill
#
# Bulk Modulus (GPa) = 33.99169 72.63132 53.31151
# Shear Modulus (GPa) = 20.44997 31.93931 26.19464
#
# Velocity S-wave (km/s) = 3.10173 3.87633 3.51046
# Velocity P-wave (km/s) = 5.36834 7.36234 6.44295
#
# Compressibility (1/GPa) = 0.02941895
#
# Stress axis : x y z
#
# Youngs Moduli (GPa) = 98.52655 40.59176 93.97677
#
# Poissons Ratio (x) = 0.16721 0.28390
# Poissons Ratio (y) = 0.40585 0.08114
# Poissons Ratio (z) = 0.29764 0.03505
#
# Static dielectric constant tensor:
#      x y z
#    x 1.731360 0.008440 -0.011810 
#    y 0.008440 1.853600 -0.010000 
#    z -0.011810 -0.010000 1.726530 
# 
# From -- ./inp_files/145107.got.cif
#   From: 2010.05.17/outbox.cif.g08.bks.cpg/sg2_73_cif.got.tgz:145107.got - 2010.06.03 11:33:40.
