data_PCOD9013141
_publ_section_title
;
Structure prediction by ZEFSAII (Michael W. Deem and Ramdas Pophale) SiO2 
 PCOD9013141
Probable space group: P -1
;
_chemical_formula_sum "Si O2"
_cell_formula_units_Z 16
_cell_length_a 15.076090
_cell_length_b 10.521038
_cell_length_c 13.529206
_cell_angle_alpha 36.089013
_cell_angle_beta 40.360249
_cell_angle_gamma 58.875686
_cell_volume 790.617262
_symmetry_space_group_name_H-M "P -1"
_symmetry_group_IT_number 2
_symmetry_cell_setting 'triclinic'
loop_
_space_group_symop_operation_xyz
x,y,z
-x,-y,-z
loop_
_atom_site_type_symbol
_atom_site_label
_atom_site_fract_x
_atom_site_fract_y
_atom_site_fract_z
Si Si1 0.818652 0.603486 0.024330
Si Si2 0.872984 0.440537 0.282274
Si Si3 0.394492 0.547125 0.142318
Si Si4 0.571834 0.346360 0.259636
Si Si5 0.379506 0.938398 0.790739
Si Si6 0.928454 0.682971 0.492900
Si Si7 0.086989 0.905974 0.402321
Si Si8 0.912857 0.928889 0.020215
O O1 0.788907 0.463365 0.239340
O O2 0.701014 0.515598 0.097040
O O3 0.969741 0.572129 0.877737
O O4 0.833301 0.867016 0.864027
O O5 0.819631 0.230243 0.532163
O O6 0.887839 0.669013 0.184231
O O7 0.453365 0.464983 0.244186
O O8 0.237081 0.405921 0.335241
O O9 0.500000 0.500000 0.000000
O O10 0.402013 0.806365 0.953604
O O11 0.627149 0.229274 0.192131
O O12 0.500972 0.153279 0.519171
O O13 0.234221 0.005713 0.885440
O O14 0.000000 0.500000 0.500000
O O15 0.979277 0.732292 0.531650
O O16 0.991628 0.920972 0.238755
O O17 0.000000 0.000000 0.500000
O O18 0.000000 0.000000 0.000000
#
# Coordination Sequence:
#
# PCOD9013141 Si02
#       8
#     2   2   2   2   2   2   2   2
#     4  10  21  41  63  92 127 167 216 275 317 400
#     4  10  22  38  60  95 124 164 218 263 332 385
#     4  10  23  38  61  97 131 173 218 267 329 392
#     4  10  22  41  65  91 131 169 220 265 334 391
#     4  10  22  41  58  96 129 167 213 273 322 400
#     4  12  23  41  68 100 138 171 220 283 329 389
#     4  10  23  40  63  97 133 172 222 273 330 390
#     4  12  22  37  66  93 133 169 216 274 338 378
#
# _framework density 20.237352999999999
#
# number of rings (size 3 to 8) (size 9 to 14) (size 15 to 20)
#    0.000    1.500    2.500    2.250    7.000    3.000 
#    0.000    0.625    0.000    3.750    0.000    0.000 
#    0.000    0.000    0.000    0.000    0.000    0.000 
#
# Total GULP energy -89291.536130 kJ/mol
# GULP energy per Si atom -5580.721008 kJ/mol
# Density = 2.019129 g / cm^3
# Si number density = 20.237353 Si / 1000 Ang^3
#
#
#
# Elastic Constant Matrix: (Units=GPa)
#
#
# Indices 1 2 3 4 5 6 
#
# 1 113.4081 32.4994 38.4009 -18.9135 0.1161 0.3641
# 2 32.4994 89.8529 30.0650 -21.6679 1.0904 -15.6404
# 3 38.4009 30.0650 87.3783 -18.6322 6.6962 -15.6516
# 4 -18.9135 -21.6679 -18.6322 33.3624 -11.2520 5.5269
# 5 0.1161 1.0904 6.6962 -11.2520 33.0556 -1.7866
# 6 0.3641 -15.6404 -15.6516 5.5269 -1.7866 27.0084
#
#
#
# Elastic Compliance Matrix: (Units=1/GPa)
#
#
# Indices 1 2 3 4 5 6 
#
# 1 0.011771 -0.002712 -0.004448 0.003933 0.002019 -0.004978
# 2 -0.002712 0.015597 -0.001563 0.007515 0.002738 0.006806
# 3 -0.004448 -0.001563 0.016229 0.003736 -0.001533 0.007694
# 4 0.003933 0.007515 0.003736 0.044138 0.013917 -0.001648
# 5 0.002019 0.002738 -0.001533 0.013917 0.035211 0.000151
# 6 -0.004978 0.006806 0.007694 -0.001648 0.000151 0.045840
#
#
# Mechanical properties :
#
#
# Convention : Reuss Voigt Hill
#
# Bulk Modulus (GPa) = 38.23754 54.73000 46.48377
# Shear Modulus (GPa) = 25.64806 31.33019 28.48912
#
# Velocity S-wave (km/s) = 3.56387 3.93891 3.75607
# Velocity P-wave (km/s) = 5.98919 6.91299 6.46760
#
# Compressibility (1/GPa) = 0.02615231
#
# Stress axis : x y z
#
# Youngs Moduli (GPa) = 84.95686 64.11543 61.61775
#
# Poissons Ratio (x) = 0.17386 0.27405
# Poissons Ratio (y) = 0.23037 0.09631
# Poissons Ratio (z) = 0.37785 0.10021
#
# Static dielectric constant tensor:
#      x y z
#    x 1.761030 0.009500 0.071050 
#    y 0.009500 1.698490 -0.012820 
#    z 0.071050 -0.012820 1.784050 
# 
# From -- ./inp_files/495029.got.cif
#   From: 2010.05.17/outbox.cif.g08.bks.cpg/sg2_248_cif.got.tgz:495029.got - 2010.06.03 11:33:40.
