data_PCOD9013783
_publ_section_title
;
Structure prediction by ZEFSAII (Michael W. Deem and Ramdas Pophale) SiO2 
 PCOD9013783
Probable space group: P -1
;
_chemical_formula_sum "Si O2"
_cell_formula_units_Z 16
_cell_length_a 8.915200
_cell_length_b 12.455639
_cell_length_c 8.292786
_cell_angle_alpha 87.904842
_cell_angle_beta 133.819170
_cell_angle_gamma 79.590495
_cell_volume 636.315129
_symmetry_space_group_name_H-M "P -1"
_symmetry_group_IT_number 2
_symmetry_cell_setting 'triclinic'
loop_
_space_group_symop_operation_xyz
x,y,z
-x,-y,-z
loop_
_atom_site_type_symbol
_atom_site_label
_atom_site_fract_x
_atom_site_fract_y
_atom_site_fract_z
Si Si1 0.756805 0.136538 0.665734
Si Si2 0.678241 0.761219 0.471724
Si Si3 0.346042 0.314956 0.038992
Si Si4 0.751323 0.496719 0.819305
Si Si5 0.997775 0.114350 0.188542
Si Si6 0.447473 0.884196 0.978836
Si Si7 0.401607 0.439375 0.752694
Si Si8 0.155737 0.651209 0.407415
O O1 0.513910 0.179857 0.551403
O O2 0.806208 0.227753 0.577798
O O3 0.907795 0.134741 0.937767
O O4 0.826849 0.008368 0.664735
O O5 0.601646 0.820030 0.240530
O O6 0.690621 0.633360 0.443710
O O7 0.893938 0.789310 0.687097
O O8 0.480181 0.187062 0.124886
O O9 0.411319 0.382652 0.935787
O O10 0.096602 0.326948 0.815668
O O11 0.362302 0.375545 0.215509
O O12 0.644395 0.434299 0.877298
O O13 0.723241 0.428167 0.644896
O O14 0.000000 0.500000 0.000000
O O15 0.795298 0.110463 0.149806
O O16 0.500000 0.000000 0.000000
O O17 0.240805 0.565882 0.622396
#
# Coordination Sequence:
#
# PCOD9013783 Si02
#       8
#     2   2   2   2   2   2   2   2
#     4  10  21  41  65  96 134 164 220 278 323 389
#     4  10  22  40  65  94 132 172 219 269 331 397
#     4  10  23  42  63  93 131 176 214 266 336 394
#     4  10  22  40  65  93 127 174 226 265 326 395
#     4  10  22  41  68  94 127 177 218 271 337 383
#     4  10  22  44  64  91 133 170 223 277 322 392
#     4  11  22  43  62  94 140 170 213 275 330 394
#     4  11  22  41  64  96 132 168 217 276 322 387
#
# _framework density 25.144774000000002
#
# number of rings (size 3 to 8) (size 9 to 14) (size 15 to 20)
#    0.000    1.750    1.250    2.250    0.000    3.500 
#    9.000    0.000    0.000    0.000    0.000    0.000 
#    0.000    0.000    0.000    0.000    0.000    0.000 
#
# Total GULP energy -89560.976445 kJ/mol
# GULP energy per Si atom -5597.561028 kJ/mol
# Density = 2.508754 g / cm^3
# Si number density = 25.144774 Si / 1000 Ang^3
#
#
#
# Elastic Constant Matrix: (Units=GPa)
#
#
# Indices 1 2 3 4 5 6 
#
# 1 78.0586 51.4881 34.1377 15.5432 23.1520 1.4000
# 2 51.4881 168.3278 53.4782 5.7641 6.6458 3.8732
# 3 34.1377 53.4782 83.0561 23.6574 24.1295 4.4792
# 4 15.5432 5.7641 23.6574 49.9457 6.8222 -1.0493
# 5 23.1520 6.6458 24.1295 6.8222 31.8424 13.1500
# 6 1.4000 3.8732 4.4792 -1.0493 13.1500 46.7207
#
#
#
# Elastic Compliance Matrix: (Units=1/GPa)
#
#
# Indices 1 2 3 4 5 6 
#
# 1 0.022278 -0.006310 0.000564 -0.004173 -0.016173 0.004260
# 2 -0.006310 0.009595 -0.006551 0.002848 0.007812 -0.002113
# 3 0.000564 -0.006551 0.022690 -0.007985 -0.015582 0.002557
# 4 -0.004173 0.002848 -0.007985 0.024351 0.003142 0.000317
# 5 -0.016173 0.007812 -0.015582 0.003142 0.058940 -0.015188
# 6 0.004260 -0.002113 0.002557 0.000317 -0.015188 0.025488
#
#
# Mechanical properties :
#
#
# Convention : Reuss Voigt Hill
#
# Bulk Modulus (GPa) = 33.36933 67.51676 50.44304
# Shear Modulus (GPa) = 25.26189 38.39099 31.82644
#
# Velocity S-wave (km/s) = 3.17307 3.91167 3.56157
# Velocity P-wave (km/s) = 5.16955 6.87830 6.08421
#
# Compressibility (1/GPa) = 0.02996764
#
# Stress axis : x y z
#
# Youngs Moduli (GPa) = 44.88729 104.22139 44.07261
#
# Poissons Ratio (x) = 0.65765 -0.02485
# Poissons Ratio (y) = 0.28324 0.28873
# Poissons Ratio (z) = -0.02531 0.68279
#
# Static dielectric constant tensor:
#      x y z
#    x 1.976990 0.006660 -0.019700 
#    y 0.006660 2.021430 0.010870 
#    z -0.019700 0.010870 2.086180 
# 
# From -- ./inp_files/187980.got.cif
#   From: 2010.05.17/outbox.cif.g08.bks.cpg/sg2_94_cif.got.tgz:187980.got - 2010.06.03 11:33:40.
