data_PCOD9013583
_publ_section_title
;
Structure prediction by ZEFSAII (Michael W. Deem and Ramdas Pophale) SiO2 
 PCOD9013583
Probable space group: P -1
;
_chemical_formula_sum "Si O2"
_cell_formula_units_Z 16
_cell_length_a 11.518323
_cell_length_b 18.979009
_cell_length_c 9.773349
_cell_angle_alpha 39.979419
_cell_angle_beta 99.669159
_cell_angle_gamma 131.508531
_cell_volume 727.638406
_symmetry_space_group_name_H-M "P -1"
_symmetry_group_IT_number 2
_symmetry_cell_setting 'triclinic'
loop_
_space_group_symop_operation_xyz
x,y,z
-x,-y,-z
loop_
_atom_site_type_symbol
_atom_site_label
_atom_site_fract_x
_atom_site_fract_y
_atom_site_fract_z
Si Si1 0.704269 0.487343 0.737957
Si Si2 0.237283 0.177446 0.193626
Si Si3 0.810675 0.437157 0.101775
Si Si4 0.681217 0.524967 0.132996
Si Si5 0.135003 0.891318 0.146169
Si Si6 0.373563 0.657756 0.354070
Si Si7 0.193626 0.072492 0.619402
Si Si8 0.288821 0.777620 0.350694
O O1 0.697212 0.414559 0.705022
O O2 0.899185 0.731022 0.405421
O O3 0.465030 0.352208 0.902011
O O4 0.723765 0.422518 0.968064
O O5 0.217119 0.065966 0.470621
O O6 0.254256 0.298673 0.113376
O O7 0.029511 0.030155 0.273269
O O8 0.835609 0.565808 0.012052
O O9 0.668784 0.250594 0.455654
O O10 0.000000 0.500000 0.000000
O O11 0.679868 0.488042 0.345755
O O12 0.430327 0.307831 0.357748
O O13 0.132148 0.757375 0.365815
O O14 0.363708 0.112456 0.927433
O O15 0.150188 0.942842 0.915201
O O16 0.240347 0.648451 0.420190
O O17 0.500000 0.000000 0.000000
#
# Coordination Sequence:
#
# PCOD9013583 Si02
#       8
#     2   2   2   2   2   2   2   2
#     4  12  24  40  66  95 136 158 213 272 315 358
#     4  11  24  41  65  96 126 167 221 261 308 377
#     4  11  22  42  66  98 127 164 209 268 315 375
#     4  10  21  44  70  87 128 178 209 249 329 377
#     4  10  21  41  65  89 129 173 209 255 326 375
#     4   9  22  40  62  97 126 170 214 255 314 389
#     4  10  22  41  64  92 125 168 216 259 305 384
#     4   9  19  40  66  85 129 170 211 248 313 389
#
# _framework density 21.988942999999999
#
# number of rings (size 3 to 8) (size 9 to 14) (size 15 to 20)
#    0.000    1.750    2.500    1.875    0.000    3.500 
#    4.500    5.000    0.000    0.000    0.000    0.000 
#    0.000    0.000    0.000    0.000    0.000    0.000 
#
# Total GULP energy -89080.115811 kJ/mol
# GULP energy per Si atom -5567.507238 kJ/mol
# Density = 2.193890 g / cm^3
# Si number density = 21.988943 Si / 1000 Ang^3
#
#
#
# Elastic Constant Matrix: (Units=GPa)
#
#
# Indices 1 2 3 4 5 6 
#
# 1 44.7866 12.9259 15.9946 -0.0469 -0.5840 -0.6630
# 2 12.9259 97.0257 42.1022 14.8158 2.7570 -2.1419
# 3 15.9946 42.1022 99.4184 19.7631 -0.8454 2.6465
# 4 -0.0469 14.8158 19.7631 41.3119 15.1380 -12.5905
# 5 -0.5840 2.7570 -0.8454 15.1380 37.7691 0.5279
# 6 -0.6630 -2.1419 2.6465 -12.5905 0.5279 17.6399
#
#
#
# Elastic Compliance Matrix: (Units=1/GPa)
#
#
# Indices 1 2 3 4 5 6 
#
# 1 0.024454 -0.002031 -0.004158 0.004751 -0.001537 0.004733
# 2 -0.002031 0.012993 -0.004797 -0.002022 -0.000288 0.000786
# 3 -0.004158 -0.004797 0.015223 -0.010729 0.005078 -0.010833
# 4 0.004751 -0.002022 -0.010729 0.048644 -0.020031 0.036862
# 5 -0.001537 -0.000288 0.005078 -0.020031 0.034842 -0.016194
# 6 0.004733 0.000786 -0.010833 0.036862 -0.016194 0.085383
#
#
# Mechanical properties :
#
#
# Convention : Reuss Voigt Hill
#
# Bulk Modulus (GPa) = 32.57420 42.58624 37.58022
# Shear Modulus (GPa) = 19.70496 30.69138 25.19817
#
# Velocity S-wave (km/s) = 2.99679 3.74005 3.38886
# Velocity P-wave (km/s) = 5.17884 6.16926 5.69562
#
# Compressibility (1/GPa) = 0.03069914
#
# Stress axis : x y z
#
# Youngs Moduli (GPa) = 40.89300 76.96466 65.68918
#
# Poissons Ratio (x) = 0.15632 0.27311
# Poissons Ratio (y) = 0.08305 0.31511
# Poissons Ratio (z) = 0.17002 0.36920
#
# Static dielectric constant tensor:
#      x y z
#    x 1.982110 0.049980 -0.053240 
#    y 0.049980 1.805360 -0.027920 
#    z -0.053240 -0.027920 1.887630 
# 
# From -- ./inp_files/282755.got.cif
#   From: 2010.05.17/outbox.cif.g08.bks.cpg/sg2_142_cif.got.tgz:282755.got - 2010.06.03 11:33:40.
