data_PCOD9013954
_publ_section_title
;
Structure prediction by ZEFSAII (Michael W. Deem and Ramdas Pophale) SiO2 
 PCOD9013954
Probable space group: P -1
;
_chemical_formula_sum "Si O2"
_cell_formula_units_Z 12
_cell_length_a 9.538185
_cell_length_b 8.491394
_cell_length_c 9.937711
_cell_angle_alpha 135.075993
_cell_angle_beta 107.084719
_cell_angle_gamma 70.795239
_cell_volume 534.508536
_symmetry_space_group_name_H-M "P -1"
_symmetry_group_IT_number 2
_symmetry_cell_setting 'triclinic'
loop_
_space_group_symop_operation_xyz
x,y,z
-x,-y,-z
loop_
_atom_site_type_symbol
_atom_site_label
_atom_site_fract_x
_atom_site_fract_y
_atom_site_fract_z
Si Si1 0.726873 0.325746 0.985110
Si Si2 0.958125 0.752959 0.079347
Si Si3 0.634666 0.454093 0.328096
Si Si4 0.221753 0.863080 0.594687
Si Si5 0.524545 0.965083 0.645714
Si Si6 0.302650 0.446824 0.172075
O O1 0.686697 0.487655 0.942313
O O2 0.622792 0.138257 0.833099
O O3 0.695676 0.453152 0.193751
O O4 0.900923 0.217946 0.951916
O O5 0.802680 0.738335 0.951664
O O6 0.000000 0.500000 0.000000
O O7 0.919689 0.945467 0.297995
O O8 0.742292 0.285123 0.350431
O O9 0.607587 0.707197 0.531311
O O10 0.470602 0.386018 0.236022
O O11 0.362616 0.983924 0.677272
O O12 0.225638 0.679404 0.365943
O O13 0.500000 0.000000 0.500000
#
# Coordination Sequence:
#
# PCOD9013954 Si02
#       6
#     2   2   2   2   2   2
#     4  11  23  39  64  96 128 164 213 255 307 376
#     4  10  25  40  64  92 130 170 209 251 314 381
#     4  11  24  40  67  96 128 160 210 267 316 360
#     4  11  24  43  64  95 128 166 207 263 318 364
#     4  11  22  39  69  95 121 159 216 260 305 366
#     4  10  21  41  66  92 126 165 213 257 312 370
#
# _framework density 22.450531000000002
#
# number of rings (size 3 to 8) (size 9 to 14) (size 15 to 20)
#    0.000    1.333    3.333    3.500    4.667    8.667 
#    0.000    1.667    0.000    0.000    0.000    0.000 
#    0.000    0.000    0.000    0.000    0.000    0.000 
#
# Total GULP energy -67154.333615 kJ/mol
# GULP energy per Si atom -5596.194468 kJ/mol
# Density = 2.239943 g / cm^3
# Si number density = 22.450531 Si / 1000 Ang^3
#
#
#
# Elastic Constant Matrix: (Units=GPa)
#
#
# Indices 1 2 3 4 5 6 
#
# 1 89.4776 -10.3510 35.6059 9.4258 -12.9588 3.9688
# 2 -10.3510 70.8887 22.8294 -9.6501 -13.5456 -9.8605
# 3 35.6059 22.8294 107.3197 2.5504 -28.6104 -0.3962
# 4 9.4258 -9.6501 2.5504 24.4768 -0.4640 -8.7470
# 5 -12.9588 -13.5456 -28.6104 -0.4640 45.7233 12.9701
# 6 3.9688 -9.8605 -0.3962 -8.7470 12.9701 21.1067
#
#
#
# Elastic Compliance Matrix: (Units=1/GPa)
#
#
# Indices 1 2 3 4 5 6 
#
# 1 0.014744 0.002372 -0.004123 -0.006800 0.004271 -0.007184
# 2 0.002372 0.019772 -0.005468 0.012594 -0.000859 0.014435
# 3 -0.004123 -0.005468 0.014224 -0.005062 0.008580 -0.008882
# 4 -0.006800 0.012594 -0.005062 0.063344 -0.012319 0.040888
# 5 0.004271 -0.000859 0.008580 -0.012319 0.036109 -0.028337
# 6 -0.007184 0.014435 -0.008882 0.040888 -0.028337 0.089664
#
#
# Mechanical properties :
#
#
# Convention : Reuss Voigt Hill
#
# Bulk Modulus (GPa) = 29.15221 40.42828 34.79024
# Shear Modulus (GPa) = 18.95881 32.90147 25.93014
#
# Velocity S-wave (km/s) = 2.90913 3.83235 3.40220
# Velocity P-wave (km/s) = 4.92923 6.13428 5.56447
#
# Compressibility (1/GPa) = 0.03430272
#
# Stress axis : x y z
#
# Youngs Moduli (GPa) = 67.82257 50.57651 70.30468
#
# Poissons Ratio (x) = -0.11996 0.28985
# Poissons Ratio (y) = -0.16086 0.38441
# Poissons Ratio (z) = 0.27962 0.27654
#
# Static dielectric constant tensor:
#      x y z
#    x 1.845820 -0.038370 0.013540 
#    y -0.038370 1.857870 -0.006030 
#    z 0.013540 -0.006030 1.838190 
# 
# From -- ./inp_files/156408.got.cif
#   From: 2010.05.17/outbox.cif.g08.bks.cpg/sg2_79_cif.got.tgz:156408.got - 2010.06.03 11:33:40.
