data_PCOD9013210
_publ_section_title
;
Structure prediction by ZEFSAII (Michael W. Deem and Ramdas Pophale) SiO2 
 PCOD9013210
Probable space group: P -1
;
_chemical_formula_sum "Si O2"
_cell_formula_units_Z 16
_cell_length_a 8.672024
_cell_length_b 16.880603
_cell_length_c 6.776935
_cell_angle_alpha 49.292874
_cell_angle_beta 103.776190
_cell_angle_gamma 99.386106
_cell_volume 730.366379
_symmetry_space_group_name_H-M "P -1"
_symmetry_group_IT_number 2
_symmetry_cell_setting 'triclinic'
loop_
_space_group_symop_operation_xyz
x,y,z
-x,-y,-z
loop_
_atom_site_type_symbol
_atom_site_label
_atom_site_fract_x
_atom_site_fract_y
_atom_site_fract_z
Si Si1 0.889651 0.512556 0.640765
Si Si2 0.005872 0.063679 0.195145
Si Si3 0.441527 0.154320 0.612123
Si Si4 0.270804 0.994592 0.085191
Si Si5 0.049113 0.670437 0.729273
Si Si6 0.648739 0.561227 0.197011
Si Si7 0.155564 0.234089 0.185659
Si Si8 0.618517 0.353384 0.267607
O O1 0.710578 0.529699 0.481860
O O2 0.000000 0.500000 0.500000
O O3 0.948844 0.609928 0.631224
O O4 0.909201 0.412994 0.949839
O O5 0.048180 0.183530 0.066542
O O6 0.150000 0.019710 0.181193
O O7 0.000000 0.000000 0.500000
O O8 0.841702 0.049908 0.051544
O O9 0.588820 0.085533 0.699262
O O10 0.307125 0.162940 0.389987
O O11 0.504536 0.271915 0.478239
O O12 0.359839 0.098600 0.863408
O O13 0.218056 0.702570 0.641592
O O14 0.947544 0.759172 0.657244
O O15 0.658273 0.458000 0.231834
O O16 0.773610 0.651538 0.022142
O O17 0.478928 0.610494 0.014569
#
# Coordination Sequence:
#
# PCOD9013210 Si02
#       8
#     2   2   2   2   2   2   2   2
#     4  11  20  40  64  91 131 182 226 273 323 388
#     4  11  24  45  72 100 127 169 226 282 334 398
#     4  10  23  44  66  99 136 175 215 278 336 394
#     4  10  24  47  72  97 130 173 225 279 340 397
#     4  11  23  37  66  97 129 178 227 275 327 390
#     4  10  21  41  63  95 138 172 218 271 328 402
#     4  11  23  42  67  99 134 172 223 276 333 395
#     4  10  22  40  66  97 139 174 219 274 329 403
#
# _framework density 21.906811999999999
#
# number of rings (size 3 to 8) (size 9 to 14) (size 15 to 20)
#    0.000    1.500    3.750    0.750    1.750    4.000 
#    0.000    3.750    0.000    0.000    0.000    0.000 
#    0.000    0.000    0.000    0.000    0.000    0.000 
#
# Total GULP energy -89433.303954 kJ/mol
# GULP energy per Si atom -5589.581497 kJ/mol
# Density = 2.185695 g / cm^3
# Si number density = 21.906812 Si / 1000 Ang^3
#
#
#
# Elastic Constant Matrix: (Units=GPa)
#
#
# Indices 1 2 3 4 5 6 
#
# 1 117.4099 50.1981 31.7379 4.0853 19.3283 10.8850
# 2 50.1981 108.6567 38.9838 4.4422 -0.7223 22.0928
# 3 31.7379 38.9838 78.6050 -0.7788 10.5572 14.4324
# 4 4.0853 4.4422 -0.7788 32.8332 9.3189 -1.5965
# 5 19.3283 -0.7223 10.5572 9.3189 42.4022 -4.5405
# 6 10.8850 22.0928 14.4324 -1.5965 -4.5405 30.7699
#
#
#
# Elastic Compliance Matrix: (Units=1/GPa)
#
#
# Indices 1 2 3 4 5 6 
#
# 1 0.011950 -0.004873 -0.001541 0.000621 -0.005365 -0.000765
# 2 -0.004873 0.014490 -0.004597 -0.002773 0.003565 -0.006141
# 3 -0.001541 -0.004597 0.017148 0.002312 -0.004664 -0.004766
# 4 0.000621 -0.002773 0.002312 0.033157 -0.008063 0.001217
# 5 -0.005365 0.003565 -0.004664 -0.008063 0.029610 0.005477
# 6 -0.000765 -0.006141 -0.004766 0.001217 0.005477 0.040286
#
#
# Mechanical properties :
#
#
# Convention : Reuss Voigt Hill
#
# Bulk Modulus (GPa) = 46.37105 60.72350 53.54727
# Shear Modulus (GPa) = 28.43299 33.45119 30.94209
#
# Velocity S-wave (km/s) = 3.60656 3.91189 3.76232
# Velocity P-wave (km/s) = 6.20938 6.94140 6.58557
#
# Compressibility (1/GPa) = 0.02156518
#
# Stress axis : x y z
#
# Youngs Moduli (GPa) = 83.68378 69.01363 58.31506
#
# Poissons Ratio (x) = 0.33633 0.08985
# Poissons Ratio (y) = 0.40782 0.26808
# Poissons Ratio (z) = 0.12894 0.31727
#
# Static dielectric constant tensor:
#      x y z
#    x 1.818750 0.002080 -0.010670 
#    y 0.002080 1.785490 -0.037080 
#    z -0.010670 -0.037080 1.838100 
# 
# From -- ./inp_files/46334.got.cif
#   From: 2010.05.17/outbox.cif.g08.bks.cpg/sg2_24_cif.got.tgz:46334.got - 2010.06.03 11:33:40.
