data_PCOD9013511
_publ_section_title
;
Structure prediction by ZEFSAII (Michael W. Deem and Ramdas Pophale) SiO2 
 PCOD9013511
Probable space group: P -1
;
_chemical_formula_sum "Si O2"
_cell_formula_units_Z 16
_cell_length_a 16.197311
_cell_length_b 13.916845
_cell_length_c 5.451796
_cell_angle_alpha 105.045017
_cell_angle_beta 122.555524
_cell_angle_gamma 39.500158
_cell_volume 630.488764
_symmetry_space_group_name_H-M "P -1"
_symmetry_group_IT_number 2
_symmetry_cell_setting 'triclinic'
loop_
_space_group_symop_operation_xyz
x,y,z
-x,-y,-z
loop_
_atom_site_type_symbol
_atom_site_label
_atom_site_fract_x
_atom_site_fract_y
_atom_site_fract_z
Si Si1 0.608334 0.255000 0.212852
Si Si2 0.066189 0.701577 0.235373
Si Si3 0.147136 0.822295 0.728068
Si Si4 0.773524 0.787291 0.908102
Si Si5 0.429507 0.871798 0.303664
Si Si6 0.852315 0.012695 0.815452
Si Si7 0.819816 0.637828 0.374327
Si Si8 0.343142 0.402667 0.163134
O O1 0.688567 0.279733 0.205073
O O2 0.761864 0.081663 0.461327
O O3 0.469483 0.386416 0.269557
O O4 0.522166 0.235848 0.913707
O O5 0.107172 0.740606 0.555343
O O6 0.222132 0.535860 0.259379
O O7 0.935165 0.723464 0.105761
O O8 0.995196 0.830473 0.994825
O O9 0.145621 0.872713 0.027578
O O10 0.000000 0.000000 0.500000
O O11 0.785885 0.701890 0.638752
O O12 0.628875 0.974108 0.752542
O O13 0.754401 0.760116 0.133392
O O14 0.274634 0.935095 0.174091
O O15 0.548161 0.765516 0.642509
O O16 0.000000 0.500000 0.500000
O O17 0.760402 0.573746 0.185053
#
# Coordination Sequence:
#
# PCOD9013511 Si02
#       8
#     2   2   2   2   2   2   2   2
#     4  10  21  41  65  93 141 173 223 294 341 415
#     4  10  21  41  65 100 132 180 229 285 356 410
#     4   9  19  39  64  99 131 175 233 280 344 416
#     4  11  26  47  74 101 137 187 241 289 341 415
#     4   9  22  41  65  93 132 179 228 279 343 413
#     4   8  18  39  63  96 125 172 229 282 334 414
#     4  12  27  47  73 106 142 179 236 295 351 411
#     4  11  25  41  65  97 140 179 226 292 357 412
#
# _framework density 25.377134999999999
#
# number of rings (size 3 to 8) (size 9 to 14) (size 15 to 20)
#    0.000    2.000    1.250    1.125    7.000    3.500 
#    2.250    5.625    0.000    0.000    0.000    0.000 
#    0.000    0.000    0.000    0.000    0.000    0.000 
#
# Total GULP energy -89375.248714 kJ/mol
# GULP energy per Si atom -5585.953045 kJ/mol
# Density = 2.531938 g / cm^3
# Si number density = 25.377135 Si / 1000 Ang^3
#
#
#
# Elastic Constant Matrix: (Units=GPa)
#
#
# Indices 1 2 3 4 5 6 
#
# 1 116.1214 32.0201 18.8740 2.0356 12.3595 -21.4938
# 2 32.0201 61.7338 13.9640 -3.6980 24.2744 -4.1905
# 3 18.8740 13.9640 95.9424 8.1384 20.6906 7.4654
# 4 2.0356 -3.6980 8.1384 24.9136 2.0818 12.2119
# 5 12.3595 24.2744 20.6906 2.0818 30.3132 -4.6206
# 6 -21.4938 -4.1905 7.4654 12.2119 -4.6206 31.4045
#
#
#
# Elastic Compliance Matrix: (Units=1/GPa)
#
#
# Indices 1 2 3 4 5 6 
#
# 1 0.013135 -0.007902 -0.002901 -0.007865 0.005395 0.012478
# 2 -0.007902 0.029211 0.002313 0.011089 -0.024020 -0.009907
# 3 -0.002901 0.002313 0.013498 0.000327 -0.010914 -0.006619
# 4 -0.007865 0.011089 0.000327 0.057423 -0.014168 -0.028395
# 5 0.005395 -0.024020 -0.010914 -0.014168 0.061128 0.017585
# 6 0.012478 -0.009907 -0.006619 -0.028395 0.017585 0.054263
#
#
# Mechanical properties :
#
#
# Convention : Reuss Voigt Hill
#
# Bulk Modulus (GPa) = 25.73039 44.83486 35.28263
# Shear Modulus (GPa) = 19.33548 31.25557 25.29552
#
# Velocity S-wave (km/s) = 2.76329 3.51328 3.16061
# Velocity P-wave (km/s) = 4.51024 5.84494 5.22042
#
# Compressibility (1/GPa) = 0.03886455
#
# Stress axis : x y z
#
# Youngs Moduli (GPa) = 76.12966 34.23376 74.08586
#
# Poissons Ratio (x) = 0.27053 0.21492
# Poissons Ratio (y) = 0.60160 -0.17139
# Poissons Ratio (z) = 0.22085 -0.07920
#
# Static dielectric constant tensor:
#      x y z
#    x 2.070050 0.009850 -0.000250 
#    y 0.009850 2.035000 0.107090 
#    z -0.000250 0.107090 2.162270 
# 
# From -- ./inp_files/94328.got.cif
#   From: 2010.05.17/outbox.cif.g08.bks.cpg/sg2_48_cif.got.tgz:94328.got - 2010.06.03 11:33:40.
