data_PCOD9013160
_publ_section_title
;
Structure prediction by ZEFSAII (Michael W. Deem and Ramdas Pophale) SiO2 
 PCOD9013160
Probable space group: P -1
;
_chemical_formula_sum "Si O2"
_cell_formula_units_Z 16
_cell_length_a 10.472393
_cell_length_b 8.377574
_cell_length_c 8.891391
_cell_angle_alpha 66.674821
_cell_angle_beta 107.621258
_cell_angle_gamma 93.098972
_cell_volume 680.774203
_symmetry_space_group_name_H-M "P -1"
_symmetry_group_IT_number 2
_symmetry_cell_setting 'triclinic'
loop_
_space_group_symop_operation_xyz
x,y,z
-x,-y,-z
loop_
_atom_site_type_symbol
_atom_site_label
_atom_site_fract_x
_atom_site_fract_y
_atom_site_fract_z
Si Si1 0.644413 0.962889 0.984591
Si Si2 0.440225 0.522228 0.642956
Si Si3 0.117408 0.769058 0.719752
Si Si4 0.773325 0.890484 0.347779
Si Si5 0.481060 0.885943 0.680437
Si Si6 0.316287 0.656723 0.074344
Si Si7 0.129499 0.604627 0.474958
Si Si8 0.138731 0.421816 0.274848
O O1 0.707040 0.152208 0.925929
O O2 0.606704 0.886271 0.839472
O O3 0.736061 0.848423 0.178136
O O4 0.500000 0.000000 0.000000
O O5 0.500000 0.500000 0.500000
O O6 0.460995 0.701177 0.668856
O O7 0.525488 0.383177 0.827751
O O8 0.280907 0.519222 0.578744
O O9 0.111318 0.974127 0.673471
O O10 0.120562 0.746685 0.549382
O O11 0.999861 0.659251 0.789471
O O12 0.254364 0.686690 0.876542
O O13 0.646514 0.011162 0.322303
O O14 0.804519 0.733960 0.533873
O O15 0.500000 0.000000 0.500000
O O16 0.247290 0.486510 0.174780
O O17 0.113494 0.605350 0.289356
O O18 0.000000 0.500000 0.500000
#
# Coordination Sequence:
#
# PCOD9013160 Si02
#       8
#     2   2   2   2   2   2   2   2
#     4   9  22  40  58  90 139 172 208 272 342 381
#     4  12  23  39  65 100 129 168 222 272 329 391
#     4  10  22  43  62  97 132 176 216 272 332 395
#     4  10  21  41  63  93 128 179 219 270 323 400
#     4  11  22  37  61  94 135 169 216 274 336 390
#     4  11  23  39  66  98 132 167 216 281 330 389
#     4  10  23  41  63  92 134 172 217 269 326 393
#     4  11  22  39  68  93 132 177 222 265 334 397
#
# _framework density 23.502654
#
# number of rings (size 3 to 8) (size 9 to 14) (size 15 to 20)
#    0.000    1.500    2.500    2.250    3.500    1.500 
#    0.000    0.000    0.000    0.000    0.000   15.750 
#    0.000    0.000    0.000    0.000    0.000    0.000 
#
# Total GULP energy -89107.375115 kJ/mol
# GULP energy per Si atom -5569.210945 kJ/mol
# Density = 2.344916 g / cm^3
# Si number density = 23.502654 Si / 1000 Ang^3
#
#
#
# Elastic Constant Matrix: (Units=GPa)
#
#
# Indices 1 2 3 4 5 6 
#
# 1 106.0582 23.4014 33.5599 -1.3719 7.3036 12.5790
# 2 23.4014 120.3858 52.9400 15.5572 -0.3732 23.1177
# 3 33.5599 52.9400 110.3359 8.6277 11.0869 15.5060
# 4 -1.3719 15.5572 8.6277 48.6978 9.9086 -1.8834
# 5 7.3036 -0.3732 11.0869 9.9086 32.7679 -2.9361
# 6 12.5790 23.1177 15.5060 -1.8834 -2.9361 36.2192
#
#
#
# Elastic Compliance Matrix: (Units=1/GPa)
#
#
# Indices 1 2 3 4 5 6 
#
# 1 0.010826 -0.000740 -0.002495 0.001339 -0.002191 -0.002327
# 2 -0.000740 0.012083 -0.004778 -0.003767 0.002575 -0.005397
# 3 -0.002495 -0.004778 0.012784 -0.000074 -0.003970 -0.001882
# 4 0.001339 -0.003767 -0.000074 0.023343 -0.007142 0.002606
# 5 -0.002191 0.002575 -0.003970 -0.007142 0.034831 0.003269
# 6 -0.002327 -0.005397 -0.001882 0.002606 0.003269 0.033069
#
#
# Mechanical properties :
#
#
# Convention : Reuss Voigt Hill
#
# Bulk Modulus (GPa) = 50.84972 61.84252 56.34612
# Shear Modulus (GPa) = 33.44100 38.66223 36.05161
#
# Velocity S-wave (km/s) = 3.77617 4.06028 3.92080
# Velocity P-wave (km/s) = 6.37929 6.95351 6.67258
#
# Compressibility (1/GPa) = 0.01966579
#
# Stress axis : x y z
#
# Youngs Moduli (GPa) = 92.37162 82.76277 78.22305
#
# Poissons Ratio (x) = 0.06125 0.19519
# Poissons Ratio (y) = 0.06836 0.37375
# Poissons Ratio (z) = 0.23049 0.39544
#
# Static dielectric constant tensor:
#      x y z
#    x 1.965040 0.188820 -0.083840 
#    y 0.188820 1.673340 0.046470 
#    z -0.083840 0.046470 2.008030 
# 
# From -- ./inp_files/237873.got.cif
#   From: 2010.05.17/outbox.cif.g08.bks.cpg/sg2_119_cif.got.tgz:237873.got - 2010.06.03 11:33:40.
