data_PCOD9013385
_publ_section_title
;
Structure prediction by ZEFSAII (Michael W. Deem and Ramdas Pophale) SiO2 
 PCOD9013385
Probable space group: P -1
;
_chemical_formula_sum "Si O2"
_cell_formula_units_Z 14
_cell_length_a 10.381943
_cell_length_b 11.447330
_cell_length_c 14.172680
_cell_angle_alpha 31.368206
_cell_angle_beta 49.477728
_cell_angle_gamma 39.276129
_cell_volume 554.724750
_symmetry_space_group_name_H-M "P -1"
_symmetry_group_IT_number 2
_symmetry_cell_setting 'triclinic'
loop_
_space_group_symop_operation_xyz
x,y,z
-x,-y,-z
loop_
_atom_site_type_symbol
_atom_site_label
_atom_site_fract_x
_atom_site_fract_y
_atom_site_fract_z
Si Si1 0.672627 0.363598 0.153241
Si Si2 0.565680 0.783402 0.229410
Si Si3 0.354146 0.790438 0.145361
Si Si4 0.171763 0.099502 0.455265
Si Si5 0.836933 0.464126 0.491543
Si Si6 0.851527 0.695141 0.855270
Si Si7 0.413465 0.012267 0.637360
O O1 0.457230 0.595947 0.140880
O O2 0.642774 0.205620 0.193646
O O3 0.788315 0.156465 0.328978
O O4 0.783815 0.506984 0.972298
O O5 0.527246 0.684481 0.218009
O O6 0.674075 0.574435 0.406483
O O7 0.340537 0.037651 0.189949
O O8 0.694675 0.917182 0.058039
O O9 0.180954 0.758078 0.291552
O O10 0.057390 0.209834 0.334255
O O11 0.391448 0.038443 0.364971
O O12 0.050821 0.334457 0.427786
O O13 0.769461 0.710226 0.423933
O O14 0.000000 0.500000 0.000000
O O15 0.500000 0.000000 0.500000
#
# Coordination Sequence:
#
# PCOD9013385 Si02
#       7
#     2   2   2   2   2   2   2
#     4  10  23  45  70  93 134 180 216 276 334 379
#     4  10  23  41  64  93 137 175 221 271 330 395
#     4  10  21  41  64  93 127 179 215 269 333 385
#     4  11  25  41  68 102 131 172 225 269 328 397
#     4  12  23  41  68  98 133 174 218 275 333 388
#     4  11  25  44  66  98 138 174 222 274 329 397
#     4  10  21  47  67  95 136 172 228 267 326 398
#
# _framework density 25.237742000000001
#
# number of rings (size 3 to 8) (size 9 to 14) (size 15 to 20)
#    0.000    1.429    4.286    0.429    8.000    3.429 
#    0.000    0.714    0.000    0.000    0.000    0.000 
#    0.000    0.000    0.000    0.000    0.000    0.000 
#
# Total GULP energy -78282.341194 kJ/mol
# GULP energy per Si atom -5591.595800 kJ/mol
# Density = 2.518030 g / cm^3
# Si number density = 25.237742 Si / 1000 Ang^3
#
#
#
# Elastic Constant Matrix: (Units=GPa)
#
#
# Indices 1 2 3 4 5 6 
#
# 1 13.8521 14.9306 -6.1062 -3.7065 -4.8524 4.1630
# 2 14.9306 137.1534 9.8414 -0.0903 -15.5588 -0.1032
# 3 -6.1062 9.8414 123.6685 9.9041 0.0582 -0.3623
# 4 -3.7065 -0.0903 9.9041 26.2599 8.6871 2.1873
# 5 -4.8524 -15.5588 0.0582 8.6871 45.1770 -6.9685
# 6 4.1630 -0.1032 -0.3623 2.1873 -6.9685 31.7410
#
#
#
# Elastic Compliance Matrix: (Units=1/GPa)
#
#
# Indices 1 2 3 4 5 6 
#
# 1 0.092751 -0.010155 0.004416 0.011669 0.002295 -0.012448
# 2 -0.010155 0.008771 -0.001029 -0.002063 0.002648 0.002072
# 3 0.004416 -0.001029 0.008611 -0.002823 0.000628 -0.000152
# 4 0.011669 -0.002063 -0.002823 0.044310 -0.008992 -0.006597
# 5 0.002295 0.002648 0.000628 -0.008992 0.025952 0.006032
# 6 -0.012448 0.002072 -0.000152 -0.006597 0.006032 0.034922
#
#
# Mechanical properties :
#
#
# Convention : Reuss Voigt Hill
#
# Bulk Modulus (GPa) = 10.35242 34.66730 22.50986
# Shear Modulus (GPa) = 19.15326 37.70280 28.42803
#
# Velocity S-wave (km/s) = 2.75783 3.86930 3.35984
# Velocity P-wave (km/s) = 3.77514 5.80759 4.89795
#
# Compressibility (1/GPa) = 0.09659574
#
# Stress axis : x y z
#
# Youngs Moduli (GPa) = 10.78160 114.01205 116.12466
#
# Poissons Ratio (x) = 1.15779 -0.51277
# Poissons Ratio (y) = 0.10949 0.11953
# Poissons Ratio (z) = -0.04761 0.11735
#
# Static dielectric constant tensor:
#      x y z
#    x 2.255870 -0.026690 0.066650 
#    y -0.026690 1.945490 -0.008480 
#    z 0.066650 -0.008480 1.964080 
# 
# From -- ./inp_files/514149.got.cif
#   From: 2010.05.17/outbox.cif.g08.bks.cpg/sg2_258_cif.got.tgz:514149.got - 2010.06.03 11:33:40.
