data_PCOD9013297
_publ_section_title
;
Structure prediction by ZEFSAII (Michael W. Deem and Ramdas Pophale) SiO2 
 PCOD9013297
Probable space group: P -1
;
_chemical_formula_sum "Si O2"
_cell_formula_units_Z 14
_cell_length_a 27.585351
_cell_length_b 5.976194
_cell_length_c 29.672154
_cell_angle_alpha 126.786536
_cell_angle_beta 8.755907
_cell_angle_gamma 127.950862
_cell_volume 585.520954
_symmetry_space_group_name_H-M "P -1"
_symmetry_group_IT_number 2
_symmetry_cell_setting 'triclinic'
loop_
_space_group_symop_operation_xyz
x,y,z
-x,-y,-z
loop_
_atom_site_type_symbol
_atom_site_label
_atom_site_fract_x
_atom_site_fract_y
_atom_site_fract_z
Si Si1 0.526133 0.397157 0.666035
Si Si2 0.237210 0.175476 0.245727
Si Si3 0.619409 0.696498 0.307296
Si Si4 0.819224 0.229213 0.920671
Si Si5 0.239806 0.219244 0.717877
Si Si6 0.543454 0.176402 0.870384
Si Si7 0.107041 0.126918 0.733054
O O1 0.289315 0.340465 0.832977
O O2 0.819895 0.658001 0.415804
O O3 0.699088 0.129962 0.480334
O O4 0.339499 0.493701 0.891275
O O5 0.323808 0.494369 0.224311
O O6 0.855845 0.062016 0.589096
O O7 0.289372 0.187052 0.145128
O O8 0.500000 0.000000 0.000000
O O9 0.868023 0.744669 0.126843
O O10 0.359478 0.416363 0.524790
O O11 0.430153 0.958030 0.512353
O O12 0.842501 0.099436 0.933527
O O13 0.616439 0.012468 0.046414
O O14 0.500000 0.500000 0.500000
O O15 0.005243 0.157069 0.882599
#
# Coordination Sequence:
#
# PCOD9013297 Si02
#       7
#     2   2   2   2   2   2   2
#     4  10  22  38  57  83 119 157 199 244 292 346
#     4  10  21  41  64  89 119 152 190 238 286 338
#     4   8  15  30  54  82 114 151 198 251 294 343
#     4  11  23  39  58  87 121 155 194 238 287 349
#     4   8  13  27  55  84 112 151 199 246 299 347
#     4  10  22  38  61  91 120 151 194 237 283 344
#     4   9  19  35  56  82 117 157 196 243 296 350
#
# _framework density 23.910330999999999
#
# number of rings (size 3 to 8) (size 9 to 14) (size 15 to 20)
#    0.000    2.571    0.000    1.286    0.000    4.571 
#    0.000    0.714    0.000   77.143    0.000    0.000 
#    0.000    0.000    0.000    0.000    0.000    0.000 
#
# Total GULP energy -78328.155296 kJ/mol
# GULP energy per Si atom -5594.868235 kJ/mol
# Density = 2.385591 g / cm^3
# Si number density = 23.910331 Si / 1000 Ang^3
#
#
#
# Elastic Constant Matrix: (Units=GPa)
#
#
# Indices 1 2 3 4 5 6 
#
# 1 112.0991 73.7532 36.9941 -5.5610 -19.7254 34.6201
# 2 73.7532 117.1972 39.3085 8.0362 -23.4438 23.0548
# 3 36.9941 39.3085 113.0348 3.5104 -0.1726 13.7639
# 4 -5.5610 8.0362 3.5104 31.0139 -0.7565 -8.0966
# 5 -19.7254 -23.4438 -0.1726 -0.7565 40.3747 1.1928
# 6 34.6201 23.0548 13.7639 -8.0966 1.1928 48.2446
#
#
#
# Elastic Compliance Matrix: (Units=1/GPa)
#
#
# Indices 1 2 3 4 5 6 
#
# 1 0.019124 -0.009077 -0.002223 0.004002 0.004380 -0.008188
# 2 -0.009077 0.016975 -0.002483 -0.006151 0.005357 -0.002055
# 3 -0.002223 -0.002483 0.010509 -0.001094 -0.002493 -0.000338
# 4 0.004002 -0.006151 -0.001094 0.036350 -0.001132 0.006508
# 5 0.004380 0.005357 -0.002493 -0.001132 0.030162 -0.005928
# 6 -0.008188 -0.002055 -0.000338 0.006508 -0.005928 0.028921
#
#
# Mechanical properties :
#
#
# Convention : Reuss Voigt Hill
#
# Bulk Modulus (GPa) = 52.51331 71.38249 61.94790
# Shear Modulus (GPa) = 28.41624 36.74498 32.58061
#
# Velocity S-wave (km/s) = 3.45113 3.92443 3.69537
# Velocity P-wave (km/s) = 6.15554 7.10310 6.64623
#
# Compressibility (1/GPa) = 0.01904279
#
# Stress axis : x y z
#
# Youngs Moduli (GPa) = 52.28908 58.90928 95.15415
#
# Poissons Ratio (x) = 0.53472 0.21153
# Poissons Ratio (y) = 0.47463 0.23628
# Poissons Ratio (z) = 0.11624 0.14628
#
# Static dielectric constant tensor:
#      x y z
#    x 1.954480 -0.054720 0.001940 
#    y -0.054720 1.914400 0.011560 
#    z 0.001940 0.011560 1.900020 
# 
# From -- ./inp_files/9515.got.cif
#   From: 2010.05.17/outbox.cif.g08.bks.cpg/sg2_5_cif.got.tgz:9515.got - 2010.06.03 11:33:40.
