data_PCOD9013647
_publ_section_title
;
Structure prediction by ZEFSAII (Michael W. Deem and Ramdas Pophale) SiO2 
 PCOD9013647
Probable space group: P -1
;
_chemical_formula_sum "Si O2"
_cell_formula_units_Z 16
_cell_length_a 15.870375
_cell_length_b 5.451106
_cell_length_c 16.232384
_cell_angle_alpha 89.010150
_cell_angle_beta 146.205611
_cell_angle_gamma 76.900137
_cell_volume 703.821460
_symmetry_space_group_name_H-M "P -1"
_symmetry_group_IT_number 2
_symmetry_cell_setting 'triclinic'
loop_
_space_group_symop_operation_xyz
x,y,z
-x,-y,-z
loop_
_atom_site_type_symbol
_atom_site_label
_atom_site_fract_x
_atom_site_fract_y
_atom_site_fract_z
Si Si1 0.147192 0.691497 0.706498
Si Si2 0.700932 0.561000 0.490642
Si Si3 0.802549 0.180316 0.434801
Si Si4 0.181875 0.411038 0.240925
Si Si5 0.627204 0.475990 0.747320
Si Si6 0.328328 0.070461 0.911833
Si Si7 0.520708 0.904206 0.793941
Si Si8 0.133991 0.088885 0.069853
O O1 0.176868 0.679706 0.632434
O O2 0.210876 0.388196 0.794634
O O3 0.245059 0.865924 0.820901
O O4 0.948513 0.874759 0.556359
O O5 0.824829 0.327535 0.533504
O O6 0.777480 0.637999 0.630933
O O7 0.265421 0.830236 0.129803
O O8 0.596841 0.817022 0.347813
O O9 0.614534 0.201824 0.282395
O O10 0.295813 0.516834 0.279122
O O11 0.217717 0.146028 0.218184
O O12 0.986037 0.626759 0.072226
O O13 0.632729 0.693053 0.816113
O O14 0.565674 0.462728 0.416421
O O15 0.378512 0.053044 0.048622
O O16 0.500000 0.000000 0.000000
O O17 0.000000 0.000000 0.000000
#
# Coordination Sequence:
#
# PCOD9013647 Si02
#       8
#     2   2   2   2   2   2   2   2
#     4  11  26  46  76 102 141 187 231 282 347 417
#     4  11  24  41  65  95 134 170 226 280 340 406
#     4  10  25  45  67 101 137 179 226 284 341 410
#     4  10  21  41  65  92 124 177 219 276 342 404
#     4  10  22  40  63  93 126 174 217 284 334 405
#     4  12  25  45  74 106 137 186 231 284 348 411
#     4  11  25  41  66  98 139 174 231 284 340 412
#     4   9  20  39  62  87 123 165 221 274 330 407
#
# _framework density 22.733039999999999
#
# number of rings (size 3 to 8) (size 9 to 14) (size 15 to 20)
#    0.000    1.500    1.250    2.250    5.250    8.000 
#    6.750    0.000    0.000    0.000    0.000    0.000 
#    0.000    0.000    0.000    0.000    0.000    0.000 
#
# Total GULP energy -89429.153394 kJ/mol
# GULP energy per Si atom -5589.322087 kJ/mol
# Density = 2.268130 g / cm^3
# Si number density = 22.733040 Si / 1000 Ang^3
#
#
#
# Elastic Constant Matrix: (Units=GPa)
#
#
# Indices 1 2 3 4 5 6 
#
# 1 75.9788 26.3366 36.6898 -7.8202 -11.5737 -24.5261
# 2 26.3366 79.2886 15.5103 -3.2214 -9.4935 -3.4910
# 3 36.6898 15.5103 73.6383 2.8601 -21.6691 -12.6745
# 4 -7.8202 -3.2214 2.8601 33.8206 -4.9267 0.5244
# 5 -11.5737 -9.4935 -21.6691 -4.9267 37.6818 3.8675
# 6 -24.5261 -3.4910 -12.6745 0.5244 3.8675 30.9392
#
#
#
# Elastic Compliance Matrix: (Units=1/GPa)
#
#
# Indices 1 2 3 4 5 6 
#
# 1 0.024949 -0.005622 -0.008691 0.005791 0.000422 0.015432
# 2 -0.005622 0.014666 -0.000191 0.000490 0.002248 -0.003169
# 3 -0.008691 -0.000191 0.020734 -0.002504 0.008825 0.000522
# 4 0.005791 0.000490 -0.002504 0.031760 0.004354 0.002537
# 5 0.000422 0.002248 0.008825 0.004354 0.032876 0.000020
# 6 0.015432 -0.003169 0.000522 0.002537 0.000020 0.044365
#
#
# Mechanical properties :
#
#
# Convention : Reuss Voigt Hill
#
# Bulk Modulus (GPa) = 31.90667 42.88657 37.39662
# Shear Modulus (GPa) = 23.94566 30.51291 27.22929
#
# Velocity S-wave (km/s) = 3.24904 3.66762 3.46466
# Velocity P-wave (km/s) = 5.30480 6.06972 5.70010
#
# Compressibility (1/GPa) = 0.03134140
#
# Stress axis : x y z
#
# Youngs Moduli (GPa) = 40.08217 68.18329 48.22894
#
# Poissons Ratio (x) = 0.38330 0.41916
# Poissons Ratio (y) = 0.22533 0.00923
# Poissons Ratio (z) = 0.34836 0.01304
#
# Static dielectric constant tensor:
#      x y z
#    x 1.897880 0.088070 0.016700 
#    y 0.088070 1.945550 -0.021010 
#    z 0.016700 -0.021010 1.841370 
# 
# From -- ./inp_files/139054.got.cif
#   From: 2010.05.17/outbox.cif.g08.bks.cpg/sg2_70_cif.got.tgz:139054.got - 2010.06.03 11:33:40.
