data_PCOD9013704
_publ_section_title
;
Structure prediction by ZEFSAII (Michael W. Deem and Ramdas Pophale) SiO2 
 PCOD9013704
Probable space group: P -1
;
_chemical_formula_sum "Si O2"
_cell_formula_units_Z 16
_cell_length_a 7.611155
_cell_length_b 18.892408
_cell_length_c 16.006205
_cell_angle_alpha 21.268325
_cell_angle_beta 57.841913
_cell_angle_gamma 67.075950
_cell_volume 662.921624
_symmetry_space_group_name_H-M "P -1"
_symmetry_group_IT_number 2
_symmetry_cell_setting 'triclinic'
loop_
_space_group_symop_operation_xyz
x,y,z
-x,-y,-z
loop_
_atom_site_type_symbol
_atom_site_label
_atom_site_fract_x
_atom_site_fract_y
_atom_site_fract_z
Si Si1 0.375569 0.060450 0.193392
Si Si2 0.506088 0.767545 0.745652
Si Si3 0.656467 0.895642 0.185853
Si Si4 0.085513 0.087650 0.615991
Si Si5 0.748086 0.343984 0.236520
Si Si6 0.317588 0.491087 0.751587
Si Si7 0.122817 0.651012 0.085708
Si Si8 0.017373 0.246247 0.631212
O O1 0.577490 0.021681 0.138509
O O2 0.166695 0.978795 0.274072
O O3 0.295950 0.901594 0.465969
O O4 0.404737 0.298686 0.939681
O O5 0.378970 0.657263 0.815568
O O6 0.500000 0.000000 0.500000
O O7 0.760654 0.804410 0.620240
O O8 0.358772 0.658886 0.981054
O O9 0.451850 0.688182 0.443517
O O10 0.831737 0.801128 0.284466
O O11 0.780051 0.064849 0.899691
O O12 0.114902 0.223026 0.541715
O O13 0.140918 0.882717 0.850992
O O14 0.658041 0.417168 0.262433
O O15 0.000000 0.500000 0.000000
O O16 0.062720 0.409885 0.874414
O O17 0.030777 0.483433 0.365995
#
# Coordination Sequence:
#
# PCOD9013704 Si02
#       8
#     2   2   2   2   2   2   2   2
#     4  10  23  42  63  94 132 166 209 266 320 384
#     4  10  22  42  60  93 134 169 213 258 310 376
#     4  10  24  42  63  91 121 164 215 265 329 385
#     4  10  22  40  63  93 127 166 210 260 320 382
#     4  11  21  39  65  93 131 174 217 257 307 379
#     4  10  21  41  65  94 126 165 214 260 318 381
#     4  10  22  41  61  91 125 166 211 260 319 379
#     4  11  23  42  64  88 122 162 214 274 321 377
#
# _framework density 24.135583
#
# number of rings (size 3 to 8) (size 9 to 14) (size 15 to 20)
#    0.000    1.750    1.250    3.000    0.000    7.000 
#    4.500    5.000    0.000    0.000    0.000    0.000 
#    0.000    0.000    0.000    0.000    0.000    0.000 
#
# Total GULP energy -89490.783302 kJ/mol
# GULP energy per Si atom -5593.173956 kJ/mol
# Density = 2.408065 g / cm^3
# Si number density = 24.135583 Si / 1000 Ang^3
#
#
#
# Elastic Constant Matrix: (Units=GPa)
#
#
# Indices 1 2 3 4 5 6 
#
# 1 52.2570 9.8256 12.3814 -5.5048 2.1931 0.6502
# 2 9.8256 32.2195 37.2178 -7.6910 -0.5820 -10.9905
# 3 12.3814 37.2178 178.1142 -9.6583 8.3051 -23.4095
# 4 -5.5048 -7.6910 -9.6583 32.4210 -5.0543 -4.6926
# 5 2.1931 -0.5820 8.3051 -5.0543 42.3099 -5.8316
# 6 0.6502 -10.9905 -23.4095 -4.6926 -5.8316 22.9980
#
#
#
# Elastic Compliance Matrix: (Units=1/GPa)
#
#
# Indices 1 2 3 4 5 6 
#
# 1 0.020827 -0.007368 -0.000426 0.000701 -0.001679 -0.004827
# 2 -0.007368 0.052588 -0.007095 0.013527 0.007245 0.022715
# 3 -0.000426 -0.007095 0.007832 0.001112 -0.000845 0.004606
# 4 0.000701 0.013527 0.001112 0.038039 0.006828 0.017070
# 5 -0.001679 0.007245 -0.000845 0.006828 0.026279 0.010706
# 6 -0.004827 0.022715 0.004606 0.017070 0.010706 0.065360
#
#
# Mechanical properties :
#
#
# Convention : Reuss Voigt Hill
#
# Bulk Modulus (GPa) = 19.42987 42.38227 30.90607
# Shear Modulus (GPa) = 19.39036 33.09018 26.24027
#
# Velocity S-wave (km/s) = 2.83749 3.70674 3.30085
# Velocity P-wave (km/s) = 4.33624 5.99317 5.23073
#
# Compressibility (1/GPa) = 0.05146715
#
# Stress axis : x y z
#
# Youngs Moduli (GPa) = 48.01468 19.01563 127.68689
#
# Poissons Ratio (x) = 0.14012 0.05441
# Poissons Ratio (y) = 0.35380 0.90597
# Poissons Ratio (z) = 0.02046 0.13492
#
# Static dielectric constant tensor:
#      x y z
#    x 1.942040 -0.034340 0.016840 
#    y -0.034340 1.895860 0.013160 
#    z 0.016840 0.013160 1.977950 
# 
# From -- ./inp_files/562516.got.cif
#   From: 2010.05.17/outbox.cif.g08.bks.cpg/sg2_282_cif.got.tgz:562516.got - 2010.06.03 11:33:40.
