data_PCOD9013309
_publ_section_title
;
Structure prediction by ZEFSAII (Michael W. Deem and Ramdas Pophale) SiO2 
 PCOD9013309
Probable space group: P -1
;
_chemical_formula_sum "Si O2"
_cell_formula_units_Z 16
_cell_length_a 9.076432
_cell_length_b 18.731579
_cell_length_c 7.469191
_cell_angle_alpha 132.170890
_cell_angle_beta 111.730227
_cell_angle_gamma 45.957823
_cell_volume 665.352841
_symmetry_space_group_name_H-M "P -1"
_symmetry_group_IT_number 2
_symmetry_cell_setting 'triclinic'
loop_
_space_group_symop_operation_xyz
x,y,z
-x,-y,-z
loop_
_atom_site_type_symbol
_atom_site_label
_atom_site_fract_x
_atom_site_fract_y
_atom_site_fract_z
Si Si1 0.197116 0.215683 0.505703
Si Si2 0.530394 0.696575 0.896051
Si Si3 0.821938 0.301279 0.221985
Si Si4 0.462339 0.767760 0.399114
Si Si5 0.622084 0.524718 0.228737
Si Si6 0.953574 0.580901 0.941229
Si Si7 0.728390 0.025502 0.828922
Si Si8 0.944005 0.977735 0.225187
O O1 0.358163 0.222148 0.487612
O O2 0.131710 0.288657 0.786505
O O3 0.308397 0.072277 0.362414
O O4 0.992817 0.276414 0.393879
O O5 0.508703 0.703001 0.114986
O O6 0.771152 0.594896 0.781689
O O7 0.465187 0.828641 0.031735
O O8 0.358523 0.688564 0.741597
O O9 0.697410 0.430222 0.270714
O O10 0.942188 0.170367 0.938437
O O11 0.485401 0.676933 0.408168
O O12 0.236446 0.907411 0.538620
O O13 0.500000 0.500000 0.000000
O O14 0.841149 0.476459 0.168471
O O15 0.000000 0.500000 0.000000
O O16 0.893655 0.002576 0.722630
O O17 0.825627 0.003438 0.029758
#
# Coordination Sequence:
#
# PCOD9013309 Si02
#       8
#     2   2   2   2   2   2   2   2
#     4  10  23  40  64  92 125 160 207 255 307 367
#     4  10  21  41  64  90 125 160 206 255 305 364
#     4  10  22  43  64  92 125 163 211 247 309 374
#     4  11  23  40  62  93 130 158 205 261 307 359
#     4  12  24  43  64  92 125 166 207 253 310 372
#     4  11  22  43  62  85 128 163 201 260 302 359
#     4   9  20  39  63  93 122 159 209 249 313 365
#     4   9  21  40  63  91 129 160 203 262 300 367
#
# _framework density 24.047391999999999
#
# number of rings (size 3 to 8) (size 9 to 14) (size 15 to 20)
#    0.000    1.750    3.750    0.750    1.750    9.500 
#    2.250    1.250    0.000    0.000    0.000    0.000 
#    0.000    0.000    0.000    0.000    0.000    0.000 
#
# Total GULP energy -89426.077519 kJ/mol
# GULP energy per Si atom -5589.129845 kJ/mol
# Density = 2.399266 g / cm^3
# Si number density = 24.047392 Si / 1000 Ang^3
#
#
#
# Elastic Constant Matrix: (Units=GPa)
#
#
# Indices 1 2 3 4 5 6 
#
# 1 70.4348 2.1563 36.8092 -1.7580 16.6791 -12.1090
# 2 2.1563 117.6472 26.3317 15.3158 13.4105 17.7218
# 3 36.8092 26.3317 74.6853 10.3618 8.8629 14.3884
# 4 -1.7580 15.3158 10.3618 37.0204 -0.0659 11.4784
# 5 16.6791 13.4105 8.8629 -0.0659 39.8599 5.3762
# 6 -12.1090 17.7218 14.3884 11.4784 5.3762 48.0734
#
#
#
# Elastic Compliance Matrix: (Units=1/GPa)
#
#
# Indices 1 2 3 4 5 6 
#
# 1 0.026070 0.002139 -0.014703 0.001030 -0.009846 0.011034
# 2 0.002139 0.010185 -0.003654 -0.002758 -0.003367 -0.001087
# 3 -0.014703 -0.003654 0.023698 -0.002989 0.003336 -0.009109
# 4 0.001030 -0.002758 -0.002989 0.030710 0.001938 -0.005378
# 5 -0.009846 -0.003367 0.003336 0.001938 0.030425 -0.006102
# 6 0.011034 -0.001087 -0.009109 -0.005378 -0.006102 0.028674
#
#
# Mechanical properties :
#
#
# Convention : Reuss Voigt Hill
#
# Bulk Modulus (GPa) = 36.33974 43.70685 40.02330
# Shear Modulus (GPa) = 26.12731 38.15543 32.14137
#
# Velocity S-wave (km/s) = 3.29977 3.98763 3.65990
# Velocity P-wave (km/s) = 5.44633 6.27825 5.87703
#
# Compressibility (1/GPa) = 0.02751808
#
# Stress axis : x y z
#
# Youngs Moduli (GPa) = 38.35822 98.18137 42.19781
#
# Poissons Ratio (x) = -0.21003 0.62044
# Poissons Ratio (y) = -0.08206 0.15417
# Poissons Ratio (z) = 0.56399 0.35871
#
# Static dielectric constant tensor:
#      x y z
#    x 1.872430 -0.027460 -0.022010 
#    y -0.027460 1.964470 0.006750 
#    z -0.022010 0.006750 2.097290 
# 
# From -- ./inp_files/218695.got.cif
#   From: 2010.05.17/outbox.cif.g08.bks.cpg/sg2_110_cif.got.tgz:218695.got - 2010.06.03 11:33:40.
