data_PCOD9013161
_publ_section_title
;
Structure prediction by ZEFSAII (Michael W. Deem and Ramdas Pophale) SiO2 
 PCOD9013161
Probable space group: P -1
;
_chemical_formula_sum "Si O2"
_cell_formula_units_Z 14
_cell_length_a 22.922102
_cell_length_b 9.064725
_cell_length_c 6.950576
_cell_angle_alpha 145.524146
_cell_angle_beta 47.370868
_cell_angle_gamma 135.174949
_cell_volume 560.579441
_symmetry_space_group_name_H-M "P -1"
_symmetry_group_IT_number 2
_symmetry_cell_setting 'triclinic'
loop_
_space_group_symop_operation_xyz
x,y,z
-x,-y,-z
loop_
_atom_site_type_symbol
_atom_site_label
_atom_site_fract_x
_atom_site_fract_y
_atom_site_fract_z
Si Si1 0.325193 0.245672 0.299539
Si Si2 0.303304 0.672958 0.073846
Si Si3 0.171390 0.886418 0.538328
Si Si4 0.893307 0.577875 0.286741
Si Si5 0.741188 0.704244 0.891566
Si Si6 0.446091 0.178997 0.236429
Si Si7 0.044857 0.874002 0.514494
O O1 0.238932 0.062349 0.411511
O O2 0.307965 0.214759 0.081084
O O3 0.407103 0.177656 0.108725
O O4 0.337332 0.553721 0.686603
O O5 0.315356 0.506272 0.050458
O O6 0.204402 0.629430 0.215402
O O7 0.355410 0.999520 0.345567
O O8 0.079433 0.855861 0.631054
O O9 0.192908 0.044095 0.862529
O O10 0.796957 0.545118 0.494937
O O11 0.947844 0.700162 0.488754
O O12 0.930696 0.816244 0.294606
O O13 0.906681 0.295895 0.896962
O O14 0.500000 0.500000 0.500000
O O15 0.500000 0.000000 0.000000
#
# Coordination Sequence:
#
# PCOD9013161 Si02
#       7
#     2   2   2   2   2   2   2
#     4  10  21  42  67  94 132 176 209 265 330 386
#     4  10  23  40  67  97 134 165 219 269 316 396
#     4  10  22  37  63  94 135 171 223 272 317 390
#     4  10  22  39  66  91 131 175 222 270 325 384
#     4  11  23  39  65 103 128 174 222 271 323 384
#     4  11  22  44  73  96 129 173 209 260 331 389
#     4  10  21  41  63  93 128 179 222 268 326 379
#
# _framework density 24.974162
#
# number of rings (size 3 to 8) (size 9 to 14) (size 15 to 20)
#    0.000    1.714    2.857    0.857    4.000    2.857 
#    0.000    2.143    0.000    0.000    0.000    0.000 
#    0.000    0.000    0.000    0.000    0.000    0.000 
#
# Total GULP energy -78206.945526 kJ/mol
# GULP energy per Si atom -5586.210395 kJ/mol
# Density = 2.491732 g / cm^3
# Si number density = 24.974162 Si / 1000 Ang^3
#
#
#
# Elastic Constant Matrix: (Units=GPa)
#
#
# Indices 1 2 3 4 5 6 
#
# 1 238.1958 39.8542 38.3021 3.7129 18.5761 -34.7748
# 2 39.8542 67.7663 29.5277 20.4494 20.1576 -15.1710
# 3 38.3021 29.5277 64.1868 9.2696 8.8963 -17.8146
# 4 3.7129 20.4494 9.2696 24.2044 -11.9969 -1.0808
# 5 18.5761 20.1576 8.8963 -11.9969 47.3748 -4.7182
# 6 -34.7748 -15.1710 -17.8146 -1.0808 -4.7182 39.3614
#
#
#
# Elastic Compliance Matrix: (Units=1/GPa)
#
#
# Indices 1 2 3 4 5 6 
#
# 1 0.005249 -0.002268 -0.001468 0.001788 -0.000052 0.003141
# 2 -0.002268 0.042011 -0.005620 -0.045987 -0.026863 0.007162
# 3 -0.001468 -0.005620 0.021414 -0.003647 -0.001384 0.005963
# 4 0.001788 -0.045987 -0.003647 0.103006 0.044678 -0.009612
# 5 -0.000052 -0.026863 -0.001384 0.044678 0.043678 -0.004563
# 6 0.003141 0.007162 0.005963 -0.009612 -0.004563 0.032829
#
#
# Mechanical properties :
#
#
# Convention : Reuss Voigt Hill
#
# Bulk Modulus (GPa) = 20.01547 65.05743 42.53645
# Shear Modulus (GPa) = 17.63341 39.68578 28.65960
#
# Velocity S-wave (km/s) = 2.66007 3.99064 3.39126
# Velocity P-wave (km/s) = 4.17930 6.88041 5.69239
#
# Compressibility (1/GPa) = 0.04996134
#
# Stress axis : x y z
#
# Youngs Moduli (GPa) = 190.53056 23.80351 46.69743
#
# Poissons Ratio (x) = 0.05399 0.06854
# Poissons Ratio (y) = 0.43212 0.26246
# Poissons Ratio (z) = 0.27965 0.13379
#
# Static dielectric constant tensor:
#      x y z
#    x 2.032230 0.011350 -0.032300 
#    y 0.011350 2.036170 0.025530 
#    z -0.032300 0.025530 2.050570 
# 
# From -- ./inp_files/53365.got.cif
#   From: 2010.05.17/outbox.cif.g08.bks.cpg/sg2_27_cif.got.tgz:53365.got - 2010.06.03 11:33:40.
