data_PCOD9013656
_publ_section_title
;
Structure prediction by ZEFSAII (Michael W. Deem and Ramdas Pophale) SiO2 
 PCOD9013656
Probable space group: P -1
;
_chemical_formula_sum "Si O2"
_cell_formula_units_Z 12
_cell_length_a 5.274600
_cell_length_b 11.801087
_cell_length_c 10.343707
_cell_angle_alpha 76.650322
_cell_angle_beta 85.968825
_cell_angle_gamma 122.374021
_cell_volume 514.142653
_symmetry_space_group_name_H-M "P -1"
_symmetry_group_IT_number 2
_symmetry_cell_setting 'triclinic'
loop_
_space_group_symop_operation_xyz
x,y,z
-x,-y,-z
loop_
_atom_site_type_symbol
_atom_site_label
_atom_site_fract_x
_atom_site_fract_y
_atom_site_fract_z
Si Si1 0.337972 0.811311 0.678917
Si Si2 0.005837 0.782553 0.330163
Si Si3 0.694806 0.936738 0.379743
Si Si4 0.347510 0.387363 0.837126
Si Si5 0.354786 0.621390 0.915713
Si Si6 0.141137 0.443765 0.414296
O O1 0.622042 0.896663 0.545439
O O2 0.402180 0.762017 0.822209
O O3 0.097816 0.666400 0.652740
O O4 0.193653 0.901326 0.679260
O O5 0.899404 0.887979 0.325165
O O6 0.959410 0.725348 0.200196
O O7 0.794479 0.650922 0.471680
O O8 0.355101 0.852652 0.346788
O O9 0.404846 0.538558 0.823999
O O10 0.602423 0.424298 0.712074
O O11 0.420549 0.345860 0.980912
O O12 0.000000 0.500000 0.000000
O O13 0.000000 0.500000 0.500000
#
# Coordination Sequence:
#
# PCOD9013656 Si02
#       6
#     2   2   2   2   2   2
#     4  10  21  41  65  92 129 166 219 263 318 390
#     4  11  23  41  64  95 129 165 216 267 324 382
#     4  10  24  41  67  93 126 174 215 269 319 376
#     4  11  23  38  64  95 129 169 214 266 332 386
#     4  11  23  40  63  94 129 172 211 265 328 387
#     4  11  21  38  69 101 130 164 210 280 334 374
#
# _framework density 23.339825000000001
#
# number of rings (size 3 to 8) (size 9 to 14) (size 15 to 20)
#    0.000    1.333    1.667    4.500    2.333    7.333 
#    0.000    1.667    0.000    0.000    0.000    0.000 
#    0.000    0.000    0.000    0.000    0.000    0.000 
#
# Total GULP energy -67147.118491 kJ/mol
# GULP energy per Si atom -5595.593208 kJ/mol
# Density = 2.328670 g / cm^3
# Si number density = 23.339825 Si / 1000 Ang^3
#
#
#
# Elastic Constant Matrix: (Units=GPa)
#
#
# Indices 1 2 3 4 5 6 
#
# 1 87.0051 35.8310 37.7084 4.4434 17.1183 -18.6401
# 2 35.8310 91.5576 37.2846 9.1675 24.4130 -11.4824
# 3 37.7084 37.2846 84.3024 7.4856 31.2309 -11.2844
# 4 4.4434 9.1675 7.4856 41.0313 -4.5796 11.6728
# 5 17.1183 24.4130 31.2309 -4.5796 48.6577 0.0505
# 6 -18.6401 -11.4824 -11.2844 11.6728 0.0505 45.3803
#
#
#
# Elastic Compliance Matrix: (Units=1/GPa)
#
#
# Indices 1 2 3 4 5 6 
#
# 1 0.016277 -0.003364 -0.004421 -0.001841 -0.001380 0.005210
# 2 -0.003364 0.015493 -0.002643 -0.004036 -0.005276 0.002925
# 3 -0.004421 -0.002643 0.019691 -0.004695 -0.010203 0.003631
# 4 -0.001841 -0.004036 -0.004695 0.030345 0.008553 -0.010760
# 5 -0.001380 -0.005276 -0.010203 0.008553 0.031045 -0.006674
# 6 0.005210 0.002925 0.003631 -0.010760 -0.006674 0.028594
#
#
# Mechanical properties :
#
#
# Convention : Reuss Voigt Hill
#
# Bulk Modulus (GPa) = 32.67374 53.83480 43.25427
# Shear Modulus (GPa) = 28.98531 37.14994 33.06763
#
# Velocity S-wave (km/s) = 3.52786 3.99394 3.76811
# Velocity P-wave (km/s) = 5.53389 6.66216 6.12406
#
# Compressibility (1/GPa) = 0.03060562
#
# Stress axis : x y z
#
# Youngs Moduli (GPa) = 61.43777 64.54694 50.78466
#
# Poissons Ratio (x) = 0.21714 0.22450
# Poissons Ratio (y) = 0.20668 0.13420
# Poissons Ratio (z) = 0.27160 0.17057
#
# Static dielectric constant tensor:
#      x y z
#    x 2.008780 0.076840 -0.010920 
#    y 0.076840 1.964580 -0.019430 
#    z -0.010920 -0.019430 1.909700 
# 
# From -- ./inp_files/36129.got.cif
#   From: 2010.05.17/outbox.cif.g08.bks.cpg/sg2_19_cif.got.tgz:36129.got - 2010.06.03 11:33:40.
