data_PCOD9013083
_publ_section_title
;
Structure prediction by ZEFSAII (Michael W. Deem and Ramdas Pophale) SiO2 
 PCOD9013083
Probable space group: P -1
;
_chemical_formula_sum "Si O2"
_cell_formula_units_Z 16
_cell_length_a 9.006830
_cell_length_b 14.003298
_cell_length_c 18.769114
_cell_angle_alpha 143.502952
_cell_angle_beta 39.117868
_cell_angle_gamma 146.512734
_cell_volume 735.708980
_symmetry_space_group_name_H-M "P -1"
_symmetry_group_IT_number 2
_symmetry_cell_setting 'triclinic'
loop_
_space_group_symop_operation_xyz
x,y,z
-x,-y,-z
loop_
_atom_site_type_symbol
_atom_site_label
_atom_site_fract_x
_atom_site_fract_y
_atom_site_fract_z
Si Si1 0.400632 0.321569 0.978647
Si Si2 0.907191 0.154020 0.133749
Si Si3 0.101349 0.672095 0.120279
Si Si4 0.306300 0.994184 0.731088
Si Si5 0.549885 0.943803 0.870015
Si Si6 0.837557 0.710015 0.623389
Si Si7 0.114060 0.878449 0.470152
Si Si8 0.686787 0.698695 0.390296
O O1 0.640258 0.302604 0.914231
O O2 0.237135 0.145155 0.876151
O O3 0.500000 0.500000 0.000000
O O4 0.222472 0.340192 0.119267
O O5 0.733556 0.121171 0.249813
O O6 0.729180 0.142312 0.125853
O O7 0.000000 0.000000 0.000000
O O8 0.850550 0.630383 0.240614
O O9 0.217283 0.865511 0.146785
O O10 0.000000 0.500000 0.000000
O O11 0.621787 0.120614 0.658506
O O12 0.085338 0.837410 0.664288
O O13 0.641780 0.794727 0.749746
O O14 0.500000 0.000000 0.000000
O O15 0.632555 0.482554 0.583102
O O16 0.988124 0.767081 0.524294
O O17 0.256183 0.111092 0.557560
O O18 0.858080 0.781144 0.450209
#
# Coordination Sequence:
#
# PCOD9013083 Si02
#       8
#     2   2   2   2   2   2   2   2
#     4  11  25  42  64 102 141 185 231 283 354 422
#     4  10  21  41  63  88 132 180 223 272 346 407
#     4  12  25  42  68 102 142 183 233 288 351 417
#     4  11  24  48  69  98 143 187 229 295 355 415
#     4  12  23  41  67 100 137 182 231 289 348 415
#     4  12  27  43  73 106 138 180 245 292 349 423
#     4  11  24  49  74  97 145 185 236 290 353 422
#     4  11  25  47  72 106 138 187 235 291 354 420
#
# _framework density 21.747730000000001
#
# number of rings (size 3 to 8) (size 9 to 14) (size 15 to 20)
#    0.000    0.750    5.000    3.000    8.750    0.500 
#    2.250    0.000    0.000    0.000    0.000    0.000 
#    0.000    0.000    0.000    0.000    0.000    0.000 
#
# Total GULP energy -89306.795610 kJ/mol
# GULP energy per Si atom -5581.674726 kJ/mol
# Density = 2.169823 g / cm^3
# Si number density = 21.747730 Si / 1000 Ang^3
#
#
#
# Elastic Constant Matrix: (Units=GPa)
#
#
# Indices 1 2 3 4 5 6 
#
# 1 61.5014 4.7049 11.3734 -10.6001 22.9595 1.7249
# 2 4.7049 122.4154 26.8588 -15.4635 20.0129 -12.4395
# 3 11.3734 26.8588 85.2442 -27.3682 22.1693 -5.6780
# 4 -10.6001 -15.4635 -27.3682 45.8288 -5.3559 6.2935
# 5 22.9595 20.0129 22.1693 -5.3559 32.1797 -5.4915
# 6 1.7249 -12.4395 -5.6780 6.2935 -5.4915 33.3036
#
#
#
# Elastic Compliance Matrix: (Units=1/GPa)
#
#
# Indices 1 2 3 4 5 6 
#
# 1 0.024477 0.002088 0.003245 0.006514 -0.020695 -0.004578
# 2 0.002088 0.009788 -0.000878 0.002263 -0.006265 0.001938
# 3 0.003245 -0.000878 0.017970 0.009889 -0.012743 -0.001402
# 4 0.006514 0.002263 0.009889 0.029639 -0.008763 -0.004852
# 5 -0.020695 -0.006265 -0.012743 -0.008763 0.058396 0.007844
# 6 -0.004578 0.001938 -0.001402 -0.004852 0.007844 0.032959
#
#
# Mechanical properties :
#
#
# Convention : Reuss Voigt Hill
#
# Bulk Modulus (GPa) = 16.35426 39.44837 27.90132
# Shear Modulus (GPa) = 27.07095 37.34400 32.20748
#
# Velocity S-wave (km/s) = 3.53196 4.14834 3.85250
# Velocity P-wave (km/s) = 4.91623 6.41275 5.71370
#
# Compressibility (1/GPa) = 0.06114614
#
# Stress axis : x y z
#
# Youngs Moduli (GPa) = 40.85503 102.16298 55.64778
#
# Poissons Ratio (x) = -0.21334 -0.18056
# Poissons Ratio (y) = -0.08531 0.04883
# Poissons Ratio (z) = -0.13256 0.08965
#
# Static dielectric constant tensor:
#      x y z
#    x 1.744470 0.020400 -0.027820 
#    y 0.020400 1.960250 -0.057510 
#    z -0.027820 -0.057510 1.836940 
# 
# From -- ./inp_files/561389.got.cif
#   From: 2010.05.17/outbox.cif.g08.bks.cpg/sg2_281_cif.got.tgz:561389.got - 2010.06.03 11:33:40.
