data_PCOD9013056
_publ_section_title
;
Structure prediction by ZEFSAII (Michael W. Deem and Ramdas Pophale) SiO2 
 PCOD9013056
Probable space group: P -1
;
_chemical_formula_sum "Si O2"
_cell_formula_units_Z 16
_cell_length_a 8.867193
_cell_length_b 14.990745
_cell_length_c 16.166076
_cell_angle_alpha 38.928972
_cell_angle_beta 140.257272
_cell_angle_gamma 142.421259
_cell_volume 755.535760
_symmetry_space_group_name_H-M "P -1"
_symmetry_group_IT_number 2
_symmetry_cell_setting 'triclinic'
loop_
_space_group_symop_operation_xyz
x,y,z
-x,-y,-z
loop_
_atom_site_type_symbol
_atom_site_label
_atom_site_fract_x
_atom_site_fract_y
_atom_site_fract_z
Si Si1 0.364860 0.285338 0.200381
Si Si2 0.922763 0.348221 0.318158
Si Si3 0.419393 0.926801 0.906060
Si Si4 0.975929 0.426570 0.951797
Si Si5 0.410054 0.691267 0.546718
Si Si6 0.132658 0.040090 0.828426
Si Si7 0.841102 0.619821 0.432793
Si Si8 0.743635 0.029277 0.373534
O O1 0.661142 0.357387 0.234980
O O2 0.385436 0.264872 0.322380
O O3 0.228717 0.399625 0.054025
O O4 0.165220 0.109766 0.203558
O O5 0.045889 0.464130 0.207824
O O6 0.135131 0.389538 0.451768
O O7 0.807207 0.163242 0.373501
O O8 0.308719 0.031869 0.831623
O O9 0.323741 0.910467 0.783690
O O10 0.732229 0.990771 0.010933
O O11 0.272345 0.753203 0.014849
O O12 0.000000 0.500000 0.000000
O O13 0.385968 0.543707 0.587317
O O14 0.495992 0.853603 0.414839
O O15 0.122653 0.638395 0.504591
O O16 0.155900 0.215541 0.711045
O O17 0.000000 0.000000 0.500000
#
# Coordination Sequence:
#
# PCOD9013056 Si02
#       8
#     2   2   2   2   2   2   2   2
#     4  10  22  42  65  92 124 168 208 260 311 373
#     4  11  23  40  66  93 123 165 217 253 313 377
#     4  10  23  39  60  93 125 163 209 253 311 376
#     4  11  22  40  64  91 125 163 206 257 314 372
#     4  10  23  39  63  90 126 159 212 257 312 370
#     4  10  21  41  63  85 129 165 203 258 312 367
#     4  10  22  41  62  92 121 164 205 264 311 366
#     4  12  23  39  64  92 126 166 209 255 308 376
#
# _framework density 21.177026000000001
#
# number of rings (size 3 to 8) (size 9 to 14) (size 15 to 20)
#    0.000    1.500    1.250    4.125    1.750    5.000 
#    0.000    5.625    0.000    0.000    0.000    0.000 
#    0.000    0.000    0.000    0.000    0.000    0.000 
#
# Total GULP energy -89420.156024 kJ/mol
# GULP energy per Si atom -5588.759751 kJ/mol
# Density = 2.112883 g / cm^3
# Si number density = 21.177026 Si / 1000 Ang^3
#
#
#
# Elastic Constant Matrix: (Units=GPa)
#
#
# Indices 1 2 3 4 5 6 
#
# 1 55.6971 27.2491 26.3076 1.7447 -9.0721 -14.8510
# 2 27.2491 103.7748 31.4243 -1.8563 -7.1654 -19.8213
# 3 26.3076 31.4243 86.5269 7.8362 -9.2747 0.1094
# 4 1.7447 -1.8563 7.8362 39.5409 -2.6067 2.6177
# 5 -9.0721 -7.1654 -9.2747 -2.6067 31.9280 -7.1130
# 6 -14.8510 -19.8213 0.1094 2.6177 -7.1130 32.9452
#
#
#
# Elastic Compliance Matrix: (Units=1/GPa)
#
#
# Indices 1 2 3 4 5 6 
#
# 1 0.026705 -0.002105 -0.006486 -0.000295 0.008002 0.012544
# 2 -0.002105 0.013010 -0.003885 0.001176 0.002945 0.007434
# 3 -0.006486 -0.003885 0.015218 -0.002554 0.000377 -0.005027
# 4 -0.000295 0.001176 -0.002554 0.026030 0.001295 -0.001206
# 5 0.008002 0.002945 0.000377 0.001295 0.037447 0.013360
# 6 0.012544 0.007434 -0.005027 -0.001206 0.013360 0.043478
#
#
# Mechanical properties :
#
#
# Convention : Reuss Voigt Hill
#
# Bulk Modulus (GPa) = 33.35486 46.21786 39.78636
# Shear Modulus (GPa) = 25.40219 31.61734 28.50977
#
# Velocity S-wave (km/s) = 3.46716 3.86813 3.67312
# Velocity P-wave (km/s) = 5.64030 6.46698 6.06773
#
# Compressibility (1/GPa) = 0.02998064
#
# Stress axis : x y z
#
# Youngs Moduli (GPa) = 37.44584 76.86644 65.71041
#
# Poissons Ratio (x) = 0.16179 0.42623
# Poissons Ratio (y) = 0.07881 0.25528
# Poissons Ratio (z) = 0.24289 0.29862
#
# Static dielectric constant tensor:
#      x y z
#    x 1.778110 0.004490 0.016860 
#    y 0.004490 1.801850 0.011850 
#    z 0.016860 0.011850 1.772400 
# 
# From -- ./inp_files/261470.got.cif
#   From: 2010.05.17/outbox.cif.g08.bks.cpg/sg2_131_cif.got.tgz:261470.got - 2010.06.03 11:33:40.
