data_PCOD9013220
_publ_section_title
;
Structure prediction by ZEFSAII (Michael W. Deem and Ramdas Pophale) SiO2 
 PCOD9013220
Probable space group: P -1
;
_chemical_formula_sum "Si O2"
_cell_formula_units_Z 14
_cell_length_a 15.094657
_cell_length_b 14.207582
_cell_length_c 13.385140
_cell_angle_alpha 146.644233
_cell_angle_beta 28.127598
_cell_angle_gamma 154.478107
_cell_volume 571.981393
_symmetry_space_group_name_H-M "P -1"
_symmetry_group_IT_number 2
_symmetry_cell_setting 'triclinic'
loop_
_space_group_symop_operation_xyz
x,y,z
-x,-y,-z
loop_
_atom_site_type_symbol
_atom_site_label
_atom_site_fract_x
_atom_site_fract_y
_atom_site_fract_z
Si Si1 0.395664 0.629586 0.434265
Si Si2 0.796791 0.001222 0.654301
Si Si3 0.577908 0.951696 0.196128
Si Si4 0.298134 0.535196 0.235097
Si Si5 0.407501 0.403822 0.617379
Si Si6 0.654301 0.273723 0.984569
Si Si7 0.069388 0.170056 0.994641
O O1 0.227129 0.498182 0.389104
O O2 0.368874 0.496679 0.440630
O O3 0.399171 0.831421 0.632443
O O4 0.671638 0.735632 0.222930
O O5 0.722205 0.853930 0.498083
O O6 0.573304 0.871128 0.840755
O O7 0.000000 0.000000 0.500000
O O8 0.832949 0.222125 0.789053
O O9 0.426054 0.783515 0.290932
O O10 0.450264 0.814135 0.100048
O O11 0.852442 0.043222 0.018886
O O12 0.102179 0.366478 0.197428
O O13 0.500000 0.500000 0.000000
O O14 0.500000 0.500000 0.500000
O O15 0.253045 0.478019 0.873241
O O16 0.000000 0.000000 0.000000
#
# Coordination Sequence:
#
# PCOD9013220 Si02
#       7
#     2   2   2   2   2   2   2
#     4  11  23  43  66  95 139 174 226 283 333 404
#     4  10  22  42  64  95 126 167 222 275 326 403
#     4  12  23  42  67  99 138 176 218 283 338 401
#     4  10  21  41  63  96 135 175 219 273 334 400
#     4  10  22  43  67  95 132 175 222 276 338 396
#     4  10  22  40  66  90 131 172 212 273 341 384
#     4  11  24  41  66  98 132 180 226 270 338 403
#
# _framework density 24.476320999999999
#
# number of rings (size 3 to 8) (size 9 to 14) (size 15 to 20)
#    0.000    1.429    4.286    2.143    2.000    1.143 
#    0.000    5.714    0.000    0.000    0.000    0.000 
#    0.000    0.000    0.000    0.000    0.000    0.000 
#
# Total GULP energy -78261.769087 kJ/mol
# GULP energy per Si atom -5590.126363 kJ/mol
# Density = 2.442061 g / cm^3
# Si number density = 24.476321 Si / 1000 Ang^3
#
#
#
# Elastic Constant Matrix: (Units=GPa)
#
#
# Indices 1 2 3 4 5 6 
#
# 1 113.0911 -2.0701 55.6937 -7.7583 3.3396 -6.2861
# 2 -2.0701 32.0983 18.7532 -8.0853 -6.9888 -8.0631
# 3 55.6937 18.7532 134.8349 19.0308 -20.1455 -0.7023
# 4 -7.7583 -8.0853 19.0308 40.9332 5.1731 -12.4087
# 5 3.3396 -6.9888 -20.1455 5.1731 50.3897 8.3192
# 6 -6.2861 -8.0631 -0.7023 -12.4087 8.3192 24.2629
#
#
#
# Elastic Compliance Matrix: (Units=1/GPa)
#
#
# Indices 1 2 3 4 5 6 
#
# 1 0.024400 0.028038 -0.020788 0.033113 -0.015600 0.037322
# 2 0.028038 0.083172 -0.035202 0.063582 -0.023200 0.074357
# 3 -0.020788 -0.035202 0.029245 -0.040118 0.019477 -0.043433
# 4 0.033113 0.063582 -0.040118 0.092608 -0.033342 0.087342
# 5 -0.015600 -0.023200 0.019477 -0.033342 0.035546 -0.040428
# 6 0.037322 0.074357 -0.043433 0.087342 -0.040428 0.132869
#
#
# Mechanical properties :
#
#
# Convention : Reuss Voigt Hill
#
# Bulk Modulus (GPa) = 12.35893 47.19755 29.77824
# Shear Modulus (GPa) = 10.40120 36.96031 23.68075
#
# Velocity S-wave (km/s) = 2.06367 3.89014 3.11383
# Velocity P-wave (km/s) = 3.27698 6.28510 5.01204
#
# Compressibility (1/GPa) = 0.08091317
#
# Stress axis : x y z
#
# Youngs Moduli (GPa) = 40.98378 12.02330 34.19383
#
# Poissons Ratio (x) = -0.33711 0.71082
# Poissons Ratio (y) = -1.14911 1.20369
# Poissons Ratio (z) = 0.85197 0.42324
#
# Static dielectric constant tensor:
#      x y z
#    x 2.114220 -0.001030 0.042860 
#    y -0.001030 2.048300 0.006340 
#    z 0.042860 0.006340 1.941290 
# 
# From -- ./inp_files/534529.got.cif
#   From: 2010.05.17/outbox.cif.g08.bks.cpg/sg2_268_cif.got.tgz:534529.got - 2010.06.03 11:33:40.
