data_PCOD9013508
_publ_section_title
;
Structure prediction by ZEFSAII (Michael W. Deem and Ramdas Pophale) SiO2 
 PCOD9013508
Probable space group: P -1
;
_chemical_formula_sum "Si O2"
_cell_formula_units_Z 16
_cell_length_a 11.731130
_cell_length_b 11.976154
_cell_length_c 7.323319
_cell_angle_alpha 145.199776
_cell_angle_beta 104.642663
_cell_angle_gamma 81.757589
_cell_volume 564.273206
_symmetry_space_group_name_H-M "P -1"
_symmetry_group_IT_number 2
_symmetry_cell_setting 'triclinic'
loop_
_space_group_symop_operation_xyz
x,y,z
-x,-y,-z
loop_
_atom_site_type_symbol
_atom_site_label
_atom_site_fract_x
_atom_site_fract_y
_atom_site_fract_z
Si Si1 0.466104 0.073441 0.288563
Si Si2 0.674279 0.371131 0.784447
Si Si3 0.768325 0.794973 0.493252
Si Si4 0.166787 0.664628 0.703517
Si Si5 0.014088 0.268135 0.984012
Si Si6 0.967705 0.147066 0.406178
Si Si7 0.360126 0.479728 0.429443
Si Si8 0.313453 0.069017 0.741324
O O1 0.534628 0.292390 0.645265
O O2 0.329228 0.086867 0.288785
O O3 0.545973 0.937668 0.256454
O O4 0.500000 0.000000 0.000000
O O5 0.685322 0.452804 0.693722
O O6 0.724875 0.158481 0.528932
O O7 0.728205 0.560489 0.174455
O O8 0.908960 0.833551 0.634222
O O9 0.754250 0.865354 0.372947
O O10 0.303419 0.633027 0.740712
O O11 0.129320 0.795495 0.696651
O O12 0.101771 0.450218 0.335755
O O13 0.106894 0.727899 0.947288
O O14 0.995096 0.282021 0.778614
O O15 0.059566 0.065025 0.793922
O O16 0.500000 0.500000 0.500000
O O17 0.315821 0.248984 0.126299
#
# Coordination Sequence:
#
# PCOD9013508 Si02
#       8
#     2   2   2   2   2   2   2   2
#     4  10  21  41  64  99 144 188 235 289 357 423
#     4   9  22  40  67  97 143 189 233 286 355 427
#     4  11  22  43  70 102 138 192 237 291 361 429
#     4  11  25  48  74 104 149 187 242 308 360 436
#     4  10  24  48  72 109 141 190 245 295 372 424
#     4  11  25  46  76 106 142 186 249 306 363 432
#     4  11  23  42  71 105 144 186 233 293 363 426
#     4   9  22  40  65  95 143 188 228 287 343 426
#
# _framework density 28.355060000000002
#
# number of rings (size 3 to 8) (size 9 to 14) (size 15 to 20)
#    0.750    1.000    0.000    3.750    0.000    6.000 
#   11.250    0.000    0.000    0.000    0.000    0.000 
#    0.000    0.000    0.000    0.000    0.000    0.000 
#
# Total GULP energy -89648.130400 kJ/mol
# GULP energy per Si atom -5603.008150 kJ/mol
# Density = 2.829052 g / cm^3
# Si number density = 28.355060 Si / 1000 Ang^3
#
#
#
# Elastic Constant Matrix: (Units=GPa)
#
#
# Indices 1 2 3 4 5 6 
#
# 1 169.8819 34.0284 54.1004 13.4565 -12.2752 -27.9900
# 2 34.0284 142.9883 42.3398 27.7800 -5.4766 -4.6321
# 3 54.1004 42.3398 153.2119 41.2903 8.7301 -4.4793
# 4 13.4565 27.7800 41.2903 51.2792 7.9842 -1.4228
# 5 -12.2752 -5.4766 8.7301 7.9842 68.8338 11.0009
# 6 -27.9900 -4.6321 -4.4793 -1.4228 11.0009 32.2797
#
#
#
# Elastic Compliance Matrix: (Units=1/GPa)
#
#
# Indices 1 2 3 4 5 6 
#
# 1 0.007910 -0.001028 -0.002521 0.000591 0.000591 0.006186
# 2 -0.001028 0.008264 -0.001036 -0.003551 0.001077 -0.000373
# 3 -0.002521 -0.001036 0.009405 -0.006248 -0.000837 -0.001020
# 4 0.000591 -0.003551 -0.006248 0.026753 -0.002684 0.001230
# 5 0.000591 0.001077 -0.000837 -0.002684 0.015935 -0.004998
# 6 0.006186 -0.000373 -0.001020 0.001230 -0.004998 0.037906
#
#
# Mechanical properties :
#
#
# Convention : Reuss Voigt Hill
#
# Bulk Modulus (GPa) = 60.93971 80.77989 70.85980
# Shear Modulus (GPa) = 41.38604 52.85278 47.11941
#
# Velocity S-wave (km/s) = 3.82457 4.32205 4.08090
# Velocity P-wave (km/s) = 6.40636 7.31145 6.87382
#
# Compressibility (1/GPa) = 0.01640966
#
# Stress axis : x y z
#
# Youngs Moduli (GPa) = 126.41547 121.00638 106.32320
#
# Poissons Ratio (x) = 0.12435 0.26807
# Poissons Ratio (y) = 0.12991 0.11017
# Poissons Ratio (z) = 0.31872 0.12538
#
# Static dielectric constant tensor:
#      x y z
#    x 2.317290 -0.007750 -0.048900 
#    y -0.007750 2.157100 -0.019770 
#    z -0.048900 -0.019770 2.234080 
# 
# From -- ./inp_files/274890.got.cif
#   From: 2010.05.17/outbox.cif.g08.bks.cpg/sg2_138_cif.got.tgz:274890.got - 2010.06.03 11:33:40.
