data_PCOD9013051
_publ_section_title
;
Structure prediction by ZEFSAII (Michael W. Deem and Ramdas Pophale) SiO2 
 PCOD9013051
Probable space group: P -1
;
_chemical_formula_sum "Si O2"
_cell_formula_units_Z 16
_cell_length_a 9.714457
_cell_length_b 11.590342
_cell_length_c 14.701995
_cell_angle_alpha 147.521849
_cell_angle_beta 97.719594
_cell_angle_gamma 69.063341
_cell_volume 782.751939
_symmetry_space_group_name_H-M "P -1"
_symmetry_group_IT_number 2
_symmetry_cell_setting 'triclinic'
loop_
_space_group_symop_operation_xyz
x,y,z
-x,-y,-z
loop_
_atom_site_type_symbol
_atom_site_label
_atom_site_fract_x
_atom_site_fract_y
_atom_site_fract_z
Si Si1 0.992199 0.756206 0.639816
Si Si2 0.554574 0.452890 0.253708
Si Si3 0.680068 0.982941 0.853543
Si Si4 0.341847 0.490699 0.509807
Si Si5 0.640031 0.738541 0.314397
Si Si6 0.087729 0.191709 0.543213
Si Si7 0.572374 0.659318 0.064414
Si Si8 0.227805 0.662610 0.294143
O O1 0.169578 0.717627 0.633587
O O2 0.000000 0.500000 0.500000
O O3 0.855206 0.937672 0.814400
O O4 0.932203 0.820866 0.574461
O O5 0.632523 0.530589 0.393087
O O6 0.594195 0.542874 0.222486
O O7 0.366783 0.592593 0.333015
O O8 0.615724 0.166265 0.054869
O O9 0.670307 0.731128 0.689206
O O10 0.567965 0.115020 0.845862
O O11 0.500000 0.500000 0.500000
O O12 0.797994 0.697047 0.348576
O O13 0.651865 0.727660 0.199916
O O14 0.500000 0.000000 0.500000
O O15 0.919286 0.340018 0.672559
O O16 0.168903 0.927749 0.421979
O O17 0.500000 0.500000 0.000000
O O18 0.695808 0.519614 0.903731
#
# Coordination Sequence:
#
# PCOD9013051 Si02
#       8
#     2   2   2   2   2   2   2   2
#     4  10  21  41  63  85 120 165 208 260 304 360
#     4  11  22  40  65  94 119 161 212 257 312 375
#     4  10  22  39  64  90 123 159 205 264 308 364
#     4  11  24  42  64  88 121 168 213 255 312 372
#     4  12  20  34  62  92 118 160 209 249 296 388
#     4  11  22  37  61  88 126 161 202 257 315 371
#     4  11  19  37  62  90 127 157 198 250 316 378
#     4  10  22  38  58  92 128 160 191 256 328 374
#
# _framework density 20.440702999999999
#
# number of rings (size 3 to 8) (size 9 to 14) (size 15 to 20)
#    0.000    1.250    3.750    4.500    0.000    1.500 
#    0.000    3.750    0.000    0.000    0.000    0.000 
#    0.000    0.000    0.000    0.000    0.000    0.000 
#
# Total GULP energy -89292.358780 kJ/mol
# GULP energy per Si atom -5580.772424 kJ/mol
# Density = 2.039418 g / cm^3
# Si number density = 20.440703 Si / 1000 Ang^3
#
#
#
# Elastic Constant Matrix: (Units=GPa)
#
#
# Indices 1 2 3 4 5 6 
#
# 1 139.7893 3.8577 19.6433 8.3973 -15.6858 -19.1529
# 2 3.8577 26.1092 -0.1287 -3.5815 -2.3801 -12.9633
# 3 19.6433 -0.1287 60.0740 2.9843 -5.8567 -6.1299
# 4 8.3973 -3.5815 2.9843 24.8473 -6.2423 0.8408
# 5 -15.6858 -2.3801 -5.8567 -6.2423 29.2311 1.4008
# 6 -19.1529 -12.9633 -6.1299 0.8408 1.4008 36.2359
#
#
#
# Elastic Compliance Matrix: (Units=1/GPa)
#
#
# Indices 1 2 3 4 5 6 
#
# 1 0.008518 0.001044 -0.001882 -0.001724 0.003697 0.004455
# 2 0.001044 0.048498 0.001763 0.007217 0.005550 0.017818
# 3 -0.001882 0.001763 0.017800 -0.000726 0.002422 0.002570
# 4 -0.001724 0.007217 -0.000726 0.044198 0.008947 0.000176
# 5 0.003697 0.005550 0.002422 0.008947 0.038915 0.002637
# 6 0.004455 0.017818 0.002570 0.000176 0.002637 0.036655
#
#
# Mechanical properties :
#
#
# Convention : Reuss Voigt Hill
#
# Bulk Modulus (GPa) = 13.04363 30.30193 21.67278
# Shear Modulus (GPa) = 22.90547 31.56955 27.23751
#
# Velocity S-wave (km/s) = 3.35114 3.93421 3.65432
# Velocity P-wave (km/s) = 4.62262 5.95767 5.33209
#
# Compressibility (1/GPa) = 0.07666577
#
# Stress axis : x y z
#
# Youngs Moduli (GPa) = 117.39734 20.61949 56.18031
#
# Poissons Ratio (x) = -0.02154 0.10576
# Poissons Ratio (y) = -0.12261 -0.09905
# Poissons Ratio (z) = 0.22099 -0.03635
#
# Static dielectric constant tensor:
#      x y z
#    x 1.755190 -0.000200 0.004980 
#    y -0.000200 1.730950 0.008390 
#    z 0.004980 0.008390 1.774920 
# 
# From -- ./inp_files/329304.got.cif
#   From: 2010.05.17/outbox.cif.g08.bks.cpg/sg2_165_cif.got.tgz:329304.got - 2010.06.03 11:33:40.
