data_PCOD9013052
_publ_section_title
;
Structure prediction by ZEFSAII (Michael W. Deem and Ramdas Pophale) SiO2 
 PCOD9013052
Probable space group: P -1
;
_chemical_formula_sum "Si O2"
_cell_formula_units_Z 16
_cell_length_a 12.124159
_cell_length_b 10.273882
_cell_length_c 7.990738
_cell_angle_alpha 128.892039
_cell_angle_beta 124.412800
_cell_angle_gamma 73.807188
_cell_volume 634.634774
_symmetry_space_group_name_H-M "P -1"
_symmetry_group_IT_number 2
_symmetry_cell_setting 'triclinic'
loop_
_space_group_symop_operation_xyz
x,y,z
-x,-y,-z
loop_
_atom_site_type_symbol
_atom_site_label
_atom_site_fract_x
_atom_site_fract_y
_atom_site_fract_z
Si Si1 0.016750 0.810862 0.928554
Si Si2 0.051654 0.190389 0.741435
Si Si3 0.401883 0.718663 0.503329
Si Si4 0.335641 0.322716 0.167311
Si Si5 0.808735 0.239050 0.392312
Si Si6 0.554091 0.784622 0.344874
Si Si7 0.702136 0.109011 0.888977
Si Si8 0.757317 0.587500 0.472150
O O1 0.171672 0.783733 0.007460
O O2 0.985460 0.785411 0.077360
O O3 0.904390 0.682146 0.635074
O O4 0.000000 0.000000 0.000000
O O5 0.961536 0.287882 0.618885
O O6 0.209706 0.236304 0.888827
O O7 0.000000 0.000000 0.500000
O O8 0.367109 0.517098 0.299464
O O9 0.525497 0.755717 0.769467
O O10 0.275497 0.790074 0.533559
O O11 0.456096 0.773601 0.414127
O O12 0.291463 0.331416 0.331273
O O13 0.764736 0.396654 0.378505
O O14 0.770050 0.083734 0.108272
O O15 0.442049 0.822633 0.146537
O O16 0.640138 0.627768 0.276404
O O17 0.664025 0.942596 0.610412
#
# Coordination Sequence:
#
# PCOD9013052 Si02
#       8
#     2   2   2   2   2   2   2   2
#     4  11  21  41  66  87 123 173 201 244 315 376
#     4  11  24  40  63  96 129 159 208 263 308 370
#     4   9  18  38  65  87 117 161 205 255 304 357
#     4   8  18  37  62  91 119 158 203 250 314 363
#     4  11  24  40  60  97 125 156 210 265 311 355
#     4  10  21  41  63  85 120 171 207 248 313 375
#     4  11  24  39  59  91 127 163 207 250 311 382
#     4   9  20  39  66  87 121 162 205 258 303 373
#
# _framework density 25.211352000000002
#
# number of rings (size 3 to 8) (size 9 to 14) (size 15 to 20)
#    0.000    2.000    1.250    2.250    3.500    7.000 
#    4.500    1.250    0.000    0.000    0.000    0.000 
#    0.000    0.000    0.000    0.000    0.000    0.000 
#
# Total GULP energy -89424.816145 kJ/mol
# GULP energy per Si atom -5589.051009 kJ/mol
# Density = 2.515397 g / cm^3
# Si number density = 25.211352 Si / 1000 Ang^3
#
#
#
# Elastic Constant Matrix: (Units=GPa)
#
#
# Indices 1 2 3 4 5 6 
#
# 1 64.1653 2.9820 26.2643 1.9404 20.1720 8.0528
# 2 2.9820 71.5100 21.7496 -14.2256 12.7817 -12.5207
# 3 26.2643 21.7496 115.6969 -19.8854 39.5333 -5.9614
# 4 1.9404 -14.2256 -19.8854 27.3898 -1.6892 9.4942
# 5 20.1720 12.7817 39.5333 -1.6892 48.4057 -5.5112
# 6 8.0528 -12.5207 -5.9614 9.4942 -5.5112 31.3702
#
#
#
# Elastic Compliance Matrix: (Units=1/GPa)
#
#
# Indices 1 2 3 4 5 6 
#
# 1 0.019666 -0.000242 -0.002776 -0.001758 -0.006644 -0.006308
# 2 -0.000242 0.016788 -0.000709 0.006616 -0.003057 0.004089
# 3 -0.002776 -0.000709 0.014704 0.010477 -0.010504 -0.001792
# 4 -0.001758 0.006616 0.010477 0.051289 -0.009154 -0.012048
# 5 -0.006644 -0.003057 -0.010504 -0.009154 0.033303 0.007110
# 6 -0.006308 0.004089 -0.001792 -0.012048 0.007110 0.039683
#
#
# Mechanical properties :
#
#
# Convention : Reuss Voigt Hill
#
# Bulk Modulus (GPa) = 22.88089 39.26267 31.07178
# Shear Modulus (GPa) = 25.32225 34.79156 30.05691
#
# Velocity S-wave (km/s) = 3.17266 3.71886 3.45657
# Velocity P-wave (km/s) = 4.74514 5.83499 5.31806
#
# Compressibility (1/GPa) = 0.04370459
#
# Stress axis : x y z
#
# Youngs Moduli (GPa) = 50.85031 59.56583 68.00845
#
# Poissons Ratio (x) = 0.01444 0.18877
# Poissons Ratio (y) = 0.01233 0.04819
# Poissons Ratio (z) = 0.14114 0.04221
#
# Static dielectric constant tensor:
#      x y z
#    x 1.977050 -0.050780 0.000810 
#    y -0.050780 2.195250 -0.068740 
#    z 0.000810 -0.068740 2.032900 
# 
# From -- ./inp_files/205235.got.cif
#   From: 2010.05.17/outbox.cif.g08.bks.cpg/sg2_103_cif.got.tgz:205235.got - 2010.06.03 11:33:40.
