data_PCOD9013497
_publ_section_title
;
Structure prediction by ZEFSAII (Michael W. Deem and Ramdas Pophale) SiO2 
 PCOD9013497
Probable space group: P -1
;
_chemical_formula_sum "Si O2"
_cell_formula_units_Z 14
_cell_length_a 12.431743
_cell_length_b 12.484960
_cell_length_c 19.191752
_cell_angle_alpha 35.678524
_cell_angle_beta 151.376225
_cell_angle_gamma 156.086130
_cell_volume 577.700119
_symmetry_space_group_name_H-M "P -1"
_symmetry_group_IT_number 2
_symmetry_cell_setting 'triclinic'
loop_
_space_group_symop_operation_xyz
x,y,z
-x,-y,-z
loop_
_atom_site_type_symbol
_atom_site_label
_atom_site_fract_x
_atom_site_fract_y
_atom_site_fract_z
Si Si1 0.525217 0.786628 0.821209
Si Si2 0.316523 0.471804 0.012930
Si Si3 0.882711 0.543941 0.749625
Si Si4 0.147326 0.583421 0.446849
Si Si5 0.941296 0.780425 0.297608
Si Si6 0.794951 0.834360 0.631771
Si Si7 0.675152 0.978884 0.361678
O O1 0.761209 0.787614 0.913123
O O2 0.203334 0.618656 0.680302
O O3 0.589611 0.032669 0.750586
O O4 0.421093 0.623342 0.919141
O O5 0.631966 0.658015 0.142721
O O6 0.045943 0.441216 0.909091
O O7 0.863099 0.665478 0.740702
O O8 0.531600 0.297483 0.648517
O O9 0.106139 0.780564 0.695323
O O10 0.158896 0.447573 0.588875
O O11 0.416936 0.661100 0.509322
O O12 0.201220 0.827841 0.371173
O O13 0.071262 0.014228 0.298800
O O14 0.896553 0.021520 0.525365
#
# Coordination Sequence:
#
# PCOD9013497 Si02
#       7
#     2   2   2   2   2   2   2
#     4   9  18  40  71  89 129 165 223 272 324 370
#     4   9  20  41  62  98 128 174 211 269 324 393
#     4  11  26  42  66  97 137 171 222 264 324 395
#     4  10  21  41  64  99 123 170 222 274 321 383
#     4  10  22  40  65  92 135 164 221 269 330 385
#     4  12  23  38  67  94 132 175 213 272 330 388
#     4  11  23  42  67 101 128 171 224 277 315 381
#
# _framework density 24.234026
#
# number of rings (size 3 to 8) (size 9 to 14) (size 15 to 20)
#    0.000    1.714    1.429    3.000    2.000    1.143 
#    5.143    2.143    0.000    0.000    0.000    0.000 
#    0.000    0.000    0.000    0.000    0.000    0.000 
#
# Total GULP energy -78305.333699 kJ/mol
# GULP energy per Si atom -5593.238121 kJ/mol
# Density = 2.417887 g / cm^3
# Si number density = 24.234026 Si / 1000 Ang^3
#
#
#
# Elastic Constant Matrix: (Units=GPa)
#
#
# Indices 1 2 3 4 5 6 
#
# 1 136.3953 55.2592 71.8588 -1.5209 28.2393 -51.6271
# 2 55.2592 117.9467 65.5934 3.9758 -25.9829 -50.2597
# 3 71.8588 65.5934 216.0921 12.0834 -56.8742 -56.9972
# 4 -1.5209 3.9758 12.0834 31.2684 -22.0115 -1.0268
# 5 28.2393 -25.9829 -56.8742 -22.0115 92.4375 13.2159
# 6 -51.6271 -50.2597 -56.9972 -1.0268 13.2159 73.2063
#
#
#
# Elastic Compliance Matrix: (Units=1/GPa)
#
#
# Indices 1 2 3 4 5 6 
#
# 1 0.016891 -0.004531 -0.005303 -0.004608 -0.011756 0.006730
# 2 -0.004531 0.014017 -0.000114 0.001644 0.004862 0.005485
# 3 -0.005303 -0.000114 0.008623 0.001399 0.006991 0.001654
# 4 -0.004608 0.001644 0.001399 0.039785 0.012597 -0.002748
# 5 -0.011756 0.004862 0.006991 0.012597 0.023590 -0.003592
# 6 0.006730 0.005485 0.001654 -0.002748 -0.003592 0.024070
#
#
# Mechanical properties :
#
#
# Convention : Reuss Voigt Hill
#
# Bulk Modulus (GPa) = 50.92549 95.09521 73.01035
# Shear Modulus (GPa) = 32.59072 57.89730 45.24401
#
# Velocity S-wave (km/s) = 3.67117 4.89314 4.32552
# Velocity P-wave (km/s) = 6.24738 8.44093 7.42560
#
# Compressibility (1/GPa) = 0.01963653
#
# Stress axis : x y z
#
# Youngs Moduli (GPa) = 59.20249 71.33995 115.96331
#
# Poissons Ratio (x) = 0.32325 0.61493
# Poissons Ratio (y) = 0.26826 0.01319
# Poissons Ratio (z) = 0.31394 0.00811
#
# Static dielectric constant tensor:
#      x y z
#    x 2.083680 -0.006120 0.006280 
#    y -0.006120 1.945980 -0.033490 
#    z 0.006280 -0.033490 1.915520 
# 
# From -- ./inp_files/66980.got.cif
#   From: 2010.05.17/outbox.cif.g08.bks.cpg/sg2_34_cif.got.tgz:66980.got - 2010.06.03 11:33:40.
