data_PCOD9013646
_publ_section_title
;
Structure prediction by ZEFSAII (Michael W. Deem and Ramdas Pophale) SiO2 
 PCOD9013646
Probable space group: P -1
;
_chemical_formula_sum "Si O2"
_cell_formula_units_Z 16
_cell_length_a 17.415397
_cell_length_b 6.475362
_cell_length_c 7.961481
_cell_angle_alpha 113.410561
_cell_angle_beta 105.713332
_cell_angle_gamma 113.033425
_cell_volume 654.549672
_symmetry_space_group_name_H-M "P -1"
_symmetry_group_IT_number 2
_symmetry_cell_setting 'triclinic'
loop_
_space_group_symop_operation_xyz
x,y,z
-x,-y,-z
loop_
_atom_site_type_symbol
_atom_site_label
_atom_site_fract_x
_atom_site_fract_y
_atom_site_fract_z
Si Si1 0.651200 0.171874 0.241326
Si Si2 0.304678 0.233117 0.022170
Si Si3 0.066101 0.400358 0.064672
Si Si4 0.399336 0.211513 0.371574
Si Si5 0.966259 0.811157 0.646465
Si Si6 0.855353 0.933656 0.373247
Si Si7 0.568470 0.231939 0.910756
Si Si8 0.747265 0.152896 0.581493
O O1 0.693629 0.017413 0.128841
O O2 0.542004 0.935916 0.153760
O O3 0.715900 0.302314 0.485127
O O4 0.636292 0.343026 0.152828
O O5 0.215521 0.214380 0.875622
O O6 0.317833 0.218906 0.221979
O O7 0.399078 0.517381 0.108353
O O8 0.178231 0.631829 0.169111
O O9 0.061328 0.355117 0.250126
O O10 0.000000 0.500000 0.000000
O O11 0.023243 0.120409 0.851172
O O12 0.500000 0.500000 0.500000
O O13 0.414631 0.984124 0.234366
O O14 0.352664 0.102682 0.489218
O O15 0.882008 0.768463 0.458893
O O16 0.044418 0.821899 0.572700
O O17 0.804766 0.043336 0.490744
#
# Coordination Sequence:
#
# PCOD9013646 Si02
#       8
#     2   2   2   2   2   2   2   2
#     4   9  21  40  62  94 127 163 224 273 327 392
#     4  10  22  39  65  92 131 169 220 274 321 398
#     4  11  24  44  70  99 137 170 214 277 331 399
#     4  11  26  44  63  96 137 175 224 279 330 392
#     4  10  24  46  67  99 137 170 219 270 336 384
#     4  10  23  44  66 100 131 179 216 274 323 396
#     4  10  21  41  65  92 124 176 217 270 339 384
#     4  11  24  43  68  98 133 178 223 266 337 388
#
# _framework density 24.444288
#
# number of rings (size 3 to 8) (size 9 to 14) (size 15 to 20)
#    0.000    1.750    1.250    1.125    5.250    7.500 
#    0.000    0.000    0.000    0.000    0.000    0.000 
#    0.000    0.000    0.000    0.000    0.000    0.000 
#
# Total GULP energy -89457.773241 kJ/mol
# GULP energy per Si atom -5591.110828 kJ/mol
# Density = 2.438865 g / cm^3
# Si number density = 24.444288 Si / 1000 Ang^3
#
#
#
# Elastic Constant Matrix: (Units=GPa)
#
#
# Indices 1 2 3 4 5 6 
#
# 1 84.8190 4.6574 35.9775 -21.0535 14.5058 5.2820
# 2 4.6574 85.6924 23.8763 -22.8526 6.7381 6.7722
# 3 35.9775 23.8763 84.3398 -14.5384 23.9143 -18.2468
# 4 -21.0535 -22.8526 -14.5384 46.6010 -8.0780 7.3935
# 5 14.5058 6.7381 23.9143 -8.0780 38.1089 -4.9959
# 6 5.2820 6.7722 -18.2468 7.3935 -4.9959 23.5813
#
#
#
# Elastic Compliance Matrix: (Units=1/GPa)
#
#
# Indices 1 2 3 4 5 6 
#
# 1 0.022039 0.007958 -0.013899 0.012836 -0.001273 -0.022271
# 2 0.007958 0.019266 -0.011106 0.012833 0.000659 -0.019793
# 3 -0.013899 -0.011106 0.028055 -0.009050 -0.008460 0.029056
# 4 0.012836 0.012833 -0.009050 0.035014 0.002807 -0.023947
# 5 -0.001273 0.000659 -0.008460 0.002807 0.032453 -0.000455
# 6 -0.022271 -0.019793 0.029056 -0.023947 -0.000455 0.082974
#
#
# Mechanical properties :
#
#
# Convention : Reuss Voigt Hill
#
# Bulk Modulus (GPa) = 28.35527 42.65263 35.50395
# Shear Modulus (GPa) = 18.82168 34.34756 26.58462
#
# Velocity S-wave (km/s) = 2.77787 3.75258 3.30139
# Velocity P-wave (km/s) = 4.68122 6.02185 5.39335
#
# Compressibility (1/GPa) = 0.03526681
#
# Stress axis : x y z
#
# Youngs Moduli (GPa) = 45.37386 51.90387 35.64406
#
# Poissons Ratio (x) = -0.41306 0.49542
# Poissons Ratio (y) = -0.36109 0.39586
# Poissons Ratio (z) = 0.63066 0.57644
#
# Static dielectric constant tensor:
#      x y z
#    x 1.923830 0.024020 -0.000640 
#    y 0.024020 1.909630 -0.017170 
#    z -0.000640 -0.017170 1.989440 
# 
# From -- ./inp_files/324004.got.cif
#   From: 2010.05.17/outbox.cif.g08.bks.cpg/sg2_163_cif.got.tgz:324004.got - 2010.06.03 11:33:40.
