data_PCOD9013581
_publ_section_title
;
Structure prediction by ZEFSAII (Michael W. Deem and Ramdas Pophale) SiO2 
 PCOD9013581
Probable space group: P -1
;
_chemical_formula_sum "Si O2"
_cell_formula_units_Z 16
_cell_length_a 11.163728
_cell_length_b 8.192180
_cell_length_c 12.362006
_cell_angle_alpha 80.911551
_cell_angle_beta 47.129052
_cell_angle_gamma 60.881057
_cell_volume 696.896552
_symmetry_space_group_name_H-M "P -1"
_symmetry_group_IT_number 2
_symmetry_cell_setting 'triclinic'
loop_
_space_group_symop_operation_xyz
x,y,z
-x,-y,-z
loop_
_atom_site_type_symbol
_atom_site_label
_atom_site_fract_x
_atom_site_fract_y
_atom_site_fract_z
Si Si1 0.247024 0.223525 0.386304
Si Si2 0.413729 0.168136 0.843793
Si Si3 0.198794 0.494117 0.580124
Si Si4 0.871696 0.226615 0.574015
Si Si5 0.284873 0.684431 0.108114
Si Si6 0.827191 0.487176 0.167129
Si Si7 0.897120 0.947645 0.975308
Si Si8 0.765167 0.644257 0.847898
O O1 0.264944 0.315419 0.475868
O O2 0.306844 0.300704 0.236652
O O3 0.024974 0.288888 0.506732
O O4 0.380021 0.993420 0.309751
O O5 0.344816 0.382893 0.821787
O O6 0.270102 0.100042 0.892894
O O7 0.374078 0.203074 0.993283
O O8 0.240913 0.640854 0.473596
O O9 0.258524 0.421330 0.672594
O O10 0.967824 0.628338 0.725310
O O11 0.752864 0.254219 0.750794
O O12 0.000000 0.000000 0.500000
O O13 0.179399 0.574869 0.142148
O O14 0.207683 0.874334 0.063034
O O15 0.500000 0.500000 0.000000
O O16 0.922187 0.259162 0.151590
O O17 0.000000 0.500000 0.000000
O O18 0.000000 0.000000 0.000000
#
# Coordination Sequence:
#
# PCOD9013581 Si02
#       8
#     2   2   2   2   2   2   2   2
#     4  11  23  40  65  97 133 172 215 275 336 387
#     4  11  24  40  68  98 125 176 234 267 314 404
#     4  11  20  42  64  90 129 173 216 264 326 399
#     4  11  24  39  61  94 135 173 206 267 348 384
#     4  12  25  40  67 101 133 170 224 278 329 390
#     4  10  21  41  65  89 126 175 223 263 318 399
#     4  11  24  41  66  98 133 173 220 276 336 385
#     4  11  20  41  64  93 130 173 218 266 325 398
#
# _framework density 22.958931
#
# number of rings (size 3 to 8) (size 9 to 14) (size 15 to 20)
#    0.000    1.000    5.000    3.375    5.250    0.500 
#    0.000    0.000    0.000    2.250    0.000    0.000 
#    0.000    0.000    0.000    0.000    0.000    0.000 
#
# Total GULP energy -89201.215653 kJ/mol
# GULP energy per Si atom -5575.075978 kJ/mol
# Density = 2.290668 g / cm^3
# Si number density = 22.958931 Si / 1000 Ang^3
#
#
#
# Elastic Constant Matrix: (Units=GPa)
#
#
# Indices 1 2 3 4 5 6 
#
# 1 48.4989 14.3165 45.2221 -6.1463 17.6355 2.6295
# 2 14.3165 142.6319 51.0768 4.6229 15.6582 -18.2581
# 3 45.2221 51.0768 137.7363 22.1755 38.4085 -13.5651
# 4 -6.1463 4.6229 22.1755 44.6102 4.6170 5.3328
# 5 17.6355 15.6582 38.4085 4.6170 45.0697 2.4619
# 6 2.6295 -18.2581 -13.5651 5.3328 2.4619 38.4016
#
#
#
# Elastic Compliance Matrix: (Units=1/GPa)
#
#
# Indices 1 2 3 4 5 6 
#
# 1 0.037774 0.000181 -0.014767 0.013985 -0.003176 -0.009455
# 2 0.000181 0.008435 -0.002657 0.000198 -0.000927 0.003092
# 3 -0.014767 -0.002657 0.017789 -0.010755 -0.007796 0.008025
# 4 0.013985 0.000198 -0.010755 0.030641 0.000976 -0.008980
# 5 -0.003176 -0.000927 -0.007796 0.000976 0.030573 -0.005073
# 6 -0.009455 0.003092 0.008025 -0.008980 -0.005073 0.032565
#
#
# Mechanical properties :
#
#
# Convention : Reuss Voigt Hill
#
# Bulk Modulus (GPa) = 33.88050 61.12199 47.50125
# Shear Modulus (GPa) = 24.74019 40.16641 32.45330
#
# Velocity S-wave (km/s) = 3.28622 4.18723 3.76378
# Velocity P-wave (km/s) = 5.40259 7.07512 6.29465
#
# Compressibility (1/GPa) = 0.02951550
#
# Stress axis : x y z
#
# Youngs Moduli (GPa) = 26.47314 118.55016 56.21336
#
# Poissons Ratio (x) = -0.02151 0.83008
# Poissons Ratio (y) = -0.00480 0.14933
# Poissons Ratio (z) = 0.39092 0.31493
#
# Static dielectric constant tensor:
#      x y z
#    x 2.033200 0.086780 -0.092380 
#    y 0.086780 2.022480 -0.143850 
#    z -0.092380 -0.143850 2.012390 
# 
# From -- ./inp_files/419345.got.cif
#   From: 2010.05.17/outbox.cif.g08.bks.cpg/sg2_210_cif.got.tgz:419345.got - 2010.06.03 11:33:40.
