data_PCOD9013358
_publ_section_title
;
Structure prediction by ZEFSAII (Michael W. Deem and Ramdas Pophale) SiO2 
 PCOD9013358
Probable space group: P -1
;
_chemical_formula_sum "Si O2"
_cell_formula_units_Z 14
_cell_length_a 25.683854
_cell_length_b 13.287164
_cell_length_c 16.216225
_cell_angle_alpha 153.501804
_cell_angle_beta 15.944527
_cell_angle_gamma 151.745875
_cell_volume 668.879657
_symmetry_space_group_name_H-M "P -1"
_symmetry_group_IT_number 2
_symmetry_cell_setting 'triclinic'
loop_
_space_group_symop_operation_xyz
x,y,z
-x,-y,-z
loop_
_atom_site_type_symbol
_atom_site_label
_atom_site_fract_x
_atom_site_fract_y
_atom_site_fract_z
Si Si1 0.061747 0.917982 0.051468
Si Si2 0.632627 0.208557 0.401942
Si Si3 0.803226 0.087965 0.339541
Si Si4 0.027726 0.443842 0.511889
Si Si5 0.396622 0.886435 0.809968
Si Si6 0.100646 0.533519 0.101997
Si Si7 0.670017 0.606681 0.757370
O O1 0.154196 0.833423 0.930578
O O2 0.199117 0.920129 0.762669
O O3 0.892755 0.716857 0.131305
O O4 0.043969 0.177517 0.287688
O O5 0.597817 0.218276 0.366226
O O6 0.621477 0.448584 0.635995
O O7 0.500000 0.000000 0.500000
O O8 0.809390 0.345728 0.552072
O O9 0.613207 0.933396 0.548396
O O10 0.000000 0.000000 0.000000
O O11 0.878573 0.464461 0.828900
O O12 0.000000 0.500000 0.500000
O O13 0.250865 0.727122 0.972872
O O14 0.336948 0.132669 0.062796
O O15 0.882905 0.582665 0.449402
O O16 0.500000 0.500000 0.000000
#
# Coordination Sequence:
#
# PCOD9013358 Si02
#       7
#     2   2   2   2   2   2   2
#     4  10  21  41  64  92 127 162 221 257 310 391
#     4  11  21  35  64  97 125 169 207 253 316 383
#     4  11  23  41  65  92 120 168 224 265 309 368
#     4  11  22  41  71  86 117 173 223 265 307 383
#     4  12  24  40  64  97 139 165 204 270 323 378
#     4  10  25  40  61 102 135 163 202 269 333 370
#     4  11  21  39  65  98 133 170 214 250 309 397
#
# _framework density 20.930520999999999
#
# number of rings (size 3 to 8) (size 9 to 14) (size 15 to 20)
#    0.000    1.143    4.286    3.000    2.000    3.429 
#    0.000    3.571    0.000    0.000    0.000    0.000 
#    0.000    0.000    0.000    0.000    0.000    0.000 
#
# Total GULP energy -78083.482458 kJ/mol
# GULP energy per Si atom -5577.391604 kJ/mol
# Density = 2.088288 g / cm^3
# Si number density = 20.930521 Si / 1000 Ang^3
#
#
#
# Elastic Constant Matrix: (Units=GPa)
#
#
# Indices 1 2 3 4 5 6 
#
# 1 106.1674 51.3726 32.6293 -6.9213 16.3106 7.9092
# 2 51.3726 171.0619 66.5443 -9.2472 22.1580 7.7208
# 3 32.6293 66.5443 70.2186 2.8458 -1.5062 10.2217
# 4 -6.9213 -9.2472 2.8458 54.0174 3.4625 16.6036
# 5 16.3106 22.1580 -1.5062 3.4625 30.2629 6.1896
# 6 7.9092 7.7208 10.2217 16.6036 6.1896 31.2624
#
#
#
# Elastic Compliance Matrix: (Units=1/GPa)
#
#
# Indices 1 2 3 4 5 6 
#
# 1 0.012664 -0.000692 -0.005274 0.002636 -0.006596 -0.001403
# 2 -0.000692 0.011768 -0.011347 0.002693 -0.009405 0.001410
# 3 -0.005274 -0.011347 0.028819 -0.003057 0.014261 -0.006486
# 4 0.002636 0.002693 -0.003057 0.023408 -0.003765 -0.012019
# 5 -0.006596 -0.009405 0.014261 -0.003765 0.046226 -0.007824
# 6 -0.001403 0.001410 -0.006486 -0.012019 -0.007824 0.042047
#
#
# Mechanical properties :
#
#
# Convention : Reuss Voigt Hill
#
# Bulk Modulus (GPa) = 53.68569 72.06005 62.87287
# Shear Modulus (GPa) = 24.29968 36.23531 30.26749
#
# Velocity S-wave (km/s) = 3.41100 4.16531 3.80688
# Velocity P-wave (km/s) = 6.42015 7.59184 7.03045
#
# Compressibility (1/GPa) = 0.01862694
#
# Stress axis : x y z
#
# Youngs Moduli (GPa) = 78.96221 84.97940 34.69976
#
# Poissons Ratio (x) = 0.05877 0.18299
# Poissons Ratio (y) = 0.05461 0.39373
# Poissons Ratio (z) = 0.41641 0.96423
#
# Static dielectric constant tensor:
#      x y z
#    x 1.786060 0.031400 -0.036860 
#    y 0.031400 1.778730 0.010740 
#    z -0.036860 0.010740 1.799890 
# 
# From -- ./inp_files/445862.got.cif
#   From: 2010.05.17/outbox.cif.g08.bks.cpg/sg2_223_cif.got.tgz:445862.got - 2010.06.03 11:33:40.
