data_PCOD9013473
_publ_section_title
;
Structure prediction by ZEFSAII (Michael W. Deem and Ramdas Pophale) SiO2 
 PCOD9013473
Probable space group: P -1
;
_chemical_formula_sum "Si O2"
_cell_formula_units_Z 15
_cell_length_a 8.692934
_cell_length_b 14.880957
_cell_length_c 9.999010
_cell_angle_alpha 39.117196
_cell_angle_beta 79.970462
_cell_angle_gamma 70.256599
_cell_volume 759.617232
_symmetry_space_group_name_H-M "P -1"
_symmetry_group_IT_number 2
_symmetry_cell_setting 'triclinic'
loop_
_space_group_symop_operation_xyz
x,y,z
-x,-y,-z
loop_
_atom_site_type_symbol
_atom_site_label
_atom_site_fract_x
_atom_site_fract_y
_atom_site_fract_z
Si Si1 0.267568 0.496841 0.628328
Si Si2 0.845292 0.623955 0.946207
Si Si3 0.500000 0.000000 0.500000
Si Si4 0.970659 0.779867 0.320623
Si Si5 0.328819 0.233756 0.447574
Si Si6 0.152214 0.050882 0.372626
Si Si7 0.798793 0.023628 0.858948
Si Si8 0.494953 0.302584 0.601041
O O1 0.356675 0.366113 0.661515
O O2 0.394086 0.587607 0.538289
O O3 0.104014 0.619328 0.450662
O O4 0.218368 0.435634 0.843829
O O5 0.700711 0.682853 0.788469
O O6 0.893374 0.769752 0.809995
O O7 0.000000 0.500000 0.000000
O O8 0.437038 0.065699 0.584695
O O9 0.316393 0.984674 0.513233
O O10 0.848554 0.759100 0.476927
O O11 0.074828 0.883912 0.237435
O O12 0.860637 0.870656 0.110891
O O13 0.414547 0.302158 0.468804
O O14 0.194056 0.008117 0.262028
O O15 0.000000 0.000000 0.500000
O O16 0.619350 0.134499 0.801709
#
# Coordination Sequence:
#
# PCOD9013473 Si02
#       8
#     2   2   1   2   2   2   2   2
#     4  10  23  45  64  95 137 176 231 279 343 420
#     4  11  24  41  66  99 133 178 225 280 343 420
#     4  10  22  40  62 100 132 166 226 280 338 410
#     4  10  22  39  67  93 132 170 233 281 332 422
#     4  11  22  39  64  95 130 172 217 286 344 405
#     4  11  24  42  70  98 136 182 227 287 351 412
#     4  10  21  41  64  97 125 180 226 280 346 402
#     4  10  23  41  68  93 135 179 217 293 345 408
#
# _framework density 19.746787999999999
#
# number of rings (size 3 to 8) (size 9 to 14) (size 15 to 20)
#    0.000    1.600    2.667    1.600    3.733    4.800 
#    0.000    6.667    0.000    0.000    0.000    0.000 
#    0.000    0.000    0.000    0.000    0.000    0.000 
#
# Total GULP energy -83509.529293 kJ/mol
# GULP energy per Si atom -5567.301953 kJ/mol
# Density = 1.970184 g / cm^3
# Si number density = 19.746788 Si / 1000 Ang^3
#
#
#
# Elastic Constant Matrix: (Units=GPa)
#
#
# Indices 1 2 3 4 5 6 
#
# 1 101.8178 62.3643 47.8347 -3.8655 4.5099 -10.7165
# 2 62.3643 162.5477 51.7009 20.2160 2.7197 -13.6248
# 3 47.8347 51.7009 113.7106 10.7064 9.8156 -3.6306
# 4 -3.8655 20.2160 10.7064 18.7703 1.7971 5.3016
# 5 4.5099 2.7197 9.8156 1.7971 19.4761 10.9411
# 6 -10.7165 -13.6248 -3.6306 5.3016 10.9411 32.8297
#
#
#
# Elastic Compliance Matrix: (Units=1/GPa)
#
#
# Indices 1 2 3 4 5 6 
#
# 1 0.016855 -0.006340 -0.005251 0.013256 -0.002065 0.000837
# 2 -0.006340 0.011023 -0.000746 -0.014077 -0.001272 0.005120
# 3 -0.005251 -0.000746 0.012641 -0.007651 -0.005767 0.002532
# 4 0.013256 -0.014077 -0.007651 0.079831 0.004866 -0.016874
# 5 -0.002065 -0.001272 -0.005767 0.004866 0.068818 -0.025560
# 6 0.000837 0.005120 0.002532 -0.016874 -0.025560 0.044382
#
#
# Mechanical properties :
#
#
# Convention : Reuss Voigt Hill
#
# Bulk Modulus (GPa) = 63.11116 77.98619 70.54868
# Shear Modulus (GPa) = 18.97497 28.62697 23.80097
#
# Velocity S-wave (km/s) = 3.10322 3.81163 3.47552
# Velocity P-wave (km/s) = 6.69848 7.67790 7.20485
#
# Compressibility (1/GPa) = 0.01584506
#
# Stress axis : x y z
#
# Youngs Moduli (GPa) = 59.33085 90.71890 79.10581
#
# Poissons Ratio (x) = 0.57520 0.41535
# Poissons Ratio (y) = 0.37618 0.05901
# Poissons Ratio (z) = 0.31152 0.06767
#
# Static dielectric constant tensor:
#      x y z
#    x 1.698850 -0.014200 0.034390 
#    y -0.014200 1.702390 -0.045780 
#    z 0.034390 -0.045780 1.710770 
# 
# From -- ./inp_files/205140.got.cif
#   From: 2010.05.17/outbox.cif.g08.bks.cpg/sg2_103_cif.got.tgz:205140.got - 2010.06.03 11:33:40.
