data_PCOD9013420
_publ_section_title
;
Structure prediction by ZEFSAII (Michael W. Deem and Ramdas Pophale) SiO2 
 PCOD9013420
Probable space group: P -1
;
_chemical_formula_sum "Si O2"
_cell_formula_units_Z 14
_cell_length_a 7.809502
_cell_length_b 11.584791
_cell_length_c 14.728242
_cell_angle_alpha 27.834945
_cell_angle_beta 60.668563
_cell_angle_gamma 70.080264
_cell_volume 528.227127
_symmetry_space_group_name_H-M "P -1"
_symmetry_group_IT_number 2
_symmetry_cell_setting 'triclinic'
loop_
_space_group_symop_operation_xyz
x,y,z
-x,-y,-z
loop_
_atom_site_type_symbol
_atom_site_label
_atom_site_fract_x
_atom_site_fract_y
_atom_site_fract_z
Si Si1 0.791855 0.269926 0.392040
Si Si2 0.399084 0.758460 0.984739
Si Si3 0.994921 0.070047 0.314201
Si Si4 0.968828 0.207016 0.028637
Si Si5 0.188587 0.853879 0.148024
Si Si6 0.435639 0.244750 0.387413
Si Si7 0.457648 0.745568 0.294035
O O1 0.903375 0.250775 0.279270
O O2 0.563140 0.282356 0.421009
O O3 0.906858 0.529346 0.227136
O O4 0.844356 0.034291 0.595545
O O5 0.264626 0.778628 0.917997
O O6 0.491413 0.512865 0.133230
O O7 0.233683 0.721662 0.136440
O O8 0.532822 0.028103 0.793523
O O9 0.805614 0.840485 0.495619
O O10 0.060537 0.186175 0.118775
O O11 0.988667 0.954990 0.144208
O O12 0.250699 0.702667 0.321671
O O13 0.360478 0.121815 0.913273
O O14 0.500000 0.000000 0.500000
O O15 0.500000 0.500000 0.500000
#
# Coordination Sequence:
#
# PCOD9013420 Si02
#       7
#     2   2   2   2   2   2   2
#     4  10  22  43  68  89 136 171 221 279 338 379
#     4  10  21  41  64  94 137 171 217 281 323 394
#     4  10  23  43  64  99 127 175 225 275 327 406
#     4  12  22  41  64  98 135 174 221 276 333 398
#     4   9  22  40  61  92 136 171 217 268 332 390
#     4  10  21  44  69  93 130 178 219 275 339 383
#     4   9  20  41  63  91 133 174 228 266 324 397
#
# _framework density 26.50375
#
# number of rings (size 3 to 8) (size 9 to 14) (size 15 to 20)
#    0.857    1.143    1.429    1.714    0.000    2.286 
#    5.143    2.857    0.000    0.000    0.000    0.000 
#    0.000    0.000    0.000    0.000    0.000    0.000 
#
# Total GULP energy -78234.372748 kJ/mol
# GULP energy per Si atom -5588.169482 kJ/mol
# Density = 2.644343 g / cm^3
# Si number density = 26.503750 Si / 1000 Ang^3
#
#
#
# Elastic Constant Matrix: (Units=GPa)
#
#
# Indices 1 2 3 4 5 6 
#
# 1 90.4777 1.9005 4.5980 -9.6772 22.9705 7.4618
# 2 1.9005 94.5557 30.6955 -15.7621 9.0570 -5.8751
# 3 4.5980 30.6955 106.8205 -33.6716 29.8258 -4.3816
# 4 -9.6772 -15.7621 -33.6716 40.4107 2.2111 3.1632
# 5 22.9705 9.0570 29.8258 2.2111 45.3846 -6.6272
# 6 7.4618 -5.8751 -4.3816 3.1632 -6.6272 35.0718
#
#
#
# Elastic Compliance Matrix: (Units=1/GPa)
#
#
# Indices 1 2 3 4 5 6 
#
# 1 0.015615 0.000349 0.005740 0.009837 -0.013087 -0.005907
# 2 0.000349 0.011937 -0.002180 0.002890 -0.001094 0.001186
# 3 0.005740 -0.002180 0.020306 0.018705 -0.017312 -0.004008
# 4 0.009837 0.002890 0.018705 0.045549 -0.021144 -0.007376
# 5 -0.013087 -0.001094 -0.017312 -0.021144 0.042806 0.010434
# 6 -0.005907 0.001186 -0.004008 -0.007376 0.010434 0.032104
#
#
# Mechanical properties :
#
#
# Convention : Reuss Voigt Hill
#
# Bulk Modulus (GPa) = 17.96105 40.69355 29.32730
# Shear Modulus (GPa) = 27.92384 41.15075 34.53730
#
# Velocity S-wave (km/s) = 3.24941 3.94463 3.61378
# Velocity P-wave (km/s) = 4.56834 6.01116 5.33872
#
# Compressibility (1/GPa) = 0.05567603
#
# Stress axis : x y z
#
# Youngs Moduli (GPa) = 64.04018 83.77558 49.24586
#
# Poissons Ratio (x) = -0.02924 -0.28267
# Poissons Ratio (y) = -0.02235 0.10736
# Poissons Ratio (z) = -0.36760 0.18264
#
# Static dielectric constant tensor:
#      x y z
#    x 2.156720 -0.021760 -0.033140 
#    y -0.021760 2.132440 0.077720 
#    z -0.033140 0.077720 2.100040 
# 
# From -- ./inp_files/499646.got.cif
#   From: 2010.05.17/outbox.cif.g08.bks.cpg/sg2_250_cif.got.tgz:499646.got - 2010.06.03 11:33:40.
