data_PCOD9013050
_publ_section_title
;
Structure prediction by ZEFSAII (Michael W. Deem and Ramdas Pophale) SiO2 
 PCOD9013050
Probable space group: P -1
;
_chemical_formula_sum "Si O2"
_cell_formula_units_Z 12
_cell_length_a 9.741100
_cell_length_b 7.322529
_cell_length_c 8.465880
_cell_angle_alpha 93.759506
_cell_angle_beta 46.116535
_cell_angle_gamma 90.069741
_cell_volume 433.478929
_symmetry_space_group_name_H-M "P -1"
_symmetry_group_IT_number 2
_symmetry_cell_setting 'triclinic'
loop_
_space_group_symop_operation_xyz
x,y,z
-x,-y,-z
loop_
_atom_site_type_symbol
_atom_site_label
_atom_site_fract_x
_atom_site_fract_y
_atom_site_fract_z
Si Si1 0.788378 0.275479 0.422988
Si Si2 0.986433 0.787078 0.456123
Si Si3 0.442247 0.206421 0.888095
Si Si4 0.111426 0.313543 0.958856
Si Si5 0.347962 0.312674 0.479834
Si Si6 0.670424 0.201267 0.013483
O O1 0.920771 0.314130 0.472426
O O2 0.615158 0.164873 0.622017
O O3 0.686621 0.469444 0.466262
O O4 0.942528 0.203812 0.166239
O O5 0.775289 0.746491 0.575242
O O6 0.117205 0.751280 0.194664
O O7 0.000000 0.000000 0.500000
O O8 0.274460 0.342454 0.962316
O O9 0.344287 0.018116 0.989704
O O10 0.548341 0.272072 0.962277
O O11 0.245659 0.229364 0.707559
O O12 0.000000 0.500000 0.000000
O O13 0.566174 0.263741 0.260336
#
# Coordination Sequence:
#
# PCOD9013050 Si02
#       6
#     2   2   2   2   2   2
#     4  10  22  39  63  88 119 162 201 248 297 352
#     4  11  22  40  64  87 120 160 203 251 297 353
#     4  10  21  41  63  85 120 160 201 246 301 355
#     4  10  23  39  59  89 127 162 194 243 302 362
#     4  11  23  37  59  93 122 155 201 247 301 356
#     4  10  22  39  63  89 116 158 205 250 295 349
#
# _framework density 27.683005999999999
#
# number of rings (size 3 to 8) (size 9 to 14) (size 15 to 20)
#    0.000    1.667    0.000    5.500    0.000   11.333 
#    0.000    5.833    0.000    0.000    0.000    0.000 
#    0.000    0.000    0.000    0.000    0.000    0.000 
#
# Total GULP energy -67253.552784 kJ/mol
# GULP energy per Si atom -5604.462732 kJ/mol
# Density = 2.762000 g / cm^3
# Si number density = 27.683006 Si / 1000 Ang^3
#
#
#
# Elastic Constant Matrix: (Units=GPa)
#
#
# Indices 1 2 3 4 5 6 
#
# 1 118.9617 20.0032 9.0333 4.8146 -13.4663 -18.5492
# 2 20.0032 51.9530 10.9859 3.5054 5.0160 -3.3318
# 3 9.0333 10.9859 260.2647 -9.4219 -18.6568 -7.3428
# 4 4.8146 3.5054 -9.4219 37.5781 5.5576 5.6041
# 5 -13.4663 5.0160 -18.6568 5.5576 35.1616 10.5624
# 6 -18.5492 -3.3318 -7.3428 5.6041 10.5624 18.0892
#
#
#
# Elastic Compliance Matrix: (Units=1/GPa)
#
#
# Indices 1 2 3 4 5 6 
#
# 1 0.010963 -0.003598 0.000110 -0.002890 0.002143 0.010268
# 2 -0.003598 0.021815 -0.001175 -0.001552 -0.006025 0.003851
# 3 0.000110 -0.001175 0.004078 0.000786 0.002251 -0.000006
# 4 -0.002890 -0.001552 0.000786 0.029220 -0.001804 -0.010929
# 5 0.002143 -0.006025 0.002251 -0.001804 0.037389 -0.019272
# 6 0.010268 0.003851 -0.000006 -0.010929 -0.019272 0.081156
#
#
# Mechanical properties :
#
#
# Convention : Reuss Voigt Hill
#
# Bulk Modulus (GPa) = 36.32409 56.80269 46.56339
# Shear Modulus (GPa) = 24.61546 44.24290 34.42918
#
# Velocity S-wave (km/s) = 2.98516 4.00208 3.53043
# Velocity P-wave (km/s) = 5.00315 6.47449 5.78578
#
# Compressibility (1/GPa) = 0.02752994
#
# Stress axis : x y z
#
# Youngs Moduli (GPa) = 91.21400 45.83940 245.23739
#
# Poissons Ratio (x) = 0.16492 -0.02698
# Poissons Ratio (y) = 0.32817 0.28825
# Poissons Ratio (z) = -0.01004 0.05388
#
# Static dielectric constant tensor:
#      x y z
#    x 2.119830 -0.039240 0.070120 
#    y -0.039240 2.125680 -0.032200 
#    z 0.070120 -0.032200 2.166510 
# 
# From -- ./inp_files/163959.got.cif
#   From: 2010.05.17/outbox.cif.g08.bks.cpg/sg2_82_cif.got.tgz:163959.got - 2010.06.03 11:33:40.
