data_PCOD9013270
_publ_section_title
;
Structure prediction by ZEFSAII (Michael W. Deem and Ramdas Pophale) SiO2 
 PCOD9013270
Probable space group: P -1
;
_chemical_formula_sum "Si O2"
_cell_formula_units_Z 10
_cell_length_a 15.775991
_cell_length_b 4.679941
_cell_length_c 15.150701
_cell_angle_alpha 105.813562
_cell_angle_beta 160.390329
_cell_angle_gamma 74.827033
_cell_volume 361.157839
_symmetry_space_group_name_H-M "P -1"
_symmetry_group_IT_number 2
_symmetry_cell_setting 'triclinic'
loop_
_space_group_symop_operation_xyz
x,y,z
-x,-y,-z
loop_
_atom_site_type_symbol
_atom_site_label
_atom_site_fract_x
_atom_site_fract_y
_atom_site_fract_z
Si Si1 0.715133 0.843213 0.984224
Si Si2 0.831173 0.690657 0.276692
Si Si3 0.677999 0.291882 0.280985
Si Si4 0.876233 0.236778 0.022703
Si Si5 0.251834 0.316494 0.263994
O O1 0.429480 0.806510 0.737604
O O2 0.766660 0.566938 0.946992
O O3 0.810748 0.116836 0.044960
O O4 0.879366 0.817066 0.232207
O O5 0.096676 0.511171 0.522347
O O6 0.749564 0.988933 0.273319
O O7 0.570520 0.532428 0.985711
O O8 0.748894 0.002045 0.811880
O O9 0.168435 0.255496 0.279090
O O10 0.500000 0.500000 0.500000
O O11 0.000000 0.500000 0.000000
#
# Coordination Sequence:
#
# PCOD9013270 Si02
#       5
#     2   2   2   2   2
#     4  10  21  41  64 104 134 172 226 281 329 388
#     4   8  16  35  60  90 132 179 219 265 326 389
#     4   8  16  35  60  90 132 179 219 265 326 389
#     4  11  24  46  71 104 132 178 223 282 338 407
#     4  11  26  52  71  99 135 180 220 276 345 417
#
# _framework density 27.688723
#
# number of rings (size 3 to 8) (size 9 to 14) (size 15 to 20)
#    1.200    1.200    2.000    0.000    0.000    4.800 
#    7.200    4.000    0.000    4.800    0.000    0.000 
#    0.000    0.000    0.000    0.000    0.000    0.000 
#
# Total GULP energy -55733.585088 kJ/mol
# GULP energy per Si atom -5573.358509 kJ/mol
# Density = 2.762570 g / cm^3
# Si number density = 27.688723 Si / 1000 Ang^3
#
#
#
# Elastic Constant Matrix: (Units=GPa)
#
#
# Indices 1 2 3 4 5 6 
#
# 1 226.8508 36.4761 61.6954 2.9201 56.9187 10.7902
# 2 36.4761 129.6771 38.8228 8.4623 14.4870 -11.8981
# 3 61.6954 38.8228 159.2370 -6.9317 55.1253 6.2000
# 4 2.9201 8.4623 -6.9317 47.9785 13.2585 -7.3895
# 5 56.9187 14.4870 55.1253 13.2585 76.1423 -4.7239
# 6 10.7902 -11.8981 6.2000 -7.3895 -4.7239 86.0519
#
#
#
# Elastic Compliance Matrix: (Units=1/GPa)
#
#
# Indices 1 2 3 4 5 6 
#
# 1 0.005751 -0.001161 -0.000535 0.000694 -0.003873 -0.000996
# 2 -0.001161 0.008839 -0.002285 -0.001948 0.001269 0.001435
# 3 -0.000535 -0.002285 0.009586 0.003540 -0.006785 -0.001008
# 4 0.000694 -0.001948 0.003540 0.023689 -0.006771 0.001051
# 5 -0.003873 0.001269 -0.006785 -0.006771 0.021988 0.001776
# 6 -0.000996 0.001435 -0.001008 0.001051 0.001776 0.012205
#
#
# Mechanical properties :
#
#
# Convention : Reuss Voigt Hill
#
# Bulk Modulus (GPa) = 61.67746 87.75040 74.71393
# Shear Modulus (GPa) = 52.39699 67.28589 59.84144
#
# Velocity S-wave (km/s) = 4.35484 4.93494 4.65394
# Velocity P-wave (km/s) = 6.89999 8.01449 7.47803
#
# Compressibility (1/GPa) = 0.01621338
#
# Stress axis : x y z
#
# Youngs Moduli (GPa) = 173.89160 113.13165 104.31390
#
# Poissons Ratio (x) = 0.13139 0.05581
# Poissons Ratio (y) = 0.20196 0.23836
# Poissons Ratio (z) = 0.09304 0.25851
#
# Static dielectric constant tensor:
#      x y z
#    x 2.491920 0.234060 -0.385930 
#    y 0.234060 2.106170 -0.084670 
#    z -0.385930 -0.084670 3.430410 
# 
# From -- ./inp_files/6084.got.cif
#   From: 2010.05.17/outbox.cif.g08.bks.cpg/sg2_4_cif.got.tgz:6084.got - 2010.06.03 11:33:40.
