data_PCOD9013392
_publ_section_title
;
Structure prediction by ZEFSAII (Michael W. Deem and Ramdas Pophale) SiO2 
 PCOD9013392
Probable space group: P -1
;
_chemical_formula_sum "Si O2"
_cell_formula_units_Z 16
_cell_length_a 10.775137
_cell_length_b 13.453936
_cell_length_c 13.033436
_cell_angle_alpha 70.935776
_cell_angle_beta 49.973792
_cell_angle_gamma 33.040305
_cell_volume 679.026194
_symmetry_space_group_name_H-M "P -1"
_symmetry_group_IT_number 2
_symmetry_cell_setting 'triclinic'
loop_
_space_group_symop_operation_xyz
x,y,z
-x,-y,-z
loop_
_atom_site_type_symbol
_atom_site_label
_atom_site_fract_x
_atom_site_fract_y
_atom_site_fract_z
Si Si1 0.109129 0.473177 0.225390
Si Si2 0.691285 0.314786 0.575496
Si Si3 0.191800 0.219756 0.357856
Si Si4 0.398376 0.176656 0.463634
Si Si5 0.239419 0.230271 0.863939
Si Si6 0.081742 0.755572 0.827671
Si Si7 0.799973 0.060236 0.716291
Si Si8 0.679840 0.200650 0.170307
O O1 0.178557 0.310471 0.243071
O O2 0.384530 0.366642 0.188958
O O3 0.767034 0.680265 0.397367
O O4 0.054168 0.554196 0.116940
O O5 0.328676 0.563309 0.680009
O O6 0.929459 0.278536 0.466899
O O7 0.850799 0.154087 0.455491
O O8 0.724180 0.225404 0.690813
O O9 0.141670 0.305147 0.463733
O O10 0.550377 0.967495 0.251670
O O11 0.636659 0.128641 0.299841
O O12 0.500000 0.000000 0.500000
O O13 0.500299 0.170393 0.781457
O O14 0.110200 0.231466 0.023515
O O15 0.283679 0.710260 0.818503
O O16 0.848232 0.972875 0.825984
O O17 0.000000 0.000000 0.000000
#
# Coordination Sequence:
#
# PCOD9013392 Si02
#       8
#     2   2   2   2   2   2   2   2
#     4  11  23  43  66  95 134 174 227 269 325 408
#     4  10  23  41  68  99 125 171 221 276 337 384
#     4  10  21  41  64  93 129 173 218 271 330 388
#     4  11  21  38  68  94 131 177 224 268 329 405
#     4  11  25  43  64  95 128 181 215 269 334 397
#     4  12  24  43  68  95 135 172 219 272 342 387
#     4  10  25  44  66  96 131 167 226 277 325 397
#     4  11  26  44  67 104 139 174 220 281 336 392
#
# _framework density 23.563155999999999
#
# number of rings (size 3 to 8) (size 9 to 14) (size 15 to 20)
#    0.000    1.250    1.250    5.250    1.750    9.000 
#    0.000    0.000    0.000    0.000    0.000    0.000 
#    0.000    0.000    0.000    0.000    0.000    0.000 
#
# Total GULP energy -89461.946696 kJ/mol
# GULP energy per Si atom -5591.371669 kJ/mol
# Density = 2.350953 g / cm^3
# Si number density = 23.563156 Si / 1000 Ang^3
#
#
#
# Elastic Constant Matrix: (Units=GPa)
#
#
# Indices 1 2 3 4 5 6 
#
# 1 58.1387 14.8506 9.3128 0.2490 -13.8259 0.6924
# 2 14.8506 146.8559 19.1039 -27.2296 -10.0121 -12.1473
# 3 9.3128 19.1039 94.7391 -5.5381 -4.1864 -7.8743
# 4 0.2490 -27.2296 -5.5381 32.1878 -0.5621 5.3955
# 5 -13.8259 -10.0121 -4.1864 -0.5621 15.7577 -2.2079
# 6 0.6924 -12.1473 -7.8743 5.3955 -2.2079 28.6631
#
#
#
# Elastic Compliance Matrix: (Units=1/GPa)
#
#
# Indices 1 2 3 4 5 6 
#
# 1 0.022011 -0.000961 -0.001183 -0.000920 0.018401 0.000327
# 2 -0.000961 0.008893 -0.000838 0.007035 0.005205 0.002638
# 3 -0.001183 -0.000838 0.011195 0.000799 0.001816 0.002738
# 4 -0.000920 0.007035 0.000799 0.037839 0.004729 -0.003535
# 5 0.018401 0.005205 0.001816 0.004729 0.084670 0.007892
# 6 0.000327 0.002638 0.002738 -0.003535 0.007892 0.038024
#
#
# Mechanical properties :
#
#
# Convention : Reuss Voigt Hill
#
# Bulk Modulus (GPa) = 27.67472 42.91871 35.29672
# Shear Modulus (GPa) = 22.66106 32.41948 27.54027
#
# Velocity S-wave (km/s) = 3.10452 3.71328 3.42246
# Velocity P-wave (km/s) = 4.96197 6.05297 5.53442
#
# Compressibility (1/GPa) = 0.03613406
#
# Stress axis : x y z
#
# Youngs Moduli (GPa) = 45.43146 112.44573 89.32402
#
# Poissons Ratio (x) = 0.10806 0.10571
# Poissons Ratio (y) = 0.04366 0.07488
# Poissons Ratio (z) = 0.05377 0.09426
#
# Static dielectric constant tensor:
#      x y z
#    x 1.902720 -0.013870 0.059580 
#    y -0.013870 1.933130 -0.017340 
#    z 0.059580 -0.017340 1.921170 
# 
# From -- ./inp_files/273732.got.cif
#   From: 2010.05.17/outbox.cif.g08.bks.cpg/sg2_137_cif.got.tgz:273732.got - 2010.06.03 11:33:40.
