data_PCOD9013831
_publ_section_title
;
Structure prediction by ZEFSAII (Michael W. Deem and Ramdas Pophale) SiO2 
 PCOD9013831
Probable space group: P -1
;
_chemical_formula_sum "Si O2"
_cell_formula_units_Z 16
_cell_length_a 11.532501
_cell_length_b 8.703379
_cell_length_c 20.581782
_cell_angle_alpha 137.415327
_cell_angle_beta 38.168189
_cell_angle_gamma 109.602258
_cell_volume 702.486694
_symmetry_space_group_name_H-M "P -1"
_symmetry_group_IT_number 2
_symmetry_cell_setting 'triclinic'
loop_
_space_group_symop_operation_xyz
x,y,z
-x,-y,-z
loop_
_atom_site_type_symbol
_atom_site_label
_atom_site_fract_x
_atom_site_fract_y
_atom_site_fract_z
Si Si1 0.447700 0.773199 0.456328
Si Si2 0.258235 0.785242 0.680054
Si Si3 0.090061 0.805220 0.964186
Si Si4 0.883158 0.719322 0.560322
Si Si5 0.779410 0.111384 0.543882
Si Si6 0.397769 0.694336 0.923136
Si Si7 0.014007 0.501909 0.693075
Si Si8 0.530248 0.068679 0.922168
O O1 0.292532 0.830158 0.604785
O O2 0.700745 0.483068 0.250056
O O3 0.304593 0.800514 0.465159
O O4 0.500000 0.000000 0.500000
O O5 0.500000 0.500000 0.500000
O O6 0.087467 0.696985 0.745841
O O7 0.162740 0.064048 0.850907
O O8 0.221985 0.768344 0.964946
O O9 0.000000 0.000000 0.000000
O O10 0.904386 0.556543 0.435902
O O11 0.000000 0.500000 0.500000
O O12 0.012825 0.860449 0.528806
O O13 0.631926 0.964271 0.773513
O O14 0.562770 0.362813 0.757951
O O15 0.854665 0.802188 0.427613
O O16 0.543568 0.808494 0.867463
O O17 0.324150 0.853485 0.074452
O O18 0.738772 0.672976 0.876427
#
# Coordination Sequence:
#
# PCOD9013831 Si02
#       8
#     2   2   2   2   2   2   2   2
#     4  11  26  47  71 102 136 177 235 293 349 411
#     4  12  25  44  75 100 133 190 233 279 355 411
#     4  11  24  43  72 100 140 177 233 286 340 414
#     4  12  23  40  71  99 133 186 231 272 348 413
#     4  11  24  43  65  98 143 178 223 294 341 405
#     4  10  21  41  65  99 137 175 220 286 339 399
#     4  12  26  44  67 100 145 176 228 286 340 413
#     4  11  22  40  70  97 135 182 229 274 345 411
#
# _framework density 22.776233000000001
#
# number of rings (size 3 to 8) (size 9 to 14) (size 15 to 20)
#    0.000    0.750    5.000    2.625    3.500    1.000 
#    0.000    0.000    0.000    0.000    0.000    0.000 
#    0.000    0.000    0.000    0.000    0.000    0.000 
#
# Total GULP energy -89153.520722 kJ/mol
# GULP energy per Si atom -5572.095045 kJ/mol
# Density = 2.272439 g / cm^3
# Si number density = 22.776233 Si / 1000 Ang^3
#
#
#
# Elastic Constant Matrix: (Units=GPa)
#
#
# Indices 1 2 3 4 5 6 
#
# 1 54.3804 -0.7641 24.4886 -6.9254 0.9743 -12.7227
# 2 -0.7641 58.3043 24.8151 16.1728 -11.4144 -10.7699
# 3 24.4886 24.8151 173.8016 2.0577 -7.6584 -27.8508
# 4 -6.9254 16.1728 2.0577 35.5780 -16.9967 2.2991
# 5 0.9743 -11.4144 -7.6584 -16.9967 31.8164 -0.7658
# 6 -12.7227 -10.7699 -27.8508 2.2991 -0.7658 31.7350
#
#
#
# Elastic Compliance Matrix: (Units=1/GPa)
#
#
# Indices 1 2 3 4 5 6 
#
# 1 0.021490 0.001757 -0.002108 0.003856 0.001696 0.007123
# 2 0.001757 0.022394 -0.002055 -0.008762 0.002978 0.007207
# 3 -0.002108 -0.002055 0.007161 0.000483 0.001423 0.004741
# 4 0.003856 -0.008762 0.000483 0.042296 0.019363 -0.003600
# 5 0.001696 0.002978 0.001423 0.019363 0.043196 0.002580
# 6 0.007123 0.007207 0.004741 -0.003600 0.002580 0.041297
#
#
# Mechanical properties :
#
#
# Convention : Reuss Voigt Hill
#
# Bulk Modulus (GPa) = 21.62968 42.61838 32.12403
# Shear Modulus (GPa) = 25.24530 35.68898 30.46714
#
# Velocity S-wave (km/s) = 3.33288 3.96275 3.66139
# Velocity P-wave (km/s) = 4.93235 6.30002 5.65766
#
# Compressibility (1/GPa) = 0.04623278
#
# Stress axis : x y z
#
# Youngs Moduli (GPa) = 46.53247 44.65508 139.64732
#
# Poissons Ratio (x) = -0.07847 0.29442
# Poissons Ratio (y) = -0.08177 0.28698
# Poissons Ratio (z) = 0.09811 0.09177
#
# Static dielectric constant tensor:
#      x y z
#    x 4.158470 0.720800 2.786060 
#    y 0.720800 2.038550 0.926850 
#    z 2.786060 0.926850 5.415600 
# 
# From -- ./inp_files/306939.got.cif
#   From: 2010.05.17/outbox.cif.g08.bks.cpg/sg2_154_cif.got.tgz:306939.got - 2010.06.03 11:33:40.
