data_PCOD9013338
_publ_section_title
;
Structure prediction by ZEFSAII (Michael W. Deem and Ramdas Pophale) SiO2 
 PCOD9013338
Probable space group: P -1
;
_chemical_formula_sum "Si O2"
_cell_formula_units_Z 13
_cell_length_a 9.501922
_cell_length_b 15.799302
_cell_length_c 8.162216
_cell_angle_alpha 119.807588
_cell_angle_beta 48.128651
_cell_angle_gamma 79.812443
_cell_volume 488.217133
_symmetry_space_group_name_H-M "P -1"
_symmetry_group_IT_number 2
_symmetry_cell_setting 'triclinic'
loop_
_space_group_symop_operation_xyz
x,y,z
-x,-y,-z
loop_
_atom_site_type_symbol
_atom_site_label
_atom_site_fract_x
_atom_site_fract_y
_atom_site_fract_z
Si Si1 0.805171 0.585061 0.400808
Si Si2 0.808611 0.248461 0.658404
Si Si3 0.964370 0.268314 0.221177
Si Si4 0.500000 0.500000 0.500000
Si Si5 0.687825 0.044821 0.223071
Si Si6 0.666705 0.685536 0.032661
Si Si7 0.268856 0.174490 0.410975
O O1 0.592144 0.578455 0.535193
O O2 0.671041 0.748473 0.651841
O O3 0.000000 0.500000 0.000000
O O4 0.061267 0.477889 0.241432
O O5 0.502094 0.310075 0.969163
O O6 0.788718 0.322867 0.583255
O O7 0.928038 0.271700 0.732564
O O8 0.083493 0.061466 0.211902
O O9 0.728755 0.377609 0.363394
O O10 0.175014 0.085393 0.877270
O O11 0.191021 0.267735 0.076176
O O12 0.611866 0.178333 0.491473
O O13 0.355522 0.150996 0.509682
O O14 0.500000 0.000000 0.000000
#
# Coordination Sequence:
#
# PCOD9013338 Si02
#       7
#     2   2   2   1   2   2   2
#     4  11  22  38  67  89 126 161 213 261 299 366
#     4   9  21  36  60  83 124 164 196 244 318 363
#     4   9  21  34  60  85 123 155 206 256 300 363
#     4  10  22  40  58 100 118 164 208 264 310 358
#     4   9  19  36  61  85 124 162 206 252 303 364
#     4  11  19  36  59  93 116 158 215 255 297 362
#     4  10  21  41  64  91 128 171 200 249 322 375
#
# _framework density 26.627497000000002
#
# number of rings (size 3 to 8) (size 9 to 14) (size 15 to 20)
#    0.923    1.231    1.538    1.846    0.000    1.846 
#    0.000    5.385    0.000    0.000    0.000    0.000 
#    0.000    0.000    0.000    0.000    0.000    0.000 
#
# Total GULP energy -72478.511301 kJ/mol
# GULP energy per Si atom -5575.270100 kJ/mol
# Density = 2.656689 g / cm^3
# Si number density = 26.627497 Si / 1000 Ang^3
#
#
#
# Elastic Constant Matrix: (Units=GPa)
#
#
# Indices 1 2 3 4 5 6 
#
# 1 229.2818 69.1648 37.5882 -5.1659 -58.4980 38.1896
# 2 69.1648 171.8265 64.0472 21.2089 -36.5060 30.3246
# 3 37.5882 64.0472 92.3496 13.6911 -29.7134 12.5560
# 4 -5.1659 21.2089 13.6911 40.9204 5.2940 -11.5507
# 5 -58.4980 -36.5060 -29.7134 5.2940 55.2857 -1.1466
# 6 38.1896 30.3246 12.5560 -11.5507 -1.1466 53.2679
#
#
#
# Elastic Compliance Matrix: (Units=1/GPa)
#
#
# Indices 1 2 3 4 5 6 
#
# 1 0.007198 -0.000392 0.000850 -0.001697 0.007866 -0.005336
# 2 -0.000392 0.010202 -0.003567 -0.006467 0.004900 -0.005983
# 3 0.000850 -0.003567 0.016921 -0.005785 0.008116 -0.003647
# 4 -0.001697 -0.006467 -0.005785 0.034924 -0.012237 0.013571
# 5 0.007866 0.004900 0.008116 -0.012237 0.034926 -0.012244
# 6 -0.005336 -0.005983 -0.003647 0.013571 -0.012244 0.029544
#
#
# Mechanical properties :
#
#
# Convention : Reuss Voigt Hill
#
# Bulk Modulus (GPa) = 35.58334 92.78425 64.18379
# Shear Modulus (GPa) = 33.48913 51.40533 42.44723
#
# Velocity S-wave (km/s) = 3.55024 4.39855 3.99697
# Velocity P-wave (km/s) = 5.49527 7.79213 6.74223
#
# Compressibility (1/GPa) = 0.02810304
#
# Stress axis : x y z
#
# Youngs Moduli (GPa) = 138.93296 98.01589 59.09642
#
# Poissons Ratio (x) = 0.03840 -0.05023
# Poissons Ratio (y) = 0.05443 0.21083
# Poissons Ratio (z) = -0.11808 0.34967
#
# Static dielectric constant tensor:
#      x y z
#    x 2.354390 -0.283290 0.110490 
#    y -0.283290 2.244240 -0.208060 
#    z 0.110490 -0.208060 2.355080 
# 
# From -- ./inp_files/400654.got.cif
#   From: 2010.05.17/outbox.cif.g08.bks.cpg/sg2_201_cif.got.tgz:400654.got - 2010.06.03 11:33:40.
