data_PCOD9013767
_publ_section_title
;
Structure prediction by ZEFSAII (Michael W. Deem and Ramdas Pophale) SiO2 
 PCOD9013767
Probable space group: P -1
;
_chemical_formula_sum "Si O2"
_cell_formula_units_Z 16
_cell_length_a 10.198366
_cell_length_b 13.145878
_cell_length_c 9.374166
_cell_angle_alpha 58.731918
_cell_angle_beta 63.330966
_cell_angle_gamma 101.349320
_cell_volume 793.576464
_symmetry_space_group_name_H-M "P -1"
_symmetry_group_IT_number 2
_symmetry_cell_setting 'triclinic'
loop_
_space_group_symop_operation_xyz
x,y,z
-x,-y,-z
loop_
_atom_site_type_symbol
_atom_site_label
_atom_site_fract_x
_atom_site_fract_y
_atom_site_fract_z
Si Si1 0.436613 0.094537 0.399619
Si Si2 0.241399 0.119618 0.725143
Si Si3 0.591783 0.378187 0.995466
Si Si4 0.105843 0.926174 0.479233
Si Si5 0.099047 0.905968 0.185368
Si Si6 0.889062 0.568855 0.481468
Si Si7 0.293966 0.377823 0.704771
Si Si8 0.751280 0.640845 0.923072
O O1 0.387961 0.161043 0.505468
O O2 0.500000 0.000000 0.500000
O O3 0.259034 0.987641 0.475039
O O4 0.576542 0.230766 0.135773
O O5 0.266986 0.243288 0.727520
O O6 0.060641 0.070088 0.765894
O O7 0.217463 0.993246 0.928285
O O8 0.715496 0.477022 0.733057
O O9 0.675389 0.482006 0.016394
O O10 0.391264 0.331703 0.095196
O O11 0.186910 0.961132 0.255631
O O12 0.950355 0.757016 0.688930
O O13 0.000000 0.000000 0.500000
O O14 0.009780 0.736500 0.343125
O O15 0.819897 0.571893 0.355444
O O16 0.000000 0.500000 0.500000
O O17 0.500000 0.500000 0.500000
O O18 0.249212 0.347207 0.915095
#
# Coordination Sequence:
#
# PCOD9013767 Si02
#       8
#     2   2   2   2   2   2   2   2
#     4  12  28  44  64  98 140 173 208 274 341 387
#     4  10  22  40  65  93 130 166 217 271 320 376
#     4  11  23  44  67  96 137 168 218 279 328 379
#     4  12  21  40  68  98 124 171 229 259 315 396
#     4  10  21  41  65  96 123 171 225 266 310 384
#     4  11  25  42  65  95 138 175 209 268 337 389
#     4  11  22  40  65  97 125 167 223 268 318 381
#     4  11  22  40  72 100 122 170 230 277 310 381
#
# _framework density 20.161888999999999
#
# number of rings (size 3 to 8) (size 9 to 14) (size 15 to 20)
#    0.000    1.000    5.000    1.500    8.750    0.000 
#    4.500    1.875    0.000    0.000    0.000    0.000 
#    0.000    0.000    0.000    0.000    0.000    0.000 
#
# Total GULP energy -89383.245040 kJ/mol
# GULP energy per Si atom -5586.452815 kJ/mol
# Density = 2.011600 g / cm^3
# Si number density = 20.161889 Si / 1000 Ang^3
#
#
#
# Elastic Constant Matrix: (Units=GPa)
#
#
# Indices 1 2 3 4 5 6 
#
# 1 105.8582 52.8414 19.3527 -11.9380 24.5507 13.5154
# 2 52.8414 74.1999 32.7404 -5.0396 19.2741 21.5176
# 3 19.3527 32.7404 90.6528 -12.1836 19.3099 9.4064
# 4 -11.9380 -5.0396 -12.1836 40.3867 1.5298 8.0628
# 5 24.5507 19.2741 19.3099 1.5298 26.9138 -0.7427
# 6 13.5154 21.5176 9.4064 8.0628 -0.7427 26.9729
#
#
#
# Elastic Compliance Matrix: (Units=1/GPa)
#
#
# Indices 1 2 3 4 5 6 
#
# 1 0.017617 -0.008707 0.003643 0.006819 -0.012989 -0.005547
# 2 -0.008707 0.030878 -0.003928 0.004675 -0.012187 -0.020633
# 3 0.003643 -0.003928 0.016043 0.007263 -0.012621 -0.006805
# 4 0.006819 0.004675 0.007263 0.034279 -0.017291 -0.020402
# 5 -0.012989 -0.012187 -0.012621 -0.017291 0.068534 0.027688
# 6 -0.005547 -0.020633 -0.006805 -0.020402 0.027688 0.065549
#
#
# Mechanical properties :
#
#
# Convention : Reuss Voigt Hill
#
# Bulk Modulus (GPa) = 21.48107 53.39778 37.43942
# Shear Modulus (GPa) = 18.76874 29.90644 24.33759
#
# Velocity S-wave (km/s) = 3.05438 3.85556 3.47812
# Velocity P-wave (km/s) = 4.80795 6.80900 5.89402
#
# Compressibility (1/GPa) = 0.04655261
#
# Stress axis : x y z
#
# Youngs Moduli (GPa) = 56.76441 32.38559 62.33403
#
# Poissons Ratio (x) = 0.28199 -0.22706
# Poissons Ratio (y) = 0.49426 0.24483
# Poissons Ratio (z) = -0.20677 0.12720
#
# Static dielectric constant tensor:
#      x y z
#    x 1.685350 -0.002060 0.006850 
#    y -0.002060 1.753440 0.023990 
#    z 0.006850 0.023990 1.781400 
# 
# From -- ./inp_files/205544.got.cif
#   From: 2010.05.17/outbox.cif.g08.bks.cpg/sg2_103_cif.got.tgz:205544.got - 2010.06.03 11:33:40.
