data_PCOD9013691
_publ_section_title
;
Structure prediction by ZEFSAII (Michael W. Deem and Ramdas Pophale) SiO2 
 PCOD9013691
Probable space group: P -1
;
_chemical_formula_sum "Si O2"
_cell_formula_units_Z 16
_cell_length_a 12.019642
_cell_length_b 11.068331
_cell_length_c 5.433968
_cell_angle_alpha 87.901997
_cell_angle_beta 113.409260
_cell_angle_gamma 72.505815
_cell_volume 622.596153
_symmetry_space_group_name_H-M "P -1"
_symmetry_group_IT_number 2
_symmetry_cell_setting 'triclinic'
loop_
_space_group_symop_operation_xyz
x,y,z
-x,-y,-z
loop_
_atom_site_type_symbol
_atom_site_label
_atom_site_fract_x
_atom_site_fract_y
_atom_site_fract_z
Si Si1 0.547505 0.917126 0.799429
Si Si2 0.973901 0.416557 0.731483
Si Si3 0.694175 0.151063 0.418661
Si Si4 0.240279 0.303803 0.464118
Si Si5 0.968857 0.806305 0.855192
Si Si6 0.186508 0.679334 0.762382
Si Si7 0.271791 0.391661 0.983612
Si Si8 0.786722 0.995748 0.013418
O O1 0.456265 0.829650 0.732699
O O2 0.698548 0.903627 0.935176
O O3 0.500000 0.000000 0.500000
O O4 0.500000 0.000000 0.000000
O O5 0.871917 0.556959 0.649009
O O6 0.928094 0.351679 0.472833
O O7 0.120410 0.405309 0.841470
O O8 0.964832 0.334993 0.962626
O O9 0.728538 0.275872 0.362301
O O10 0.736570 0.098326 0.735491
O O11 0.765322 0.051545 0.267451
O O12 0.162394 0.203226 0.386524
O O13 0.319194 0.309739 0.779467
O O14 0.318042 0.313887 0.284673
O O15 0.924693 0.904047 0.037054
O O16 0.093844 0.807654 0.816302
O O17 0.272171 0.538485 0.960732
#
# Coordination Sequence:
#
# PCOD9013691 Si02
#       8
#     2   2   2   2   2   2   2   2
#     4   8  16  38  58  68  88 122 172 218 238 280
#     4  10  18  32  46  70 100 140 168 196 230 292
#     4  10  23  37  53  74  98 132 169 204 249 291
#     4  10  17  30  47  68  94 130 171 199 226 279
#     4  11  20  31  50  72 106 134 165 200 245 295
#     4  11  20  31  50  72 106 134 165 200 245 295
#     4  10  17  30  47  68  94 130 171 199 226 279
#     4  10  23  37  53  74  98 132 169 204 249 291
#
# _framework density 25.698841999999999
#
# number of rings (size 3 to 8) (size 9 to 14) (size 15 to 20)
#    0.000    2.000    3.750    1.500    3.500    1.000 
#    0.000    0.000    0.000    0.000    0.000    7.000 
#    0.000    0.000    0.000    0.000    0.000    0.000 
#
# Total GULP energy -89191.383639 kJ/mol
# GULP energy per Si atom -5574.461477 kJ/mol
# Density = 2.564035 g / cm^3
# Si number density = 25.698842 Si / 1000 Ang^3
#
#
#
# Elastic Constant Matrix: (Units=GPa)
#
#
# Indices 1 2 3 4 5 6 
#
# 1 112.2259 31.4493 21.3289 -4.8843 -28.3396 16.5749
# 2 31.4493 71.7050 13.2545 -9.5177 -8.7655 16.2492
# 3 21.3289 13.2545 148.4614 5.4371 -27.3879 -4.8941
# 4 -4.8843 -9.5177 5.4371 42.0458 0.8778 -17.6170
# 5 -28.3396 -8.7655 -27.3879 0.8778 36.8958 -3.8830
# 6 16.5749 16.2492 -4.8941 -17.6170 -3.8830 32.1294
#
#
#
# Elastic Compliance Matrix: (Units=1/GPa)
#
#
# Indices 1 2 3 4 5 6 
#
# 1 0.012666 -0.003708 -0.000035 -0.001387 0.008391 -0.004411
# 2 -0.003708 0.017395 -0.001354 0.000906 -0.000442 -0.006648
# 3 -0.000035 -0.001354 0.008043 -0.000477 0.005883 0.002378
# 4 -0.001387 0.000906 -0.000477 0.031110 -0.000131 0.017227
# 5 0.008391 -0.000442 0.005883 -0.000131 0.037951 0.001305
# 6 -0.004411 -0.006648 0.002378 0.017227 0.001305 0.046727
#
#
# Mechanical properties :
#
#
# Convention : Reuss Voigt Hill
#
# Bulk Modulus (GPa) = 35.82955 51.60642 43.71798
# Shear Modulus (GPa) = 28.83681 39.97152 34.40416
#
# Velocity S-wave (km/s) = 3.35342 3.94811 3.66285
# Velocity P-wave (km/s) = 5.38203 6.39596 5.91077
#
# Compressibility (1/GPa) = 0.02790992
#
# Stress axis : x y z
#
# Youngs Moduli (GPa) = 78.95021 57.48712 124.33371
#
# Poissons Ratio (x) = 0.21314 0.00441
# Poissons Ratio (y) = 0.29271 0.16837
# Poissons Ratio (z) = 0.00280 0.07785
#
# Static dielectric constant tensor:
#      x y z
#    x 2.058270 -0.117520 -0.137670 
#    y -0.117520 2.263910 0.057190 
#    z -0.137670 0.057190 2.252010 
# 
# From -- ./inp_files/66806.got.cif
#   From: 2010.05.17/outbox.cif.g08.bks.cpg/sg2_34_cif.got.tgz:66806.got - 2010.06.03 11:33:40.
