data_PCOD9013996
_publ_section_title
;
Structure prediction by ZEFSAII (Michael W. Deem and Ramdas Pophale) SiO2 
 PCOD9013996
Probable space group: P -1
;
_chemical_formula_sum "Si O2"
_cell_formula_units_Z 16
_cell_length_a 13.973018
_cell_length_b 9.001000
_cell_length_c 18.249940
_cell_angle_alpha 144.765249
_cell_angle_beta 148.054331
_cell_angle_gamma 37.974966
_cell_volume 665.734837
_symmetry_space_group_name_H-M "P -1"
_symmetry_group_IT_number 2
_symmetry_cell_setting 'triclinic'
loop_
_space_group_symop_operation_xyz
x,y,z
-x,-y,-z
loop_
_atom_site_type_symbol
_atom_site_label
_atom_site_fract_x
_atom_site_fract_y
_atom_site_fract_z
Si Si1 0.244960 0.021339 0.690453
Si Si2 0.624099 0.901601 0.968803
Si Si3 0.846449 0.294590 0.913735
Si Si4 0.858469 0.493406 0.532454
Si Si5 0.478918 0.136530 0.621204
Si Si6 0.922125 0.531954 0.749520
Si Si7 0.054264 0.862784 0.751032
Si Si8 0.764693 0.093944 0.529336
O O1 0.465973 0.916791 0.811891
O O2 0.154541 0.796493 0.570265
O O3 0.118871 0.298370 0.758284
O O4 0.235636 0.026981 0.599692
O O5 0.769894 0.601697 0.955903
O O6 0.500000 0.000000 0.000000
O O7 0.740379 0.105422 0.108055
O O8 0.659452 0.230165 0.795964
O O9 0.935487 0.088965 0.823043
O O10 0.004670 0.281809 0.073149
O O11 0.701274 0.601309 0.410380
O O12 0.827343 0.636252 0.651377
O O13 0.411841 0.947331 0.557711
O O14 0.500000 0.000000 0.500000
O O15 0.788407 0.388987 0.648448
O O16 0.034811 0.580201 0.651589
O O17 0.946352 0.941992 0.635918
#
# Coordination Sequence:
#
# PCOD9013996 Si02
#       8
#     2   2   2   2   2   2   2   2
#     4  11  23  45  66  99 138 177 230 280 332 403
#     4  12  24  44  67 103 135 180 227 276 338 408
#     4  12  23  43  71  95 144 172 219 283 340 404
#     4  10  22  42  67  95 136 172 225 281 326 404
#     4  11  22  43  65  96 137 171 226 278 335 399
#     4  11  24  44  65 100 138 180 220 278 347 401
#     4  11  24  44  69 101 129 180 228 273 350 400
#     4  10  21  41  66  93 133 175 221 278 330 396
#
# _framework density 24.033591999999999
#
# number of rings (size 3 to 8) (size 9 to 14) (size 15 to 20)
#    0.000    1.000    6.250    1.875    0.000    1.500 
#    6.750    8.750    0.000    0.000    0.000    0.000 
#    0.000    0.000    0.000    0.000    0.000    0.000 
#
# Total GULP energy -89548.784547 kJ/mol
# GULP energy per Si atom -5596.799034 kJ/mol
# Density = 2.397889 g / cm^3
# Si number density = 24.033592 Si / 1000 Ang^3
#
#
#
# Elastic Constant Matrix: (Units=GPa)
#
#
# Indices 1 2 3 4 5 6 
#
# 1 151.4281 33.6259 72.7865 -0.4997 27.6147 33.4538
# 2 33.6259 77.2079 44.4780 1.9375 2.7688 21.1153
# 3 72.7865 44.4780 151.5842 -19.6435 14.2939 28.1395
# 4 -0.4997 1.9375 -19.6435 41.8973 4.0050 -1.7074
# 5 27.6147 2.7688 14.2939 4.0050 57.5518 7.0365
# 6 33.4538 21.1153 28.1395 -1.7074 7.0365 41.8415
#
#
#
# Elastic Compliance Matrix: (Units=1/GPa)
#
#
# Indices 1 2 3 4 5 6 
#
# 1 0.010186 -0.000895 -0.003619 -0.001416 -0.003264 -0.004767
# 2 -0.000895 0.017291 -0.004154 -0.003133 0.001532 -0.005602
# 3 -0.003619 -0.004154 0.010636 0.005142 -0.000842 -0.001811
# 4 -0.001416 -0.003133 0.005142 0.026666 -0.002394 0.000746
# 5 -0.003264 0.001532 -0.000842 -0.002394 0.019360 -0.000951
# 6 -0.004767 -0.005602 -0.001811 0.000746 -0.000951 0.031947
#
#
# Mechanical properties :
#
#
# Convention : Reuss Voigt Hill
#
# Bulk Modulus (GPa) = 48.13332 75.77788 61.95560
# Shear Modulus (GPa) = 35.62598 43.54676 39.58637
#
# Velocity S-wave (km/s) = 3.85429 4.26127 4.06288
# Velocity P-wave (km/s) = 6.31494 7.47059 6.91694
#
# Compressibility (1/GPa) = 0.02077563
#
# Stress axis : x y z
#
# Youngs Moduli (GPa) = 98.17503 57.83453 94.02272
#
# Poissons Ratio (x) = 0.05176 0.34028
# Poissons Ratio (y) = 0.08786 0.39060
# Poissons Ratio (z) = 0.35531 0.24026
#
# Static dielectric constant tensor:
#      x y z
#    x 1.935400 -0.075530 -0.028870 
#    y -0.075530 2.017700 0.001140 
#    z -0.028870 0.001140 1.895190 
# 
# From -- ./inp_files/599801.got.cif
#   From: 2010.05.17/outbox.cif.g08.bks.cpg/sg2_300_cif.got.tgz:599801.got - 2010.06.03 11:33:40.
