data_PCOD9013548
_publ_section_title
;
Structure prediction by ZEFSAII (Michael W. Deem and Ramdas Pophale) SiO2 
 PCOD9013548
Probable space group: P -1
;
_chemical_formula_sum "Si O2"
_cell_formula_units_Z 16
_cell_length_a 17.228176
_cell_length_b 8.393783
_cell_length_c 13.509135
_cell_angle_alpha 88.495229
_cell_angle_beta 145.560603
_cell_angle_gamma 116.304946
_cell_volume 736.033890
_symmetry_space_group_name_H-M "P -1"
_symmetry_group_IT_number 2
_symmetry_cell_setting 'triclinic'
loop_
_space_group_symop_operation_xyz
x,y,z
-x,-y,-z
loop_
_atom_site_type_symbol
_atom_site_label
_atom_site_fract_x
_atom_site_fract_y
_atom_site_fract_z
Si Si1 0.074830 0.804736 0.505264
Si Si2 0.381085 0.269791 0.946636
Si Si3 0.937840 0.664534 0.707240
Si Si4 0.883559 0.844516 0.146265
Si Si5 0.777980 0.086405 0.810736
Si Si6 0.299587 0.656779 0.371161
Si Si7 0.257837 0.302686 0.223376
Si Si8 0.772397 0.399109 0.346438
O O1 0.229582 0.790833 0.663987
O O2 0.010122 0.812507 0.330219
O O3 0.870304 0.565763 0.349812
O O4 0.188054 0.037319 0.684571
O O5 0.289446 0.255355 0.953483
O O6 0.500000 0.500000 0.000000
O O7 0.553529 0.284210 0.144259
O O8 0.732230 0.426193 0.548826
O O9 0.939389 0.581644 0.605090
O O10 0.961581 0.872396 0.709773
O O11 0.109572 0.777348 0.969071
O O12 0.785877 0.725387 0.939045
O O13 0.795412 0.251966 0.753007
O O14 0.536350 0.869906 0.587441
O O15 0.825029 0.945187 0.826618
O O16 0.198730 0.421267 0.208401
O O17 0.500000 0.500000 0.500000
#
# Coordination Sequence:
#
# PCOD9013548 Si02
#       8
#     2   2   2   2   2   2   2   2
#     4  11  24  47  62 102 133 172 224 282 335 400
#     4  12  23  43  70  95 131 179 221 275 336 401
#     4  11  23  39  65  94 124 175 217 271 330 403
#     4  11  23  42  68  97 133 172 229 270 333 400
#     4   9  21  40  60  91 126 169 216 278 324 397
#     4  10  21  41  65  87 132 172 220 273 342 385
#     4   9  21  40  64  95 130 173 217 276 327 401
#     4  11  25  41  70  95 140 171 218 281 339 404
#
# _framework density 21.738129000000001
#
# number of rings (size 3 to 8) (size 9 to 14) (size 15 to 20)
#    0.000    1.500    2.500    1.875    7.000    2.000 
#    2.250    2.500    0.000    0.000    0.000    0.000 
#    0.000    0.000    0.000    0.000    0.000    0.000 
#
# Total GULP energy -89351.194496 kJ/mol
# GULP energy per Si atom -5584.449656 kJ/mol
# Density = 2.168865 g / cm^3
# Si number density = 21.738129 Si / 1000 Ang^3
#
#
#
# Elastic Constant Matrix: (Units=GPa)
#
#
# Indices 1 2 3 4 5 6 
#
# 1 52.6703 45.5132 15.4181 -19.0875 -3.4569 -14.5579
# 2 45.5132 155.4636 27.5732 -9.4545 0.0453 5.5918
# 3 15.4181 27.5732 70.0248 -5.2565 -10.7356 -10.6883
# 4 -19.0875 -9.4545 -5.2565 32.2673 1.3092 0.5015
# 5 -3.4569 0.0453 -10.7356 1.3092 45.9652 -6.3528
# 6 -14.5579 5.5918 -10.6883 0.5015 -6.3528 29.2558
#
#
#
# Elastic Compliance Matrix: (Units=1/GPa)
#
#
# Indices 1 2 3 4 5 6 
#
# 1 0.046772 -0.013669 0.002193 0.023293 0.007230 0.027859
# 2 -0.013669 0.011229 -0.003998 -0.005139 -0.003354 -0.011049
# 3 0.002193 -0.003998 0.017889 0.002665 0.005592 0.009560
# 4 0.023293 -0.005139 0.002665 0.043367 0.003004 0.013455
# 5 0.007230 -0.003354 0.005592 0.003004 0.025139 0.011689
# 6 0.027859 -0.011049 0.009560 0.013455 0.011689 0.055956
#
#
# Mechanical properties :
#
#
# Convention : Reuss Voigt Hill
#
# Bulk Modulus (GPa) = 22.25136 50.57420 36.41278
# Shear Modulus (GPa) = 20.30207 34.14128 27.22167
#
# Velocity S-wave (km/s) = 3.05936 3.96734 3.54256
# Velocity P-wave (km/s) = 4.76842 6.65598 5.78965
#
# Compressibility (1/GPa) = 0.04494107
#
# Stress axis : x y z
#
# Youngs Moduli (GPa) = 21.38043 89.05357 55.90138
#
# Poissons Ratio (x) = 1.21731 -0.12262
# Poissons Ratio (y) = 0.29226 0.22351
# Poissons Ratio (z) = -0.04690 0.35607
#
# Static dielectric constant tensor:
#      x y z
#    x 1.818990 -0.025800 0.043540 
#    y -0.025800 1.802180 0.019800 
#    z 0.043540 0.019800 1.801390 
# 
# From -- ./inp_files/462167.got.cif
#   From: 2010.05.17/outbox.cif.g08.bks.cpg/sg2_232_cif.got.tgz:462167.got - 2010.06.03 11:33:40.
