data_PCOD9013409
_publ_section_title
;
Structure prediction by ZEFSAII (Michael W. Deem and Ramdas Pophale) SiO2 
 PCOD9013409
Probable space group: P -1
;
_chemical_formula_sum "Si O2"
_cell_formula_units_Z 16
_cell_length_a 6.164150
_cell_length_b 27.221533
_cell_length_c 5.028180
_cell_angle_alpha 103.534628
_cell_angle_beta 78.125523
_cell_angle_gamma 122.019611
_cell_volume 692.069822
_symmetry_space_group_name_H-M "P -1"
_symmetry_group_IT_number 2
_symmetry_cell_setting 'triclinic'
loop_
_space_group_symop_operation_xyz
x,y,z
-x,-y,-z
loop_
_atom_site_type_symbol
_atom_site_label
_atom_site_fract_x
_atom_site_fract_y
_atom_site_fract_z
Si Si1 0.098119 0.586269 0.329452
Si Si2 0.183443 0.726018 0.974821
Si Si3 0.284974 0.516805 0.049488
Si Si4 0.428306 0.923632 0.680681
Si Si5 0.284589 0.381998 0.249890
Si Si6 0.558866 0.695674 0.542442
Si Si7 0.262396 0.017030 0.808386
Si Si8 0.882123 0.214664 0.456296
O O1 0.337537 0.652347 0.336489
O O2 0.956991 0.544666 0.060071
O O3 0.874207 0.589688 0.546161
O O4 0.218284 0.546472 0.347129
O O5 0.401845 0.712928 0.806233
O O6 0.140332 0.762846 0.801020
O O7 0.914859 0.663910 0.975133
O O8 0.246184 0.760976 0.275553
O O9 0.445303 0.571196 0.878828
O O10 0.500000 0.500000 0.000000
O O11 0.670644 0.950358 0.450291
O O12 0.255042 0.854780 0.597737
O O13 0.282451 0.958945 0.694437
O O14 0.520255 0.940161 0.981836
O O15 0.337620 0.343329 0.394293
O O16 0.821821 0.754284 0.477583
O O17 0.000000 0.000000 0.000000
#
# Coordination Sequence:
#
# PCOD9013409 Si02
#       8
#     2   2   2   2   2   2   2   2
#     4  10  22  37  57  82 111 152 198 248 311 377
#     4  10  24  41  64  90 124 167 214 260 317 375
#     4  11  23  36  57  87 116 152 202 260 317 380
#     4  10  22  38  64  96 130 167 215 256 305 371
#     4  10  22  39  58  82 117 159 202 258 316 374
#     4  10  23  41  61  86 121 165 209 258 316 375
#     4  10  21  41  64  94 131 172 208 256 311 362
#     4  11  23  42  63  95 130 165 211 264 307 366
#
# _framework density 23.119052
#
# number of rings (size 3 to 8) (size 9 to 14) (size 15 to 20)
#    0.000    1.750    0.000    3.000    0.000   14.000 
#    0.000    0.000    0.000    0.000    0.000    0.000 
#    0.000    0.000    0.000    0.000    0.000    0.000 
#
# Total GULP energy -89372.226542 kJ/mol
# GULP energy per Si atom -5585.764159 kJ/mol
# Density = 2.306643 g / cm^3
# Si number density = 23.119052 Si / 1000 Ang^3
#
#
#
# Elastic Constant Matrix: (Units=GPa)
#
#
# Indices 1 2 3 4 5 6 
#
# 1 71.3255 46.2293 28.7265 11.2841 -39.9787 15.7298
# 2 46.2293 149.4282 65.9540 27.6285 -15.9656 16.5250
# 3 28.7265 65.9540 94.0713 17.6902 -14.0570 2.6141
# 4 11.2841 27.6285 17.6902 42.7780 -0.6668 4.0386
# 5 -39.9787 -15.9656 -14.0570 -0.6668 36.2265 -7.5421
# 6 15.7298 16.5250 2.6141 4.0386 -7.5421 18.0110
#
#
#
# Elastic Compliance Matrix: (Units=1/GPa)
#
#
# Indices 1 2 3 4 5 6 
#
# 1 0.051770 -0.006912 -0.001921 -0.006076 0.049821 -0.016368
# 2 -0.006912 0.012393 -0.006783 -0.002879 -0.006159 -0.006283
# 3 -0.001921 -0.006783 0.016693 -0.002657 0.002831 0.007259
# 4 -0.006076 -0.002879 -0.002657 0.027954 -0.008830 -0.001632
# 5 0.049821 -0.006159 0.002831 -0.008830 0.080248 -0.002688
# 6 -0.016368 -0.006283 0.007259 -0.001632 -0.002688 0.073768
#
#
# Mechanical properties :
#
#
# Convention : Reuss Voigt Hill
#
# Bulk Modulus (GPa) = 20.15091 66.29385 43.22238
# Shear Modulus (GPa) = 16.09792 30.99746 23.54769
#
# Velocity S-wave (km/s) = 2.64162 3.66563 3.19492
# Velocity P-wave (km/s) = 4.24727 6.83030 5.68737
#
# Compressibility (1/GPa) = 0.04962555
#
# Stress axis : x y z
#
# Youngs Moduli (GPa) = 19.31622 80.68786 59.90477
#
# Poissons Ratio (x) = 0.55771 0.11507
# Poissons Ratio (y) = 0.13351 0.40632
# Poissons Ratio (z) = 0.03710 0.54729
#
# Static dielectric constant tensor:
#      x y z
#    x 2.110340 -0.009950 0.038590 
#    y -0.009950 1.886940 -0.011660 
#    z 0.038590 -0.011660 1.878410 
# 
# From -- ./inp_files/14690.got.cif
#   From: 2010.05.17/outbox.cif.g08.bks.cpg/sg2_8_cif.got.tgz:14690.got - 2010.06.03 11:33:40.
