data_PCOD9013312
_publ_section_title
;
Structure prediction by ZEFSAII (Michael W. Deem and Ramdas Pophale) SiO2 
 PCOD9013312
Probable space group: P -1
;
_chemical_formula_sum "Si O2"
_cell_formula_units_Z 14
_cell_length_a 5.070981
_cell_length_b 23.119738
_cell_length_c 5.374383
_cell_angle_alpha 54.512495
_cell_angle_beta 88.591542
_cell_angle_gamma 87.550951
_cell_volume 512.578283
_symmetry_space_group_name_H-M "P -1"
_symmetry_group_IT_number 2
_symmetry_cell_setting 'triclinic'
loop_
_space_group_symop_operation_xyz
x,y,z
-x,-y,-z
loop_
_atom_site_type_symbol
_atom_site_label
_atom_site_fract_x
_atom_site_fract_y
_atom_site_fract_z
Si Si1 0.814381 0.963417 0.799044
Si Si2 0.310679 0.911393 0.113756
Si Si3 0.799832 0.326638 0.275986
Si Si4 0.900152 0.594156 0.304258
Si Si5 0.599762 0.442055 0.340664
Si Si6 0.882682 0.751703 0.154657
Si Si7 0.385534 0.786642 0.789312
O O1 0.747281 0.022333 0.863828
O O2 0.524193 0.932433 0.846120
O O3 0.000000 0.000000 0.500000
O O4 0.016150 0.900957 0.046269
O O5 0.428838 0.847880 0.436220
O O6 0.621121 0.365814 0.388845
O O7 0.000994 0.266272 0.532242
O O8 0.622789 0.287779 0.175313
O O9 0.974174 0.388943 0.005369
O O10 0.112276 0.548124 0.575310
O O11 0.896328 0.672820 0.229686
O O12 0.612065 0.565940 0.415484
O O13 0.500000 0.500000 0.000000
O O14 0.595761 0.782312 0.017080
O O15 0.096835 0.796154 0.890925
#
# Coordination Sequence:
#
# PCOD9013312 Si02
#       7
#     2   2   2   2   2   2   2
#     4  10  21  41  64  90 126 169 212 260 319 375
#     4  10  22  40  63  92 128 164 213 268 309 379
#     4  10  24  44  68  93 134 173 208 270 331 377
#     4  10  22  41  63  91 124 165 213 261 320 383
#     4  11  24  41  64  95 126 165 219 265 315 389
#     4  10  22  40  64  93 129 168 212 263 319 389
#     4  11  23  41  65  98 130 167 217 265 322 384
#
# _framework density 27.312904
#
# number of rings (size 3 to 8) (size 9 to 14) (size 15 to 20)
#    0.000    1.714    0.000    4.286    0.000   12.571 
#    0.000    5.714    0.000    2.571    0.000    0.000 
#    0.000    0.000    0.000    0.000    0.000    0.000 
#
# Total GULP energy -78474.651414 kJ/mol
# GULP energy per Si atom -5605.332244 kJ/mol
# Density = 2.725074 g / cm^3
# Si number density = 27.312904 Si / 1000 Ang^3
#
#
#
# Elastic Constant Matrix: (Units=GPa)
#
#
# Indices 1 2 3 4 5 6 
#
# 1 177.8599 25.9327 62.0533 -5.2540 -10.3142 6.6137
# 2 25.9327 108.2269 4.7659 -0.4498 -1.6921 -18.0241
# 3 62.0533 4.7659 164.4596 -13.0293 -4.0520 -7.8313
# 4 -5.2540 -0.4498 -13.0293 37.2644 -6.5267 5.0644
# 5 -10.3142 -1.6921 -4.0520 -6.5267 60.2410 7.5153
# 6 6.6137 -18.0241 -7.8313 5.0644 7.5153 18.4526
#
#
#
# Elastic Compliance Matrix: (Units=1/GPa)
#
#
# Indices 1 2 3 4 5 6 
#
# 1 0.007586 -0.003018 -0.002995 0.001492 0.002203 -0.008245
# 2 -0.003018 0.012408 0.001270 -0.002301 -0.002239 0.015284
# 3 -0.002995 0.001270 0.007527 0.001419 -0.000480 0.005314
# 4 0.001492 -0.002301 0.001419 0.030112 0.005111 -0.012526
# 5 0.002203 -0.002239 -0.000480 0.005111 0.018971 -0.012310
# 6 -0.008245 0.015284 0.005314 -0.012526 -0.012310 0.082783
#
#
# Mechanical properties :
#
#
# Convention : Reuss Voigt Hill
#
# Bulk Modulus (GPa) = 55.45063 70.67224 63.06143
# Shear Modulus (GPa) = 28.59009 47.04459 37.81734
#
# Velocity S-wave (km/s) = 3.23888 4.15472 3.72505
# Velocity P-wave (km/s) = 5.85945 6.99620 6.45291
#
# Compressibility (1/GPa) = 0.01803406
#
# Stress axis : x y z
#
# Youngs Moduli (GPa) = 131.82621 80.59354 132.84860
#
# Poissons Ratio (x) = 0.24325 0.39786
# Poissons Ratio (y) = 0.39788 -0.16866
# Poissons Ratio (z) = 0.39480 -0.10232
#
# Static dielectric constant tensor:
#      x y z
#    x 2.061380 0.024930 0.018310 
#    y 0.024930 2.162270 -0.034980 
#    z 0.018310 -0.034980 2.178270 
# 
# From -- ./inp_files/13626.got.cif
#   From: 2010.05.17/outbox.cif.g08.bks.cpg/sg2_7_cif.got.tgz:13626.got - 2010.06.03 11:33:40.
