data_PCOD9013847
_publ_section_title
;
Structure prediction by ZEFSAII (Michael W. Deem and Ramdas Pophale) SiO2 
 PCOD9013847
Probable space group: P -1
;
_chemical_formula_sum "Si O2"
_cell_formula_units_Z 16
_cell_length_a 11.780068
_cell_length_b 14.545609
_cell_length_c 8.832413
_cell_angle_alpha 48.951672
_cell_angle_beta 130.580657
_cell_angle_gamma 135.098764
_cell_volume 755.247845
_symmetry_space_group_name_H-M "P -1"
_symmetry_group_IT_number 2
_symmetry_cell_setting 'triclinic'
loop_
_space_group_symop_operation_xyz
x,y,z
-x,-y,-z
loop_
_atom_site_type_symbol
_atom_site_label
_atom_site_fract_x
_atom_site_fract_y
_atom_site_fract_z
Si Si1 0.586822 0.552039 0.361170
Si Si2 0.705045 0.352099 0.519053
Si Si3 0.832288 0.006690 0.882509
Si Si4 0.423456 0.044728 0.527462
Si Si5 0.962724 0.263830 0.926449
Si Si6 0.822995 0.059050 0.323253
Si Si7 0.342522 0.502350 0.952061
Si Si8 0.812722 0.854301 0.318608
O O1 0.500000 0.500000 0.500000
O O2 0.638721 0.443371 0.453397
O O3 0.750487 0.698590 0.381117
O O4 0.446667 0.569317 0.122007
O O5 0.565245 0.188744 0.565681
O O6 0.874411 0.360694 0.729231
O O7 0.720738 0.410290 0.298751
O O8 0.891825 0.162776 0.825819
O O9 0.718150 0.941285 0.707543
O O10 0.755357 0.916048 0.063343
O O11 0.000000 0.000000 0.000000
O O12 0.500000 0.000000 0.500000
O O13 0.318786 0.940462 0.687667
O O14 0.170059 0.355536 0.997046
O O15 0.895264 0.168742 0.125017
O O16 0.986403 0.082047 0.539178
O O17 0.746987 0.902940 0.354888
O O18 0.500000 0.500000 0.000000
#
# Coordination Sequence:
#
# PCOD9013847 Si02
#       8
#     2   2   2   2   2   2   2   2
#     4  11  23  42  67  98 132 175 225 270 328 404
#     4  11  25  43  66  97 140 177 217 284 332 404
#     4  11  23  38  72  95 128 173 232 279 319 404
#     4  12  24  44  64 105 135 171 226 276 344 392
#     4  11  24  46  63 101 134 180 223 274 354 387
#     4  10  23  42  72  95 137 171 220 286 327 399
#     4  10  24  42  70  94 131 177 222 277 325 404
#     4  10  21  41  66 101 123 173 226 273 329 386
#
# _framework density 21.185098
#
# number of rings (size 3 to 8) (size 9 to 14) (size 15 to 20)
#    0.000    1.250    2.500    2.625    7.000    0.500 
#    6.750    1.250    0.000    0.000    0.000    0.000 
#    0.000    0.000    0.000    0.000    0.000    0.000 
#
# Total GULP energy -89111.804871 kJ/mol
# GULP energy per Si atom -5569.487804 kJ/mol
# Density = 2.113688 g / cm^3
# Si number density = 21.185098 Si / 1000 Ang^3
#
#
#
# Elastic Constant Matrix: (Units=GPa)
#
#
# Indices 1 2 3 4 5 6 
#
# 1 109.7038 42.4839 28.9778 -3.1203 -3.6359 6.4928
# 2 42.4839 102.5444 9.9465 11.0745 -3.0293 1.2485
# 3 28.9778 9.9465 84.0519 8.7606 -6.5756 6.0833
# 4 -3.1203 11.0745 8.7606 30.7149 -1.0621 0.0546
# 5 -3.6359 -3.0293 -6.5756 -1.0621 36.9658 -2.3684
# 6 6.4928 1.2485 6.0833 0.0546 -2.3684 27.8946
#
#
#
# Elastic Compliance Matrix: (Units=1/GPa)
#
#
# Indices 1 2 3 4 5 6 
#
# 1 0.012405 -0.005191 -0.003971 0.004271 0.000097 -0.001789
# 2 -0.005191 0.012392 0.000873 -0.005226 0.000543 0.000520
# 3 -0.003971 0.000873 0.013937 -0.004624 0.001900 -0.001984
# 4 0.004271 -0.005226 -0.004624 0.036202 0.000222 0.000196
# 5 0.000097 0.000543 0.001900 0.000222 0.027571 0.001879
# 6 -0.001789 0.000520 -0.001984 0.000196 0.001879 0.036834
#
#
# Mechanical properties :
#
#
# Convention : Reuss Voigt Hill
#
# Bulk Modulus (GPa) = 45.13258 51.01297 48.07277
# Shear Modulus (GPa) = 30.61768 33.44119 32.02943
#
# Velocity S-wave (km/s) = 3.80576 3.97737 3.89252
# Velocity P-wave (km/s) = 6.37667 6.72492 6.55311
#
# Compressibility (1/GPa) = 0.02215694
#
# Stress axis : x y z
#
# Youngs Moduli (GPa) = 80.61223 80.69764 71.75021
#
# Poissons Ratio (x) = 0.41889 0.28489
# Poissons Ratio (y) = 0.41845 -0.06262
# Poissons Ratio (z) = 0.32008 -0.07043
#
# Static dielectric constant tensor:
#      x y z
#    x 1.713070 -0.053820 -0.150300 
#    y -0.053820 1.738920 -0.231240 
#    z -0.150300 -0.231240 1.701790 
# 
# From -- ./inp_files/208357.got.cif
#   From: 2010.05.17/outbox.cif.g08.bks.cpg/sg2_105_cif.got.tgz:208357.got - 2010.06.03 11:33:40.
