data_PCOD9013813
_publ_section_title
;
Structure prediction by ZEFSAII (Michael W. Deem and Ramdas Pophale) SiO2 
 PCOD9013813
Probable space group: P -1
;
_chemical_formula_sum "Si O2"
_cell_formula_units_Z 15
_cell_length_a 6.666260
_cell_length_b 17.782948
_cell_length_c 8.973671
_cell_angle_alpha 133.811903
_cell_angle_beta 77.047718
_cell_angle_gamma 115.526720
_cell_volume 688.203465
_symmetry_space_group_name_H-M "P -1"
_symmetry_group_IT_number 2
_symmetry_cell_setting 'triclinic'
loop_
_space_group_symop_operation_xyz
x,y,z
-x,-y,-z
loop_
_atom_site_type_symbol
_atom_site_label
_atom_site_fract_x
_atom_site_fract_y
_atom_site_fract_z
Si Si1 0.061324 0.218587 0.590831
Si Si2 0.399938 0.641095 0.893791
Si Si3 0.823311 0.385521 0.805052
Si Si4 0.664954 0.979032 0.322849
Si Si5 0.676245 0.177434 0.048396
Si Si6 0.466336 0.681185 0.514124
Si Si7 0.500000 0.500000 0.500000
Si Si8 0.144855 0.212264 0.917084
O O1 0.936862 0.296171 0.660133
O O2 0.296374 0.254380 0.517400
O O3 0.099714 0.234533 0.784868
O O4 0.887536 0.090358 0.419795
O O5 0.312488 0.725447 0.941050
O O6 0.311278 0.517647 0.669776
O O7 0.366548 0.651945 0.087741
O O8 0.670295 0.677577 0.881814
O O9 0.711811 0.392596 0.678887
O O10 0.000000 0.500000 0.000000
O O11 0.744771 0.880295 0.225968
O O12 0.500000 0.000000 0.500000
O O13 0.520525 0.934474 0.135728
O O14 0.613963 0.224812 0.273775
O O15 0.914981 0.169614 0.988374
O O16 0.479176 0.597897 0.526638
#
# Coordination Sequence:
#
# PCOD9013813 Si02
#       8
#     2   2   2   2   2   2   1   2
#     4  12  24  42  70 104 136 181 233 285 344 410
#     4  10  21  41  65  98 134 176 236 285 334 418
#     4  12  26  42  69 104 136 180 236 295 349 408
#     4  11  23  40  73 107 137 177 236 281 339 422
#     4  10  23  43  66 101 138 182 224 282 347 412
#     4  11  27  46  68 101 145 182 234 295 348 413
#     4  10  24  44  68  94 138 186 232 284 356 400
#     4  11  21  40  73  97 135 186 224 279 347 407
#
# _framework density 21.795881999999999
#
# number of rings (size 3 to 8) (size 9 to 14) (size 15 to 20)
#    0.000    1.067    4.000    2.000    1.867    5.867 
#    0.000    6.000    0.000    0.000    0.000    0.000 
#    0.000    0.000    0.000    0.000    0.000    0.000 
#
# Total GULP energy -83600.327240 kJ/mol
# GULP energy per Si atom -5573.355149 kJ/mol
# Density = 2.174627 g / cm^3
# Si number density = 21.795882 Si / 1000 Ang^3
#
#
#
# Elastic Constant Matrix: (Units=GPa)
#
#
# Indices 1 2 3 4 5 6 
#
# 1 114.9440 31.0957 32.6066 -14.2395 -7.1536 16.0529
# 2 31.0957 60.6051 15.9232 -6.4614 3.5777 7.5797
# 3 32.6066 15.9232 75.3581 -32.8340 -7.3566 7.6916
# 4 -14.2395 -6.4614 -32.8340 24.7010 0.7994 -6.6557
# 5 -7.1536 3.5777 -7.3566 0.7994 44.0227 1.3619
# 6 16.0529 7.5797 7.6916 -6.6557 1.3619 23.6943
#
#
#
# Elastic Compliance Matrix: (Units=1/GPa)
#
#
# Indices 1 2 3 4 5 6 
#
# 1 0.011802 -0.004552 -0.003881 -0.001143 0.001836 -0.005706
# 2 -0.004552 0.019952 -0.003304 -0.002448 -0.002784 -0.002754
# 3 -0.003881 -0.003304 0.035038 0.044557 0.004543 0.004567
# 4 -0.001143 -0.002448 0.044557 0.102444 0.005117 0.015576
# 5 0.001836 -0.002784 0.004543 0.005117 0.023961 -0.001768
# 6 -0.005706 -0.002754 0.004567 0.015576 -0.001768 0.049946
#
#
# Mechanical properties :
#
#
# Convention : Reuss Voigt Hill
#
# Bulk Modulus (GPa) = 23.08499 45.57313 34.32906
# Shear Modulus (GPa) = 17.79003 29.90238 23.84621
#
# Velocity S-wave (km/s) = 2.86004 3.70797 3.31126
# Velocity P-wave (km/s) = 4.63906 6.26790 5.51396
#
# Compressibility (1/GPa) = 0.04331818
#
# Stress axis : x y z
#
# Youngs Moduli (GPa) = 84.73131 50.12119 28.54006
#
# Poissons Ratio (x) = 0.22817 0.11077
# Poissons Ratio (y) = 0.38573 0.09428
# Poissons Ratio (z) = 0.32885 0.16558
#
# Static dielectric constant tensor:
#      x y z
#    x 1.750050 0.006850 -0.026720 
#    y 0.006850 1.773450 -0.085660 
#    z -0.026720 -0.085660 2.084500 
# 
# From -- ./inp_files/45839.got.cif
#   From: 2010.05.17/outbox.cif.g08.bks.cpg/sg2_23_cif.got.tgz:45839.got - 2010.06.03 11:33:40.
