data_PCOD9013467
_publ_section_title
;
Structure prediction by ZEFSAII (Michael W. Deem and Ramdas Pophale) SiO2 
 PCOD9013467
Probable space group: P -1
;
_chemical_formula_sum "Si O2"
_cell_formula_units_Z 16
_cell_length_a 8.251675
_cell_length_b 17.440656
_cell_length_c 12.703355
_cell_angle_alpha 139.833565
_cell_angle_beta 145.193784
_cell_angle_gamma 42.363803
_cell_volume 641.527374
_symmetry_space_group_name_H-M "P -1"
_symmetry_group_IT_number 2
_symmetry_cell_setting 'triclinic'
loop_
_space_group_symop_operation_xyz
x,y,z
-x,-y,-z
loop_
_atom_site_type_symbol
_atom_site_label
_atom_site_fract_x
_atom_site_fract_y
_atom_site_fract_z
Si Si1 0.857209 0.535151 0.317133
Si Si2 0.236374 0.252993 0.188116
Si Si3 0.429931 0.295290 0.845482
Si Si4 0.231322 0.011798 0.047795
Si Si5 0.896097 0.862978 0.221668
Si Si6 0.428173 0.546457 0.730892
Si Si7 0.173058 0.692895 0.381165
Si Si8 0.792395 0.040119 0.674330
O O1 0.999055 0.387419 0.220666
O O2 0.137031 0.587477 0.544564
O O3 0.664100 0.599211 0.183039
O O4 0.663167 0.545219 0.329703
O O5 0.234560 0.151935 0.170995
O O6 0.554777 0.275365 0.387219
O O7 0.185257 0.201262 0.993594
O O8 0.682331 0.179566 0.812337
O O9 0.128413 0.260401 0.665758
O O10 0.506773 0.347066 0.052175
O O11 0.570979 0.934352 0.169029
O O12 0.088981 0.969518 0.823128
O O13 0.000000 0.000000 0.000000
O O14 0.090978 0.762387 0.299440
O O15 0.091035 0.948395 0.369108
O O16 0.715739 0.457932 0.732127
O O17 0.500000 0.000000 0.500000
#
# Coordination Sequence:
#
# PCOD9013467 Si02
#       8
#     2   2   2   2   2   2   2   2
#     4  10  22  41  68  95 133 183 224 284 343 412
#     4  10  23  43  67  98 138 177 233 277 352 404
#     4  12  24  41  67  98 140 175 233 283 340 406
#     4  11  25  46  70 101 135 183 229 290 346 410
#     4  11  24  45  70  94 140 180 223 288 345 404
#     4  10  21  41  64  96 136 176 230 276 346 399
#     4  11  25  39  68 104 133 183 226 284 339 419
#     4  11  26  45  69 103 133 180 235 282 345 413
#
# _framework density 24.940480000000001
#
# number of rings (size 3 to 8) (size 9 to 14) (size 15 to 20)
#    0.000    1.250    0.000    6.000    5.250    3.500 
#    2.250    0.000    0.000    0.000    0.000    0.000 
#    0.000    0.000    0.000    0.000    0.000    0.000 
#
# Total GULP energy -89632.319354 kJ/mol
# GULP energy per Si atom -5602.019960 kJ/mol
# Density = 2.488371 g / cm^3
# Si number density = 24.940480 Si / 1000 Ang^3
#
#
#
# Elastic Constant Matrix: (Units=GPa)
#
#
# Indices 1 2 3 4 5 6 
#
# 1 73.8179 2.6685 7.2475 -3.8789 14.0431 -18.8915
# 2 2.6685 81.5326 33.0310 -10.2039 -7.9012 -25.3547
# 3 7.2475 33.0310 129.7996 -9.5875 6.2790 -8.8617
# 4 -3.8789 -10.2039 -9.5875 31.5010 -4.8648 8.7579
# 5 14.0431 -7.9012 6.2790 -4.8648 41.5871 -9.4469
# 6 -18.8915 -25.3547 -8.8617 8.7579 -9.4469 42.4835
#
#
#
# Elastic Compliance Matrix: (Units=1/GPa)
#
#
# Indices 1 2 3 4 5 6 
#
# 1 0.016046 0.001655 -0.000674 -0.000239 -0.003376 0.007281
# 2 0.001655 0.018542 -0.004123 0.002677 0.006593 0.011856
# 3 -0.000674 -0.004123 0.008884 0.001424 -0.002110 -0.001670
# 4 -0.000239 0.002677 0.001424 0.034830 0.003395 -0.004637
# 5 -0.003376 0.006593 -0.002110 0.003395 0.028908 0.007722
# 6 0.007281 0.011856 -0.001670 -0.004637 0.007722 0.036177
#
#
# Mechanical properties :
#
#
# Convention : Reuss Voigt Hill
#
# Bulk Modulus (GPa) = 26.88976 41.22712 34.05844
# Shear Modulus (GPa) = 30.85138 39.26121 35.05629
#
# Velocity S-wave (km/s) = 3.52092 3.97192 3.75320
# Velocity P-wave (km/s) = 5.22820 6.13196 5.69803
#
# Compressibility (1/GPa) = 0.03718888
#
# Stress axis : x y z
#
# Youngs Moduli (GPa) = 62.31948 53.93148 112.55948
#
# Poissons Ratio (x) = -0.08927 0.07591
# Poissons Ratio (y) = -0.10315 0.46405
# Poissons Ratio (z) = 0.04203 0.22234
#
# Static dielectric constant tensor:
#      x y z
#    x 1.997290 0.009440 0.004870 
#    y 0.009440 1.946360 0.057540 
#    z 0.004870 0.057540 2.036920 
# 
# From -- ./inp_files/507309.got.cif
#   From: 2010.05.17/outbox.cif.g08.bks.cpg/sg2_254_cif.got.tgz:507309.got - 2010.06.03 11:33:40.
