data_PCOD9013374
_publ_section_title
;
Structure prediction by ZEFSAII (Michael W. Deem and Ramdas Pophale) SiO2 
 PCOD9013374
Probable space group: P -1
;
_chemical_formula_sum "Si O2"
_cell_formula_units_Z 16
_cell_length_a 9.206240
_cell_length_b 11.680914
_cell_length_c 9.816258
_cell_angle_alpha 71.806251
_cell_angle_beta 103.241872
_cell_angle_gamma 58.576370
_cell_volume 749.149875
_symmetry_space_group_name_H-M "P -1"
_symmetry_group_IT_number 2
_symmetry_cell_setting 'triclinic'
loop_
_space_group_symop_operation_xyz
x,y,z
-x,-y,-z
loop_
_atom_site_type_symbol
_atom_site_label
_atom_site_fract_x
_atom_site_fract_y
_atom_site_fract_z
Si Si1 0.270967 0.430428 0.357191
Si Si2 0.317310 0.120800 0.509243
Si Si3 0.952752 0.656748 0.991059
Si Si4 0.514783 0.409711 0.195496
Si Si5 0.522395 0.676154 0.053995
Si Si6 0.824453 0.514268 0.392120
Si Si7 0.497510 0.067645 0.116549
Si Si8 0.939961 0.254713 0.289532
O O1 0.257261 0.291471 0.405618
O O2 0.457548 0.369290 0.331853
O O3 0.283349 0.469969 0.499655
O O4 0.087520 0.586102 0.181745
O O5 0.153752 0.107207 0.439000
O O6 0.500000 0.000000 0.500000
O O7 0.383182 0.069030 0.696651
O O8 0.724321 0.795297 0.925957
O O9 0.017492 0.715753 0.863783
O O10 0.000000 0.500000 0.000000
O O11 0.458343 0.580429 0.136779
O O12 0.398346 0.414064 0.040826
O O13 0.259461 0.716013 0.754379
O O14 0.672982 0.653629 0.204154
O O15 0.402364 0.853870 0.917097
O O16 0.000000 0.500000 0.500000
O O17 0.897764 0.373557 0.358066
O O18 0.500000 0.000000 0.000000
#
# Coordination Sequence:
#
# PCOD9013374 Si02
#       8
#     2   2   2   2   2   2   2   2
#     4  12  23  37  69 101 132 167 227 286 339 393
#     4  12  23  41  63 100 135 171 225 283 340 396
#     4  12  20  39  67  97 129 177 231 278 319 396
#     4  10  22  42  69  99 129 183 232 279 327 405
#     4  10  21  41  64  92 135 177 222 268 334 405
#     4  11  20  35  63 101 129 158 218 290 331 370
#     4  12  26  41  67 103 142 176 216 284 356 401
#     4  11  23  39  65  93 132 174 225 273 332 400
#
# _framework density 21.357544000000001
#
# number of rings (size 3 to 8) (size 9 to 14) (size 15 to 20)
#    0.000    0.750    3.750    6.750    1.750    2.000 
#    0.000    2.500    0.000    3.000    0.000    0.000 
#    0.000    0.000    0.000    0.000    0.000    0.000 
#
# Total GULP energy -89128.907545 kJ/mol
# GULP energy per Si atom -5570.556722 kJ/mol
# Density = 2.130893 g / cm^3
# Si number density = 21.357544 Si / 1000 Ang^3
#
#
#
# Elastic Constant Matrix: (Units=GPa)
#
#
# Indices 1 2 3 4 5 6 
#
# 1 120.5020 22.6823 58.1002 0.0431 -7.9313 -12.4816
# 2 22.6823 56.4375 26.5116 9.8267 -1.2065 4.9828
# 3 58.1002 26.5116 161.5698 19.8113 -6.6053 -5.6723
# 4 0.0431 9.8267 19.8113 31.1370 -6.6145 1.8126
# 5 -7.9313 -1.2065 -6.6053 -6.6145 32.4173 0.3247
# 6 -12.4816 4.9828 -5.6723 1.8126 0.3247 36.0441
#
#
#
# Elastic Compliance Matrix: (Units=1/GPa)
#
#
# Indices 1 2 3 4 5 6 
#
# 1 0.011340 -0.003759 -0.003700 0.003872 0.002634 0.003646
# 2 -0.003759 0.021351 -0.001657 -0.005773 -0.001599 -0.004209
# 3 -0.003700 -0.001657 0.008400 -0.004902 -0.000261 0.000519
# 4 0.003872 -0.005773 -0.004902 0.038713 0.007639 -0.000648
# 5 0.002634 -0.001599 -0.000261 0.007639 0.032934 0.000411
# 6 0.003646 -0.004209 0.000519 -0.000648 0.000411 0.029699
#
#
# Mechanical properties :
#
#
# Convention : Reuss Voigt Hill
#
# Bulk Modulus (GPa) = 43.74715 61.45527 52.60121
# Shear Modulus (GPa) = 29.71104 35.33403 32.52253
#
# Velocity S-wave (km/s) = 3.73383 4.07185 3.90650
# Velocity P-wave (km/s) = 6.25430 7.13748 6.71044
#
# Compressibility (1/GPa) = 0.02285863
#
# Stress axis : x y z
#
# Youngs Moduli (GPa) = 88.18478 46.83730 119.04285
#
# Poissons Ratio (x) = 0.17607 0.44047
# Poissons Ratio (y) = 0.33150 0.19723
# Poissons Ratio (z) = 0.32629 0.07760
#
# Static dielectric constant tensor:
#      x y z
#    x 1.911990 -0.025150 0.065310 
#    y -0.025150 1.810050 -0.055250 
#    z 0.065310 -0.055250 1.851460 
# 
# From -- ./inp_files/258157.got.cif
#   From: 2010.05.17/outbox.cif.g08.bks.cpg/sg2_130_cif.got.tgz:258157.got - 2010.06.03 11:33:40.
