data_PCOD9013941
_publ_section_title
;
Structure prediction by ZEFSAII (Michael W. Deem and Ramdas Pophale) SiO2 
 PCOD9013941
Probable space group: P -1
;
_chemical_formula_sum "Si O2"
_cell_formula_units_Z 15
_cell_length_a 8.690215
_cell_length_b 11.209945
_cell_length_c 20.268540
_cell_angle_alpha 30.790537
_cell_angle_beta 137.840089
_cell_angle_gamma 138.906911
_cell_volume 637.974359
_symmetry_space_group_name_H-M "P -1"
_symmetry_group_IT_number 2
_symmetry_cell_setting 'triclinic'
loop_
_space_group_symop_operation_xyz
x,y,z
-x,-y,-z
loop_
_atom_site_type_symbol
_atom_site_label
_atom_site_fract_x
_atom_site_fract_y
_atom_site_fract_z
Si Si1 0.001765 0.897038 0.665499
Si Si2 0.498116 0.811887 0.356717
Si Si3 0.500000 0.000000 0.500000
Si Si4 0.722634 0.412057 0.474077
Si Si5 0.664921 0.378693 0.749828
Si Si6 0.783201 0.399110 0.029242
Si Si7 0.266463 0.127539 0.963480
Si Si8 0.783992 0.850657 0.906455
O O1 0.784813 0.981831 0.584363
O O2 0.871945 0.640487 0.706468
O O3 0.163300 0.822084 0.809273
O O4 0.208986 0.105804 0.591142
O O5 0.355112 0.629820 0.454950
O O6 0.376840 0.695023 0.304881
O O7 0.440232 0.066610 0.224863
O O8 0.405222 0.853179 0.472861
O O9 0.585000 0.592903 0.316838
O O10 0.000000 0.500000 0.500000
O O11 0.719719 0.147755 0.907758
O O12 0.534469 0.315337 0.947552
O O13 0.780177 0.612025 0.978368
O O14 0.000000 0.500000 0.000000
O O15 0.226332 0.187409 0.999258
O O16 0.028776 0.094277 0.860384
#
# Coordination Sequence:
#
# PCOD9013941 Si02
#       8
#     2   2   1   2   2   2   2   2
#     4  11  23  45  66  93 133 171 224 264 329 383
#     4  11  24  41  72  94 130 173 217 272 320 390
#     4  10  26  44  66  96 134 170 210 280 322 386
#     4  11  25  43  67  96 133 169 217 267 331 386
#     4  10  21  41  68  91 124 172 219 274 317 381
#     4  12  25  39  66  94 135 177 211 264 327 387
#     4  10  21  41  66  91 131 165 216 271 314 380
#     4  10  22  40  65  98 125 169 219 261 319 380
#
# _framework density 23.511917
#
# number of rings (size 3 to 8) (size 9 to 14) (size 15 to 20)
#    0.000    1.333    4.000    1.600    1.867    3.733 
#    4.800    0.000    2.933    0.000    0.000    0.000 
#    0.000    0.000    0.000    0.000    0.000    0.000 
#
# Total GULP energy -83548.063593 kJ/mol
# GULP energy per Si atom -5569.870906 kJ/mol
# Density = 2.345840 g / cm^3
# Si number density = 23.511917 Si / 1000 Ang^3
#
#
#
# Elastic Constant Matrix: (Units=GPa)
#
#
# Indices 1 2 3 4 5 6 
#
# 1 91.0566 25.0324 37.0657 -6.7889 29.5054 27.8187
# 2 25.0324 106.8183 8.5747 -3.6218 17.0739 13.4630
# 3 37.0657 8.5747 49.9937 2.0975 26.2624 7.5991
# 4 -6.7889 -3.6218 2.0975 26.3195 5.6770 13.3916
# 5 29.5054 17.0739 26.2624 5.6770 29.9554 3.8614
# 6 27.8187 13.4630 7.5991 13.3916 3.8614 42.3442
#
#
#
# Elastic Compliance Matrix: (Units=1/GPa)
#
#
# Indices 1 2 3 4 5 6 
#
# 1 0.034683 0.002361 -0.005821 0.031823 -0.032622 -0.029581
# 2 0.002361 0.011841 0.003924 0.008603 -0.013173 -0.007540
# 3 -0.005821 0.003924 0.041427 0.004577 -0.033268 -0.003271
# 4 0.031823 0.008603 0.004577 0.080907 -0.049727 -0.045516
# 5 -0.032622 -0.013173 -0.033268 -0.049727 0.106770 0.037580
# 6 -0.029581 -0.007540 -0.003271 -0.045516 0.037580 0.057001
#
#
# Mechanical properties :
#
#
# Convention : Reuss Voigt Hill
#
# Bulk Modulus (GPa) = 11.25137 43.24602 27.24870
# Shear Modulus (GPa) = 13.83784 31.53689 22.68736
#
# Velocity S-wave (km/s) = 2.42863 3.66637 3.10970
# Velocity P-wave (km/s) = 3.55810 6.02961 4.95057
#
# Compressibility (1/GPa) = 0.08887803
#
# Stress axis : x y z
#
# Youngs Moduli (GPa) = 28.83242 84.45213 24.13896
#
# Poissons Ratio (x) = -0.19939 0.14052
# Poissons Ratio (y) = -0.06807 -0.09472
# Poissons Ratio (z) = 0.16784 -0.33138
#
# Static dielectric constant tensor:
#      x y z
#    x 1.916270 0.069470 0.005830 
#    y 0.069470 1.914610 0.008400 
#    z 0.005830 0.008400 2.010380 
# 
# From -- ./inp_files/607229.got.cif
#   From: 2010.05.17/outbox.cif.g08.bks.cpg/sg2_304_cif.got.tgz:607229.got - 2010.06.03 11:33:40.
