data_PCOD9013396
_publ_section_title
;
Structure prediction by ZEFSAII (Michael W. Deem and Ramdas Pophale) SiO2 
 PCOD9013396
Probable space group: P -1
;
_chemical_formula_sum "Si O2"
_cell_formula_units_Z 16
_cell_length_a 8.397533
_cell_length_b 20.253394
_cell_length_c 8.718946
_cell_angle_alpha 43.625818
_cell_angle_beta 128.721256
_cell_angle_gamma 136.622949
_cell_volume 687.046156
_symmetry_space_group_name_H-M "P -1"
_symmetry_group_IT_number 2
_symmetry_cell_setting 'triclinic'
loop_
_space_group_symop_operation_xyz
x,y,z
-x,-y,-z
loop_
_atom_site_type_symbol
_atom_site_label
_atom_site_fract_x
_atom_site_fract_y
_atom_site_fract_z
Si Si1 0.231852 0.017427 0.692784
Si Si2 0.232491 0.801670 0.969986
Si Si3 0.762455 0.900764 0.099430
Si Si4 0.738250 0.725082 0.176300
Si Si5 0.965969 0.330818 0.196636
Si Si6 0.249938 0.516829 0.295310
Si Si7 0.544653 0.219032 0.336878
Si Si8 0.897891 0.342036 0.583142
O O1 0.241381 0.066672 0.782574
O O2 0.439298 0.108414 0.558551
O O3 0.000000 0.000000 0.500000
O O4 0.226299 0.901919 0.881631
O O5 0.494238 0.862596 0.947854
O O6 0.208026 0.707238 0.232340
O O7 0.020403 0.734865 0.831815
O O8 0.777193 0.794193 0.238099
O O9 0.000000 0.000000 0.000000
O O10 0.526871 0.600883 0.294280
O O11 0.976007 0.728833 0.264574
O O12 0.642874 0.769991 0.902986
O O13 0.758773 0.235148 0.333750
O O14 0.164652 0.417439 0.285538
O O15 0.857339 0.405154 0.945529
O O16 0.119521 0.463279 0.469279
O O17 0.684846 0.318317 0.378779
#
# Coordination Sequence:
#
# PCOD9013396 Si02
#       8
#     2   2   2   2   2   2   2   2
#     4  12  27  43  65  97 136 179 225 282 335 398
#     4  12  24  44  66  99 136 174 229 274 341 397
#     4  12  25  44  67  95 136 178 219 280 335 396
#     4  11  23  46  68 100 139 175 225 277 332 402
#     4   9  20  40  67  97 130 175 219 280 329 404
#     4   9  19  41  67  97 132 173 224 272 340 391
#     4  10  21  41  64  93 131 174 220 272 333 392
#     4  11  23  39  71  98 132 180 222 278 334 398
#
# _framework density 23.2881
#
# number of rings (size 3 to 8) (size 9 to 14) (size 15 to 20)
#    0.000    1.250    3.750    3.750    1.750    3.000 
#    0.000    0.625    0.000    0.000    0.000    0.000 
#    0.000    0.000    0.000    0.000    0.000    0.000 
#
# Total GULP energy -89258.371406 kJ/mol
# GULP energy per Si atom -5578.648213 kJ/mol
# Density = 2.323510 g / cm^3
# Si number density = 23.288100 Si / 1000 Ang^3
#
#
#
# Elastic Constant Matrix: (Units=GPa)
#
#
# Indices 1 2 3 4 5 6 
#
# 1 63.4184 49.7447 32.1073 -12.0243 -7.9593 0.4162
# 2 49.7447 151.2473 44.1975 -6.1672 -22.8144 -9.6489
# 3 32.1073 44.1975 106.3451 -2.9587 -29.7487 2.2778
# 4 -12.0243 -6.1672 -2.9587 44.1127 13.4173 -5.8103
# 5 -7.9593 -22.8144 -29.7487 13.4173 41.4762 0.4327
# 6 0.4162 -9.6489 2.2778 -5.8103 0.4327 38.8392
#
#
#
# Elastic Compliance Matrix: (Units=1/GPa)
#
#
# Indices 1 2 3 4 5 6 
#
# 1 0.024971 -0.007068 -0.005978 0.007068 -0.005664 -0.000552
# 2 -0.007068 0.009893 -0.001001 -0.001465 0.003817 0.002331
# 3 -0.005978 -0.001001 0.014318 -0.004049 0.009900 -0.001740
# 4 0.007068 -0.001465 -0.004049 0.028165 -0.011508 0.004140
# 5 -0.005664 0.003817 0.009900 -0.011508 0.035964 -0.001694
# 6 -0.000552 0.002331 -0.001740 0.004140 -0.001694 0.027072
#
#
# Mechanical properties :
#
#
# Convention : Reuss Voigt Hill
#
# Bulk Modulus (GPa) = 47.41443 63.67887 55.54665
# Shear Modulus (GPa) = 28.48894 37.88304 33.18599
#
# Velocity S-wave (km/s) = 3.50140 4.03763 3.77904
# Velocity P-wave (km/s) = 6.06222 7.00999 6.55326
#
# Compressibility (1/GPa) = 0.02109062
#
# Stress axis : x y z
#
# Youngs Moduli (GPa) = 40.04608 101.07758 69.84167
#
# Poissons Ratio (x) = 0.71437 0.41750
# Poissons Ratio (y) = 0.28303 0.06989
# Poissons Ratio (z) = 0.23939 0.10115
#
# Static dielectric constant tensor:
#      x y z
#    x 1.901150 -0.014580 -0.005050 
#    y -0.014580 1.943930 0.012550 
#    z -0.005050 0.012550 1.986590 
# 
# From -- ./inp_files/221883.got.cif
#   From: 2010.05.17/outbox.cif.g08.bks.cpg/sg2_111_cif.got.tgz:221883.got - 2010.06.03 11:33:40.
