data_PCOD9013614
_publ_section_title
;
Structure prediction by ZEFSAII (Michael W. Deem and Ramdas Pophale) SiO2 
 PCOD9013614
Probable space group: P -1
;
_chemical_formula_sum "Si O2"
_cell_formula_units_Z 10
_cell_length_a 5.256405
_cell_length_b 8.456120
_cell_length_c 15.208951
_cell_angle_alpha 56.841122
_cell_angle_beta 119.670986
_cell_angle_gamma 88.820951
_cell_volume 450.567070
_symmetry_space_group_name_H-M "P -1"
_symmetry_group_IT_number 2
_symmetry_cell_setting 'triclinic'
loop_
_space_group_symop_operation_xyz
x,y,z
-x,-y,-z
loop_
_atom_site_type_symbol
_atom_site_label
_atom_site_fract_x
_atom_site_fract_y
_atom_site_fract_z
Si Si1 0.809865 0.586107 0.283271
Si Si2 0.285113 0.235453 0.371433
Si Si3 0.126201 0.635549 0.917079
Si Si4 0.440885 0.566489 0.369418
Si Si5 0.746120 0.107911 0.999519
O O1 0.680313 0.650917 0.340143
O O2 0.027873 0.349530 0.369497
O O3 0.057441 0.688443 0.264070
O O4 0.493118 0.668101 0.146426
O O5 0.499013 0.367970 0.378884
O O6 0.090745 0.291465 0.229933
O O7 0.500000 0.000000 0.500000
O O8 0.106145 0.837683 0.905312
O O9 0.500000 0.500000 0.000000
O O10 0.000000 0.500000 0.000000
O O11 0.500000 0.500000 0.500000
O O12 0.500000 0.000000 0.000000
O O13 0.000000 0.000000 0.000000
#
# Coordination Sequence:
#
# PCOD9013614 Si02
#       5
#     2   2   2   2   2
#     4  10  22  42  65  94 136 170 230 281 340 395
#     4  10  25  42  70 102 132 178 235 282 341 412
#     4  12  24  48  73  99 142 190 227 290 350 411
#     4  10  21  41  65  90 136 176 214 279 354 395
#     4  12  25  43  70 103 136 181 236 284 341 417
#
# _framework density 22.194254999999998
#
# number of rings (size 3 to 8) (size 9 to 14) (size 15 to 20)
#    1.200    0.000    2.000    4.200    0.000    4.000 
#    0.000    0.000    0.000    0.000    0.000    0.000 
#    0.000    0.000    0.000    0.000    0.000    0.000 
#
# Total GULP energy -55702.944559 kJ/mol
# GULP energy per Si atom -5570.294456 kJ/mol
# Density = 2.214374 g / cm^3
# Si number density = 22.194255 Si / 1000 Ang^3
#
#
#
# Elastic Constant Matrix: (Units=GPa)
#
#
# Indices 1 2 3 4 5 6 
#
# 1 191.1843 52.4557 31.7438 -0.6114 -6.4417 -29.7445
# 2 52.4557 129.8018 41.7178 15.6844 2.8375 -0.5719
# 3 31.7438 41.7178 126.3496 8.8946 12.1227 -9.7564
# 4 -0.6114 15.6844 8.8946 46.1364 -9.1977 2.0748
# 5 -6.4417 2.8375 12.1227 -9.1977 32.9710 -4.0835
# 6 -29.7445 -0.5719 -9.7564 2.0748 -4.0835 35.5338
#
#
#
# Elastic Compliance Matrix: (Units=1/GPa)
#
#
# Indices 1 2 3 4 5 6 
#
# 1 0.007206 -0.002887 -0.000804 0.001587 0.003142 0.006033
# 2 -0.002887 0.010066 -0.002426 -0.003219 -0.001801 -0.002940
# 3 -0.000804 -0.002426 0.009531 -0.001847 -0.003772 0.001579
# 4 0.001587 -0.003219 -0.001847 0.024771 0.008209 0.000267
# 5 0.003142 -0.001801 -0.003772 0.008209 0.035414 0.005156
# 6 0.006033 -0.002940 0.001579 0.000267 0.005156 0.034155
#
#
# Mechanical properties :
#
#
# Convention : Reuss Voigt Hill
#
# Bulk Modulus (GPa) = 68.64270 77.68561 73.16416
# Shear Modulus (GPa) = 36.17025 44.35613 40.26319
#
# Velocity S-wave (km/s) = 4.04135 4.47535 4.26388
# Velocity P-wave (km/s) = 7.26443 7.86026 7.56821
#
# Compressibility (1/GPa) = 0.01456819
#
# Stress axis : x y z
#
# Youngs Moduli (GPa) = 138.77519 99.34451 104.91602
#
# Poissons Ratio (x) = 0.28685 0.08439
# Poissons Ratio (y) = 0.40070 0.25450
# Poissons Ratio (z) = 0.11163 0.24098
#
# Static dielectric constant tensor:
#      x y z
#    x 2.040950 0.040890 -0.138910 
#    y 0.040890 1.800460 -0.020970 
#    z -0.138910 -0.020970 1.994780 
# 
# From -- ./inp_files/57233.got.cif
#   From: 2010.05.17/outbox.cif.g08.bks.cpg/sg2_29_cif.got.tgz:57233.got - 2010.06.03 11:33:40.
