data_PCOD9013957
_publ_section_title
;
Structure prediction by ZEFSAII (Michael W. Deem and Ramdas Pophale) SiO2 
 PCOD9013957
Probable space group: P -1
;
_chemical_formula_sum "Si O2"
_cell_formula_units_Z 16
_cell_length_a 20.322257
_cell_length_b 25.256157
_cell_length_c 9.995586
_cell_angle_alpha 142.840998
_cell_angle_beta 43.268378
_cell_angle_gamma 166.795373
_cell_volume 664.155092
_symmetry_space_group_name_H-M "P -1"
_symmetry_group_IT_number 2
_symmetry_cell_setting 'triclinic'
loop_
_space_group_symop_operation_xyz
x,y,z
-x,-y,-z
loop_
_atom_site_type_symbol
_atom_site_label
_atom_site_fract_x
_atom_site_fract_y
_atom_site_fract_z
Si Si1 0.712202 0.290058 0.876044
Si Si2 0.805104 0.712741 0.783359
Si Si3 0.687574 0.805527 0.220530
Si Si4 0.139586 0.668030 0.761877
Si Si5 0.645532 0.370893 0.841879
Si Si6 0.218198 0.108143 0.430805
Si Si7 0.246154 0.021747 0.965786
Si Si8 0.281717 0.879641 0.310269
O O1 0.391286 0.051897 0.827661
O O2 0.647039 0.146327 0.763906
O O3 0.945119 0.465329 0.766971
O O4 0.917482 0.547297 0.157105
O O5 0.544860 0.425453 0.537383
O O6 0.663722 0.680222 0.984736
O O7 0.035108 0.931141 0.761717
O O8 0.955239 0.790910 0.841348
O O9 0.410732 0.618641 0.183815
O O10 0.764472 0.893536 0.438543
O O11 0.000000 0.500000 0.500000
O O12 0.990229 0.635875 0.895624
O O13 0.493759 0.943570 0.792477
O O14 0.510033 0.295078 0.027342
O O15 0.412715 0.084831 0.584561
O O16 0.167505 0.985688 0.157657
O O17 0.000000 0.000000 0.500000
#
# Coordination Sequence:
#
# PCOD9013957 Si02
#       8
#     2   2   2   2   2   2   2   2
#     4  10  22  40  64  97 126 168 224 260 329 389
#     4  10  23  46  69  92 139 169 215 280 322 390
#     4  10  22  44  67  99 128 179 217 263 338 382
#     4   9  19  38  61  89 125 168 213 263 321 381
#     4   9  21  42  66  94 134 173 219 267 324 392
#     4  12  25  44  68 100 133 172 221 272 324 391
#     4  10  23  42  65 101 129 171 224 263 326 393
#     4  10  21  41  66  92 129 172 210 278 321 378
#
# _framework density 24.090758999999998
#
# number of rings (size 3 to 8) (size 9 to 14) (size 15 to 20)
#    0.000    2.000    1.250    0.750    3.500    6.000 
#   11.250    0.000    0.000    0.000    0.000    0.000 
#    0.000    0.000    0.000    0.000    0.000    0.000 
#
# Total GULP energy -89181.153172 kJ/mol
# GULP energy per Si atom -5573.822073 kJ/mol
# Density = 2.403593 g / cm^3
# Si number density = 24.090759 Si / 1000 Ang^3
#
#
#
# Elastic Constant Matrix: (Units=GPa)
#
#
# Indices 1 2 3 4 5 6 
#
# 1 116.4477 29.4998 27.7185 3.8685 9.5047 18.6100
# 2 29.4998 59.1576 19.0559 6.7603 -21.9470 6.9263
# 3 27.7185 19.0559 101.3602 -20.5433 9.6917 -14.5708
# 4 3.8685 6.7603 -20.5433 35.3763 -8.6422 -0.5082
# 5 9.5047 -21.9470 9.6917 -8.6422 29.5774 -1.2910
# 6 18.6100 6.9263 -14.5708 -0.5082 -1.2910 41.6868
#
#
#
# Elastic Compliance Matrix: (Units=1/GPa)
#
#
# Indices 1 2 3 4 5 6 
#
# 1 0.013540 -0.009143 -0.002541 -0.004169 -0.011775 -0.005829
# 2 -0.009143 0.037175 -0.008879 -0.003445 0.032240 -0.004242
# 3 -0.002541 -0.008879 0.016075 0.009493 -0.007912 0.008099
# 4 -0.004169 -0.003445 0.009493 0.036611 0.006650 0.006404
# 5 -0.011775 0.032240 -0.007912 0.006650 0.066020 -0.000740
# 6 -0.005829 -0.004242 0.008099 0.006404 -0.000740 0.030181
#
#
# Mechanical properties :
#
#
# Convention : Reuss Voigt Hill
#
# Bulk Modulus (GPa) = 38.96684 47.72377 43.34530
# Shear Modulus (GPa) = 20.05759 34.70752 27.38255
#
# Velocity S-wave (km/s) = 2.88858 3.79977 3.37507
# Velocity P-wave (km/s) = 5.22832 6.25332 5.76365
#
# Compressibility (1/GPa) = 0.02566284
#
# Stress axis : x y z
#
# Youngs Moduli (GPa) = 73.85679 26.89988 62.20949
#
# Poissons Ratio (x) = 0.24595 0.15806
# Poissons Ratio (y) = 0.67527 0.55239
# Poissons Ratio (z) = 0.18765 0.23886
#
# Static dielectric constant tensor:
#      x y z
#    x 1.940890 0.061340 0.014130 
#    y 0.061340 2.048580 0.006020 
#    z 0.014130 0.006020 2.013720 
# 
# From -- ./inp_files/355690.got.cif
#   From: 2010.05.17/outbox.cif.g08.bks.cpg/sg2_178_cif.got.tgz:355690.got - 2010.06.03 11:33:40.
