data_PCOD9013260
_publ_section_title
;
Structure prediction by ZEFSAII (Michael W. Deem and Ramdas Pophale) SiO2 
 PCOD9013260
Probable space group: P -1
;
_chemical_formula_sum "Si O2"
_cell_formula_units_Z 12
_cell_length_a 5.046493
_cell_length_b 15.653896
_cell_length_c 5.948550
_cell_angle_alpha 86.093877
_cell_angle_beta 90.853837
_cell_angle_gamma 81.684091
_cell_volume 463.752352
_symmetry_space_group_name_H-M "P -1"
_symmetry_group_IT_number 2
_symmetry_cell_setting 'triclinic'
loop_
_space_group_symop_operation_xyz
x,y,z
-x,-y,-z
loop_
_atom_site_type_symbol
_atom_site_label
_atom_site_fract_x
_atom_site_fract_y
_atom_site_fract_z
Si Si1 0.953996 0.150560 0.086319
Si Si2 0.582518 0.363521 0.402190
Si Si3 0.600809 0.210109 0.703520
Si Si4 0.808395 0.682307 0.968063
Si Si5 0.526754 0.908492 0.636575
Si Si6 0.208718 0.476525 0.706580
O O1 0.973498 0.253887 0.082382
O O2 0.245040 0.103713 0.168205
O O3 0.745879 0.114227 0.254294
O O4 0.829846 0.143800 0.838813
O O5 0.732028 0.278757 0.541062
O O6 0.342761 0.335094 0.259354
O O7 0.465121 0.421009 0.602763
O O8 0.717722 0.430223 0.240147
O O9 0.417385 0.161842 0.548353
O O10 0.409162 0.260916 0.880823
O O11 0.886143 0.589714 0.106183
O O12 0.500000 0.000000 0.500000
O O13 0.000000 0.500000 0.500000
#
# Coordination Sequence:
#
# PCOD9013260 Si02
#       6
#     2   2   2   2   2   2
#     4  12  25  48  73 110 140 191 237 294 363 431
#     4  10  21  41  64 100 145 187 242 292 353 415
#     4  11  24  45  75 101 148 187 243 289 363 422
#     4  11  23  43  69 104 143 193 241 293 356 423
#     4  12  29  50  76 108 146 185 238 300 364 435
#     4  10  22  37  63 100 142 192 237 295 349 416
#
# _framework density 25.875878
#
# number of rings (size 3 to 8) (size 9 to 14) (size 15 to 20)
#    0.000    1.000    3.333    2.000    2.333    4.667 
#    0.000    0.000    0.000    0.000    0.000    0.000 
#    0.000    0.000    0.000    0.000    0.000    0.000 
#
# Total GULP energy -67205.994841 kJ/mol
# GULP energy per Si atom -5600.499570 kJ/mol
# Density = 2.581698 g / cm^3
# Si number density = 25.875878 Si / 1000 Ang^3
#
#
#
# Elastic Constant Matrix: (Units=GPa)
#
#
# Indices 1 2 3 4 5 6 
#
# 1 109.6683 31.2635 30.2095 -27.2076 -10.7366 26.3341
# 2 31.2635 127.0570 48.0391 -61.8363 -10.6543 20.6825
# 3 30.2095 48.0391 105.5266 -51.2419 -3.6951 10.2537
# 4 -27.2076 -61.8363 -51.2419 60.6493 -0.6603 -7.6477
# 5 -10.7366 -10.6543 -3.6951 -0.6603 54.6593 -11.7276
# 6 26.3341 20.6825 10.2537 -7.6477 -11.7276 34.6520
#
#
#
# Elastic Compliance Matrix: (Units=1/GPa)
#
#
# Indices 1 2 3 4 5 6 
#
# 1 0.012358 0.001117 -0.000787 0.004962 0.000840 -0.008446
# 2 0.001117 0.017471 0.001634 0.018872 0.002516 -0.006744
# 3 -0.000787 0.001634 0.016442 0.015022 0.001125 -0.001547
# 4 0.004962 0.018872 0.015022 0.049835 0.004799 -0.006857
# 5 0.000840 0.002516 0.001125 0.004799 0.020252 0.005440
# 6 -0.008446 -0.006744 -0.001547 -0.006857 0.005440 0.040088
#
#
# Mechanical properties :
#
#
# Convention : Reuss Voigt Hill
#
# Bulk Modulus (GPa) = 19.92061 62.36400 41.14230
# Shear Modulus (GPa) = 29.54223 45.50811 37.52517
#
# Velocity S-wave (km/s) = 3.38256 4.19824 3.81228
# Velocity P-wave (km/s) = 4.79279 6.90318 5.94242
#
# Compressibility (1/GPa) = 0.05019927
#
# Stress axis : x y z
#
# Youngs Moduli (GPa) = 80.91858 57.23733 60.82162
#
# Poissons Ratio (x) = -0.06393 0.04784
# Poissons Ratio (y) = -0.09038 -0.09938
# Poissons Ratio (z) = 0.06365 -0.09353
#
# Static dielectric constant tensor:
#      x y z
#    x 2.089510 -0.006920 -0.059420 
#    y -0.006920 2.050920 0.002480 
#    z -0.059420 0.002480 2.033500 
# 
# From -- ./inp_files/4476.got.cif
#   From: 2010.05.17/outbox.cif.g08.bks.cpg/sg2_3_cif.got.tgz:4476.got - 2010.06.03 11:33:40.
