data_PCOD9013081
_publ_section_title
;
Structure prediction by ZEFSAII (Michael W. Deem and Ramdas Pophale) SiO2 
 PCOD9013081
Probable space group: P -1
;
_chemical_formula_sum "Si O2"
_cell_formula_units_Z 16
_cell_length_a 8.775204
_cell_length_b 6.561276
_cell_length_c 13.979314
_cell_angle_alpha 57.353177
_cell_angle_beta 96.513633
_cell_angle_gamma 107.409543
_cell_volume 645.519435
_symmetry_space_group_name_H-M "P -1"
_symmetry_group_IT_number 2
_symmetry_cell_setting 'triclinic'
loop_
_space_group_symop_operation_xyz
x,y,z
-x,-y,-z
loop_
_atom_site_type_symbol
_atom_site_label
_atom_site_fract_x
_atom_site_fract_y
_atom_site_fract_z
Si Si1 0.717987 0.449042 0.084647
Si Si2 0.548808 0.049587 0.882948
Si Si3 0.804520 0.943596 0.843580
Si Si4 0.608586 0.515829 0.269471
Si Si5 0.841281 0.850703 0.579740
Si Si6 0.950549 0.167580 0.230995
Si Si7 0.609783 0.047684 0.622022
Si Si8 0.677727 0.731037 0.416869
O O1 0.568353 0.201232 0.114720
O O2 0.694545 0.554939 0.162110
O O3 0.880527 0.369734 0.124498
O O4 0.739090 0.655226 0.949952
O O5 0.739832 0.087821 0.885150
O O6 0.501217 0.294290 0.784212
O O7 0.500000 0.000000 0.000000
O O8 0.703419 0.022494 0.731517
O O9 0.981710 0.984821 0.806532
O O10 0.509663 0.227250 0.335883
O O11 0.691246 0.568466 0.365841
O O12 0.743268 0.048861 0.551096
O O13 0.744694 0.663079 0.539576
O O14 0.901079 0.742752 0.707135
O O15 0.000000 0.000000 0.500000
O O16 0.800301 0.998009 0.323554
O O17 0.494173 0.225793 0.581880
#
# Coordination Sequence:
#
# PCOD9013081 Si02
#       8
#     2   2   2   2   2   2   2   2
#     4  12  22  41  62  90 131 169 206 251 306 368
#     4  12  22  38  63  91 125 167 210 256 300 362
#     4  11  21  37  63  94 125 165 206 253 312 364
#     4  12  21  36  66  90 128 157 213 252 305 360
#     4   9  22  41  69  89 122 163 207 259 320 360
#     4  10  21  41  63  88 127 168 204 252 314 368
#     4  11  21  40  67  93 121 162 208 260 307 368
#     4  11  21  42  65  91 121 166 208 259 313 365
#
# _framework density 24.786242000000001
#
# number of rings (size 3 to 8) (size 9 to 14) (size 15 to 20)
#    0.000    1.000    6.250    1.875    0.000    0.500 
#    0.000    6.875    0.000    0.000    0.000    0.000 
#    0.000    0.000    0.000    0.000    0.000    0.000 
#
# Total GULP energy -89313.727495 kJ/mol
# GULP energy per Si atom -5582.107968 kJ/mol
# Density = 2.472983 g / cm^3
# Si number density = 24.786242 Si / 1000 Ang^3
#
#
#
# Elastic Constant Matrix: (Units=GPa)
#
#
# Indices 1 2 3 4 5 6 
#
# 1 142.9947 16.6176 41.5114 9.8328 -8.2161 -28.9132
# 2 16.6176 64.2597 22.8487 8.9766 5.9238 0.8465
# 3 41.5114 22.8487 85.4108 20.7699 -1.3718 -7.6239
# 4 9.8328 8.9766 20.7699 40.2086 -12.4570 -7.0119
# 5 -8.2161 5.9238 -1.3718 -12.4570 51.9719 3.6531
# 6 -28.9132 0.8465 -7.6239 -7.0119 3.6531 26.9491
#
#
#
# Elastic Compliance Matrix: (Units=1/GPa)
#
#
# Indices 1 2 3 4 5 6 
#
# 1 0.010482 -0.001823 -0.004213 0.002340 0.001576 0.010507
# 2 -0.001823 0.018090 -0.003535 -0.003386 -0.002974 -0.004003
# 3 -0.004213 -0.003535 0.016328 -0.007336 -0.001485 -0.001497
# 4 0.002340 -0.003386 -0.007336 0.032660 0.007830 0.007979
# 5 0.001576 -0.002974 -0.001485 0.007830 0.021634 0.000469
# 6 0.010507 -0.004003 -0.001497 0.007979 0.000469 0.050094
#
#
# Mechanical properties :
#
#
# Convention : Reuss Voigt Hill
#
# Bulk Modulus (GPa) = 38.82269 50.51339 44.66804
# Shear Modulus (GPa) = 28.24593 37.93841 33.09217
#
# Velocity S-wave (km/s) = 3.37943 3.91656 3.65787
# Velocity P-wave (km/s) = 5.56097 6.39347 5.99170
#
# Compressibility (1/GPa) = 0.02575813
#
# Stress axis : x y z
#
# Youngs Moduli (GPa) = 95.39932 55.27880 61.24584
#
# Poissons Ratio (x) = 0.10080 0.25801
# Poissons Ratio (y) = 0.17396 0.21649
# Poissons Ratio (z) = 0.40189 0.19540
#
# Static dielectric constant tensor:
#      x y z
#    x 2.010580 -0.022910 -0.012240 
#    y -0.022910 2.052090 0.047500 
#    z -0.012240 0.047500 2.030810 
# 
# From -- ./inp_files/488186.got.cif
#   From: 2010.05.17/outbox.cif.g08.bks.cpg/sg2_245_cif.got.tgz:488186.got - 2010.06.03 11:33:40.
