data_PCOD9013942
_publ_section_title
;
Structure prediction by ZEFSAII (Michael W. Deem and Ramdas Pophale) SiO2 
 PCOD9013942
Probable space group: P -1
;
_chemical_formula_sum "Si O2"
_cell_formula_units_Z 15
_cell_length_a 17.646271
_cell_length_b 6.218782
_cell_length_c 8.053956
_cell_angle_alpha 109.793836
_cell_angle_beta 54.854843
_cell_angle_gamma 114.726605
_cell_volume 650.719233
_symmetry_space_group_name_H-M "P -1"
_symmetry_group_IT_number 2
_symmetry_cell_setting 'triclinic'
loop_
_space_group_symop_operation_xyz
x,y,z
-x,-y,-z
loop_
_atom_site_type_symbol
_atom_site_label
_atom_site_fract_x
_atom_site_fract_y
_atom_site_fract_z
Si Si1 0.677924 0.097278 0.927357
Si Si2 0.783361 0.595230 0.028811
Si Si3 0.284549 0.550941 0.553885
Si Si4 0.340720 0.053299 0.717474
Si Si5 0.459471 0.346961 0.176981
Si Si6 0.976535 0.734841 0.659966
Si Si7 0.851935 0.876999 0.567039
Si Si8 0.500000 0.500000 0.500000
O O1 0.595294 0.926538 0.871022
O O2 0.769709 0.994565 0.756442
O O3 0.641214 0.033854 0.145466
O O4 0.727411 0.381403 0.919228
O O5 0.751244 0.499908 0.227022
O O6 0.743960 0.822047 0.119764
O O7 0.898853 0.656719 0.883829
O O8 0.381679 0.468854 0.390620
O O9 0.203042 0.381783 0.501009
O O10 0.307861 0.831275 0.575584
O O11 0.433992 0.239246 0.573314
O O12 0.531283 0.384916 0.251310
O O13 0.500000 0.500000 0.000000
O O14 0.914708 0.834788 0.630332
O O15 0.000000 0.500000 0.500000
O O16 0.076298 0.945878 0.606882
#
# Coordination Sequence:
#
# PCOD9013942 Si02
#       8
#     2   2   2   2   2   2   2   1
#     4  10  21  41  66  91 131 175 214 271 329 386
#     4  11  22  41  67  96 130 174 215 269 332 394
#     4  10  25  42  66  93 134 172 213 276 326 392
#     4  11  23  42  64  95 134 171 217 271 333 393
#     4  11  23  43  67  98 132 169 223 277 327 392
#     4  11  22  38  66  97 129 167 221 271 321 392
#     4  10  22  40  62  96 128 167 219 266 326 389
#     4  12  24  42  68 100 130 172 222 272 336 394
#
# _framework density 23.051414999999999
#
# number of rings (size 3 to 8) (size 9 to 14) (size 15 to 20)
#    0.000    1.333    5.333    0.000    0.000    4.267 
#    0.000    2.667    0.000    0.000    0.000    0.000 
#    0.000    0.000    0.000    0.000    0.000    0.000 
#
# Total GULP energy -83632.372899 kJ/mol
# GULP energy per Si atom -5575.491527 kJ/mol
# Density = 2.299895 g / cm^3
# Si number density = 23.051415 Si / 1000 Ang^3
#
#
#
# Elastic Constant Matrix: (Units=GPa)
#
#
# Indices 1 2 3 4 5 6 
#
# 1 36.3398 15.4828 11.2485 -0.7091 -17.6498 5.0414
# 2 15.4828 139.6658 49.1476 -0.1821 -9.4818 34.3709
# 3 11.2485 49.1476 116.9232 -24.9912 -11.5888 10.0884
# 4 -0.7091 -0.1821 -24.9912 49.8521 3.7448 2.8473
# 5 -17.6498 -9.4818 -11.5888 3.7448 28.1814 -0.4788
# 6 5.0414 34.3709 10.0884 2.8473 -0.4788 30.2674
#
#
#
# Elastic Compliance Matrix: (Units=1/GPa)
#
#
# Indices 1 2 3 4 5 6 
#
# 1 0.041151 -0.001526 -0.000767 -0.001440 0.025061 -0.004334
# 2 -0.001526 0.011621 -0.003910 -0.001384 0.001335 -0.011488
# 3 -0.000767 -0.003910 0.011687 0.005654 0.002262 0.000177
# 4 -0.001440 -0.001384 0.005654 0.023161 -0.002159 -0.002286
# 5 0.025061 0.001335 0.002262 -0.002159 0.052754 -0.005407
# 6 -0.004334 -0.011488 0.000177 -0.002286 -0.005407 0.046877
#
#
# Mechanical properties :
#
#
# Convention : Reuss Voigt Hill
#
# Bulk Modulus (GPa) = 19.21145 49.40963 34.31054
# Shear Modulus (GPa) = 23.04062 36.13018 29.58540
#
# Velocity S-wave (km/s) = 3.16497 3.96330 3.58642
# Velocity P-wave (km/s) = 4.65922 6.51343 5.66273
#
# Compressibility (1/GPa) = 0.05205229
#
# Stress axis : x y z
#
# Youngs Moduli (GPa) = 24.30101 86.05129 85.56186
#
# Poissons Ratio (x) = 0.13129 0.06566
# Poissons Ratio (y) = 0.03708 0.33456
# Poissons Ratio (z) = 0.01865 0.33648
#
# Static dielectric constant tensor:
#      x y z
#    x 1.597710 0.049960 0.040380 
#    y 0.049960 1.892880 -0.005700 
#    z 0.040380 -0.005700 1.897340 
# 
# From -- ./inp_files/41634.got.cif
#   From: 2010.05.17/outbox.cif.g08.bks.cpg/sg2_21_cif.got.tgz:41634.got - 2010.06.03 11:33:40.
