data_PCOD9013103
_publ_section_title
;
Structure prediction by ZEFSAII (Michael W. Deem and Ramdas Pophale) SiO2 
 PCOD9013103
Probable space group: P -1
;
_chemical_formula_sum "Si O2"
_cell_formula_units_Z 13
_cell_length_a 15.455865
_cell_length_b 7.845265
_cell_length_c 11.636227
_cell_angle_alpha 84.189978
_cell_angle_beta 28.839619
_cell_angle_gamma 67.342052
_cell_volume 532.328861
_symmetry_space_group_name_H-M "P -1"
_symmetry_group_IT_number 2
_symmetry_cell_setting 'triclinic'
loop_
_space_group_symop_operation_xyz
x,y,z
-x,-y,-z
loop_
_atom_site_type_symbol
_atom_site_label
_atom_site_fract_x
_atom_site_fract_y
_atom_site_fract_z
Si Si1 0.419995 0.371750 0.660753
Si Si2 0.735137 0.309921 0.995085
Si Si3 0.411893 0.999134 0.367704
Si Si4 0.500000 0.000000 0.000000
Si Si5 0.002496 0.700445 0.515111
Si Si6 0.742640 0.576681 0.395353
Si Si7 0.087248 0.154940 0.139384
O O1 0.500000 0.500000 0.500000
O O2 0.259419 0.527127 0.941103
O O3 0.619482 0.147545 0.505825
O O4 0.309021 0.348440 0.681744
O O5 0.478256 0.388926 0.295446
O O6 0.813533 0.315729 0.777393
O O7 0.889917 0.062890 0.877666
O O8 0.441038 0.955391 0.201626
O O9 0.236993 0.256375 0.573423
O O10 0.656616 0.923389 0.137809
O O11 0.249663 0.086273 0.237843
O O12 0.040661 0.713377 0.603352
O O13 0.000000 0.500000 0.500000
O O14 0.949935 0.325311 0.186700
#
# Coordination Sequence:
#
# PCOD9013103 Si02
#       7
#     2   2   2   1   2   2   2
#     4  10  22  40  61  88 124 165 204 246 297 359
#     4  10  22  39  59  88 124 158 204 253 297 363
#     4  10  21  41  63  90 121 155 208 254 299 364
#     4  10  22  38  64  90 116 156 194 250 312 348
#     4  11  22  38  60  90 122 156 203 251 303 366
#     4  10  22  40  62  86 120 164 200 249 305 348
#     4  10  22  38  60  90 120 156 203 251 306 363
#
# _framework density 24.420995000000001
#
# number of rings (size 3 to 8) (size 9 to 14) (size 15 to 20)
#    0.000    1.846    0.000    3.692    0.000    5.538 
#    0.000    3.077    0.000    0.000    0.000    0.000 
#    0.000    0.000    0.000    0.000    0.000    0.000 
#
# Total GULP energy -72460.224096 kJ/mol
# GULP energy per Si atom -5573.863392 kJ/mol
# Density = 2.436541 g / cm^3
# Si number density = 24.420995 Si / 1000 Ang^3
#
#
#
# Elastic Constant Matrix: (Units=GPa)
#
#
# Indices 1 2 3 4 5 6 
#
# 1 48.5482 10.8274 7.0589 1.2363 -2.9467 -20.9938
# 2 10.8274 107.4613 -0.6989 7.6707 -9.7655 0.0233
# 3 7.0589 -0.6989 41.5225 -7.5116 -4.9976 17.8287
# 4 1.2363 7.6707 -7.5116 37.0057 -0.9573 4.0975
# 5 -2.9467 -9.7655 -4.9976 -0.9573 22.3827 5.5557
# 6 -20.9938 0.0233 17.8287 4.0975 5.5557 31.8134
#
#
#
# Elastic Compliance Matrix: (Units=1/GPa)
#
#
# Indices 1 2 3 4 5 6 
#
# 1 0.060130 -0.007315 -0.048513 -0.019158 -0.025232 0.073746
# 2 -0.007315 0.010746 0.006842 0.000729 0.007798 -0.010126
# 3 -0.048513 0.006842 0.078509 0.026587 0.036568 -0.085827
# 4 -0.019158 0.000729 0.026587 0.037118 0.013947 -0.034759
# 5 -0.025232 0.007798 0.036568 0.013947 0.066049 -0.050480
# 6 0.073746 -0.010126 -0.085827 -0.034759 -0.050480 0.141497
#
#
# Mechanical properties :
#
#
# Convention : Reuss Voigt Hill
#
# Bulk Modulus (GPa) = 19.45024 25.76741 22.60883
# Shear Modulus (GPa) = 9.82013 30.26332 20.04172
#
# Velocity S-wave (km/s) = 2.00746 3.52409 2.86785
# Velocity P-wave (km/s) = 3.65446 5.20896 4.49935
#
# Compressibility (1/GPa) = 0.05141325
#
# Stress axis : x y z
#
# Youngs Moduli (GPa) = 16.63063 93.05750 12.73747
#
# Poissons Ratio (x) = 0.68075 0.61793
# Poissons Ratio (y) = 0.12166 -0.08716
# Poissons Ratio (z) = 0.80680 -0.63674
#
# Static dielectric constant tensor:
#      x y z
#    x 1.966500 0.076090 -0.010900 
#    y 0.076090 1.992000 -0.002280 
#    z -0.010900 -0.002280 1.985860 
# 
# From -- ./inp_files/233181.got.cif
#   From: 2010.05.17/outbox.cif.g08.bks.cpg/sg2_117_cif.got.tgz:233181.got - 2010.06.03 11:33:40.
