data_PCOD9013290
_publ_section_title
;
Structure prediction by ZEFSAII (Michael W. Deem and Ramdas Pophale) SiO2 
 PCOD9013290
Probable space group: P -1
;
_chemical_formula_sum "Si O2"
_cell_formula_units_Z 10
_cell_length_a 14.180238
_cell_length_b 13.632823
_cell_length_c 5.404720
_cell_angle_alpha 96.489751
_cell_angle_beta 95.709910
_cell_angle_gamma 20.679367
_cell_volume 366.543983
_symmetry_space_group_name_H-M "P -1"
_symmetry_group_IT_number 2
_symmetry_cell_setting 'triclinic'
loop_
_space_group_symop_operation_xyz
x,y,z
-x,-y,-z
loop_
_atom_site_type_symbol
_atom_site_label
_atom_site_fract_x
_atom_site_fract_y
_atom_site_fract_z
Si Si1 0.623098 0.227381 0.537088
Si Si2 0.311036 0.134377 0.694990
Si Si3 0.916425 0.291116 0.173695
Si Si4 0.209531 0.410632 0.131408
Si Si5 0.305906 0.638631 0.183081
O O1 0.375906 0.437667 0.708434
O O2 0.469991 0.390747 0.285825
O O3 0.738871 0.226675 0.606439
O O4 0.867219 0.924467 0.614041
O O5 0.005764 0.398367 0.651704
O O6 0.500000 0.000000 0.500000
O O7 0.495229 0.863776 0.757229
O O8 0.260427 0.264578 0.933343
O O9 0.912627 0.389845 0.026637
O O10 0.942544 0.170698 0.963042
O O11 0.500000 0.500000 0.000000
#
# Coordination Sequence:
#
# PCOD9013290 Si02
#       5
#     2   2   2   2   2
#     4  10  22  38  60  87 121 165 207 250 313 373
#     4  10  21  41  64  88 123 165 203 255 320 382
#     4  11  22  39  60  90 124 158 207 265 306 364
#     4  10  22  39  62  92 124 160 210 259 312 378
#     4   9  21  39  60  86 122 164 205 253 310 368
#
# _framework density 27.281853000000002
#
# number of rings (size 3 to 8) (size 9 to 14) (size 15 to 20)
#    0.000    2.000    0.000    2.400    0.000   12.000 
#    0.000    4.000    0.000    0.000    0.000    0.000 
#    0.000    0.000    0.000    0.000    0.000    0.000 
#
# Total GULP energy -55912.602431 kJ/mol
# GULP energy per Si atom -5591.260243 kJ/mol
# Density = 2.721976 g / cm^3
# Si number density = 27.281853 Si / 1000 Ang^3
#
#
#
# Elastic Constant Matrix: (Units=GPa)
#
#
# Indices 1 2 3 4 5 6 
#
# 1 54.1761 52.1029 27.5800 -1.4394 -18.7575 17.5313
# 2 52.1029 190.1441 49.7892 0.3892 -25.5558 -18.9295
# 3 27.5800 49.7892 113.2879 -4.5189 -30.4048 -0.1773
# 4 -1.4394 0.3892 -4.5189 58.8128 -2.1501 -13.6526
# 5 -18.7575 -25.5558 -30.4048 -2.1501 56.4970 -8.2558
# 6 17.5313 -18.9295 -0.1773 -13.6526 -8.2558 42.7116
#
#
#
# Elastic Compliance Matrix: (Units=1/GPa)
#
#
# Indices 1 2 3 4 5 6 
#
# 1 0.039846 -0.011776 -0.004146 -0.004427 0.002203 -0.022580
# 2 -0.011776 0.009976 -0.000981 0.002000 0.001643 0.010207
# 3 -0.004146 -0.000981 0.011658 0.001628 0.004923 0.002787
# 4 -0.004427 0.002000 0.001628 0.019261 0.002408 0.009332
# 5 0.002203 0.001643 0.004923 0.002408 0.022645 0.004991
# 6 -0.022580 0.010207 0.002787 0.009332 0.004991 0.041164
#
#
# Mechanical properties :
#
#
# Convention : Reuss Voigt Hill
#
# Bulk Modulus (GPa) = 36.13347 68.50581 52.31964
# Shear Modulus (GPa) = 26.65537 46.81335 36.73436
#
# Velocity S-wave (km/s) = 3.12915 4.14685 3.67342
# Velocity P-wave (km/s) = 5.13115 6.93494 6.10009
#
# Compressibility (1/GPa) = 0.02767517
#
# Stress axis : x y z
#
# Youngs Moduli (GPa) = 25.09650 100.24472 85.77799
#
# Poissons Ratio (x) = 1.18046 0.35562
# Poissons Ratio (y) = 0.29553 0.08413
# Poissons Ratio (z) = 0.10404 0.09832
#
# Static dielectric constant tensor:
#      x y z
#    x 2.244250 0.037800 0.068950 
#    y 0.037800 2.102580 -0.000100 
#    z 0.068950 -0.000100 2.202130 
# 
# From -- ./inp_files/2522.got.cif
#   From: 2010.05.17/outbox.cif.g08.bks.cpg/sg2_2_cif.got.tgz:2522.got - 2010.06.03 11:33:40.
