data_PCOD9013535
_publ_section_title
;
Structure prediction by ZEFSAII (Michael W. Deem and Ramdas Pophale) SiO2 
 PCOD9013535
Probable space group: P -1
;
_chemical_formula_sum "Si O2"
_cell_formula_units_Z 13
_cell_length_a 9.914426
_cell_length_b 8.804090
_cell_length_c 11.423157
_cell_angle_alpha 108.939574
_cell_angle_beta 93.848333
_cell_angle_gamma 139.434491
_cell_volume 527.582026
_symmetry_space_group_name_H-M "P -1"
_symmetry_group_IT_number 2
_symmetry_cell_setting 'triclinic'
loop_
_space_group_symop_operation_xyz
x,y,z
-x,-y,-z
loop_
_atom_site_type_symbol
_atom_site_label
_atom_site_fract_x
_atom_site_fract_y
_atom_site_fract_z
Si Si1 0.966772 0.431221 0.780886
Si Si2 0.518990 0.583085 0.299662
Si Si3 0.000000 0.000000 0.000000
Si Si4 0.336735 0.184723 0.878901
Si Si5 0.309085 0.672444 0.443554
Si Si6 0.615792 0.123708 0.894668
Si Si7 0.766129 0.504440 0.344048
O O1 0.010324 0.306853 0.683747
O O2 0.924950 0.512519 0.693209
O O3 0.739446 0.221752 0.800299
O O4 0.179411 0.681275 0.946320
O O5 0.682491 0.820133 0.264210
O O6 0.435467 0.635054 0.398172
O O7 0.674324 0.593906 0.367034
O O8 0.271803 0.272490 0.148519
O O9 0.890661 0.005413 0.100311
O O10 0.484433 0.165969 0.902812
O O11 0.500000 0.500000 0.000000
O O12 0.226474 0.568877 0.546345
O O13 0.500000 0.000000 0.500000
O O14 0.436666 0.799550 0.811192
#
# Coordination Sequence:
#
# PCOD9013535 Si02
#       7
#     2   2   1   2   2   2   2
#     4  11  24  43  75 100 136 187 235 283 349 406
#     4  11  25  44  69 105 143 176 233 290 350 408
#     4  10  24  40  74 104 138 180 226 288 356 398
#     4  10  21  41  65 105 145 173 227 289 347 409
#     4  12  25  51  69  97 145 192 232 284 345 424
#     4  11  24  43  73 103 140 178 237 291 344 415
#     4  12  26  44  71 104 142 179 236 288 351 416
#
# _framework density 24.640716000000001
#
# number of rings (size 3 to 8) (size 9 to 14) (size 15 to 20)
#    0.000    0.923    3.077    3.231    4.308    2.462 
#    2.769    0.769    0.000    0.000    0.000    0.000 
#    0.000    0.000    0.000    0.000    0.000    0.000 
#
# Total GULP energy -72453.109586 kJ/mol
# GULP energy per Si atom -5573.316122 kJ/mol
# Density = 2.458463 g / cm^3
# Si number density = 24.640716 Si / 1000 Ang^3
#
#
#
# Elastic Constant Matrix: (Units=GPa)
#
#
# Indices 1 2 3 4 5 6 
#
# 1 199.9253 56.3349 30.3128 -21.5947 -11.6429 18.9127
# 2 56.3349 52.5522 41.9440 -28.2590 -0.2888 13.2252
# 3 30.3128 41.9440 91.1818 -33.9086 8.5091 11.5800
# 4 -21.5947 -28.2590 -33.9086 43.5547 4.4884 -16.4634
# 5 -11.6429 -0.2888 8.5091 4.4884 48.2760 -12.2543
# 6 18.9127 13.2252 11.5800 -16.4634 -12.2543 49.0390
#
#
#
# Elastic Compliance Matrix: (Units=1/GPa)
#
#
# Indices 1 2 3 4 5 6 
#
# 1 0.007600 -0.010180 0.001247 -0.002361 0.001547 -0.000886
# 2 -0.010180 0.049511 -0.012816 0.016830 -0.001767 -0.001191
# 3 0.001247 -0.012816 0.019870 0.008198 -0.004033 0.000028
# 4 -0.002361 0.016830 0.008198 0.042403 -0.003902 0.007696
# 5 0.001547 -0.001767 -0.004033 -0.003902 0.023521 0.005400
# 6 -0.000886 -0.001191 0.000028 0.007696 0.005400 0.024981
#
#
# Mechanical properties :
#
#
# Convention : Reuss Voigt Hill
#
# Bulk Modulus (GPa) = 29.86689 66.76030 48.31360
# Shear Modulus (GPa) = 22.46726 42.51176 32.48951
#
# Velocity S-wave (km/s) = 3.02287 4.15814 3.63510
# Velocity P-wave (km/s) = 4.93264 7.08560 6.10478
#
# Compressibility (1/GPa) = 0.03348189
#
# Stress axis : x y z
#
# Youngs Moduli (GPa) = 131.57198 20.19756 50.32817
#
# Poissons Ratio (x) = 0.20562 -0.06274
# Poissons Ratio (y) = 1.33945 0.64499
# Poissons Ratio (z) = -0.16401 0.25885
#
# Static dielectric constant tensor:
#      x y z
#    x 1.914180 0.083910 0.060950 
#    y 0.083910 2.083580 0.058410 
#    z 0.060950 0.058410 1.966000 
# 
# From -- ./inp_files/380037.got.cif
#   From: 2010.05.17/outbox.cif.g08.bks.cpg/sg2_191_cif.got.tgz:380037.got - 2010.06.03 11:33:40.
