data_PCOD9013993
_publ_section_title
;
Structure prediction by ZEFSAII (Michael W. Deem and Ramdas Pophale) SiO2 
 PCOD9013993
Probable space group: P -1
;
_chemical_formula_sum "Si O2"
_cell_formula_units_Z 16
_cell_length_a 15.147462
_cell_length_b 9.138822
_cell_length_c 9.249865
_cell_angle_alpha 133.495830
_cell_angle_beta 48.705787
_cell_angle_gamma 105.511768
_cell_volume 655.627978
_symmetry_space_group_name_H-M "P -1"
_symmetry_group_IT_number 2
_symmetry_cell_setting 'triclinic'
loop_
_space_group_symop_operation_xyz
x,y,z
-x,-y,-z
loop_
_atom_site_type_symbol
_atom_site_label
_atom_site_fract_x
_atom_site_fract_y
_atom_site_fract_z
Si Si1 0.703544 0.588242 0.847926
Si Si2 0.037415 0.687182 0.669261
Si Si3 0.375616 0.855290 0.138234
Si Si4 0.631657 0.678581 0.649691
Si Si5 0.105156 0.477003 0.754485
Si Si6 0.859252 0.007124 0.681309
Si Si7 0.215591 0.996962 0.922367
Si Si8 0.550538 0.184983 0.632394
O O1 0.820730 0.368929 0.579239
O O2 0.665449 0.642980 0.759297
O O3 0.746436 0.787933 0.982565
O O4 0.577264 0.608360 0.084091
O O5 0.053183 0.637724 0.788563
O O6 0.000000 0.500000 0.500000
O O7 0.927038 0.910801 0.916796
O O8 0.401777 0.854767 0.280813
O O9 0.377423 0.087631 0.240074
O O10 0.239414 0.860058 0.240790
O O11 0.489199 0.684091 0.809019
O O12 0.760494 0.525663 0.334520
O O13 0.130019 0.240635 0.504666
O O14 0.000000 0.500000 0.000000
O O15 0.798927 0.073478 0.948247
O O16 0.000000 0.000000 0.500000
O O17 0.330199 0.822329 0.597244
O O18 0.500000 0.000000 0.500000
#
# Coordination Sequence:
#
# PCOD9013993 Si02
#       8
#     2   2   2   2   2   2   2   2
#     4   8  13  28  43  73 104 129 160 218 280 311
#     4   9  15  28  49  71 107 132 161 222 278 309
#     4   9  16  30  49  72 103 140 177 214 270 317
#     4   8  14  26  48  73 101 127 171 221 268 302
#     4  10  19  32  53  82 106 133 182 228 268 318
#     4  11  22  37  53  73 112 156 180 208 265 336
#     4  10  17  30  47  78 107 132 177 221 265 320
#     4   9  18  26  48  80 109 124 169 234 282 309
#
# _framework density 24.404084000000001
#
# number of rings (size 3 to 8) (size 9 to 14) (size 15 to 20)
#    0.000    2.750    5.000    0.000    5.250    0.000 
#    0.000    0.625    0.000    0.750    0.000    2.625 
#    0.000    0.000    0.000    0.000    0.000    0.000 
#
# Total GULP energy -89263.165616 kJ/mol
# GULP energy per Si atom -5578.947851 kJ/mol
# Density = 2.434854 g / cm^3
# Si number density = 24.404084 Si / 1000 Ang^3
#
#
#
# Elastic Constant Matrix: (Units=GPa)
#
#
# Indices 1 2 3 4 5 6 
#
# 1 127.6207 41.3537 70.2019 -2.8275 -39.9057 -10.0288
# 2 41.3537 82.0929 58.4673 -10.4611 0.8490 0.6766
# 3 70.2019 58.4673 238.6500 -31.2433 -47.2617 -17.3366
# 4 -2.8275 -10.4611 -31.2433 32.6370 3.8860 3.9998
# 5 -39.9057 0.8490 -47.2617 3.8860 30.1419 4.3563
# 6 -10.0288 0.6766 -17.3366 3.9998 4.3563 40.6534
#
#
#
# Elastic Compliance Matrix: (Units=1/GPa)
#
#
# Indices 1 2 3 4 5 6 
#
# 1 0.021565 -0.014556 0.003980 -0.003641 0.035113 0.003855
# 2 -0.014556 0.026560 -0.008741 0.003427 -0.033516 -0.004506
# 3 0.003980 -0.008741 0.009903 0.004291 0.020088 0.002775
# 4 -0.003641 0.003427 0.004291 0.036124 -0.002498 -0.002412
# 5 0.035113 -0.033516 0.020088 -0.002498 0.111548 0.006079
# 6 0.003855 -0.004506 0.002775 -0.002412 0.006079 0.026394
#
#
# Mechanical properties :
#
#
# Convention : Reuss Voigt Hill
#
# Bulk Modulus (GPa) = 51.56867 87.60104 69.58485
# Shear Modulus (GPa) = 18.03795 39.24249 28.64022
#
# Velocity S-wave (km/s) = 2.72166 4.01437 3.42948
# Velocity P-wave (km/s) = 5.57257 7.58030 6.65261
#
# Compressibility (1/GPa) = 0.01939162
#
# Stress axis : x y z
#
# Youngs Moduli (GPa) = 46.37109 37.65043 100.98377
#
# Poissons Ratio (x) = 0.54806 -0.40188
# Poissons Ratio (y) = 0.67500 0.88273
# Poissons Ratio (z) = -0.18454 0.32911
#
# Static dielectric constant tensor:
#      x y z
#    x 2.004600 0.054620 -0.011260 
#    y 0.054620 1.967480 0.037650 
#    z -0.011260 0.037650 2.124350 
# 
# From -- ./inp_files/303819.got.cif
#   From: 2010.05.17/outbox.cif.g08.bks.cpg/sg2_152_cif.got.tgz:303819.got - 2010.06.03 11:33:40.
