data_PCOD9013472
_publ_section_title
;
Structure prediction by ZEFSAII (Michael W. Deem and Ramdas Pophale) SiO2 
 PCOD9013472
Probable space group: P -1
;
_chemical_formula_sum "Si O2"
_cell_formula_units_Z 14
_cell_length_a 9.466081
_cell_length_b 7.902881
_cell_length_c 15.026323
_cell_angle_alpha 113.021719
_cell_angle_beta 46.766116
_cell_angle_gamma 83.315307
_cell_volume 617.693031
_symmetry_space_group_name_H-M "P -1"
_symmetry_group_IT_number 2
_symmetry_cell_setting 'triclinic'
loop_
_space_group_symop_operation_xyz
x,y,z
-x,-y,-z
loop_
_atom_site_type_symbol
_atom_site_label
_atom_site_fract_x
_atom_site_fract_y
_atom_site_fract_z
Si Si1 0.703965 0.221308 0.954705
Si Si2 0.220193 0.026589 0.648356
Si Si3 0.732063 0.223625 0.142614
Si Si4 0.217686 0.005841 0.440906
Si Si5 0.414422 0.284956 0.927765
Si Si6 0.362110 0.312873 0.470730
Si Si7 0.111001 0.519655 0.786517
O O1 0.567465 0.183726 0.930539
O O2 0.984819 0.053969 0.787916
O O3 0.648994 0.211968 0.078459
O O4 0.642150 0.468670 0.012048
O O5 0.165771 0.274102 0.723001
O O6 0.264550 0.937546 0.510084
O O7 0.435940 0.875076 0.588995
O O8 0.520257 0.295028 0.317239
O O9 0.773272 0.419793 0.175128
O O10 0.000000 0.000000 0.000000
O O11 0.436392 0.856880 0.250665
O O12 0.184785 0.245215 0.504293
O O13 0.000000 0.000000 0.500000
O O14 0.170067 0.311161 0.049879
O O15 0.213001 0.522236 0.645754
#
# Coordination Sequence:
#
# PCOD9013472 Si02
#       7
#     2   2   2   2   2   2   2
#     4  10  22  39  63  92 129 165 208 262 309 371
#     4  10  21  41  64  97 125 160 217 265 310 363
#     4  12  24  42  64  93 132 170 210 253 324 378
#     4  11  21  38  67  94 122 163 210 263 312 368
#     4  10  22  40  64  94 124 161 218 261 308 367
#     4  11  24  42  62  97 130 163 209 264 316 379
#     4  10  23  41  64  93 129 168 210 264 309 373
#
# _framework density 22.664977
#
# number of rings (size 3 to 8) (size 9 to 14) (size 15 to 20)
#    0.000    1.429    2.857    3.000    6.000    1.143 
#    0.000    5.000    0.000    0.000    0.000    0.000 
#    0.000    0.000    0.000    0.000    0.000    0.000 
#
# Total GULP energy -78260.258111 kJ/mol
# GULP energy per Si atom -5590.018436 kJ/mol
# Density = 2.261339 g / cm^3
# Si number density = 22.664977 Si / 1000 Ang^3
#
#
#
# Elastic Constant Matrix: (Units=GPa)
#
#
# Indices 1 2 3 4 5 6 
#
# 1 107.0851 38.3598 30.0279 -11.2334 16.5416 3.8866
# 2 38.3598 42.2265 20.2725 -8.4814 3.5853 -2.2518
# 3 30.0279 20.2725 147.8360 -27.5584 13.2397 -8.9859
# 4 -11.2334 -8.4814 -27.5584 36.7335 -1.2897 8.2324
# 5 16.5416 3.5853 13.2397 -1.2897 41.2355 -6.6635
# 6 3.8866 -2.2518 -8.9859 8.2324 -6.6635 23.0011
#
#
#
# Elastic Compliance Matrix: (Units=1/GPa)
#
#
# Indices 1 2 3 4 5 6 
#
# 1 0.015751 -0.013288 -0.000801 0.002482 -0.005941 -0.006885
# 2 -0.013288 0.037085 -0.002036 0.001873 0.003705 0.005484
# 3 -0.000801 -0.002036 0.008424 0.005370 -0.001918 0.000750
# 4 0.002482 0.001873 0.005370 0.034938 -0.003682 -0.011710
# 5 -0.005941 0.003705 -0.001918 -0.003682 0.028458 0.010180
# 6 -0.006885 0.005484 0.000750 -0.011710 0.010180 0.052609
#
#
# Mechanical properties :
#
#
# Convention : Reuss Voigt Hill
#
# Bulk Modulus (GPa) = 34.47033 52.71867 43.59450
# Shear Modulus (GPa) = 22.81178 34.09320 28.45249
#
# Velocity S-wave (km/s) = 3.17594 3.88264 3.54694
# Velocity P-wave (km/s) = 5.35635 6.58865 6.00420
#
# Compressibility (1/GPa) = 0.02901046
#
# Stress axis : x y z
#
# Youngs Moduli (GPa) = 63.48793 26.96533 118.70337
#
# Poissons Ratio (x) = 0.35833 0.09506
# Poissons Ratio (y) = 0.84365 0.24163
# Poissons Ratio (z) = 0.05084 0.05489
#
# Static dielectric constant tensor:
#      x y z
#    x 1.790020 0.017420 -0.005690 
#    y 0.017420 1.902600 0.001890 
#    z -0.005690 0.001890 1.873480 
# 
# From -- ./inp_files/155343.got.cif
#   From: 2010.05.17/outbox.cif.g08.bks.cpg/sg2_78_cif.got.tgz:155343.got - 2010.06.03 11:33:40.
