data_PCOD9013331
_publ_section_title
;
Structure prediction by ZEFSAII (Michael W. Deem and Ramdas Pophale) SiO2 
 PCOD9013331
Probable space group: P -1
;
_chemical_formula_sum "Si O2"
_cell_formula_units_Z 16
_cell_length_a 19.552278
_cell_length_b 18.491570
_cell_length_c 6.389592
_cell_angle_alpha 109.195406
_cell_angle_beta 95.698558
_cell_angle_gamma 22.954630
_cell_volume 709.274355
_symmetry_space_group_name_H-M "P -1"
_symmetry_group_IT_number 2
_symmetry_cell_setting 'triclinic'
loop_
_space_group_symop_operation_xyz
x,y,z
-x,-y,-z
loop_
_atom_site_type_symbol
_atom_site_label
_atom_site_fract_x
_atom_site_fract_y
_atom_site_fract_z
Si Si1 0.620087 0.486001 0.461788
Si Si2 0.026890 0.154755 0.279023
Si Si3 0.370394 0.670608 0.934285
Si Si4 0.991597 0.332667 0.741631
Si Si5 0.265211 0.961509 0.800390
Si Si6 0.764623 0.788040 0.439649
Si Si7 0.533860 0.794368 0.964550
Si Si8 0.426561 0.130518 0.294016
O O1 0.523185 0.554756 0.711180
O O2 0.711463 0.317543 0.204701
O O3 0.422485 0.735702 0.525202
O O4 0.798202 0.360595 0.431036
O O5 0.043128 0.217065 0.466549
O O6 0.190331 0.918840 0.181803
O O7 0.083237 0.109465 0.010787
O O8 0.500000 0.500000 0.000000
O O9 0.749185 0.570228 0.948928
O O10 0.156234 0.138613 0.789178
O O11 0.031367 0.378300 0.723457
O O12 0.412349 0.846236 0.911229
O O13 0.616699 0.933870 0.330461
O O14 0.768704 0.702409 0.481009
O O15 0.633932 0.978972 0.742153
O O16 0.604712 0.756873 0.726948
O O17 0.500000 0.000000 0.000000
#
# Coordination Sequence:
#
# PCOD9013331 Si02
#       8
#     2   2   2   2   2   2   2   2
#     4  10  22  41  62  89 128 163 206 259 309 361
#     4  11  23  40  62  92 127 168 207 254 314 369
#     4  10  22  40  64  91 124 164 209 258 303 367
#     4  12  24  37  65  94 122 171 211 249 321 373
#     4  11  23  40  59  91 131 160 208 262 303 368
#     4  10  21  41  64  91 125 164 209 257 315 368
#     4  11  22  40  62  91 126 162 208 259 308 370
#     4   9  20  41  67  88 126 164 203 267 307 361
#
# _framework density 22.558264000000001
#
# number of rings (size 3 to 8) (size 9 to 14) (size 15 to 20)
#    0.000    1.500    3.750    1.125    0.000    4.000 
#    0.000    5.625    0.000    0.000    0.000    0.000 
#    0.000    0.000    0.000    0.000    0.000    0.000 
#
# Total GULP energy -89377.696125 kJ/mol
# GULP energy per Si atom -5586.106008 kJ/mol
# Density = 2.250692 g / cm^3
# Si number density = 22.558264 Si / 1000 Ang^3
#
#
#
# Elastic Constant Matrix: (Units=GPa)
#
#
# Indices 1 2 3 4 5 6 
#
# 1 77.4749 15.7340 -3.1462 -9.9630 -8.9660 -16.8462
# 2 15.7340 60.2513 12.1844 -2.8732 -18.0881 -4.9949
# 3 -3.1462 12.1844 23.8710 -0.2937 3.4996 -8.2061
# 4 -9.9630 -2.8732 -0.2937 27.0370 -1.3404 -0.6160
# 5 -8.9660 -18.0881 3.4996 -1.3404 25.3467 0.1225
# 6 -16.8462 -4.9949 -8.2061 -0.6160 0.1225 39.9833
#
#
#
# Elastic Compliance Matrix: (Units=1/GPa)
#
#
# Indices 1 2 3 4 5 6 
#
# 1 0.016835 -0.004099 0.006811 0.006144 0.002376 0.008067
# 2 -0.004099 0.027593 -0.018378 0.002211 0.020906 -0.002082
# 3 0.006811 -0.018378 0.059361 0.000555 -0.018934 0.012824
# 4 0.006144 0.002211 0.000555 0.039859 0.005765 0.003575
# 5 0.002376 0.020906 -0.018934 0.005765 0.058133 -0.000363
# 6 0.008067 -0.002082 0.012824 0.003575 -0.000363 0.030837
#
#
# Mechanical properties :
#
#
# Convention : Reuss Voigt Hill
#
# Bulk Modulus (GPa) = 13.80087 23.46016 18.63052
# Shear Modulus (GPa) = 17.35498 27.59508 22.47503
#
# Velocity S-wave (km/s) = 2.77671 3.50134 3.15986
# Velocity P-wave (km/s) = 4.05109 5.17380 4.64648
#
# Compressibility (1/GPa) = 0.07245921
#
# Stress axis : x y z
#
# Youngs Moduli (GPa) = 59.39846 36.24113 16.84603
#
# Poissons Ratio (x) = 0.14855 -0.11475
# Poissons Ratio (y) = 0.24347 0.30959
# Poissons Ratio (z) = -0.40459 0.66603
#
# Static dielectric constant tensor:
#      x y z
#    x 1.882270 0.012940 0.008220 
#    y 0.012940 1.843780 0.008600 
#    z 0.008220 0.008600 1.826390 
# 
# From -- ./inp_files/13336.got.cif
#   From: 2010.05.17/outbox.cif.g08.bks.cpg/sg2_7_cif.got.tgz:13336.got - 2010.06.03 11:33:40.
