data_PCOD9013997
_publ_section_title
;
Structure prediction by ZEFSAII (Michael W. Deem and Ramdas Pophale) SiO2 
 PCOD9013997
Probable space group: P -1
;
_chemical_formula_sum "Si O2"
_cell_formula_units_Z 14
_cell_length_a 7.166402
_cell_length_b 11.134757
_cell_length_c 10.603976
_cell_angle_alpha 136.495552
_cell_angle_beta 98.791655
_cell_angle_gamma 73.459642
_cell_volume 556.550601
_symmetry_space_group_name_H-M "P -1"
_symmetry_group_IT_number 2
_symmetry_cell_setting 'triclinic'
loop_
_space_group_symop_operation_xyz
x,y,z
-x,-y,-z
loop_
_atom_site_type_symbol
_atom_site_label
_atom_site_fract_x
_atom_site_fract_y
_atom_site_fract_z
Si Si1 0.815780 0.655637 0.135026
Si Si2 0.687308 0.037470 0.468659
Si Si3 0.084807 0.373597 0.534164
Si Si4 0.482834 0.660857 0.721959
Si Si5 0.860325 0.076393 0.242687
Si Si6 0.840181 0.710697 0.903399
Si Si7 0.542181 0.603175 0.270803
O O1 0.664827 0.576117 0.136058
O O2 0.837978 0.839286 0.347304
O O3 0.742500 0.721990 0.039084
O O4 0.000000 0.500000 0.000000
O O5 0.728882 0.072018 0.350859
O O6 0.656743 0.245506 0.665188
O O7 0.500000 0.000000 0.500000
O O8 0.013113 0.192764 0.377138
O O9 0.977272 0.513401 0.738281
O O10 0.000000 0.500000 0.500000
O O11 0.312542 0.328260 0.561584
O O12 0.500000 0.500000 0.500000
O O13 0.287973 0.810113 0.787848
O O14 0.670817 0.741270 0.804508
O O15 0.483251 0.565512 0.783609
O O16 0.944257 0.873761 0.045887
#
# Coordination Sequence:
#
# PCOD9013997 Si02
#       7
#     2   2   2   2   2   2   2
#     4  10  21  41  66  93 134 178 220 283 336 390
#     4   9  20  39  65  94 128 174 228 269 322 406
#     4  12  23  41  67 100 138 179 218 277 340 398
#     4  12  21  41  68  97 134 178 217 281 339 393
#     4  11  23  42  67  98 135 177 221 275 341 395
#     4  11  24  42  66  95 133 178 226 275 337 402
#     4  11  21  40  69  98 136 177 230 273 332 407
#
# _framework density 25.154945999999999
#
# number of rings (size 3 to 8) (size 9 to 14) (size 15 to 20)
#    0.000    1.143    5.714    0.429    0.000    1.143 
#    0.000    7.857    6.286    0.000    0.000    0.000 
#    0.000    0.000    0.000    0.000    0.000    0.000 
#
# Total GULP energy -77994.144435 kJ/mol
# GULP energy per Si atom -5571.010317 kJ/mol
# Density = 2.509769 g / cm^3
# Si number density = 25.154946 Si / 1000 Ang^3
#
#
#
# Elastic Constant Matrix: (Units=GPa)
#
#
# Indices 1 2 3 4 5 6 
#
# 1 79.1653 8.0550 54.5024 20.4421 11.9477 -0.5424
# 2 8.0550 89.7989 36.3555 15.4605 1.0553 31.1737
# 3 54.5024 36.3555 122.6640 20.1506 9.5086 9.9181
# 4 20.4421 15.4605 20.1506 40.0530 7.1701 -6.0872
# 5 11.9477 1.0553 9.5086 7.1701 51.4167 -3.6159
# 6 -0.5424 31.1737 9.9181 -6.0872 -3.6159 35.7549
#
#
#
# Elastic Compliance Matrix: (Units=1/GPa)
#
#
# Indices 1 2 3 4 5 6 
#
# 1 0.020429 0.003628 -0.008600 -0.007379 -0.002340 -0.001960
# 2 0.003628 0.020985 -0.004573 -0.010454 -0.000291 -0.018782
# 3 -0.008600 -0.004573 0.013444 -0.000552 -0.000317 0.000001
# 4 -0.007379 -0.010454 -0.000552 0.035669 -0.001885 0.015037
# 5 -0.002340 -0.000291 -0.000317 -0.001885 0.020465 0.002055
# 6 -0.001960 -0.018782 0.000001 0.015037 0.002055 0.047082
#
#
# Mechanical properties :
#
#
# Convention : Reuss Voigt Hill
#
# Bulk Modulus (GPa) = 27.95845 54.38377 41.17111
# Shear Modulus (GPa) = 26.44295 38.29262 32.36779
#
# Velocity S-wave (km/s) = 3.24574 3.90586 3.59100
# Velocity P-wave (km/s) = 5.01847 6.48132 5.79623
#
# Compressibility (1/GPa) = 0.03576737
#
# Stress axis : x y z
#
# Youngs Moduli (GPa) = 48.95108 47.65198 74.38200
#
# Poissons Ratio (x) = -0.17287 0.63969
# Poissons Ratio (y) = -0.17758 0.34016
# Poissons Ratio (z) = 0.42098 0.21792
#
# Static dielectric constant tensor:
#      x y z
#    x 2.082120 0.019650 0.043320 
#    y 0.019650 2.106480 0.007190 
#    z 0.043320 0.007190 2.018920 
# 
# From -- ./inp_files/388562.got.cif
#   From: 2010.05.17/outbox.cif.g08.bks.cpg/sg2_195_cif.got.tgz:388562.got - 2010.06.03 11:33:40.
