data_PCOD9013672
_publ_section_title
;
Structure prediction by ZEFSAII (Michael W. Deem and Ramdas Pophale) SiO2 
 PCOD9013672
Probable space group: P -1
;
_chemical_formula_sum "Si O2"
_cell_formula_units_Z 12
_cell_length_a 7.603235
_cell_length_b 10.152236
_cell_length_c 10.881244
_cell_angle_alpha 118.656916
_cell_angle_beta 42.538726
_cell_angle_gamma 103.884972
_cell_volume 489.117935
_symmetry_space_group_name_H-M "P -1"
_symmetry_group_IT_number 2
_symmetry_cell_setting 'triclinic'
loop_
_space_group_symop_operation_xyz
x,y,z
-x,-y,-z
loop_
_atom_site_type_symbol
_atom_site_label
_atom_site_fract_x
_atom_site_fract_y
_atom_site_fract_z
Si Si1 0.312935 0.092445 0.916321
Si Si2 0.182177 0.001406 0.525052
Si Si3 0.132237 0.842655 0.029480
Si Si4 0.157089 0.418840 0.196103
Si Si5 0.295011 0.512937 0.723778
Si Si6 0.717728 0.336860 0.576749
O O1 0.528558 0.993125 0.672524
O O2 0.047934 0.140130 0.993201
O O3 0.366003 0.259803 0.998882
O O4 0.282643 0.983994 0.997605
O O5 0.211983 0.838855 0.503812
O O6 0.000000 0.000000 0.500000
O O7 0.048098 0.128535 0.745402
O O8 0.300351 0.673567 0.860280
O O9 0.267985 0.552861 0.265555
O O10 0.993332 0.479714 0.184247
O O11 0.935971 0.372494 0.382517
O O12 0.500000 0.500000 0.500000
O O13 0.425727 0.379315 0.687438
#
# Coordination Sequence:
#
# PCOD9013672 Si02
#       6
#     2   2   2   2   2   2
#     4  10  22  42  72  91 133 174 221 277 332 386
#     4  12  27  42  62 103 135 174 224 268 335 400
#     4  10  22  46  68  96 130 174 224 274 329 396
#     4   9  19  40  67  97 123 178 219 267 334 389
#     4   9  20  39  71  96 123 174 222 268 337 390
#     4  10  21  41  65  92 137 167 219 277 322 395
#
# _framework density 24.533957999999998
#
# number of rings (size 3 to 8) (size 9 to 14) (size 15 to 20)
#    0.000    2.000    1.667    0.500    4.667    5.333 
#    3.000    1.667    0.000    0.000    0.000    0.000 
#    0.000    0.000    0.000    0.000    0.000    0.000 
#
# Total GULP energy -67176.147424 kJ/mol
# GULP energy per Si atom -5598.012285 kJ/mol
# Density = 2.447812 g / cm^3
# Si number density = 24.533958 Si / 1000 Ang^3
#
#
#
# Elastic Constant Matrix: (Units=GPa)
#
#
# Indices 1 2 3 4 5 6 
#
# 1 86.7777 35.6805 6.1926 19.1577 6.1247 -16.7817
# 2 35.6805 66.8887 42.6670 11.0082 -11.5470 -10.6914
# 3 6.1926 42.6670 159.0113 24.5775 21.6056 1.8888
# 4 19.1577 11.0082 24.5775 36.6243 3.9156 -8.2792
# 5 6.1247 -11.5470 21.6056 3.9156 25.3073 10.3469
# 6 -16.7817 -10.6914 1.8888 -8.2792 10.3469 26.1002
#
#
#
# Elastic Compliance Matrix: (Units=1/GPa)
#
#
# Indices 1 2 3 4 5 6 
#
# 1 0.027340 -0.022569 0.010173 -0.006841 -0.031936 0.018088
# 2 -0.022569 0.042991 -0.016933 0.002747 0.044138 -0.012302
# 3 0.010173 -0.016933 0.014589 -0.006011 -0.024275 0.006266
# 4 -0.006841 0.002747 -0.006011 0.036318 -0.001347 0.009216
# 5 -0.031936 0.044138 -0.024275 -0.001347 0.105946 -0.043124
# 6 0.018088 -0.012302 0.006266 0.009216 -0.043124 0.064470
#
#
# Mechanical properties :
#
#
# Convention : Reuss Voigt Hill
#
# Bulk Modulus (GPa) = 38.07658 53.52868 45.80263
# Shear Modulus (GPa) = 13.92505 32.81555 23.37030
#
# Velocity S-wave (km/s) = 2.38498 3.66123 3.08972
# Velocity P-wave (km/s) = 4.81018 6.30384 5.60697
#
# Compressibility (1/GPa) = 0.02626286
#
# Stress axis : x y z
#
# Youngs Moduli (GPa) = 36.57684 23.26043 68.54468
#
# Poissons Ratio (x) = 0.52497 -0.69730
# Poissons Ratio (y) = 0.82551 1.16063
# Poissons Ratio (z) = -0.37209 0.39386
#
# Static dielectric constant tensor:
#      x y z
#    x 1.958240 0.011650 0.004420 
#    y 0.011650 1.965700 -0.000280 
#    z 0.004420 -0.000280 1.996790 
# 
# From -- ./inp_files/149541.got.cif
#   From: 2010.05.17/outbox.cif.g08.bks.cpg/sg2_75_cif.got.tgz:149541.got - 2010.06.03 11:33:40.
