data_PCOD9013370
_publ_section_title
;
Structure prediction by ZEFSAII (Michael W. Deem and Ramdas Pophale) SiO2 
 PCOD9013370
Probable space group: P -1
;
_chemical_formula_sum "Si O2"
_cell_formula_units_Z 16
_cell_length_a 18.897861
_cell_length_b 5.706258
_cell_length_c 9.255940
_cell_angle_alpha 124.717105
_cell_angle_beta 124.492654
_cell_angle_gamma 71.384948
_cell_volume 676.191139
_symmetry_space_group_name_H-M "P -1"
_symmetry_group_IT_number 2
_symmetry_cell_setting 'triclinic'
loop_
_space_group_symop_operation_xyz
x,y,z
-x,-y,-z
loop_
_atom_site_type_symbol
_atom_site_label
_atom_site_fract_x
_atom_site_fract_y
_atom_site_fract_z
Si Si1 0.471187 0.895983 0.126302
Si Si2 0.951018 0.714818 0.908651
Si Si3 0.343045 0.715430 0.118309
Si Si4 0.908177 0.511580 0.475929
Si Si5 0.813479 0.948741 0.052045
Si Si6 0.765615 0.808565 0.255383
Si Si7 0.624720 0.247649 0.305756
Si Si8 0.600844 0.562204 0.652732
O O1 0.440833 0.769385 0.198856
O O2 0.565082 0.013546 0.241349
O O3 0.408023 0.172457 0.154249
O O4 0.432214 0.704115 0.886415
O O5 0.922628 0.540464 0.672859
O O6 0.000000 0.500000 0.000000
O O7 0.871947 0.821542 0.950940
O O8 0.000000 0.000000 0.000000
O O9 0.347320 0.666160 0.275409
O O10 0.277382 0.963235 0.089203
O O11 0.303243 0.445734 0.893157
O O12 0.859591 0.228071 0.268414
O O13 0.846969 0.765882 0.437918
O O14 0.000000 0.500000 0.500000
O O15 0.798180 0.763163 0.112541
O O16 0.714840 0.102893 0.320259
O O17 0.633137 0.523822 0.513273
O O18 0.500000 0.500000 0.500000
#
# Coordination Sequence:
#
# PCOD9013370 Si02
#       8
#     2   2   2   2   2   2   2   2
#     4  10  21  44  62  89 133 178 229 287 342 422
#     4  12  28  49  79 112 142 190 242 292 367 440
#     4  11  22  43  66  94 138 181 234 288 360 410
#     4  11  25  47  74 104 140 185 234 289 360 435
#     4  11  25  46  71  99 148 183 230 303 355 431
#     4  11  24  45  67 100 140 181 234 294 357 421
#     4  10  21  41  64  92 131 177 229 285 350 414
#     4  10  22  40  61  91 130 177 230 291 349 421
#
# _framework density 23.661947000000001
#
# number of rings (size 3 to 8) (size 9 to 14) (size 15 to 20)
#    0.000    1.250    3.750    0.750    5.250    3.500 
#    6.750    0.000    0.000    0.000    0.000    0.000 
#    0.000    0.000    0.000    0.000    0.000    0.000 
#
# Total GULP energy -89316.081242 kJ/mol
# GULP energy per Si atom -5582.255078 kJ/mol
# Density = 2.360809 g / cm^3
# Si number density = 23.661947 Si / 1000 Ang^3
#
#
#
# Elastic Constant Matrix: (Units=GPa)
#
#
# Indices 1 2 3 4 5 6 
#
# 1 146.6712 21.7965 34.2701 -0.9603 -14.9773 -9.6671
# 2 21.7965 51.2757 20.0540 -19.6812 0.7456 -10.2657
# 3 34.2701 20.0540 124.2489 -19.6347 -21.9502 -9.9616
# 4 -0.9603 -19.6812 -19.6347 36.7347 0.9734 5.6245
# 5 -14.9773 0.7456 -21.9502 0.9734 48.9463 3.2745
# 6 -9.6671 -10.2657 -9.9616 5.6245 3.2745 37.7553
#
#
#
# Elastic Compliance Matrix: (Units=1/GPa)
#
#
# Indices 1 2 3 4 5 6 
#
# 1 0.007972 -0.003672 -0.001677 -0.002835 0.001742 0.000872
# 2 -0.003672 0.027696 -0.001482 0.013342 -0.002773 0.004452
# 3 -0.001677 -0.001482 0.010208 0.004381 0.003942 0.000867
# 4 -0.002835 0.013342 0.004381 0.036854 0.000259 -0.001455
# 5 0.001742 -0.002773 0.003942 0.000259 0.022855 -0.001289
# 6 0.000872 0.004452 0.000867 -0.001455 -0.001289 0.028477
#
#
# Mechanical properties :
#
#
# Convention : Reuss Voigt Hill
#
# Bulk Modulus (GPa) = 31.04125 52.71525 41.87825
# Shear Modulus (GPa) = 31.55342 41.09227 36.32284
#
# Velocity S-wave (km/s) = 3.65569 4.17182 3.92225
# Velocity P-wave (km/s) = 5.56470 6.74776 6.18458
#
# Compressibility (1/GPa) = 0.03221520
#
# Stress axis : x y z
#
# Youngs Moduli (GPa) = 125.43713 36.10674 97.95940
#
# Poissons Ratio (x) = 0.13258 0.16424
# Poissons Ratio (y) = 0.46060 0.14517
# Poissons Ratio (z) = 0.21031 0.05351
#
# Static dielectric constant tensor:
#      x y z
#    x 2.063410 0.156130 0.100140 
#    y 0.156130 2.143790 0.134880 
#    z 0.100140 0.134880 1.919630 
# 
# From -- ./inp_files/125359.got.cif
#   From: 2010.05.17/outbox.cif.g08.bks.cpg/sg2_63_cif.got.tgz:125359.got - 2010.06.03 11:33:40.
