data_PCOD9013071
_publ_section_title
;
Structure prediction by ZEFSAII (Michael W. Deem and Ramdas Pophale) SiO2 
 PCOD9013071
Probable space group: P -1
;
_chemical_formula_sum "Si O2"
_cell_formula_units_Z 16
_cell_length_a 6.403258
_cell_length_b 14.357387
_cell_length_c 9.410231
_cell_angle_alpha 112.475891
_cell_angle_beta 105.530324
_cell_angle_gamma 78.373937
_cell_volume 765.426634
_symmetry_space_group_name_H-M "P -1"
_symmetry_group_IT_number 2
_symmetry_cell_setting 'triclinic'
loop_
_space_group_symop_operation_xyz
x,y,z
-x,-y,-z
loop_
_atom_site_type_symbol
_atom_site_label
_atom_site_fract_x
_atom_site_fract_y
_atom_site_fract_z
Si Si1 0.307350 0.348516 0.657283
Si Si2 0.755429 0.216709 0.683616
Si Si3 0.199259 0.109034 0.151246
Si Si4 0.426503 0.490335 0.319497
Si Si5 0.520739 0.258516 0.171555
Si Si6 0.247209 0.888060 0.096578
Si Si7 0.025812 0.597806 0.153070
Si Si8 0.047322 0.772945 0.581984
O O1 0.510469 0.263184 0.629571
O O2 0.394055 0.454853 0.701434
O O3 0.112805 0.315054 0.506348
O O4 0.204462 0.357400 0.799489
O O5 0.750394 0.127961 0.743809
O O6 0.863650 0.308332 0.836338
O O7 0.888050 0.197784 0.549548
O O8 0.356573 0.190099 0.178309
O O9 0.084432 0.138923 0.298467
O O10 0.317853 0.995763 0.122816
O O11 0.000459 0.110797 0.004424
O O12 0.500000 0.500000 0.500000
O O13 0.419535 0.374484 0.205922
O O14 0.196093 0.555635 0.283211
O O15 0.732130 0.260594 0.312213
O O16 0.605149 0.202318 0.009480
O O17 0.000000 0.500000 0.000000
#
# Coordination Sequence:
#
# PCOD9013071 Si02
#       8
#     2   2   2   2   2   2   2   2
#     4  10  22  40  59  85 130 156 194 250 294 359
#     4  10  22  39  61  90 122 158 205 242 308 366
#     4  10  22  43  63  87 124 154 203 260 305 354
#     4  11  23  37  60  92 121 165 210 243 298 366
#     4  11  23  38  65  90 122 159 209 249 305 358
#     4  10  24  40  63  92 118 160 202 254 310 364
#     4  10  24  37  58  88 126 162 199 249 304 359
#     4  10  21  41  63  88 120 165 198 251 303 363
#
# _framework density 20.903376000000002
#
# number of rings (size 3 to 8) (size 9 to 14) (size 15 to 20)
#    0.000    1.750    0.000    4.125    5.250    5.500 
#    0.000    2.500    0.000    0.000    0.000    0.000 
#    0.000    0.000    0.000    0.000    0.000    0.000 
#
# Total GULP energy -89356.014228 kJ/mol
# GULP energy per Si atom -5584.750889 kJ/mol
# Density = 2.085580 g / cm^3
# Si number density = 20.903376 Si / 1000 Ang^3
#
#
#
# Elastic Constant Matrix: (Units=GPa)
#
#
# Indices 1 2 3 4 5 6 
#
# 1 100.3529 30.1403 16.4130 -3.8206 0.3555 18.0358
# 2 30.1403 104.8755 2.3860 -0.2266 -0.7741 12.8418
# 3 16.4130 2.3860 48.2584 -3.2897 -3.7127 2.1410
# 4 -3.8206 -0.2266 -3.2897 23.1953 5.3095 -5.7687
# 5 0.3555 -0.7741 -3.7127 5.3095 26.6929 9.6255
# 6 18.0358 12.8418 2.1410 -5.7687 9.6255 21.5897
#
#
#
# Elastic Compliance Matrix: (Units=1/GPa)
#
#
# Indices 1 2 3 4 5 6 
#
# 1 0.013256 -0.002274 -0.003728 -0.002150 0.003868 -0.011650
# 2 -0.002274 0.011056 0.000623 -0.002734 0.003519 -0.007038
# 3 -0.003728 0.000623 0.022319 0.001821 0.002911 -0.000281
# 4 -0.002150 -0.002734 0.001821 0.054284 -0.020250 0.026775
# 5 0.003868 0.003519 0.002911 -0.020250 0.054719 -0.035420
# 6 -0.011650 -0.007038 -0.000281 0.026775 -0.035420 0.083210
#
#
# Mechanical properties :
#
#
# Convention : Reuss Voigt Hill
#
# Bulk Modulus (GPa) = 27.87543 39.04059 33.45801
# Shear Modulus (GPa) = 19.11601 27.93209 23.52405
#
# Velocity S-wave (km/s) = 3.02734 3.65944 3.35829
# Velocity P-wave (km/s) = 5.05807 6.04752 5.57479
#
# Compressibility (1/GPa) = 0.03587388
#
# Stress axis : x y z
#
# Youngs Moduli (GPa) = 75.43793 90.44517 44.80388
#
# Poissons Ratio (x) = 0.20570 0.16703
# Poissons Ratio (y) = 0.17157 -0.02793
# Poissons Ratio (z) = 0.28124 -0.05639
#
# Static dielectric constant tensor:
#      x y z
#    x 1.762450 0.013280 -0.012060 
#    y 0.013280 1.739320 0.004760 
#    z -0.012060 0.004760 1.789530 
# 
# From -- ./inp_files/81053.got.cif
#   From: 2010.05.17/outbox.cif.g08.bks.cpg/sg2_41_cif.got.tgz:81053.got - 2010.06.03 11:33:40.
