data_PCOD9013113
_publ_section_title
;
Structure prediction by ZEFSAII (Michael W. Deem and Ramdas Pophale) SiO2 
 PCOD9013113
Probable space group: P -1
;
_chemical_formula_sum "Si O2"
_cell_formula_units_Z 16
_cell_length_a 13.015313
_cell_length_b 10.768536
_cell_length_c 8.733439
_cell_angle_alpha 63.522656
_cell_angle_beta 111.317836
_cell_angle_gamma 134.493612
_cell_volume 779.056150
_symmetry_space_group_name_H-M "P -1"
_symmetry_group_IT_number 2
_symmetry_cell_setting 'triclinic'
loop_
_space_group_symop_operation_xyz
x,y,z
-x,-y,-z
loop_
_atom_site_type_symbol
_atom_site_label
_atom_site_fract_x
_atom_site_fract_y
_atom_site_fract_z
Si Si1 0.659983 0.491976 0.207873
Si Si2 0.558447 0.647609 0.581645
Si Si3 0.164649 0.496636 0.426569
Si Si4 0.930149 0.802349 0.005021
Si Si5 0.049797 0.496863 0.855100
Si Si6 0.556385 0.183261 0.737380
Si Si7 0.395489 0.764713 0.920329
Si Si8 0.878116 0.813991 0.623978
O O1 0.540326 0.467084 0.262070
O O2 0.769073 0.493915 0.379180
O O3 0.768842 0.667249 0.064401
O O4 0.570742 0.319429 0.143433
O O5 0.500000 0.500000 0.500000
O O6 0.521177 0.773072 0.440983
O O7 0.729766 0.771501 0.608149
O O8 0.280887 0.693509 0.303417
O O9 0.161645 0.351427 0.408598
O O10 0.013342 0.448285 0.335963
O O11 0.990054 0.692735 0.117279
O O12 0.936021 0.816972 0.817755
O O13 0.000000 0.000000 0.000000
O O14 0.223019 0.643101 0.880966
O O15 0.000000 0.500000 0.000000
O O16 0.476549 0.973214 0.817433
O O17 0.565355 0.248976 0.879012
O O18 0.000000 0.000000 0.500000
#
# Coordination Sequence:
#
# PCOD9013113 Si02
#       8
#     2   2   2   2   2   2   2   2
#     4  10  23  44  67  94 138 170 223 281 335 388
#     4  11  24  42  66  94 126 183 217 268 339 398
#     4  11  21  42  67  93 129 174 219 278 324 406
#     4  11  25  45  65 102 140 171 223 287 334 394
#     4  11  21  41  70  94 130 180 222 267 337 395
#     4  10  21  41  63  90 131 167 227 260 330 394
#     4  10  22  40  65  96 127 170 220 285 320 392
#     4  12  25  44  68  95 135 173 228 275 336 403
#
# _framework density 20.537672000000001
#
# number of rings (size 3 to 8) (size 9 to 14) (size 15 to 20)
#    0.000    1.250    5.000    1.500    1.750    4.500 
#    4.500    0.000    0.000    0.000    0.000    0.000 
#    0.000    0.000    0.000    0.000    0.000    0.000 
#
# Total GULP energy -89270.935400 kJ/mol
# GULP energy per Si atom -5579.433462 kJ/mol
# Density = 2.049093 g / cm^3
# Si number density = 20.537672 Si / 1000 Ang^3
#
#
#
# Elastic Constant Matrix: (Units=GPa)
#
#
# Indices 1 2 3 4 5 6 
#
# 1 86.1734 25.8966 5.9669 -9.0798 -13.2715 4.7378
# 2 25.8966 96.5220 25.3469 -3.4517 -13.0411 -12.0634
# 3 5.9669 25.3469 75.0995 -8.3898 -17.3052 -1.8187
# 4 -9.0798 -3.4517 -8.3898 31.8842 1.3697 -11.4303
# 5 -13.2715 -13.0411 -17.3052 1.3697 41.8893 6.1435
# 6 4.7378 -12.0634 -1.8187 -11.4303 6.1435 24.8732
#
#
#
# Elastic Compliance Matrix: (Units=1/GPa)
#
#
# Indices 1 2 3 4 5 6 
#
# 1 0.013841 -0.003990 0.001356 0.002031 0.004312 -0.004604
# 2 -0.003990 0.013522 -0.003775 0.002204 0.000138 0.008021
# 3 0.001356 -0.003775 0.016257 0.003773 0.005940 -0.000634
# 4 0.002031 0.002204 0.003773 0.040338 -0.001339 0.019826
# 5 0.004312 0.000138 0.005940 -0.001339 0.028966 -0.008090
# 6 -0.004604 0.008021 -0.000634 0.019826 -0.008090 0.056033
#
#
# Mechanical properties :
#
#
# Convention : Reuss Voigt Hill
#
# Bulk Modulus (GPa) = 32.46484 41.35731 36.91108
# Shear Modulus (GPa) = 26.03611 33.10163 29.56887
#
# Velocity S-wave (km/s) = 3.56437 4.01902 3.79850
# Velocity P-wave (km/s) = 5.72551 6.45892 6.10324
#
# Compressibility (1/GPa) = 0.03080255
#
# Stress axis : x y z
#
# Youngs Moduli (GPa) = 72.25026 73.95424 61.51269
#
# Poissons Ratio (x) = 0.29506 -0.08340
# Poissons Ratio (y) = 0.28826 0.23218
# Poissons Ratio (z) = -0.09796 0.27915
#
# Static dielectric constant tensor:
#      x y z
#    x 1.805420 0.004490 0.044410 
#    y 0.004490 1.723270 0.002030 
#    z 0.044410 0.002030 1.798030 
# 
# From -- ./inp_files/305014.got.cif
#   From: 2010.05.17/outbox.cif.g08.bks.cpg/sg2_153_cif.got.tgz:305014.got - 2010.06.03 11:33:40.
