data_PCOD9013882
_publ_section_title
;
Structure prediction by ZEFSAII (Michael W. Deem and Ramdas Pophale) SiO2 
 PCOD9013882
Probable space group: P -1
;
_chemical_formula_sum "Si O2"
_cell_formula_units_Z 16
_cell_length_a 23.998977
_cell_length_b 25.557605
_cell_length_c 5.048715
_cell_angle_alpha 80.091942
_cell_angle_beta 106.487838
_cell_angle_gamma 163.615988
_cell_volume 777.951056
_symmetry_space_group_name_H-M "P -1"
_symmetry_group_IT_number 2
_symmetry_cell_setting 'triclinic'
loop_
_space_group_symop_operation_xyz
x,y,z
-x,-y,-z
loop_
_atom_site_type_symbol
_atom_site_label
_atom_site_fract_x
_atom_site_fract_y
_atom_site_fract_z
Si Si1 0.262575 0.982192 0.610642
Si Si2 0.369284 0.009183 0.225838
Si Si3 0.702815 0.631356 0.879667
Si Si4 0.238500 0.435181 0.790759
Si Si5 0.056587 0.427836 0.138684
Si Si6 0.203453 0.219045 0.610657
Si Si7 0.143524 0.573777 0.625559
Si Si8 0.398398 0.633664 0.356789
O O1 0.004244 0.759680 0.437546
O O2 0.339847 0.006056 0.482923
O O3 0.372475 0.134650 0.551894
O O4 0.338108 0.030800 0.960771
O O5 0.609095 0.197668 0.334132
O O6 0.176881 0.799361 0.074276
O O7 0.768451 0.631412 0.067820
O O8 0.774046 0.737131 0.103856
O O9 0.561946 0.601188 0.294948
O O10 0.807087 0.741788 0.647650
O O11 0.383952 0.575186 0.607335
O O12 0.330054 0.550399 0.055242
O O13 0.047410 0.447339 0.393879
O O14 0.225083 0.527307 0.288638
O O15 0.141773 0.544714 0.934959
O O16 0.000000 0.000000 0.500000
O O17 0.000000 0.500000 0.500000
#
# Coordination Sequence:
#
# PCOD9013882 Si02
#       8
#     2   2   2   2   2   2   2   2
#     4  12  23  38  62  90 118 163 199 241 301 365
#     4  12  23  40  65  87 118 157 201 243 303 365
#     4  10  23  39  61  94 126 159 205 262 294 358
#     4  12  24  40  60  96 128 154 208 254 299 358
#     4  12  23  42  67  87 122 160 202 245 308 369
#     4  10  21  41  66  87 123 170 208 244 313 351
#     4  12  26  43  64  92 121 154 205 261 299 358
#     4  12  23  39  64  89 121 167 198 243 308 369
#
# _framework density 20.566845000000001
#
# number of rings (size 3 to 8) (size 9 to 14) (size 15 to 20)
#    0.000    0.500    5.000    3.750    0.000    3.000 
#    0.000    0.000    0.000    0.000    0.000    0.000 
#    0.000    0.000    0.000    0.000    0.000    0.000 
#
# Total GULP energy -89554.600994 kJ/mol
# GULP energy per Si atom -5597.162562 kJ/mol
# Density = 2.052003 g / cm^3
# Si number density = 20.566845 Si / 1000 Ang^3
#
#
#
# Elastic Constant Matrix: (Units=GPa)
#
#
# Indices 1 2 3 4 5 6 
#
# 1 44.8136 5.5945 -18.3224 13.6927 13.6331 -19.9860
# 2 5.5945 96.7823 4.2572 12.9130 -4.5360 -15.7585
# 3 -18.3224 4.2572 78.5984 -12.5007 -16.1979 5.8730
# 4 13.6927 12.9130 -12.5007 34.5840 -13.5071 -11.8160
# 5 13.6331 -4.5360 -16.1979 -13.5071 29.8153 -7.2114
# 6 -19.9860 -15.7585 5.8730 -11.8160 -7.2114 26.9232
#
#
#
# Elastic Compliance Matrix: (Units=1/GPa)
#
#
# Indices 1 2 3 4 5 6 
#
# 1 0.044794 0.002057 -0.000035 -0.022873 -0.026350 0.017367
# 2 0.002057 0.011930 -0.000879 -0.002357 0.001266 0.008006
# 3 -0.000035 -0.000879 0.019403 0.018694 0.021089 0.009080
# 4 -0.022873 -0.002357 0.018694 0.081142 0.064373 0.030416
# 5 -0.026350 0.001266 0.021089 0.064373 0.093635 0.029912
# 6 0.017367 0.008006 0.009080 0.030416 0.029912 0.074101
#
#
# Mechanical properties :
#
#
# Convention : Reuss Voigt Hill
#
# Bulk Modulus (GPa) = 12.75311 22.58366 17.66839
# Shear Modulus (GPa) = 14.33254 33.50884 23.92069
#
# Velocity S-wave (km/s) = 2.64270 4.04079 3.41408
# Velocity P-wave (km/s) = 3.94032 5.72496 4.91433
#
# Compressibility (1/GPa) = 0.07841222
#
# Stress axis : x y z
#
# Youngs Moduli (GPa) = 22.32441 83.82561 51.53826
#
# Poissons Ratio (x) = -0.17242 0.00181
# Poissons Ratio (y) = -0.04592 0.04530
# Poissons Ratio (z) = 0.00079 0.07367
#
# Static dielectric constant tensor:
#      x y z
#    x 1.697780 -0.003790 0.007870 
#    y -0.003790 1.728040 -0.012000 
#    z 0.007870 -0.012000 1.709340 
# 
# From -- ./inp_files/120402.got.cif
#   From: 2010.05.17/outbox.cif.g08.bks.cpg/sg2_61_cif.got.tgz:120402.got - 2010.06.03 11:33:40.
