data_PCOD9013856
_publ_section_title
;
Structure prediction by ZEFSAII (Michael W. Deem and Ramdas Pophale) SiO2 
 PCOD9013856
Probable space group: P -1
;
_chemical_formula_sum "Si O2"
_cell_formula_units_Z 16
_cell_length_a 12.455649
_cell_length_b 5.905750
_cell_length_c 10.854133
_cell_angle_alpha 60.320258
_cell_angle_beta 76.001089
_cell_angle_gamma 88.861388
_cell_volume 668.335133
_symmetry_space_group_name_H-M "P -1"
_symmetry_group_IT_number 2
_symmetry_cell_setting 'triclinic'
loop_
_space_group_symop_operation_xyz
x,y,z
-x,-y,-z
loop_
_atom_site_type_symbol
_atom_site_label
_atom_site_fract_x
_atom_site_fract_y
_atom_site_fract_z
Si Si1 0.650968 0.265475 0.936835
Si Si2 0.383589 0.696299 0.813410
Si Si3 0.985059 0.814221 0.430596
Si Si4 0.571846 0.057074 0.589107
Si Si5 0.933239 0.594695 0.110255
Si Si6 0.471239 0.275805 0.774771
Si Si7 0.219652 0.918494 0.633069
Si Si8 0.121738 0.915280 0.134917
O O1 0.655847 0.443173 0.010750
O O2 0.601368 0.992396 0.090121
O O3 0.567499 0.316262 0.839676
O O4 0.770223 0.232915 0.858737
O O5 0.388994 0.494817 0.753929
O O6 0.300826 0.901000 0.733692
O O7 0.513309 0.819220 0.753121
O O8 0.000000 0.500000 0.500000
O O9 0.076347 0.952601 0.273317
O O10 0.860523 0.854754 0.407684
O O11 0.000000 0.000000 0.500000
O O12 0.534734 0.283785 0.624859
O O13 0.698774 0.064675 0.512352
O O14 0.500000 0.000000 0.500000
O O15 0.861719 0.351806 0.260086
O O16 0.022490 0.737904 0.140274
O O17 0.000000 0.500000 0.000000
O O18 0.861088 0.812845 0.017818
#
# Coordination Sequence:
#
# PCOD9013856 Si02
#       8
#     2   2   2   2   2   2   2   2
#     4  10  22  39  65 100 141 180 235 291 365 433
#     4  10  21  42  66 103 136 179 240 295 364 434
#     4  12  29  52  70 106 153 199 252 305 374 452
#     4   9  22  41  64 100 137 176 241 290 357 436
#     4  11  22  43  70 103 138 182 250 309 357 429
#     4  10  21  41  66 101 139 186 229 297 365 437
#     4  11  23  45  72  99 141 191 242 306 363 432
#     4  11  25  43  71 103 141 192 244 304 369 436
#
# _framework density 23.940083999999999
#
# number of rings (size 3 to 8) (size 9 to 14) (size 15 to 20)
#    0.000    1.500    1.250    2.625    3.500    3.000 
#   11.250    0.000    0.000    0.000    0.000    0.000 
#    0.000    0.000    0.000    0.000    0.000    0.000 
#
# Total GULP energy -89284.462817 kJ/mol
# GULP energy per Si atom -5580.278926 kJ/mol
# Density = 2.388560 g / cm^3
# Si number density = 23.940084 Si / 1000 Ang^3
#
#
#
# Elastic Constant Matrix: (Units=GPa)
#
#
# Indices 1 2 3 4 5 6 
#
# 1 109.7725 45.0362 56.8176 7.9318 -7.2515 -22.0711
# 2 45.0362 101.9581 58.3714 12.8280 0.9140 -16.0579
# 3 56.8176 58.3714 109.8369 36.8764 -13.5869 -18.5155
# 4 7.9318 12.8280 36.8764 59.2909 -2.2615 -0.3238
# 5 -7.2515 0.9140 -13.5869 -2.2615 46.5390 6.4079
# 6 -22.0711 -16.0579 -18.5155 -0.3238 6.4079 29.2330
#
#
#
# Elastic Compliance Matrix: (Units=1/GPa)
#
#
# Indices 1 2 3 4 5 6 
#
# 1 0.014054 -0.002200 -0.005937 0.002313 -0.000174 0.005706
# 2 -0.002200 0.015297 -0.007415 0.001493 -0.003113 0.002744
# 3 -0.005937 -0.007415 0.020689 -0.010287 0.004279 0.003496
# 4 0.002313 0.001493 -0.010287 0.022571 -0.001099 -0.003458
# 5 -0.000174 -0.003113 0.004279 -0.001099 0.023303 -0.004251
# 6 0.005706 0.002744 0.003496 -0.003458 -0.004251 0.043131
#
#
# Mechanical properties :
#
#
# Convention : Reuss Voigt Hill
#
# Bulk Modulus (GPa) = 52.81105 71.33533 62.07319
# Shear Modulus (GPa) = 28.33505 37.76875 33.05190
#
# Velocity S-wave (km/s) = 3.44405 3.97626 3.71969
# Velocity P-wave (km/s) = 6.15816 7.13743 6.66580
#
# Compressibility (1/GPa) = 0.01893543
#
# Stress axis : x y z
#
# Youngs Moduli (GPa) = 71.15508 65.37170 48.33549
#
# Poissons Ratio (x) = 0.14379 0.28698
# Poissons Ratio (y) = 0.15651 0.35843
# Poissons Ratio (z) = 0.42246 0.48476
#
# Static dielectric constant tensor:
#      x y z
#    x 1.930530 0.067790 0.033990 
#    y 0.067790 2.203270 0.032130 
#    z 0.033990 0.032130 1.936750 
# 
# From -- ./inp_files/410025.got.cif
#   From: 2010.05.17/outbox.cif.g08.bks.cpg/sg2_206_cif.got.tgz:410025.got - 2010.06.03 11:33:40.
