data_PCOD9013601
_publ_section_title
;
Structure prediction by ZEFSAII (Michael W. Deem and Ramdas Pophale) SiO2 
 PCOD9013601
Probable space group: P -1
;
_chemical_formula_sum "Si O2"
_cell_formula_units_Z 16
_cell_length_a 16.266686
_cell_length_b 6.424538
_cell_length_c 13.291093
_cell_angle_alpha 114.655405
_cell_angle_beta 42.530973
_cell_angle_gamma 94.002949
_cell_volume 786.943766
_symmetry_space_group_name_H-M "P -1"
_symmetry_group_IT_number 2
_symmetry_cell_setting 'triclinic'
loop_
_space_group_symop_operation_xyz
x,y,z
-x,-y,-z
loop_
_atom_site_type_symbol
_atom_site_label
_atom_site_fract_x
_atom_site_fract_y
_atom_site_fract_z
Si Si1 0.107868 0.936706 0.476704
Si Si2 0.943558 0.374853 0.847435
Si Si3 0.297291 0.033811 0.173418
Si Si4 0.251925 0.230473 0.041230
Si Si5 0.889809 0.317469 0.246395
Si Si6 0.836769 0.141775 0.057998
Si Si7 0.717906 0.486068 0.633558
Si Si8 0.465197 0.469478 0.909236
O O1 0.179505 0.662583 0.401442
O O2 0.216281 0.008459 0.337416
O O3 0.000000 0.000000 0.500000
O O4 0.039024 0.110576 0.666422
O O5 0.862109 0.532796 0.857849
O O6 0.036274 0.512109 0.829339
O O7 0.844417 0.341470 0.011152
O O8 0.220085 0.164145 0.168603
O O9 0.354189 0.230453 0.205343
O O10 0.379292 0.751346 0.009825
O O11 0.381392 0.297316 0.942173
O O12 0.255350 0.998995 0.923423
O O13 0.810797 0.252347 0.215313
O O14 0.799492 0.446129 0.449094
O O15 0.012975 0.067440 0.116750
O O16 0.604488 0.376314 0.707557
O O17 0.500000 0.500000 0.000000
#
# Coordination Sequence:
#
# PCOD9013601 Si02
#       8
#     2   2   2   2   2   2   2   2
#     4  12  23  34  58  94 132 161 198 249 311 372
#     4  11  21  39  63  94 125 159 203 256 308 373
#     4  12  23  40  60  88 127 166 203 253 303 372
#     4  11  24  40  64  90 122 173 206 253 308 365
#     4  10  22  39  64  95 122 165 202 254 316 369
#     4  10  21  41  65  90 126 158 208 257 312 367
#     4  12  24  40  60  94 128 162 207 251 306 369
#     4  12  24  41  61  90 123 170 214 246 302 368
#
# _framework density 20.33182
#
# number of rings (size 3 to 8) (size 9 to 14) (size 15 to 20)
#    0.000    0.750    5.000    3.750    1.750    1.000 
#    0.000    0.625    0.000    3.000    0.000    0.000 
#    0.000    0.000    0.000    0.000    0.000    0.000 
#
# Total GULP energy -89281.491216 kJ/mol
# GULP energy per Si atom -5580.093201 kJ/mol
# Density = 2.028554 g / cm^3
# Si number density = 20.331820 Si / 1000 Ang^3
#
#
#
# Elastic Constant Matrix: (Units=GPa)
#
#
# Indices 1 2 3 4 5 6 
#
# 1 96.7791 46.5068 22.5826 -3.2838 16.5824 22.1190
# 2 46.5068 104.7889 24.3219 -3.5139 9.4558 -0.0979
# 3 22.5826 24.3219 43.3919 -3.7134 6.2563 0.1380
# 4 -3.2838 -3.5139 -3.7134 19.2497 4.5692 -1.2004
# 5 16.5824 9.4558 6.2563 4.5692 24.6136 -1.8203
# 6 22.1190 -0.0979 0.1380 -1.2004 -1.8203 37.2411
#
#
#
# Elastic Compliance Matrix: (Units=1/GPa)
#
#
# Indices 1 2 3 4 5 6 
#
# 1 0.019058 -0.006355 -0.004521 0.003021 -0.010678 -0.011744
# 2 -0.006355 0.013324 -0.004168 0.000695 0.000379 0.003866
# 3 -0.004521 -0.004168 0.028635 0.004949 -0.003361 0.002563
# 4 0.003021 0.000695 0.004949 0.056867 -0.014166 -0.000670
# 5 -0.010678 0.000379 -0.003361 -0.014166 0.051784 0.008430
# 6 -0.011744 0.003866 0.002563 -0.000670 0.008430 0.034218
#
#
# Mechanical properties :
#
#
# Convention : Reuss Voigt Hill
#
# Bulk Modulus (GPa) = 32.33280 47.97582 40.15431
# Shear Modulus (GPa) = 20.46815 26.32412 23.39613
#
# Velocity S-wave (km/s) = 3.17630 3.60213 3.39590
# Velocity P-wave (km/s) = 5.42116 6.39907 5.93031
#
# Compressibility (1/GPa) = 0.03092834
#
# Stress axis : x y z
#
# Youngs Moduli (GPa) = 52.47229 75.05509 34.92247
#
# Poissons Ratio (x) = 0.47697 0.15787
# Poissons Ratio (y) = 0.33345 0.14557
# Poissons Ratio (z) = 0.23721 0.31285
#
# Static dielectric constant tensor:
#      x y z
#    x 1.770110 0.034160 -0.042900 
#    y 0.034160 1.788800 -0.017780 
#    z -0.042900 -0.017780 1.735240 
# 
# From -- ./inp_files/69579.got.cif
#   From: 2010.05.17/outbox.cif.g08.bks.cpg/sg2_35_cif.got.tgz:69579.got - 2010.06.03 11:33:40.
