data_PCOD9013935
_publ_section_title
;
Structure prediction by ZEFSAII (Michael W. Deem and Ramdas Pophale) SiO2 
 PCOD9013935
Probable space group: P -1
;
_chemical_formula_sum "Si O2"
_cell_formula_units_Z 12
_cell_length_a 8.814073
_cell_length_b 13.859557
_cell_length_c 11.770212
_cell_angle_alpha 158.929452
_cell_angle_beta 123.849097
_cell_angle_gamma 53.312488
_cell_volume 414.526876
_symmetry_space_group_name_H-M "P -1"
_symmetry_group_IT_number 2
_symmetry_cell_setting 'triclinic'
loop_
_space_group_symop_operation_xyz
x,y,z
-x,-y,-z
loop_
_atom_site_type_symbol
_atom_site_label
_atom_site_fract_x
_atom_site_fract_y
_atom_site_fract_z
Si Si1 0.051795 0.431598 0.280304
Si Si2 0.659118 0.350281 0.074978
Si Si3 0.290467 0.240022 0.773544
Si Si4 0.760917 0.073230 0.038228
Si Si5 0.412860 0.915413 0.698580
Si Si6 0.895763 0.337988 0.660450
O O1 0.126335 0.699821 0.637632
O O2 0.127310 0.407046 0.155402
O O3 0.831022 0.439256 0.186718
O O4 0.130363 0.211846 0.170302
O O5 0.739430 0.098028 0.919231
O O6 0.553386 0.610372 0.396010
O O7 0.489662 0.277611 0.851641
O O8 0.115541 0.169618 0.558644
O O9 0.345014 0.034862 0.677267
O O10 0.176466 0.536304 0.108267
O O11 0.540486 0.103747 0.011627
O O12 0.246783 0.847953 0.629264
#
# Coordination Sequence:
#
# PCOD9013935 Si02
#       6
#     2   2   2   2   2   2
#     4  12  26  39  67  97 131 163 212 261 314 371
#     4  10  22  42  66  95 124 172 209 258 314 379
#     4   9  21  43  68  86 128 169 215 257 320 372
#     4  11  24  42  64  95 132 169 206 257 316 379
#     4  10  21  41  66  91 125 174 211 252 320 376
#     4  10  23  42  62  96 125 168 212 267 311 374
#
# _framework density 28.948665999999999
#
# number of rings (size 3 to 8) (size 9 to 14) (size 15 to 20)
#    0.000    1.667    1.667    1.500    7.000    2.000 
#    0.000    0.833    0.000    0.000    0.000    0.000 
#    0.000    0.000    0.000    0.000    0.000    0.000 
#
# Total GULP energy -67172.114305 kJ/mol
# GULP energy per Si atom -5597.676192 kJ/mol
# Density = 2.888278 g / cm^3
# Si number density = 28.948666 Si / 1000 Ang^3
#
#
#
# Elastic Constant Matrix: (Units=GPa)
#
#
# Indices 1 2 3 4 5 6 
#
# 1 172.2691 72.2302 66.2965 -20.6787 84.7819 -32.0891
# 2 72.2302 129.3293 64.7770 2.8347 35.3832 -37.7161
# 3 66.2965 64.7770 175.1794 2.2325 53.1814 -16.5309
# 4 -20.6787 2.8347 2.2325 58.7376 -0.6932 16.2369
# 5 84.7819 35.3832 53.1814 -0.6932 67.2749 -18.3103
# 6 -32.0891 -37.7161 -16.5309 16.2369 -18.3103 54.3418
#
#
#
# Elastic Compliance Matrix: (Units=1/GPa)
#
#
# Indices 1 2 3 4 5 6 
#
# 1 0.019986 -0.006376 0.001674 0.007664 -0.023732 -0.002400
# 2 -0.006376 0.014118 -0.003704 -0.005025 0.005758 0.008348
# 3 0.001674 -0.003704 0.008500 0.000834 -0.007341 -0.001719
# 4 0.007664 -0.005025 0.000834 0.022208 -0.009798 -0.008646
# 5 -0.023732 0.005758 -0.007341 -0.009798 0.049442 0.007337
# 6 -0.002400 0.008348 -0.001719 -0.008646 0.007337 0.027312
#
#
# Mechanical properties :
#
#
# Convention : Reuss Voigt Hill
#
# Bulk Modulus (GPa) = 38.77024 98.15391 68.46207
# Shear Modulus (GPa) = 29.94482 54.30246 42.12364
#
# Velocity S-wave (km/s) = 3.21972 4.33577 3.81874
# Velocity P-wave (km/s) = 5.21957 7.68408 6.56844
#
# Compressibility (1/GPa) = 0.02579298
#
# Stress axis : x y z
#
# Youngs Moduli (GPa) = 50.03429 70.83367 117.64765
#
# Poissons Ratio (x) = 0.45164 -0.19698
# Poissons Ratio (y) = 0.31902 0.43572
# Poissons Ratio (z) = -0.08377 0.26234
#
# Static dielectric constant tensor:
#      x y z
#    x 2.290460 -0.064790 -0.123730 
#    y -0.064790 2.239900 -0.069670 
#    z -0.123730 -0.069670 2.374000 
# 
# From -- ./inp_files/23165.got.cif
#   From: 2010.05.17/outbox.cif.g08.bks.cpg/sg2_12_cif.got.tgz:23165.got - 2010.06.03 11:33:40.
