data_PCOD9013971
_publ_section_title
;
Structure prediction by ZEFSAII (Michael W. Deem and Ramdas Pophale) SiO2 
 PCOD9013971
Probable space group: P -1
;
_chemical_formula_sum "Si O2"
_cell_formula_units_Z 14
_cell_length_a 9.626376
_cell_length_b 16.200965
_cell_length_c 5.499990
_cell_angle_alpha 48.782689
_cell_angle_beta 66.415369
_cell_angle_gamma 62.872918
_cell_volume 567.846078
_symmetry_space_group_name_H-M "P -1"
_symmetry_group_IT_number 2
_symmetry_cell_setting 'triclinic'
loop_
_space_group_symop_operation_xyz
x,y,z
-x,-y,-z
loop_
_atom_site_type_symbol
_atom_site_label
_atom_site_fract_x
_atom_site_fract_y
_atom_site_fract_z
Si Si1 0.048199 0.728474 0.755428
Si Si2 0.610896 0.323916 0.239609
Si Si3 0.417784 0.853857 0.771763
Si Si4 0.362003 0.031671 0.838807
Si Si5 0.857007 0.949793 0.653464
Si Si6 0.716655 0.552182 0.617382
Si Si7 0.987360 0.400247 0.461657
O O1 0.225067 0.742832 0.617539
O O2 0.915488 0.848126 0.621697
O O3 0.031831 0.660387 0.656931
O O4 0.025260 0.670485 0.144357
O O5 0.585082 0.265053 0.116133
O O6 0.446607 0.345854 0.463272
O O7 0.651304 0.443788 0.930935
O O8 0.582613 0.883618 0.546464
O O9 0.369371 0.907669 0.965012
O O10 0.282712 0.946272 0.541346
O O11 0.202471 0.090467 0.975803
O O12 0.500000 0.000000 0.000000
O O13 0.000000 0.000000 0.500000
O O14 0.843018 0.574321 0.680204
O O15 0.834520 0.512052 0.383353
#
# Coordination Sequence:
#
# PCOD9013971 Si02
#       7
#     2   2   2   2   2   2   2
#     4  11  25  43  71 102 137 180 227 276 352 405
#     4  10  21  42  66 101 132 179 225 287 345 399
#     4  10  21  41  66  92 137 174 225 275 340 405
#     4   9  22  40  62  92 132 176 222 272 333 410
#     4  11  23  39  61 100 134 176 222 277 333 414
#     4   9  22  42  70  97 135 175 233 285 343 402
#     4  10  24  46  70 100 135 180 230 285 339 412
#
# _framework density 24.654567
#
# number of rings (size 3 to 8) (size 9 to 14) (size 15 to 20)
#    0.000    2.000    1.429    0.000    4.000   10.857 
#    0.000    2.857    0.000    0.000    0.000    0.000 
#    0.000    0.000    0.000    0.000    0.000    0.000 
#
# Total GULP energy -78110.063880 kJ/mol
# GULP energy per Si atom -5579.290277 kJ/mol
# Density = 2.459845 g / cm^3
# Si number density = 24.654567 Si / 1000 Ang^3
#
#
#
# Elastic Constant Matrix: (Units=GPa)
#
#
# Indices 1 2 3 4 5 6 
#
# 1 160.5165 92.4633 47.8573 22.7243 -38.9392 10.7555
# 2 92.4633 157.1404 30.8425 45.9739 -17.7636 21.7143
# 3 47.8573 30.8425 57.8030 15.1640 -9.7799 15.6315
# 4 22.7243 45.9739 15.1640 31.6772 3.1679 5.1253
# 5 -38.9392 -17.7636 -9.7799 3.1679 33.7586 8.1430
# 6 10.7555 21.7143 15.6315 5.1253 8.1430 59.1620
#
#
#
# Elastic Compliance Matrix: (Units=1/GPa)
#
#
# Indices 1 2 3 4 5 6 
#
# 1 0.014482 -0.005942 -0.006894 0.000417 0.011605 -0.000264
# 2 -0.005942 0.017051 0.004249 -0.022335 0.006721 -0.005291
# 3 -0.006894 0.004249 0.027037 -0.013542 0.005069 -0.006974
# 4 0.000417 -0.022335 -0.013542 0.071136 -0.024002 0.008840
# 5 0.011605 0.006721 0.005069 -0.024002 0.052949 -0.011125
# 6 -0.000264 -0.005291 -0.006974 0.008840 -0.011125 0.021501
#
#
# Mechanical properties :
#
#
# Convention : Reuss Voigt Hill
#
# Bulk Modulus (GPa) = 24.15725 79.75402 51.95564
# Shear Modulus (GPa) = 21.26475 38.53933 29.90204
#
# Velocity S-wave (km/s) = 2.94003 3.95799 3.48636
# Velocity P-wave (km/s) = 4.62002 7.30112 6.10946
#
# Compressibility (1/GPa) = 0.04139543
#
# Stress axis : x y z
#
# Youngs Moduli (GPa) = 69.05118 58.64612 36.98569
#
# Poissons Ratio (x) = 0.34847 0.25499
# Poissons Ratio (y) = 0.41030 -0.15713
# Poissons Ratio (z) = 0.47606 -0.24916
#
# Static dielectric constant tensor:
#      x y z
#    x 1.780390 -0.181360 -0.313420 
#    y -0.181360 1.900320 -0.232680 
#    z -0.313420 -0.232680 1.547440 
# 
# From -- ./inp_files/36822.got.cif
#   From: 2010.05.17/outbox.cif.g08.bks.cpg/sg2_19_cif.got.tgz:36822.got - 2010.06.03 11:33:40.
