data_PCOD9013639
_publ_section_title
;
Structure prediction by ZEFSAII (Michael W. Deem and Ramdas Pophale) SiO2 
 PCOD9013639
Probable space group: P -1
;
_chemical_formula_sum "Si O2"
_cell_formula_units_Z 14
_cell_length_a 10.764490
_cell_length_b 7.740498
_cell_length_c 12.065322
_cell_angle_alpha 74.849806
_cell_angle_beta 144.678747
_cell_angle_gamma 109.451043
_cell_volume 547.960193
_symmetry_space_group_name_H-M "P -1"
_symmetry_group_IT_number 2
_symmetry_cell_setting 'triclinic'
loop_
_space_group_symop_operation_xyz
x,y,z
-x,-y,-z
loop_
_atom_site_type_symbol
_atom_site_label
_atom_site_fract_x
_atom_site_fract_y
_atom_site_fract_z
Si Si1 0.218945 0.362372 0.412854
Si Si2 0.979622 0.083068 0.849637
Si Si3 0.112067 0.741574 0.613470
Si Si4 0.177903 0.751437 0.005608
Si Si5 0.385962 0.122519 0.818256
Si Si6 0.159533 0.369691 0.767531
Si Si7 0.384293 0.747692 0.391234
O O1 0.358486 0.570363 0.481562
O O2 0.375513 0.241022 0.490679
O O3 0.104554 0.291556 0.457712
O O4 0.017768 0.374487 0.182061
O O5 0.724760 0.100658 0.651981
O O6 0.114618 0.279180 0.870421
O O7 0.097587 0.942615 0.893115
O O8 0.000000 0.000000 0.000000
O O9 0.235440 0.588519 0.778813
O O10 0.064454 0.680372 0.461778
O O11 0.224764 0.954593 0.665164
O O12 0.418489 0.762782 0.130900
O O13 0.217730 0.714511 0.169111
O O14 0.294451 0.256971 0.809926
O O15 0.500000 0.000000 0.000000
#
# Coordination Sequence:
#
# PCOD9013639 Si02
#       7
#     2   2   2   2   2   2   2
#     4  11  21  42  67  93 133 174 222 282 337 405
#     4  10  21  41  65  91 132 173 221 275 332 404
#     4  11  24  42  70 102 134 176 224 284 345 407
#     4  11  23  42  65  97 130 175 225 279 341 400
#     4  12  23  42  67  99 134 178 224 276 343 407
#     4  11  23  43  68 100 138 173 226 284 341 408
#     4  10  23  40  66  93 130 176 226 275 338 406
#
# _framework density 25.549302000000001
#
# number of rings (size 3 to 8) (size 9 to 14) (size 15 to 20)
#    0.000    1.143    4.286    1.714    0.000    2.286 
#    2.571    2.857    0.000    0.000    0.000    0.000 
#    0.000    0.000    0.000    0.000    0.000    0.000 
#
# Total GULP energy -78044.177303 kJ/mol
# GULP energy per Si atom -5574.584093 kJ/mol
# Density = 2.549115 g / cm^3
# Si number density = 25.549302 Si / 1000 Ang^3
#
#
#
# Elastic Constant Matrix: (Units=GPa)
#
#
# Indices 1 2 3 4 5 6 
#
# 1 129.7946 56.9765 27.1753 -15.5285 21.7917 0.3160
# 2 56.9765 122.8215 41.3015 -42.4389 20.7430 -12.7382
# 3 27.1753 41.3015 59.0568 -1.8057 5.2416 5.8656
# 4 -15.5285 -42.4389 -1.8057 40.5591 -9.2375 5.3620
# 5 21.7917 20.7430 5.2416 -9.2375 42.9420 -17.8009
# 6 0.3160 -12.7382 5.8656 5.3620 -17.8009 42.2985
#
#
#
# Elastic Compliance Matrix: (Units=1/GPa)
#
#
# Indices 1 2 3 4 5 6 
#
# 1 0.010535 -0.004630 -0.000940 -0.001492 -0.004595 -0.003087
# 2 -0.004630 0.022566 -0.013643 0.020431 0.000063 0.006159
# 3 -0.000940 -0.013643 0.027395 -0.012933 -0.002003 -0.007104
# 4 -0.001492 0.020431 -0.012933 0.045243 0.003780 0.003813
# 5 -0.004595 0.000063 -0.002003 0.003780 0.032203 0.013404
# 6 -0.003087 0.006159 -0.007104 0.003813 0.013404 0.031662
#
#
# Mechanical properties :
#
#
# Convention : Reuss Voigt Hill
#
# Bulk Modulus (GPa) = 45.31610 62.50884 53.91247
# Shear Modulus (GPa) = 23.21406 37.57456 30.39431
#
# Velocity S-wave (km/s) = 3.01757 3.83909 3.45285
# Velocity P-wave (km/s) = 5.46957 6.64609 6.08633
#
# Compressibility (1/GPa) = 0.02206721
#
# Stress axis : x y z
#
# Youngs Moduli (GPa) = 94.92605 44.31543 36.50317
#
# Poissons Ratio (x) = 0.20520 0.03433
# Poissons Ratio (y) = 0.43954 0.49802
# Poissons Ratio (z) = 0.08927 0.60460
#
# Static dielectric constant tensor:
#      x y z
#    x 2.310630 0.070310 0.079950 
#    y 0.070310 2.194640 0.042700 
#    z 0.079950 0.042700 2.156860 
# 
# From -- ./inp_files/515463.got.cif
#   From: 2010.05.17/outbox.cif.g08.bks.cpg/sg2_258_cif.got.tgz:515463.got - 2010.06.03 11:33:40.
