data_PCOD9013413
_publ_section_title
;
Structure prediction by ZEFSAII (Michael W. Deem and Ramdas Pophale) SiO2 
 PCOD9013413
Probable space group: P -1
;
_chemical_formula_sum "Si O2"
_cell_formula_units_Z 14
_cell_length_a 21.748230
_cell_length_b 12.079526
_cell_length_c 9.632651
_cell_angle_alpha 143.766973
_cell_angle_beta 148.920403
_cell_angle_gamma 24.151699
_cell_volume 530.701730
_symmetry_space_group_name_H-M "P -1"
_symmetry_group_IT_number 2
_symmetry_cell_setting 'triclinic'
loop_
_space_group_symop_operation_xyz
x,y,z
-x,-y,-z
loop_
_atom_site_type_symbol
_atom_site_label
_atom_site_fract_x
_atom_site_fract_y
_atom_site_fract_z
Si Si1 0.690574 0.704660 0.670436
Si Si2 0.118226 0.058546 0.614731
Si Si3 0.038162 0.519309 0.748282
Si Si4 0.619699 0.685181 0.907548
Si Si5 0.932756 0.885173 0.118157
Si Si6 0.534524 0.542106 0.359780
Si Si7 0.407305 0.312226 0.822077
O O1 0.884224 0.431214 0.812376
O O2 0.571649 0.669480 0.457136
O O3 0.692091 0.687480 0.489267
O O4 0.595256 0.993141 0.844954
O O5 0.062894 0.303000 0.668942
O O6 0.162045 0.035476 0.839951
O O7 0.976271 0.051669 0.339600
O O8 0.287816 0.774336 0.589521
O O9 0.000000 0.500000 0.500000
O O10 0.208593 0.456392 0.989522
O O11 0.885874 0.822010 0.827004
O O12 0.507251 0.662980 0.580732
O O13 0.659028 0.611253 0.070818
O O14 0.500000 0.000000 0.000000
O O15 0.417133 0.525047 0.036587
#
# Coordination Sequence:
#
# PCOD9013413 Si02
#       7
#     2   2   2   2   2   2   2
#     4  10  21  41  64  94 133 155 222 274 314 390
#     4  10  22  41  70  88 125 175 215 262 331 381
#     4  12  26  43  65 100 135 171 219 271 323 392
#     4  12  23  45  65  93 136 173 213 265 334 393
#     4  10  21  45  65  92 124 177 217 265 323 388
#     4  11  21  43  66  92 127 171 218 270 324 392
#     4  11  23  37  67  97 126 170 212 271 326 378
#
# _framework density 26.380167
#
# number of rings (size 3 to 8) (size 9 to 14) (size 15 to 20)
#    0.000    1.143    4.286    3.000    2.000    0.571 
#    2.571    2.857    0.000    0.000    0.000    0.000 
#    0.000    0.000    0.000    0.000    0.000    0.000 
#
# Total GULP energy -78297.615420 kJ/mol
# GULP energy per Si atom -5592.686816 kJ/mol
# Density = 2.632012 g / cm^3
# Si number density = 26.380167 Si / 1000 Ang^3
#
#
#
# Elastic Constant Matrix: (Units=GPa)
#
#
# Indices 1 2 3 4 5 6 
#
# 1 129.7982 10.8928 56.8034 16.7333 -25.2106 17.0778
# 2 10.8928 42.6676 26.9843 25.8626 1.4910 1.6329
# 3 56.8034 26.9843 152.7384 36.4637 -28.9594 6.3494
# 4 16.7333 25.8626 36.4637 54.2009 -5.7066 -1.8356
# 5 -25.2106 1.4910 -28.9594 -5.7066 51.6106 6.2226
# 6 17.0778 1.6329 6.3494 -1.8356 6.2226 35.7176
#
#
#
# Elastic Compliance Matrix: (Units=1/GPa)
#
#
# Indices 1 2 3 4 5 6 
#
# 1 0.010524 -0.000344 -0.002567 -0.001094 0.004235 -0.005354
# 2 -0.000344 0.034759 -0.003326 -0.014751 -0.004573 -0.000795
# 3 -0.002567 -0.003326 0.009838 -0.003852 0.004091 -0.001280
# 4 -0.001094 -0.014751 -0.003852 0.028580 0.000497 0.003264
# 5 0.004235 -0.004573 0.004091 0.000497 0.024751 -0.006830
# 6 -0.005354 -0.000795 -0.001280 0.003264 -0.006830 0.032179
#
#
# Mechanical properties :
#
#
# Convention : Reuss Voigt Hill
#
# Bulk Modulus (GPa) = 23.44694 57.17391 40.31043
# Shear Modulus (GPa) = 29.88296 43.67407 36.77852
#
# Velocity S-wave (km/s) = 3.36933 4.07328 3.73791
# Velocity P-wave (km/s) = 4.90346 6.62135 5.82607
#
# Compressibility (1/GPa) = 0.04264949
#
# Stress axis : x y z
#
# Youngs Moduli (GPa) = 95.01712 28.76926 101.65139
#
# Poissons Ratio (x) = 0.00989 0.26089
# Poissons Ratio (y) = 0.03265 0.33806
# Poissons Ratio (z) = 0.24387 0.09568
#
# Static dielectric constant tensor:
#      x y z
#    x 2.162440 -0.039860 -0.038670 
#    y -0.039860 2.123900 -0.113920 
#    z -0.038670 -0.113920 2.337800 
# 
# From -- ./inp_files/255957.got.cif
#   From: 2010.05.17/outbox.cif.g08.bks.cpg/sg2_128_cif.got.tgz:255957.got - 2010.06.03 11:33:40.
