data_PCOD9013125
_publ_section_title
;
Structure prediction by ZEFSAII (Michael W. Deem and Ramdas Pophale) SiO2 
 PCOD9013125
Probable space group: P -1
;
_chemical_formula_sum "Si O2"
_cell_formula_units_Z 16
_cell_length_a 7.983494
_cell_length_b 17.793417
_cell_length_c 5.859941
_cell_angle_alpha 76.544010
_cell_angle_beta 94.083729
_cell_angle_gamma 55.445660
_cell_volume 644.944800
_symmetry_space_group_name_H-M "P -1"
_symmetry_group_IT_number 2
_symmetry_cell_setting 'triclinic'
loop_
_space_group_symop_operation_xyz
x,y,z
-x,-y,-z
loop_
_atom_site_type_symbol
_atom_site_label
_atom_site_fract_x
_atom_site_fract_y
_atom_site_fract_z
Si Si1 0.339441 0.512141 0.662579
Si Si2 0.487283 0.886212 0.943801
Si Si3 0.479718 0.401776 0.164594
Si Si4 0.317543 0.286513 0.259918
Si Si5 0.117561 0.232627 0.657219
Si Si6 0.821021 0.049476 0.758785
Si Si7 0.882727 0.922406 0.474150
Si Si8 0.065241 0.589719 0.209745
O O1 0.500000 0.500000 0.500000
O O2 0.328704 0.595302 0.748061
O O3 0.134885 0.535181 0.502990
O O4 0.458941 0.413061 0.883075
O O5 0.707254 0.851022 0.095779
O O6 0.381653 0.876538 0.164000
O O7 0.542329 0.813925 0.793289
O O8 0.317930 0.993366 0.754827
O O9 0.457783 0.322084 0.309430
O O10 0.259477 0.505083 0.139689
O O11 0.209510 0.275605 0.473833
O O12 0.138812 0.363252 0.002845
O O13 0.066682 0.178840 0.513704
O O14 0.954433 0.316876 0.759518
O O15 0.907070 0.087583 0.560038
O O16 0.816402 0.968478 0.687114
O O17 0.000000 0.000000 0.000000
#
# Coordination Sequence:
#
# PCOD9013125 Si02
#       8
#     2   2   2   2   2   2   2   2
#     4   9  20  40  63  86 122 163 211 257 321 374
#     4  10  22  40  62  91 125 165 213 262 315 376
#     4  10  21  41  63  91 125 169 209 261 316 380
#     4  11  24  38  61  95 130 166 213 260 319 377
#     4  11  24  40  61  95 128 167 213 261 320 370
#     4   9  20  40  63  87 118 159 210 258 323 371
#     4  10  21  42  65  89 123 167 212 264 313 381
#     4  10  22  40  61  91 125 164 212 259 312 376
#
# _framework density 24.808323999999999
#
# number of rings (size 3 to 8) (size 9 to 14) (size 15 to 20)
#    0.000    2.000    0.000    2.250    0.000   11.000 
#   15.750    0.000    0.000    0.000    0.000    0.000 
#    0.000    0.000    0.000    0.000    0.000    0.000 
#
# Total GULP energy -89139.248949 kJ/mol
# GULP energy per Si atom -5571.203059 kJ/mol
# Density = 2.475186 g / cm^3
# Si number density = 24.808324 Si / 1000 Ang^3
#
#
#
# Elastic Constant Matrix: (Units=GPa)
#
#
# Indices 1 2 3 4 5 6 
#
# 1 57.5638 32.4784 16.5738 -0.0161 -0.8002 22.6293
# 2 32.4784 113.6292 8.4833 23.9567 -17.3737 -2.4220
# 3 16.5738 8.4833 83.0125 1.7017 8.6759 3.1588
# 4 -0.0161 23.9567 1.7017 33.1627 -11.7480 1.8546
# 5 -0.8002 -17.3737 8.6759 -11.7480 45.3875 -2.9804
# 6 22.6293 -2.4220 3.1588 1.8546 -2.9804 42.3876
#
#
#
# Elastic Compliance Matrix: (Units=1/GPa)
#
#
# Indices 1 2 3 4 5 6 
#
# 1 0.032149 -0.011370 -0.004564 0.008828 -0.001809 -0.017986
# 2 -0.011370 0.014794 0.000328 -0.009956 0.003319 0.007560
# 3 -0.004564 0.000328 0.013219 -0.002027 -0.002918 0.001354
# 4 0.008828 -0.009956 -0.002027 0.040192 0.006714 -0.006417
# 5 -0.001809 0.003319 -0.002918 0.006714 0.025756 0.002890
# 6 -0.017986 0.007560 0.001354 -0.006417 0.002890 0.034009
#
#
# Mechanical properties :
#
#
# Convention : Reuss Voigt Hill
#
# Bulk Modulus (GPa) = 34.54302 41.03072 37.78687
# Shear Modulus (GPa) = 24.87786 37.29889 31.08837
#
# Velocity S-wave (km/s) = 3.17014 3.88168 3.54382
# Velocity P-wave (km/s) = 5.23010 6.05516 5.65769
#
# Compressibility (1/GPa) = 0.02894941
#
# Stress axis : x y z
#
# Youngs Moduli (GPa) = 31.10495 67.59718 75.64796
#
# Poissons Ratio (x) = 0.76855 0.34529
# Poissons Ratio (y) = 0.35365 -0.02479
# Poissons Ratio (z) = 0.14197 -0.02216
#
# Static dielectric constant tensor:
#      x y z
#    x 2.019830 -0.025270 0.042780 
#    y -0.025270 2.013420 0.018570 
#    z 0.042780 0.018570 2.111300 
# 
# From -- ./inp_files/47468.got.cif
#   From: 2010.05.17/outbox.cif.g08.bks.cpg/sg2_24_cif.got.tgz:47468.got - 2010.06.03 11:33:40.
