data_PCOD9013222
_publ_section_title
;
Structure prediction by ZEFSAII (Michael W. Deem and Ramdas Pophale) SiO2 
 PCOD9013222
Probable space group: P -1
;
_chemical_formula_sum "Si O2"
_cell_formula_units_Z 14
_cell_length_a 9.142593
_cell_length_b 22.834006
_cell_length_c 5.562852
_cell_angle_alpha 68.693476
_cell_angle_beta 60.815448
_cell_angle_gamma 36.740798
_cell_volume 605.668231
_symmetry_space_group_name_H-M "P -1"
_symmetry_group_IT_number 2
_symmetry_cell_setting 'triclinic'
loop_
_space_group_symop_operation_xyz
x,y,z
-x,-y,-z
loop_
_atom_site_type_symbol
_atom_site_label
_atom_site_fract_x
_atom_site_fract_y
_atom_site_fract_z
Si Si1 0.453834 0.975057 0.321612
Si Si2 0.736573 0.434941 0.590354
Si Si3 0.915369 0.080425 0.770191
Si Si4 0.082649 0.369005 0.015442
Si Si5 0.420668 0.194624 0.657161
Si Si6 0.565185 0.258698 0.074579
Si Si7 0.410946 0.431022 0.125648
O O1 0.623367 0.862669 0.319235
O O2 0.500000 0.000000 0.500000
O O3 0.157980 0.032645 0.486434
O O4 0.500000 0.000000 0.000000
O O5 0.500000 0.500000 0.500000
O O6 0.711984 0.510588 0.614286
O O7 0.988951 0.355920 0.341638
O O8 0.649941 0.408385 0.894694
O O9 0.661272 0.129836 0.752922
O O10 0.829996 0.166627 0.862259
O O11 0.000000 0.000000 0.000000
O O12 0.339500 0.331430 0.947764
O O13 0.173056 0.298084 0.832156
O O14 0.839804 0.482927 0.971322
O O15 0.511560 0.212464 0.341544
O O16 0.528291 0.328616 0.169824
#
# Coordination Sequence:
#
# PCOD9013222 Si02
#       7
#     2   2   2   2   2   2   2
#     4  12  28  48  76 111 146 189 242 309 371 439
#     4   9  20  39  62  88 138 179 224 279 352 405
#     4  11  24  49  75  98 143 189 238 303 367 437
#     4  10  22  40  66  97 135 178 224 293 340 427
#     4  11  25  44  73 102 135 187 237 293 368 432
#     4  11  24  40  71 100 130 179 243 281 354 426
#     4  10  21  41  63  96 136 183 223 286 347 423
#
# _framework density 23.114965999999999
#
# number of rings (size 3 to 8) (size 9 to 14) (size 15 to 20)
#    0.000    1.429    1.429    2.571    4.000    8.000 
#    7.714    0.000    0.000    0.000    0.000    0.000 
#    0.000    0.000    0.000    0.000    0.000    0.000 
#
# Total GULP energy -78192.529069 kJ/mol
# GULP energy per Si atom -5585.180648 kJ/mol
# Density = 2.306236 g / cm^3
# Si number density = 23.114966 Si / 1000 Ang^3
#
#
#
# Elastic Constant Matrix: (Units=GPa)
#
#
# Indices 1 2 3 4 5 6 
#
# 1 54.1101 20.9701 1.9472 -11.7568 14.5621 11.3681
# 2 20.9701 108.9885 29.1102 7.8567 -2.1861 25.1663
# 3 1.9472 29.1102 114.6116 15.9676 -0.0556 14.0537
# 4 -11.7568 7.8567 15.9676 40.2037 -1.2035 4.0645
# 5 14.5621 -2.1861 -0.0556 -1.2035 33.9029 7.4219
# 6 11.3681 25.1663 14.0537 4.0645 7.4219 58.7580
#
#
#
# Elastic Compliance Matrix: (Units=1/GPa)
#
#
# Indices 1 2 3 4 5 6 
#
# 1 0.025630 -0.005299 -0.000032 0.008419 -0.010631 -0.001921
# 2 -0.005299 0.011911 -0.002105 -0.002536 0.003800 -0.003878
# 3 -0.000032 -0.002105 0.009884 -0.003398 0.000042 -0.001227
# 4 0.008419 -0.002536 -0.003398 0.029254 -0.002430 -0.001447
# 5 -0.010631 0.003800 0.000042 -0.002430 0.035062 -0.003841
# 6 -0.001921 -0.003878 -0.001227 -0.001447 -0.003841 0.019930
#
#
# Mechanical properties :
#
#
# Convention : Reuss Voigt Hill
#
# Bulk Modulus (GPa) = 30.71929 42.41835 36.56882
# Shear Modulus (GPa) = 31.76729 41.61844 36.69287
#
# Velocity S-wave (km/s) = 3.71120 4.24783 3.98855
# Velocity P-wave (km/s) = 5.62873 6.51534 6.08820
#
# Compressibility (1/GPa) = 0.03255284
#
# Stress axis : x y z
#
# Youngs Moduli (GPa) = 39.01746 83.95289 101.17204
#
# Poissons Ratio (x) = 0.44490 0.00324
# Poissons Ratio (y) = 0.20677 0.21294
# Poissons Ratio (z) = 0.00125 0.17670
#
# Static dielectric constant tensor:
#      x y z
#    x 1.920590 -0.012180 0.036340 
#    y -0.012180 1.873360 0.011090 
#    z 0.036340 0.011090 1.932550 
# 
# From -- ./inp_files/49459.got.cif
#   From: 2010.05.17/outbox.cif.g08.bks.cpg/sg2_25_cif.got.tgz:49459.got - 2010.06.03 11:33:40.
