data_PCOD9013884
_publ_section_title
;
Structure prediction by ZEFSAII (Michael W. Deem and Ramdas Pophale) SiO2 
 PCOD9013884
Probable space group: P -1
;
_chemical_formula_sum "Si O2"
_cell_formula_units_Z 12
_cell_length_a 7.605175
_cell_length_b 15.104945
_cell_length_c 6.815985
_cell_angle_alpha 109.009652
_cell_angle_beta 64.040201
_cell_angle_gamma 137.783540
_cell_volume 473.031958
_symmetry_space_group_name_H-M "P -1"
_symmetry_group_IT_number 2
_symmetry_cell_setting 'triclinic'
loop_
_space_group_symop_operation_xyz
x,y,z
-x,-y,-z
loop_
_atom_site_type_symbol
_atom_site_label
_atom_site_fract_x
_atom_site_fract_y
_atom_site_fract_z
Si Si1 0.364638 0.615615 0.617134
Si Si2 0.574988 0.731134 0.192454
Si Si3 0.561440 0.119109 0.804922
Si Si4 0.857672 0.652698 0.444822
Si Si5 0.140615 0.835495 0.913187
Si Si6 0.129090 0.429065 0.058863
O O1 0.462479 0.708736 0.451243
O O2 0.639446 0.660636 0.604029
O O3 0.199719 0.467651 0.519652
O O4 0.143350 0.597476 0.838055
O O5 0.540322 0.810601 0.134245
O O6 0.386181 0.580904 0.099387
O O7 0.897833 0.818107 0.105667
O O8 0.836351 0.205723 0.603748
O O9 0.328826 0.962992 0.776807
O O10 0.661876 0.137791 0.992964
O O11 0.814293 0.605311 0.199580
O O12 0.964326 0.685334 0.829409
#
# Coordination Sequence:
#
# PCOD9013884 Si02
#       6
#     2   2   2   2   2   2
#     4  11  22  38  65  98 127 159 209 264 313 361
#     4  12  22  39  68  97 123 162 214 261 310 364
#     4  10  21  41  66  87 129 173 200 253 319 371
#     4  10  22  41  65  93 129 167 206 255 317 371
#     4  10  23  41  63  92 128 167 208 252 313 378
#     4  11  22  39  65  98 122 163 214 257 308 371
#
# _framework density 25.368265000000001
#
# number of rings (size 3 to 8) (size 9 to 14) (size 15 to 20)
#    0.000    1.333    5.000    2.000    2.333    0.000 
#    0.000    1.667    0.000    0.000    0.000    0.000 
#    0.000    0.000    0.000    0.000    0.000    0.000 
#
# Total GULP energy -67100.910188 kJ/mol
# GULP energy per Si atom -5591.742516 kJ/mol
# Density = 2.531053 g / cm^3
# Si number density = 25.368265 Si / 1000 Ang^3
#
#
#
# Elastic Constant Matrix: (Units=GPa)
#
#
# Indices 1 2 3 4 5 6 
#
# 1 123.4361 44.7345 27.1248 -15.1876 -21.7630 -25.2781
# 2 44.7345 163.2708 25.7932 -26.5201 10.7885 -41.6786
# 3 27.1248 25.7932 63.1888 -21.4146 -15.0541 2.2983
# 4 -15.1876 -26.5201 -21.4146 49.0153 7.3733 12.2483
# 5 -21.7630 10.7885 -15.0541 7.3733 35.8528 -10.4043
# 6 -25.2781 -41.6786 2.2983 12.2483 -10.4043 29.7302
#
#
#
# Elastic Compliance Matrix: (Units=1/GPa)
#
#
# Indices 1 2 3 4 5 6 
#
# 1 0.015374 0.000321 -0.005857 -0.004910 0.013834 0.020838
# 2 0.000321 0.010970 -0.005437 -0.000203 -0.000734 0.015899
# 3 -0.005857 -0.005437 0.025108 0.010705 0.001026 -0.018595
# 4 -0.004910 -0.000203 0.010705 0.030529 -0.011004 -0.021716
# 5 0.013834 -0.000734 0.001026 -0.011004 0.048541 0.032175
# 6 0.020838 0.015899 -0.018595 -0.021716 0.032175 0.095285
#
#
# Mechanical properties :
#
#
# Convention : Reuss Voigt Hill
#
# Bulk Modulus (GPa) = 33.89227 60.57784 47.23506
# Shear Modulus (GPa) = 19.41073 39.73588 29.57330
#
# Velocity S-wave (km/s) = 2.76915 3.96202 3.41803
# Velocity P-wave (km/s) = 4.85936 6.69786 5.85127
#
# Compressibility (1/GPa) = 0.02950525
#
# Stress axis : x y z
#
# Youngs Moduli (GPa) = 65.04279 91.15889 39.82815
#
# Poissons Ratio (x) = -0.02923 0.23326
# Poissons Ratio (y) = -0.02086 0.21656
# Poissons Ratio (z) = 0.38094 0.49567
#
# Static dielectric constant tensor:
#      x y z
#    x 2.034030 0.002340 0.077650 
#    y 0.002340 1.990750 0.015790 
#    z 0.077650 0.015790 2.040530 
# 
# From -- ./inp_files/213018.got.cif
#   From: 2010.05.17/outbox.cif.g08.bks.cpg/sg2_107_cif.got.tgz:213018.got - 2010.06.03 11:33:40.
