data_PCOD9013616
_publ_section_title
;
Structure prediction by ZEFSAII (Michael W. Deem and Ramdas Pophale) SiO2 
 PCOD9013616
Probable space group: P -1
;
_chemical_formula_sum "Si O2"
_cell_formula_units_Z 13
_cell_length_a 13.894334
_cell_length_b 5.126236
_cell_length_c 20.513744
_cell_angle_alpha 78.479394
_cell_angle_beta 157.260612
_cell_angle_gamma 111.122911
_cell_volume 489.887308
_symmetry_space_group_name_H-M "P -1"
_symmetry_group_IT_number 2
_symmetry_cell_setting 'triclinic'
loop_
_space_group_symop_operation_xyz
x,y,z
-x,-y,-z
loop_
_atom_site_type_symbol
_atom_site_label
_atom_site_fract_x
_atom_site_fract_y
_atom_site_fract_z
Si Si1 0.510631 0.570005 0.213017
Si Si2 0.858894 0.328290 0.115709
Si Si3 0.314000 0.924968 0.168472
Si Si4 0.747892 0.586328 0.754744
Si Si5 0.164897 0.525868 0.432411
Si Si6 0.916474 0.862511 0.341484
Si Si7 0.500000 0.000000 0.000000
O O1 0.469790 0.813877 0.218549
O O2 0.787451 0.693849 0.336099
O O3 0.451736 0.281507 0.233056
O O4 0.253700 0.479538 0.005071
O O5 0.119168 0.343041 0.237577
O O6 0.932249 0.413516 0.233514
O O7 0.601098 0.000640 0.984391
O O8 0.305970 0.744190 0.237913
O O9 0.996645 0.798174 0.948664
O O10 0.464950 0.615365 0.582808
O O11 0.113626 0.759496 0.430924
O O12 0.076071 0.221305 0.432431
O O13 0.665990 0.816166 0.138324
#
# Coordination Sequence:
#
# PCOD9013616 Si02
#       7
#     2   2   2   2   2   2   1
#     4  10  21  41  65  91 118 160 213 255 297 353
#     4   9  20  37  64  90 122 159 199 254 307 361
#     4  10  23  41  65  88 118 165 215 254 292 358
#     4  10  23  42  62  90 126 164 205 251 306 365
#     4  11  23  39  60  95 129 160 197 250 314 372
#     4  10  22  39  63  91 127 162 201 251 305 360
#     4   8  18  38  60  88 118 156 202 242 292 364
#
# _framework density 26.536712999999999
#
# number of rings (size 3 to 8) (size 9 to 14) (size 15 to 20)
#    0.000    2.154    0.000    1.385    0.000   22.154 
#    0.000    9.231    0.000    0.000    0.000    0.000 
#    0.000    0.000    0.000    0.000    0.000    0.000 
#
# Total GULP energy -72617.056175 kJ/mol
# GULP energy per Si atom -5585.927398 kJ/mol
# Density = 2.647631 g / cm^3
# Si number density = 26.536713 Si / 1000 Ang^3
#
#
#
# Elastic Constant Matrix: (Units=GPa)
#
#
# Indices 1 2 3 4 5 6 
#
# 1 141.2009 62.8629 9.2022 -10.1909 35.3145 26.0867
# 2 62.8629 122.0647 4.8618 -0.8824 23.1265 -6.3214
# 3 9.2022 4.8618 112.1937 -17.0949 19.6959 -2.5917
# 4 -10.1909 -0.8824 -17.0949 32.8821 7.9637 -2.2714
# 5 35.3145 23.1265 19.6959 7.9637 53.9042 8.2374
# 6 26.0867 -6.3214 -2.5917 -2.2714 8.2374 47.4629
#
#
#
# Elastic Compliance Matrix: (Units=1/GPa)
#
#
# Indices 1 2 3 4 5 6 
#
# 1 0.012589 -0.005685 0.000906 0.005220 -0.005941 -0.006346
# 2 -0.005685 0.011782 0.000407 -0.000349 -0.002204 0.005082
# 3 0.000906 0.000407 0.011121 0.007689 -0.006213 0.001610
# 4 0.005220 -0.000349 0.007689 0.039043 -0.012072 0.001468
# 5 -0.005941 -0.002204 -0.006213 -0.012072 0.027868 -0.002782
# 6 -0.006346 0.005082 0.001610 0.001468 -0.002782 0.025875
#
#
# Mechanical properties :
#
#
# Convention : Reuss Voigt Hill
#
# Bulk Modulus (GPa) = 37.38719 58.81259 48.09989
# Shear Modulus (GPa) = 34.26128 46.75200 40.50664
#
# Velocity S-wave (km/s) = 3.59707 4.20192 3.91120
# Velocity P-wave (km/s) = 5.60101 6.76405 6.20982
#
# Compressibility (1/GPa) = 0.02674713
#
# Stress axis : x y z
#
# Youngs Moduli (GPa) = 79.43516 84.87525 89.92194
#
# Poissons Ratio (x) = 0.48248 -0.08143
# Poissons Ratio (y) = 0.45156 -0.03658
# Poissons Ratio (z) = -0.07193 -0.03453
#
# Static dielectric constant tensor:
#      x y z
#    x 2.051990 -0.109630 -0.089910 
#    y -0.109630 1.410070 -0.358000 
#    z -0.089910 -0.358000 1.898780 
# 
# From -- ./inp_files/362455.got.cif
#   From: 2010.05.17/outbox.cif.g08.bks.cpg/sg2_182_cif.got.tgz:362455.got - 2010.06.03 11:33:40.
