data_PCOD9013811
_publ_section_title
;
Structure prediction by ZEFSAII (Michael W. Deem and Ramdas Pophale) SiO2 
 PCOD9013811
Probable space group: P -1
;
_chemical_formula_sum "Si O2"
_cell_formula_units_Z 16
_cell_length_a 14.016084
_cell_length_b 8.889424
_cell_length_c 11.937615
_cell_angle_alpha 115.205567
_cell_angle_beta 55.350379
_cell_angle_gamma 69.409112
_cell_volume 667.465397
_symmetry_space_group_name_H-M "P -1"
_symmetry_group_IT_number 2
_symmetry_cell_setting 'triclinic'
loop_
_space_group_symop_operation_xyz
x,y,z
-x,-y,-z
loop_
_atom_site_type_symbol
_atom_site_label
_atom_site_fract_x
_atom_site_fract_y
_atom_site_fract_z
Si Si1 0.277051 0.516062 0.842752
Si Si2 0.586524 0.611289 0.596776
Si Si3 0.507002 0.471376 0.800724
Si Si4 0.889833 0.436753 0.804844
Si Si5 0.523267 0.022717 0.861458
Si Si6 0.923831 0.495418 0.161290
Si Si7 0.764069 0.088169 0.701343
Si Si8 0.779293 0.129061 0.175949
O O1 0.483093 0.334683 0.697477
O O2 0.208310 0.766007 0.908166
O O3 0.270042 0.374913 0.712614
O O4 0.154103 0.602719 0.060111
O O5 0.517882 0.618697 0.763552
O O6 0.748799 0.298691 0.348064
O O7 0.410040 0.769935 0.681556
O O8 0.627461 0.755348 0.638394
O O9 0.689459 0.251417 0.687515
O O10 0.319579 0.702725 0.077984
O O11 0.031079 0.426207 0.745319
O O12 0.686413 0.720151 0.975734
O O13 0.011535 0.198439 0.554904
O O14 0.643231 0.055135 0.784166
O O15 0.500000 0.000000 0.000000
O O16 0.000000 0.500000 0.000000
O O17 0.053044 0.188161 0.009048
#
# Coordination Sequence:
#
# PCOD9013811 Si02
#       8
#     2   2   2   2   2   2   2   2
#     4  10  22  42  67  98 139 180 225 285 334 407
#     4  10  22  40  67  94 134 181 224 285 337 404
#     4  10  22  46  66  98 138 172 240 285 329 425
#     4  11  25  46  68 102 141 180 231 285 344 412
#     4  12  24  48  69  98 142 181 230 291 342 408
#     4  10  22  40  63  99 140 174 222 284 335 412
#     4  11  25  44  72  98 133 187 228 283 355 401
#     4  10  21  41  65  98 133 182 229 272 347 404
#
# _framework density 23.971278999999999
#
# number of rings (size 3 to 8) (size 9 to 14) (size 15 to 20)
#    0.000    1.500    3.750    0.375    5.250    1.000 
#    2.250    1.250    0.000    0.000    0.000    0.000 
#    0.000    0.000    0.000    0.000    0.000    0.000 
#
# Total GULP energy -89381.736224 kJ/mol
# GULP energy per Si atom -5586.358514 kJ/mol
# Density = 2.391672 g / cm^3
# Si number density = 23.971279 Si / 1000 Ang^3
#
#
#
# Elastic Constant Matrix: (Units=GPa)
#
#
# Indices 1 2 3 4 5 6 
#
# 1 121.3063 30.1534 8.8472 -5.9446 20.5587 21.9180
# 2 30.1534 60.7904 18.1584 -11.6578 9.8996 -11.9395
# 3 8.8472 18.1584 50.3239 -1.3172 8.5879 -9.5176
# 4 -5.9446 -11.6578 -1.3172 19.8167 8.4034 8.0172
# 5 20.5587 9.8996 8.5879 8.4034 28.8387 -1.2119
# 6 21.9180 -11.9395 -9.5176 8.0172 -1.2119 35.2371
#
#
#
# Elastic Compliance Matrix: (Units=1/GPa)
#
#
# Indices 1 2 3 4 5 6 
#
# 1 0.015270 -0.005681 -0.000921 0.012776 -0.013015 -0.015026
# 2 -0.005681 0.025975 -0.005438 0.012943 -0.006696 0.007691
# 3 -0.000921 -0.005438 0.023576 -0.002696 -0.003477 0.005592
# 4 0.012776 0.012943 -0.002696 0.089098 -0.039800 -0.025930
# 5 -0.013015 -0.006696 -0.003477 -0.039800 0.059557 0.015992
# 6 -0.015026 0.007691 0.005592 -0.025930 0.015992 0.048291
#
#
# Mechanical properties :
#
#
# Convention : Reuss Voigt Hill
#
# Bulk Modulus (GPa) = 24.54514 38.52653 31.53583
# Shear Modulus (GPa) = 16.69858 28.46260 22.58059
#
# Velocity S-wave (km/s) = 2.64220 3.44955 3.07251
# Velocity P-wave (km/s) = 4.42379 5.65444 5.07654
#
# Compressibility (1/GPa) = 0.04074127
#
# Stress axis : x y z
#
# Youngs Moduli (GPa) = 65.48954 38.49857 42.41656
#
# Poissons Ratio (x) = 0.21869 0.03907
# Poissons Ratio (y) = 0.37201 0.23066
# Poissons Ratio (z) = 0.06032 0.20935
#
# Static dielectric constant tensor:
#      x y z
#    x 1.980300 0.021570 0.001920 
#    y 0.021570 1.894770 -0.031360 
#    z 0.001920 -0.031360 1.931920 
# 
# From -- ./inp_files/448032.got.cif
#   From: 2010.05.17/outbox.cif.g08.bks.cpg/sg2_225_cif.got.tgz:448032.got - 2010.06.03 11:33:40.
