data_PCOD9013040
_publ_section_title
;
Structure prediction by ZEFSAII (Michael W. Deem and Ramdas Pophale) SiO2 
 PCOD9013040
Probable space group: P -1
;
_chemical_formula_sum "Si O2"
_cell_formula_units_Z 12
_cell_length_a 11.416108
_cell_length_b 11.276200
_cell_length_c 11.686877
_cell_angle_alpha 39.289865
_cell_angle_beta 35.028596
_cell_angle_gamma 40.969157
_cell_volume 515.479110
_symmetry_space_group_name_H-M "P -1"
_symmetry_group_IT_number 2
_symmetry_cell_setting 'triclinic'
loop_
_space_group_symop_operation_xyz
x,y,z
-x,-y,-z
loop_
_atom_site_type_symbol
_atom_site_label
_atom_site_fract_x
_atom_site_fract_y
_atom_site_fract_z
Si Si1 0.748858 0.073984 0.984096
Si Si2 0.172419 0.301742 0.659732
Si Si3 0.002586 0.135574 0.286110
Si Si4 0.261616 0.520246 0.215184
Si Si5 0.531968 0.426563 0.401317
Si Si6 0.606823 0.809358 0.972939
O O1 0.493353 0.116226 0.126943
O O2 0.810922 0.919098 0.153899
O O3 0.805111 0.269997 0.820889
O O4 0.874487 0.980431 0.837231
O O5 0.249569 0.347334 0.438628
O O6 0.334935 0.358065 0.571997
O O7 0.922107 0.443103 0.761809
O O8 0.764751 0.257599 0.341402
O O9 0.144725 0.260433 0.133802
O O10 0.000000 0.000000 0.500000
O O11 0.500000 0.500000 0.000000
O O12 0.500000 0.500000 0.500000
O O13 0.529095 0.621165 0.190087
O O14 0.500000 0.000000 0.000000
#
# Coordination Sequence:
#
# PCOD9013040 Si02
#       6
#     2   2   2   2   2   2
#     4  11  23  47  71 102 147 181 243 297 350 434
#     4  11  26  48  72 107 142 186 241 298 361 420
#     4  11  24  41  67 108 147 192 233 288 363 426
#     4  11  27  51  75 102 141 188 246 301 355 424
#     4  12  23  42  70 103 145 187 238 293 359 431
#     4  10  21  41  63 101 142 181 230 288 349 427
#
# _framework density 23.279313999999999
#
# number of rings (size 3 to 8) (size 9 to 14) (size 15 to 20)
#    0.000    1.000    1.667    6.000    2.333    2.000 
#    9.000    0.000    0.000    0.000    0.000    0.000 
#    0.000    0.000    0.000    0.000    0.000    0.000 
#
# Total GULP energy -67038.932346 kJ/mol
# GULP energy per Si atom -5586.577696 kJ/mol
# Density = 2.322633 g / cm^3
# Si number density = 23.279314 Si / 1000 Ang^3
#
#
#
# Elastic Constant Matrix: (Units=GPa)
#
#
# Indices 1 2 3 4 5 6 
#
# 1 133.1505 43.2459 32.9119 4.3471 -26.1739 -33.5474
# 2 43.2459 75.4604 39.5257 -0.6106 0.9183 -19.1885
# 3 32.9119 39.5257 109.0961 -9.9231 -1.5541 -14.9427
# 4 4.3471 -0.6106 -9.9231 44.9728 -17.7422 -5.1463
# 5 -26.1739 0.9183 -1.5541 -17.7422 52.3809 -4.9008
# 6 -33.5474 -19.1885 -14.9427 -5.1463 -4.9008 41.4700
#
#
#
# Elastic Compliance Matrix: (Units=1/GPa)
#
#
# Indices 1 2 3 4 5 6 
#
# 1 0.013285 -0.004986 -0.000475 0.003065 0.008655 0.009672
# 2 -0.004986 0.019628 -0.005439 -0.001445 -0.003250 0.002525
# 3 -0.000475 -0.005439 0.011888 0.003440 0.001563 0.001995
# 4 0.003065 -0.001445 0.003440 0.028327 0.012000 0.007983
# 5 0.008655 -0.003250 0.001563 0.012000 0.028606 0.010930
# 6 0.009672 0.002525 0.001995 0.007983 0.010930 0.036108
#
#
# Mechanical properties :
#
#
# Convention : Reuss Voigt Hill
#
# Bulk Modulus (GPa) = 43.47342 61.00822 52.24082
# Shear Modulus (GPa) = 29.88470 41.23297 35.55883
#
# Velocity S-wave (km/s) = 3.58683 4.21316 3.91255
# Velocity P-wave (km/s) = 5.98907 7.06623 6.54983
#
# Compressibility (1/GPa) = 0.02300256
#
# Stress axis : x y z
#
# Youngs Moduli (GPa) = 75.27192 50.94635 84.11624
#
# Poissons Ratio (x) = 0.25402 0.03992
# Poissons Ratio (y) = 0.37531 0.45751
# Poissons Ratio (z) = 0.03572 0.27710
#
# Static dielectric constant tensor:
#      x y z
#    x 1.036050 -1.274330 -0.644920 
#    y -1.274330 -0.038170 -0.875590 
#    z -0.644920 -0.875590 1.486720 
# 
# From -- ./inp_files/427327.got.cif
#   From: 2010.05.17/outbox.cif.g08.bks.cpg/sg2_214_cif.got.tgz:427327.got - 2010.06.03 11:33:40.
