data_PCOD9013235
_publ_section_title
;
Structure prediction by ZEFSAII (Michael W. Deem and Ramdas Pophale) SiO2 
 PCOD9013235
Probable space group: P -1
;
_chemical_formula_sum "Si O2"
_cell_formula_units_Z 14
_cell_length_a 8.927765
_cell_length_b 11.318749
_cell_length_c 8.734454
_cell_angle_alpha 66.025847
_cell_angle_beta 49.913028
_cell_angle_gamma 54.571948
_cell_volume 549.465746
_symmetry_space_group_name_H-M "P -1"
_symmetry_group_IT_number 2
_symmetry_cell_setting 'triclinic'
loop_
_space_group_symop_operation_xyz
x,y,z
-x,-y,-z
loop_
_atom_site_type_symbol
_atom_site_label
_atom_site_fract_x
_atom_site_fract_y
_atom_site_fract_z
Si Si1 0.108179 0.644882 0.718828
Si Si2 0.748623 0.675924 0.186139
Si Si3 0.437500 0.625965 0.755898
Si Si4 0.374461 0.845944 0.137163
Si Si5 0.814002 0.336926 0.787535
Si Si6 0.683704 0.810065 0.462212
Si Si7 0.725901 0.912579 0.684752
O O1 0.174466 0.481407 0.708419
O O2 0.317292 0.648537 0.659638
O O3 0.959852 0.769293 0.633228
O O4 0.940167 0.672572 0.955814
O O5 0.550554 0.705407 0.185526
O O6 0.670023 0.808090 0.287726
O O7 0.647788 0.472668 0.726895
O O8 0.520641 0.747225 0.658626
O O9 0.272055 0.635153 0.995814
O O10 0.212032 0.804139 0.173359
O O11 0.261774 0.966228 0.278739
O O12 0.528929 0.887100 0.904636
O O13 0.061066 0.310184 0.628445
O O14 0.677674 0.929872 0.524720
#
# Coordination Sequence:
#
# PCOD9013235 Si02
#       7
#     2   2   2   2   2   2   2
#     4  10  21  41  63  98 128 172 206 271 318 385
#     4  10  22  38  68  94 132 163 221 259 325 375
#     4  11  23  40  65 100 133 165 210 275 323 373
#     4  10  21  47  64  92 132 182 203 265 324 392
#     4  11  23  40  67  96 132 172 209 268 325 378
#     4  12  25  39  65 104 125 167 220 274 308 386
#     4  10  24  40  69  94 132 169 223 254 326 386
#
# _framework density 25.479295
#
# number of rings (size 3 to 8) (size 9 to 14) (size 15 to 20)
#    0.000    1.429    4.286    0.429    4.000    2.857 
#    0.000    2.143    0.000    0.000    0.000    0.000 
#    0.000    0.000    0.000    0.000    0.000    0.000 
#
# Total GULP energy -78347.166458 kJ/mol
# GULP energy per Si atom -5596.226176 kJ/mol
# Density = 2.542130 g / cm^3
# Si number density = 25.479295 Si / 1000 Ang^3
#
#
#
# Elastic Constant Matrix: (Units=GPa)
#
#
# Indices 1 2 3 4 5 6 
#
# 1 107.7662 -9.1716 2.4510 0.0454 2.5819 12.9270
# 2 -9.1716 60.7142 -5.5046 11.3551 -1.3689 17.8881
# 3 2.4510 -5.5046 98.3878 10.9291 13.7452 -3.5436
# 4 0.0454 11.3551 10.9291 34.1400 0.5536 6.8367
# 5 2.5819 -1.3689 13.7452 0.5536 32.5774 8.3588
# 6 12.9270 17.8881 -3.5436 6.8367 8.3588 30.3656
#
#
#
# Elastic Compliance Matrix: (Units=1/GPa)
#
#
# Indices 1 2 3 4 5 6 
#
# 1 0.010408 0.003562 -0.000544 0.000365 0.001356 -0.007048
# 2 0.003562 0.022390 0.000561 -0.004747 0.004288 -0.014752
# 3 -0.000544 0.000561 0.011667 -0.004606 -0.005776 0.003890
# 4 0.000365 -0.004747 -0.004606 0.033542 0.002736 -0.006202
# 5 0.001356 0.004288 -0.005776 0.002736 0.036892 -0.014549
# 6 -0.007048 -0.014752 0.003890 -0.006202 -0.014549 0.050478
#
#
# Mechanical properties :
#
#
# Convention : Reuss Voigt Hill
#
# Bulk Modulus (GPa) = 19.37126 26.93531 23.15329
# Shear Modulus (GPa) = 28.50180 38.02281 33.26231
#
# Velocity S-wave (km/s) = 3.34821 3.86722 3.61704
# Velocity P-wave (km/s) = 4.75044 5.52584 5.15275
#
# Compressibility (1/GPa) = 0.05162287
#
# Stress axis : x y z
#
# Youngs Moduli (GPa) = 96.08360 44.66198 85.70843
#
# Poissons Ratio (x) = -0.15907 0.04662
# Poissons Ratio (y) = -0.34222 -0.04807
# Poissons Ratio (z) = 0.05226 -0.02505
#
# Static dielectric constant tensor:
#      x y z
#    x 1.985030 -0.023230 0.028260 
#    y -0.023230 2.042570 0.038760 
#    z 0.028260 0.038760 1.999460 
# 
# From -- ./inp_files/182074.got.cif
#   From: 2010.05.17/outbox.cif.g08.bks.cpg/sg2_92_cif.got.tgz:182074.got - 2010.06.03 11:33:40.
