data_PCOD9013615
_publ_section_title
;
Structure prediction by ZEFSAII (Michael W. Deem and Ramdas Pophale) SiO2 
 PCOD9013615
Probable space group: P -1
;
_chemical_formula_sum "Si O2"
_cell_formula_units_Z 16
_cell_length_a 9.402749
_cell_length_b 14.433076
_cell_length_c 17.242188
_cell_angle_alpha 28.400006
_cell_angle_beta 139.179645
_cell_angle_gamma 123.628562
_cell_volume 678.780721
_symmetry_space_group_name_H-M "P -1"
_symmetry_group_IT_number 2
_symmetry_cell_setting 'triclinic'
loop_
_space_group_symop_operation_xyz
x,y,z
-x,-y,-z
loop_
_atom_site_type_symbol
_atom_site_label
_atom_site_fract_x
_atom_site_fract_y
_atom_site_fract_z
Si Si1 0.846121 0.935610 0.548911
Si Si2 0.102166 0.158613 0.706948
Si Si3 0.470393 0.069544 0.058906
Si Si4 0.997537 0.222002 0.097982
Si Si5 0.351437 0.275495 0.093536
Si Si6 0.242514 0.939811 0.188183
Si Si7 0.584698 0.622145 0.656070
Si Si8 0.641047 0.501917 0.214749
O O1 0.739214 0.764852 0.601678
O O2 0.615691 0.134512 0.326367
O O3 0.000000 0.000000 0.500000
O O4 0.964334 0.842671 0.748156
O O5 0.817667 0.686635 0.930256
O O6 0.906355 0.375858 0.443055
O O7 0.295830 0.056974 0.796085
O O8 0.252715 0.155855 0.846735
O O9 0.017738 0.014736 0.211737
O O10 0.426098 0.909739 0.217189
O O11 0.740540 0.395435 0.856795
O O12 0.465356 0.269113 0.959012
O O13 0.355208 0.461979 0.901959
O O14 0.258040 0.131663 0.104021
O O15 0.338920 0.728766 0.432783
O O16 0.000000 0.000000 0.000000
O O17 0.516734 0.612758 0.725149
#
# Coordination Sequence:
#
# PCOD9013615 Si02
#       8
#     2   2   2   2   2   2   2   2
#     4  11  25  46  72  93 134 182 222 286 351 400
#     4  11  23  39  67  99 135 180 228 281 328 401
#     4  10  22  41  63  98 137 180 230 271 339 397
#     4  12  24  43  66 102 138 172 234 283 332 406
#     4  10  24  41  65  99 130 173 231 274 337 404
#     4  10  21  41  65  90 138 181 222 272 342 395
#     4  11  24  42  68  99 135 180 229 276 345 409
#     4  11  22  43  68  95 141 177 224 274 344 399
#
# _framework density 23.571677000000001
#
# number of rings (size 3 to 8) (size 9 to 14) (size 15 to 20)
#    0.000    1.250    1.250    4.875    5.250    1.000 
#    0.000    3.125    0.000    0.000    0.000    0.000 
#    0.000    0.000    0.000    0.000    0.000    0.000 
#
# Total GULP energy -89447.370146 kJ/mol
# GULP energy per Si atom -5590.460634 kJ/mol
# Density = 2.351803 g / cm^3
# Si number density = 23.571677 Si / 1000 Ang^3
#
#
#
# Elastic Constant Matrix: (Units=GPa)
#
#
# Indices 1 2 3 4 5 6 
#
# 1 160.5116 23.8268 52.9276 0.1580 -23.4433 33.8931
# 2 23.8268 44.8131 13.4302 9.9883 -6.5057 -4.3062
# 3 52.9276 13.4302 126.1351 12.2882 -6.3422 5.3657
# 4 0.1580 9.9883 12.2882 28.4018 2.2588 -5.7270
# 5 -23.4433 -6.5057 -6.3422 2.2588 37.7438 -7.9837
# 6 33.8931 -4.3062 5.3657 -5.7270 -7.9837 30.8840
#
#
#
# Elastic Compliance Matrix: (Units=1/GPa)
#
#
# Indices 1 2 3 4 5 6 
#
# 1 0.011054 -0.005728 -0.003492 0.000937 0.002820 -0.011421
# 2 -0.005728 0.028765 -0.000057 -0.008404 0.003961 0.009772
# 3 -0.003492 -0.000057 0.009716 -0.003878 -0.000015 0.001413
# 4 0.000937 -0.008404 -0.003878 0.041146 -0.002845 0.005369
# 5 0.002820 0.003961 -0.000015 -0.002845 0.030093 0.004712
# 6 -0.011421 0.009772 0.001413 0.005369 0.004712 0.048243
#
#
# Mechanical properties :
#
#
# Convention : Reuss Voigt Hill
#
# Bulk Modulus (GPa) = 32.27773 56.86989 44.57381
# Shear Modulus (GPa) = 25.26546 35.49094 30.37820
#
# Velocity S-wave (km/s) = 3.27747 3.88449 3.59382
# Velocity P-wave (km/s) = 5.29581 6.65566 6.01429
#
# Compressibility (1/GPa) = 0.03098111
#
# Stress axis : x y z
#
# Youngs Moduli (GPa) = 90.46178 34.76504 102.91862
#
# Poissons Ratio (x) = 0.19912 0.35942
# Poissons Ratio (y) = 0.51814 0.00588
# Poissons Ratio (z) = 0.31592 0.00199
#
# Static dielectric constant tensor:
#      x y z
#    x 1.935000 0.028460 -0.051860 
#    y 0.028460 1.943310 0.006810 
#    z -0.051860 0.006810 1.878610 
# 
# From -- ./inp_files/610904.got.cif
#   From: 2010.05.17/outbox.cif.g08.bks.cpg/sg2_306_cif.got.tgz:610904.got - 2010.06.03 11:33:40.
