data_PCOD9013373
_publ_section_title
;
Structure prediction by ZEFSAII (Michael W. Deem and Ramdas Pophale) SiO2 
 PCOD9013373
Probable space group: P -1
;
_chemical_formula_sum "Si O2"
_cell_formula_units_Z 12
_cell_length_a 5.893390
_cell_length_b 14.363924
_cell_length_c 7.218544
_cell_angle_alpha 99.543946
_cell_angle_beta 120.442745
_cell_angle_gamma 69.187915
_cell_volume 492.370271
_symmetry_space_group_name_H-M "P -1"
_symmetry_group_IT_number 2
_symmetry_cell_setting 'triclinic'
loop_
_space_group_symop_operation_xyz
x,y,z
-x,-y,-z
loop_
_atom_site_type_symbol
_atom_site_label
_atom_site_fract_x
_atom_site_fract_y
_atom_site_fract_z
Si Si1 0.719949 0.534289 0.712778
Si Si2 0.342558 0.113231 0.037131
Si Si3 0.786559 0.415602 0.046570
Si Si4 0.238124 0.128115 0.443182
Si Si5 0.334812 0.732650 0.817375
Si Si6 0.154720 0.938951 0.227195
O O1 0.500000 0.500000 0.500000
O O2 0.852167 0.440124 0.873741
O O3 0.540824 0.637062 0.770416
O O4 0.968959 0.562606 0.727892
O O5 0.315479 0.126459 0.254308
O O6 0.510996 0.186059 0.071268
O O7 0.036220 0.128951 0.831720
O O8 0.500000 0.000000 0.000000
O O9 0.500000 0.500000 0.000000
O O10 0.750082 0.311176 0.043159
O O11 0.517432 0.120306 0.666375
O O12 0.959067 0.218156 0.390064
O O13 0.157184 0.026987 0.398633
O O14 0.000000 0.000000 0.000000
#
# Coordination Sequence:
#
# PCOD9013373 Si02
#       6
#     2   2   2   2   2   2
#     4  10  22  45  72  97 132 172 220 280 343 397
#     4  11  22  40  65  97 134 181 223 275 331 389
#     4   9  21  43  70  96 132 171 212 283 338 397
#     4  10  21  41  64  92 133 178 230 276 324 396
#     4  11  22  41  67 100 138 173 227 272 329 414
#     4   9  20  42  64  85 130 184 221 275 329 377
#
# _framework density 24.371905000000002
#
# number of rings (size 3 to 8) (size 9 to 14) (size 15 to 20)
#    0.000    2.000    1.667    1.000    0.000    3.333 
#    3.000   30.000    3.667    0.000    0.000    0.000 
#    0.000    0.000    0.000    0.000    0.000    0.000 
#
# Total GULP energy -67001.439790 kJ/mol
# GULP energy per Si atom -5583.453316 kJ/mol
# Density = 2.431643 g / cm^3
# Si number density = 24.371905 Si / 1000 Ang^3
#
#
#
# Elastic Constant Matrix: (Units=GPa)
#
#
# Indices 1 2 3 4 5 6 
#
# 1 125.8443 70.5402 69.0452 5.9230 47.5781 28.4514
# 2 70.5402 143.1350 57.1116 2.1325 30.8813 17.1138
# 3 69.0452 57.1116 143.8462 1.9612 53.3679 12.8253
# 4 5.9230 2.1325 1.9612 37.7527 -4.3747 14.3964
# 5 47.5781 30.8813 53.3679 -4.3747 57.7050 3.8802
# 6 28.4514 17.1138 12.8253 14.3964 3.8802 65.9717
#
#
#
# Elastic Compliance Matrix: (Units=1/GPa)
#
#
# Indices 1 2 3 4 5 6 
#
# 1 0.016087 -0.004618 -0.002341 -0.001410 -0.008433 -0.004481
# 2 -0.004618 0.009971 -0.001781 0.000406 0.000172 -0.000348
# 3 -0.002341 -0.001781 0.011820 -0.001041 -0.008119 -0.000122
# 4 -0.001410 0.000406 -0.001041 0.029561 0.004553 -0.006014
# 5 -0.008433 0.000172 -0.008119 0.004553 0.031890 0.002302
# 6 -0.004481 -0.000348 -0.000122 -0.006014 0.002302 0.018381
#
#
# Mechanical properties :
#
#
# Convention : Reuss Voigt Hill
#
# Bulk Modulus (GPa) = 49.02169 89.57993 69.30081
# Shear Modulus (GPa) = 35.21420 46.69444 40.95432
#
# Velocity S-wave (km/s) = 3.80527 4.38186 4.10370
# Velocity P-wave (km/s) = 6.28207 7.90166 7.13795
#
# Compressibility (1/GPa) = 0.02039913
#
# Stress axis : x y z
#
# Youngs Moduli (GPa) = 62.16291 100.29055 84.60445
#
# Poissons Ratio (x) = 0.46312 0.19802
# Poissons Ratio (y) = 0.28705 0.15067
# Poissons Ratio (z) = 0.14550 0.17860
#
# Static dielectric constant tensor:
#      x y z
#    x 2.114700 0.038500 -0.033290 
#    y 0.038500 1.930720 -0.021560 
#    z -0.033290 -0.021560 2.052840 
# 
# From -- ./inp_files/134393.got.cif
#   From: 2010.05.17/outbox.cif.g08.bks.cpg/sg2_68_cif.got.tgz:134393.got - 2010.06.03 11:33:40.
