data_PCOD9013184
_publ_section_title
;
Structure prediction by ZEFSAII (Michael W. Deem and Ramdas Pophale) SiO2 
 PCOD9013184
Probable space group: P -1
;
_chemical_formula_sum "Si O2"
_cell_formula_units_Z 12
_cell_length_a 11.406891
_cell_length_b 10.903766
_cell_length_c 8.585236
_cell_angle_alpha 108.469173
_cell_angle_beta 103.913220
_cell_angle_gamma 135.575316
_cell_volume 504.231887
_symmetry_space_group_name_H-M "P -1"
_symmetry_group_IT_number 2
_symmetry_cell_setting 'triclinic'
loop_
_space_group_symop_operation_xyz
x,y,z
-x,-y,-z
loop_
_atom_site_type_symbol
_atom_site_label
_atom_site_fract_x
_atom_site_fract_y
_atom_site_fract_z
Si Si1 0.349414 0.992293 0.958561
Si Si2 0.210552 0.794026 0.165130
Si Si3 0.360893 0.454451 0.063187
Si Si4 0.119905 0.083980 0.237581
Si Si5 0.621769 0.965409 0.359809
Si Si6 0.551071 0.421493 0.340646
O O1 0.248960 0.920003 0.722246
O O2 0.525179 0.273587 0.165019
O O3 0.185905 0.832455 0.997246
O O4 0.500000 0.000000 0.000000
O O5 0.230662 0.888304 0.374672
O O6 0.455486 0.939207 0.292431
O O7 0.000000 0.500000 0.000000
O O8 0.452179 0.683770 0.195501
O O9 0.500000 0.500000 0.000000
O O10 0.441614 0.446634 0.234204
O O11 0.082517 0.177026 0.839241
O O12 0.361595 0.228176 0.341025
O O13 0.195697 0.293064 0.414366
O O14 0.000000 0.000000 0.000000
#
# Coordination Sequence:
#
# PCOD9013184 Si02
#       6
#     2   2   2   2   2   2
#     4  10  22  43  65  93 130 167 215 271 320 383
#     4  10  24  43  69  92 123 173 216 269 324 379
#     4  11  22  40  63  94 135 169 210 269 326 386
#     4   9  22  38  62  94 126 173 213 262 322 386
#     4  10  23  44  62  95 132 164 216 268 318 391
#     4  10  21  41  63  94 131 168 218 266 322 387
#
# _framework density 23.798572
#
# number of rings (size 3 to 8) (size 9 to 14) (size 15 to 20)
#    0.000    2.000    1.667    0.000    9.333    1.333 
#    6.000    0.000    0.000    0.000    0.000    0.000 
#    0.000    0.000    0.000    0.000    0.000    0.000 
#
# Total GULP energy -66863.264028 kJ/mol
# GULP energy per Si atom -5571.938669 kJ/mol
# Density = 2.374441 g / cm^3
# Si number density = 23.798572 Si / 1000 Ang^3
#
#
#
# Elastic Constant Matrix: (Units=GPa)
#
#
# Indices 1 2 3 4 5 6 
#
# 1 73.9714 13.8784 39.1466 -11.2625 -23.6688 0.1572
# 2 13.8784 161.9564 81.1868 -14.6944 -16.7478 18.2751
# 3 39.1466 81.1868 157.0757 -5.2693 -39.1938 23.9487
# 4 -11.2625 -14.6944 -5.2693 30.5451 2.0229 -4.8083
# 5 -23.6688 -16.7478 -39.1938 2.0229 43.7707 -1.4809
# 6 0.1572 18.2751 23.9487 -4.8083 -1.4809 35.0317
#
#
#
# Elastic Compliance Matrix: (Units=1/GPa)
#
#
# Indices 1 2 3 4 5 6 
#
# 1 0.018531 0.001310 -0.003814 0.006832 0.006895 0.003070
# 2 0.001310 0.008836 -0.004716 0.003804 -0.000339 -0.000884
# 3 -0.003814 -0.004716 0.012362 -0.002972 0.007134 -0.006080
# 4 0.006832 0.003804 -0.002972 0.037328 0.000939 0.005180
# 5 0.006895 -0.000339 0.007134 0.000939 0.032681 -0.003221
# 6 0.003070 -0.000884 -0.006080 0.005180 -0.003221 0.033724
#
#
# Mechanical properties :
#
#
# Convention : Reuss Voigt Hill
#
# Bulk Modulus (GPa) = 39.54153 73.49190 56.51672
# Shear Modulus (GPa) = 30.06066 39.12228 34.59147
#
# Velocity S-wave (km/s) = 3.55791 4.05889 3.81663
# Velocity P-wave (km/s) = 5.79046 7.27420 6.57432
#
# Compressibility (1/GPa) = 0.02528986
#
# Stress axis : x y z
#
# Youngs Moduli (GPa) = 53.96304 113.17365 80.89513
#
# Poissons Ratio (x) = -0.14831 0.30855
# Poissons Ratio (y) = -0.07072 0.38149
# Poissons Ratio (z) = 0.20582 0.53371
#
# Static dielectric constant tensor:
#      x y z
#    x 1.927660 0.135980 -0.069960 
#    y 0.135980 2.815520 -0.359540 
#    z -0.069960 -0.359540 2.195870 
# 
# From -- ./inp_files/100238.got.cif
#   From: 2010.05.17/outbox.cif.g08.bks.cpg/sg2_51_cif.got.tgz:100238.got - 2010.06.03 11:33:40.
