data_PCOD9013280
_publ_section_title
;
Structure prediction by ZEFSAII (Michael W. Deem and Ramdas Pophale) SiO2 
 PCOD9013280
Probable space group: P -1
;
_chemical_formula_sum "Si O2"
_cell_formula_units_Z 12
_cell_length_a 6.032839
_cell_length_b 4.867693
_cell_length_c 21.581454
_cell_angle_alpha 112.233443
_cell_angle_beta 63.103853
_cell_angle_gamma 100.055510
_cell_volume 523.178267
_symmetry_space_group_name_H-M "P -1"
_symmetry_group_IT_number 2
_symmetry_cell_setting 'triclinic'
loop_
_space_group_symop_operation_xyz
x,y,z
-x,-y,-z
loop_
_atom_site_type_symbol
_atom_site_label
_atom_site_fract_x
_atom_site_fract_y
_atom_site_fract_z
Si Si1 0.772918 0.219351 0.615549
Si Si2 0.746056 0.201602 0.483013
Si Si3 0.021176 0.588646 0.271874
Si Si4 0.735225 0.626980 0.902595
Si Si5 0.718752 0.175853 0.349216
Si Si6 0.193492 0.743462 0.019522
O O1 0.756259 0.368763 0.561938
O O2 0.808828 0.419821 0.688605
O O3 0.536028 0.006421 0.636493
O O4 0.016828 0.012960 0.565623
O O5 0.734704 0.343816 0.428282
O O6 0.500000 0.000000 0.500000
O O7 0.155263 0.459392 0.184384
O O8 0.777454 0.400221 0.305964
O O9 0.931841 0.923553 0.299731
O O10 0.748469 0.355611 0.925693
O O11 0.878475 0.912236 0.937783
O O12 0.445906 0.718190 0.945704
O O13 0.000000 0.500000 0.000000
#
# Coordination Sequence:
#
# PCOD9013280 Si02
#       6
#     2   2   2   2   2   2
#     4   9  19  37  59  84 116 157 196 239 295 337
#     4   8  16  36  60  83 113 154 202 245 280 336
#     4  11  23  38  57  87 122 151 188 240 291 343
#     4  10  22  38  60  90 118 147 192 237 280 347
#     4  10  22  38  57  85 118 155 199 240 284 340
#     4  10  21  41  64  86 114 152 191 232 285 342
#
# _framework density 22.936731000000002
#
# number of rings (size 3 to 8) (size 9 to 14) (size 15 to 20)
#    0.000    2.333    0.000    1.500    0.000    6.000 
#    0.000   28.333    0.000    0.000    0.000    0.000 
#    0.000    0.000    0.000    0.000    0.000    0.000 
#
# Total GULP energy -67109.153208 kJ/mol
# GULP energy per Si atom -5592.429434 kJ/mol
# Density = 2.288453 g / cm^3
# Si number density = 22.936731 Si / 1000 Ang^3
#
#
#
# Elastic Constant Matrix: (Units=GPa)
#
#
# Indices 1 2 3 4 5 6 
#
# 1 81.2924 9.6529 49.5579 1.7477 0.0813 26.0940
# 2 9.6529 109.6925 42.1649 -1.8566 0.7351 4.4740
# 3 49.5579 42.1649 192.6960 -9.9289 19.6522 8.9343
# 4 1.7477 -1.8566 -9.9289 28.6531 2.0314 0.7055
# 5 0.0813 0.7351 19.6522 2.0314 19.0211 -1.9264
# 6 26.0940 4.4740 8.9343 0.7055 -1.9264 34.8353
#
#
#
# Elastic Compliance Matrix: (Units=1/GPa)
#
#
# Indices 1 2 3 4 5 6 
#
# 1 0.019676 0.000724 -0.005188 -0.002925 0.004222 -0.013209
# 2 0.000724 0.010068 -0.002589 -0.000421 0.002223 -0.001040
# 3 -0.005188 -0.002589 0.008053 0.003495 -0.008407 0.001617
# 4 -0.002925 -0.000421 0.003495 0.036789 -0.007492 0.000189
# 5 0.004222 0.002223 -0.008407 -0.007492 0.062188 0.002299
# 6 -0.013209 -0.001040 0.001617 0.000189 0.002299 0.038443
#
#
# Mechanical properties :
#
#
# Convention : Reuss Voigt Hill
#
# Bulk Modulus (GPa) = 42.21086 65.15914 53.68500
# Shear Modulus (GPa) = 25.35222 35.32225 30.33724
#
# Velocity S-wave (km/s) = 3.32823 3.92852 3.64077
# Velocity P-wave (km/s) = 5.76304 7.00340 6.41328
#
# Compressibility (1/GPa) = 0.02369058
#
# Stress axis : x y z
#
# Youngs Moduli (GPa) = 50.82241 99.32026 124.18040
#
# Poissons Ratio (x) = -0.07186 0.64420
# Poissons Ratio (y) = -0.03677 0.32155
# Poissons Ratio (z) = 0.26365 0.25718
#
# Static dielectric constant tensor:
#      x y z
#    x 1.923670 -0.007870 0.006100 
#    y -0.007870 1.863340 0.002910 
#    z 0.006100 0.002910 1.811300 
# 
# From -- ./inp_files/8740.got.cif
#   From: 2010.05.17/outbox.cif.g08.bks.cpg/sg2_5_cif.got.tgz:8740.got - 2010.06.03 11:33:40.
