data_PCOD9013991
_publ_section_title
;
Structure prediction by ZEFSAII (Michael W. Deem and Ramdas Pophale) SiO2 
 PCOD9013991
Probable space group: P -1
;
_chemical_formula_sum "Si O2"
_cell_formula_units_Z 16
_cell_length_a 8.660113
_cell_length_b 12.180642
_cell_length_c 8.511836
_cell_angle_alpha 80.211709
_cell_angle_beta 130.299478
_cell_angle_gamma 84.216063
_cell_volume 647.748928
_symmetry_space_group_name_H-M "P -1"
_symmetry_group_IT_number 2
_symmetry_cell_setting 'triclinic'
loop_
_space_group_symop_operation_xyz
x,y,z
-x,-y,-z
loop_
_atom_site_type_symbol
_atom_site_label
_atom_site_fract_x
_atom_site_fract_y
_atom_site_fract_z
Si Si1 0.434716 0.881670 0.993900
Si Si2 0.754036 0.855515 0.739811
Si Si3 0.941010 0.187443 0.343557
Si Si4 0.880729 0.430940 0.120899
Si Si5 0.365929 0.308717 0.072163
Si Si6 0.752925 0.475266 0.667528
Si Si7 0.819308 0.261896 0.558434
Si Si8 0.683146 0.102055 0.734043
O O1 0.588012 0.773627 0.029531
O O2 0.394256 0.856249 0.153853
O O3 0.212408 0.893810 0.757115
O O4 0.500000 0.000000 0.000000
O O5 0.515685 0.881671 0.515704
O O6 0.885704 0.845550 0.669143
O O7 0.785136 0.964319 0.830340
O O8 0.777195 0.744936 0.892991
O O9 0.828802 0.322363 0.192426
O O10 0.987107 0.196672 0.554794
O O11 0.743101 0.556092 0.061473
O O12 0.128914 0.424921 0.306505
O O13 0.827085 0.431482 0.901573
O O14 0.589050 0.291893 0.313929
O O15 0.500000 0.500000 0.500000
O O16 0.838332 0.381432 0.611103
O O17 0.814482 0.179268 0.721891
#
# Coordination Sequence:
#
# PCOD9013991 Si02
#       8
#     2   2   2   2   2   2   2   2
#     4  11  23  45  68  99 136 178 227 290 349 412
#     4  10  21  41  66  93 131 179 222 282 336 411
#     4  11  26  43  65 103 140 176 236 285 340 419
#     4  11  24  43  70 104 138 185 232 286 350 413
#     4  10  21  43  70  97 140 178 228 284 349 417
#     4  11  22  42  70  99 139 186 232 288 350 413
#     4  10  23  42  64  99 139 184 226 287 348 412
#     4  10  22  41  67  94 130 180 227 274 354 406
#
# _framework density 24.700928999999999
#
# number of rings (size 3 to 8) (size 9 to 14) (size 15 to 20)
#    0.000    1.500    2.500    2.250    3.500    4.500 
#    4.500    0.000    0.000    0.000    0.000    0.000 
#    0.000    0.000    0.000    0.000    0.000    0.000 
#
# Total GULP energy -89555.819931 kJ/mol
# GULP energy per Si atom -5597.238746 kJ/mol
# Density = 2.464471 g / cm^3
# Si number density = 24.700929 Si / 1000 Ang^3
#
#
#
# Elastic Constant Matrix: (Units=GPa)
#
#
# Indices 1 2 3 4 5 6 
#
# 1 113.6843 38.6586 17.4467 15.2643 -13.8633 -1.1847
# 2 38.6586 130.7278 28.6711 26.2819 -2.1788 -11.1531
# 3 17.4467 28.6711 78.2731 20.4164 16.6310 7.1535
# 4 15.2643 26.2819 20.4164 43.0154 -6.1747 0.8689
# 5 -13.8633 -2.1788 16.6310 -6.1747 47.5973 10.0238
# 6 -1.1847 -11.1531 7.1535 0.8689 10.0238 38.2142
#
#
#
# Elastic Compliance Matrix: (Units=1/GPa)
#
#
# Indices 1 2 3 4 5 6 
#
# 1 0.010503 -0.002573 -0.001920 -0.000686 0.003741 -0.001031
# 2 -0.002573 0.010051 -0.002089 -0.004436 -0.000888 0.003579
# 3 -0.001920 -0.002089 0.017653 -0.007445 -0.007396 -0.001865
# 4 -0.000686 -0.004436 -0.007445 0.030743 0.006687 -0.002375
# 5 0.003741 -0.000888 -0.007396 0.006687 0.026759 -0.005930
# 6 -0.001031 0.003579 -0.001865 -0.002375 -0.005930 0.029139
#
#
# Mechanical properties :
#
#
# Convention : Reuss Voigt Hill
#
# Bulk Modulus (GPa) = 39.93230 54.69310 47.31270
# Shear Modulus (GPa) = 34.16230 41.62596 37.89413
#
# Velocity S-wave (km/s) = 3.72296 4.10957 3.92103
# Velocity P-wave (km/s) = 5.88914 6.68642 6.30041
#
# Compressibility (1/GPa) = 0.02504238
#
# Stress axis : x y z
#
# Youngs Moduli (GPa) = 95.20776 99.49407 56.64797
#
# Poissons Ratio (x) = 0.25595 0.10879
# Poissons Ratio (y) = 0.24493 0.11836
# Poissons Ratio (z) = 0.18284 0.20788
#
# Static dielectric constant tensor:
#      x y z
#    x 1.997560 -0.030170 0.052340 
#    y -0.030170 1.942270 -0.020540 
#    z 0.052340 -0.020540 1.977640 
# 
# From -- ./inp_files/187971.got.cif
#   From: 2010.05.17/outbox.cif.g08.bks.cpg/sg2_94_cif.got.tgz:187971.got - 2010.06.03 11:33:40.
