data_PCOD9013163
_publ_section_title
;
Structure prediction by ZEFSAII (Michael W. Deem and Ramdas Pophale) SiO2 
 PCOD9013163
Probable space group: P -1
;
_chemical_formula_sum "Si O2"
_cell_formula_units_Z 16
_cell_length_a 7.968689
_cell_length_b 19.859830
_cell_length_c 8.085393
_cell_angle_alpha 37.340672
_cell_angle_beta 117.351308
_cell_angle_gamma 124.049757
_cell_volume 642.800451
_symmetry_space_group_name_H-M "P -1"
_symmetry_group_IT_number 2
_symmetry_cell_setting 'triclinic'
loop_
_space_group_symop_operation_xyz
x,y,z
-x,-y,-z
loop_
_atom_site_type_symbol
_atom_site_label
_atom_site_fract_x
_atom_site_fract_y
_atom_site_fract_z
Si Si1 0.699951 0.436516 0.979354
Si Si2 0.986633 0.386258 0.449466
Si Si3 0.224887 0.367845 0.894921
Si Si4 0.198144 0.116224 0.410529
Si Si5 0.713640 0.883104 0.193294
Si Si6 0.878293 0.270955 0.175991
Si Si7 0.029090 0.842796 0.232960
Si Si8 0.395222 0.942423 0.736357
O O1 0.469218 0.429590 0.898744
O O2 0.743997 0.343705 0.048643
O O3 0.791157 0.411107 0.244543
O O4 0.851404 0.561425 0.729323
O O5 0.921358 0.244417 0.696920
O O6 0.118336 0.425893 0.597947
O O7 0.203590 0.233445 0.089513
O O8 0.088396 0.354831 0.023373
O O9 0.257450 0.170365 0.515929
O O10 0.361921 0.056559 0.572453
O O11 0.000000 0.000000 0.500000
O O12 0.796948 0.826701 0.190859
O O13 0.511406 0.894971 0.016478
O O14 0.860997 0.019816 0.022252
O O15 0.782608 0.175960 0.173498
O O16 0.901193 0.189932 0.494790
O O17 0.500000 0.000000 0.500000
#
# Coordination Sequence:
#
# PCOD9013163 Si02
#       8
#     2   2   2   2   2   2   2   2
#     4  10  25  49  70  96 137 175 228 283 349 394
#     4  10  24  45  72  99 130 178 227 285 336 413
#     4  12  24  43  71  98 136 177 222 283 344 393
#     4  12  24  41  60  94 136 171 220 271 330 405
#     4  11  23  38  65  93 134 178 216 272 337 403
#     4  11  23  44  65  99 135 172 226 282 325 413
#     4  10  21  41  63  93 132 170 222 269 336 398
#     4  12  24  39  62  96 133 178 225 272 334 403
#
# _framework density 24.891086000000001
#
# number of rings (size 3 to 8) (size 9 to 14) (size 15 to 20)
#    0.000    1.000    3.750    2.250    7.000    1.500 
#    0.000    5.625    0.000    0.000    0.000    0.000 
#    0.000    0.000    0.000    0.000    0.000    0.000 
#
# Total GULP energy -89284.526822 kJ/mol
# GULP energy per Si atom -5580.282926 kJ/mol
# Density = 2.483443 g / cm^3
# Si number density = 24.891086 Si / 1000 Ang^3
#
#
#
# Elastic Constant Matrix: (Units=GPa)
#
#
# Indices 1 2 3 4 5 6 
#
# 1 86.7895 20.1468 9.2265 18.5430 4.9101 5.5901
# 2 20.1468 66.1551 19.5400 12.7075 12.5581 5.6882
# 3 9.2265 19.5400 107.6940 38.8423 7.5120 -1.1739
# 4 18.5430 12.7075 38.8423 57.4605 -5.7861 12.9612
# 5 4.9101 12.5581 7.5120 -5.7861 26.0606 -3.4870
# 6 5.5901 5.6882 -1.1739 12.9612 -3.4870 31.5883
#
#
#
# Elastic Compliance Matrix: (Units=1/GPa)
#
#
# Indices 1 2 3 4 5 6 
#
# 1 0.013238 -0.003034 0.001278 -0.004691 -0.002455 -0.000095
# 2 -0.003034 0.018952 -0.001785 -0.002226 -0.008944 -0.003016
# 3 0.001278 -0.001785 0.013851 -0.010923 -0.005194 0.004519
# 4 -0.004691 -0.002226 -0.010923 0.030191 0.010415 -0.010413
# 5 -0.002455 -0.008944 -0.005194 0.010415 0.047329 0.002803
# 6 -0.000095 -0.003016 0.004519 -0.010413 0.002803 0.036967
#
#
# Mechanical properties :
#
#
# Convention : Reuss Voigt Hill
#
# Bulk Modulus (GPa) = 25.66705 39.82947 32.74826
# Shear Modulus (GPa) = 27.68622 37.13691 32.41157
#
# Velocity S-wave (km/s) = 3.33873 3.86680 3.61243
# Velocity P-wave (km/s) = 5.01965 5.99770 5.53034
#
# Compressibility (1/GPa) = 0.03896046
#
# Stress axis : x y z
#
# Youngs Moduli (GPa) = 75.54168 52.76524 72.19619
#
# Poissons Ratio (x) = 0.16008 -0.09230
# Poissons Ratio (y) = 0.22917 0.12886
# Poissons Ratio (z) = -0.09658 0.09418
#
# Static dielectric constant tensor:
#      x y z
#    x 2.223410 -0.125940 -0.071920 
#    y -0.125940 2.159250 0.064690 
#    z -0.071920 0.064690 1.987710 
# 
# From -- ./inp_files/178261.got.cif
#   From: 2010.05.17/outbox.cif.g08.bks.cpg/sg2_90_cif.got.tgz:178261.got - 2010.06.03 11:33:40.
