data_PCOD9013074
_publ_section_title
;
Structure prediction by ZEFSAII (Michael W. Deem and Ramdas Pophale) SiO2 
 PCOD9013074
Probable space group: P -1
;
_chemical_formula_sum "Si O2"
_cell_formula_units_Z 14
_cell_length_a 7.753161
_cell_length_b 16.231654
_cell_length_c 7.719232
_cell_angle_alpha 100.584640
_cell_angle_beta 57.012313
_cell_angle_gamma 61.723299
_cell_volume 575.242391
_symmetry_space_group_name_H-M "P -1"
_symmetry_group_IT_number 2
_symmetry_cell_setting 'triclinic'
loop_
_space_group_symop_operation_xyz
x,y,z
-x,-y,-z
loop_
_atom_site_type_symbol
_atom_site_label
_atom_site_fract_x
_atom_site_fract_y
_atom_site_fract_z
Si Si1 0.256357 0.142063 0.490308
Si Si2 0.850359 0.651703 0.288844
Si Si3 0.235059 0.361847 0.289487
Si Si4 0.757471 0.210379 0.464492
Si Si5 0.289699 0.958598 0.501480
Si Si6 0.536893 0.583943 0.074983
Si Si7 0.225963 0.181565 0.114461
O O1 0.074463 0.271725 0.713395
O O2 0.548760 0.071134 0.414709
O O3 0.309397 0.131907 0.249452
O O4 0.123703 0.090815 0.598059
O O5 0.693934 0.682117 0.571358
O O6 0.583446 0.711035 0.334766
O O7 0.138004 0.516012 0.063390
O O8 0.461534 0.346955 0.048184
O O9 0.138060 0.304797 0.224578
O O10 0.000000 0.500000 0.500000
O O11 0.861737 0.088906 0.421272
O O12 0.983966 0.182412 0.192114
O O13 0.717819 0.310109 0.626848
O O14 0.521889 0.890595 0.191923
O O15 0.500000 0.500000 0.000000
#
# Coordination Sequence:
#
# PCOD9013074 Si02
#       7
#     2   2   2   2   2   2   2
#     4   9  20  40  64  86 123 162 199 256 301 350
#     4   9  20  38  57  84 121 155 199 248 295 360
#     4   9  18  36  57  80 117 155 192 246 298 351
#     4  11  22  38  59  91 118 158 205 243 298 369
#     4  10  21  41  63  88 123 160 203 255 300 349
#     4  11  20  37  60  85 119 156 197 248 305 357
#     4  11  21  40  61  90 124 159 204 245 304 362
#
# _framework density 24.337562999999999
#
# number of rings (size 3 to 8) (size 9 to 14) (size 15 to 20)
#    0.000    2.000    1.429    3.429    0.000    0.571 
#    7.714   10.000    0.000    0.000    0.000    0.000 
#    0.000    0.000    0.000    0.000    0.000    0.000 
#
# Total GULP energy -77973.152481 kJ/mol
# GULP energy per Si atom -5569.510892 kJ/mol
# Density = 2.428217 g / cm^3
# Si number density = 24.337563 Si / 1000 Ang^3
#
#
#
# Elastic Constant Matrix: (Units=GPa)
#
#
# Indices 1 2 3 4 5 6 
#
# 1 103.2305 32.3424 7.7299 -1.3343 -3.5562 17.8744
# 2 32.3424 166.4178 36.1884 6.3387 -6.4738 47.5517
# 3 7.7299 36.1884 71.8928 3.4849 -7.5207 9.9653
# 4 -1.3343 6.3387 3.4849 32.3204 13.0168 0.4598
# 5 -3.5562 -6.4738 -7.5207 13.0168 24.2600 -5.4899
# 6 17.8744 47.5517 9.9653 0.4598 -5.4899 49.8995
#
#
#
# Elastic Compliance Matrix: (Units=1/GPa)
#
#
# Indices 1 2 3 4 5 6 
#
# 1 0.010558 -0.001336 -0.000127 0.000647 0.000248 -0.002463
# 2 -0.001336 0.009241 -0.003344 -0.001533 0.000334 -0.007609
# 3 -0.000127 -0.003344 0.016343 -0.003646 0.006268 0.000692
# 4 0.000647 -0.001533 -0.003646 0.041271 -0.023825 -0.001044
# 5 0.000248 0.000334 0.006268 -0.023825 0.057170 0.004850
# 6 -0.002463 -0.007609 0.000692 -0.001044 0.004850 0.028579
#
#
# Mechanical properties :
#
#
# Convention : Reuss Voigt Hill
#
# Bulk Modulus (GPa) = 37.69419 54.89583 46.29501
# Shear Modulus (GPa) = 27.53009 38.98134 33.25572
#
# Velocity S-wave (km/s) = 3.36695 4.00646 3.70054
# Velocity P-wave (km/s) = 5.53505 6.63380 6.10918
#
# Compressibility (1/GPa) = 0.02652929
#
# Stress axis : x y z
#
# Youngs Moduli (GPa) = 94.71190 108.20788 61.18770
#
# Poissons Ratio (x) = 0.14453 0.00777
# Poissons Ratio (y) = 0.12651 0.20462
# Poissons Ratio (z) = 0.01203 0.36186
#
# Static dielectric constant tensor:
#      x y z
#    x 2.157890 -0.030680 0.081290 
#    y -0.030680 2.001760 -0.058810 
#    z 0.081290 -0.058810 2.084330 
# 
# From -- ./inp_files/179547.got.cif
#   From: 2010.05.17/outbox.cif.g08.bks.cpg/sg2_90_cif.got.tgz:179547.got - 2010.06.03 11:33:40.
