data_PCOD9013258
_publ_section_title
;
Structure prediction by ZEFSAII (Michael W. Deem and Ramdas Pophale) SiO2 
 PCOD9013258
Probable space group: P -1
;
_chemical_formula_sum "Si O2"
_cell_formula_units_Z 14
_cell_length_a 9.170780
_cell_length_b 9.907347
_cell_length_c 6.667609
_cell_angle_alpha 96.546687
_cell_angle_beta 88.745112
_cell_angle_gamma 107.187007
_cell_volume 574.935990
_symmetry_space_group_name_H-M "P -1"
_symmetry_group_IT_number 2
_symmetry_cell_setting 'triclinic'
loop_
_space_group_symop_operation_xyz
x,y,z
-x,-y,-z
loop_
_atom_site_type_symbol
_atom_site_label
_atom_site_fract_x
_atom_site_fract_y
_atom_site_fract_z
Si Si1 0.040327 0.189700 0.580830
Si Si2 0.656948 0.328666 0.963473
Si Si3 0.557557 0.370373 0.396133
Si Si4 0.133667 0.588995 0.368002
Si Si5 0.366013 0.175157 0.663322
Si Si6 0.328402 0.959872 0.932650
Si Si7 0.109034 0.068965 0.192089
O O1 0.207449 0.215879 0.680649
O O2 0.073234 0.195810 0.338552
O O3 0.945634 0.292520 0.666672
O O4 0.927820 0.043288 0.645188
O O5 0.587986 0.388205 0.163469
O O6 0.726717 0.205680 0.032328
O O7 0.787812 0.439201 0.847729
O O8 0.509792 0.257709 0.812772
O O9 0.500000 0.500000 0.500000
O O10 0.718020 0.370853 0.487853
O O11 0.435020 0.224469 0.450206
O O12 0.000000 0.500000 0.500000
O O13 0.321101 0.011131 0.712189
O O14 0.500000 0.000000 0.000000
O O15 0.263049 0.066683 0.082848
O O16 0.000000 0.000000 0.000000
#
# Coordination Sequence:
#
# PCOD9013258 Si02
#       7
#     2   2   2   2   2   2   2
#     4  11  24  40  65  97 137 174 218 265 330 396
#     4  10  24  45  70  94 136 171 220 281 326 390
#     4  11  26  47  68  96 130 174 228 276 328 390
#     4  11  25  46  67  99 128 173 226 276 327 395
#     4  10  23  41  67 102 129 175 217 266 330 394
#     4  10  21  41  64 100 134 171 215 260 336 386
#     4  11  23  40  62  97 142 177 208 265 328 400
#
# _framework density 24.350539000000001
#
# number of rings (size 3 to 8) (size 9 to 14) (size 15 to 20)
#    0.000    1.429    2.857    0.857    6.000    3.429 
#    2.571    0.000    0.000    0.000    0.000    0.000 
#    0.000    0.000    0.000    0.000    0.000    0.000 
#
# Total GULP energy -77985.232781 kJ/mol
# GULP energy per Si atom -5570.373770 kJ/mol
# Density = 2.429512 g / cm^3
# Si number density = 24.350539 Si / 1000 Ang^3
#
#
#
# Elastic Constant Matrix: (Units=GPa)
#
#
# Indices 1 2 3 4 5 6 
#
# 1 151.9456 7.7858 36.5606 1.9031 -9.3373 -5.0173
# 2 7.7858 32.9620 28.5708 -18.7233 -13.3399 5.1605
# 3 36.5606 28.5708 148.3599 -0.3076 -30.4033 0.4177
# 4 1.9031 -18.7233 -0.3076 28.8185 1.9476 -14.5816
# 5 -9.3373 -13.3399 -30.4033 1.9476 56.3440 -13.9382
# 6 -5.0173 5.1605 0.4177 -14.5816 -13.9382 28.7525
#
#
#
# Elastic Compliance Matrix: (Units=1/GPa)
#
#
# Indices 1 2 3 4 5 6 
#
# 1 0.007066 -0.000138 -0.001572 0.000273 0.000718 0.001767
# 2 -0.000138 0.079333 -0.011762 0.063580 0.016710 0.026253
# 3 -0.001572 -0.011762 0.009827 -0.008324 0.002181 -0.001470
# 4 0.000273 0.063580 -0.008324 0.099018 0.019117 0.048241
# 5 0.000718 0.016710 0.002181 0.019117 0.027292 0.020020
# 6 0.001767 0.026253 -0.001470 0.048241 0.020020 0.064567
#
#
# Mechanical properties :
#
#
# Convention : Reuss Voigt Hill
#
# Bulk Modulus (GPa) = 14.43364 53.23354 33.83359
# Shear Modulus (GPa) = 14.83071 40.13969 27.48520
#
# Velocity S-wave (km/s) = 2.47057 4.06447 3.36330
# Velocity P-wave (km/s) = 3.75215 6.62837 5.38581
#
# Compressibility (1/GPa) = 0.06928259
#
# Stress axis : x y z
#
# Youngs Moduli (GPa) = 141.53015 12.60516 101.76380
#
# Poissons Ratio (x) = 0.00173 0.15998
# Poissons Ratio (y) = 0.01948 1.19690
# Poissons Ratio (z) = 0.22249 0.14826
#
# Static dielectric constant tensor:
#      x y z
#    x 3.592890 1.905080 0.657490 
#    y 1.905080 4.241700 0.786400 
#    z 0.657490 0.786400 2.315310 
# 
# From -- ./inp_files/27721.got.cif
#   From: 2010.05.17/outbox.cif.g08.bks.cpg/sg2_14_cif.got.tgz:27721.got - 2010.06.03 11:33:40.
