data_PCOD9013890
_publ_section_title
;
Structure prediction by ZEFSAII (Michael W. Deem and Ramdas Pophale) SiO2 
 PCOD9013890
Probable space group: P -1
;
_chemical_formula_sum "Si O2"
_cell_formula_units_Z 12
_cell_length_a 8.813718
_cell_length_b 9.528392
_cell_length_c 8.612660
_cell_angle_alpha 77.443341
_cell_angle_beta 64.669563
_cell_angle_gamma 87.019205
_cell_volume 637.428277
_symmetry_space_group_name_H-M "P -1"
_symmetry_group_IT_number 2
_symmetry_cell_setting 'triclinic'
loop_
_space_group_symop_operation_xyz
x,y,z
-x,-y,-z
loop_
_atom_site_type_symbol
_atom_site_label
_atom_site_fract_x
_atom_site_fract_y
_atom_site_fract_z
Si Si1 0.275045 0.244565 0.179650
Si Si2 0.943301 0.070579 0.247617
Si Si3 0.617946 0.007161 0.595893
Si Si4 0.846960 0.463708 0.690804
Si Si5 0.575326 0.227645 0.827556
Si Si6 0.127876 0.815590 0.082963
O O1 0.222927 0.393821 0.239523
O O2 0.108798 0.156917 0.214425
O O3 0.362412 0.145272 0.292364
O O4 0.404873 0.266742 0.975711
O O5 0.803374 0.058773 0.443601
O O6 0.875357 0.146651 0.104771
O O7 0.996896 0.913419 0.205381
O O8 0.552598 0.121408 0.719662
O O9 0.500000 0.000000 0.500000
O O10 0.693856 0.368658 0.701265
O O11 0.906317 0.352325 0.823431
O O12 0.000000 0.500000 0.500000
O O13 0.691466 0.149922 0.923535
#
# Coordination Sequence:
#
# PCOD9013890 Si02
#       6
#     2   2   2   2   2   2
#     4  12  22  39  68  89 125 164 200 250 308 360
#     4  11  22  39  64  94 118 162 207 247 303 363
#     4  12  25  39  64  92 123 159 211 254 300 355
#     4  10  21  41  66  88 124 162 203 246 307 363
#     4  10  23  42  58  93 122 161 200 256 300 357
#     4   9  22  39  65  86 129 153 208 247 307 356
#
# _framework density 18.825647
#
# number of rings (size 3 to 8) (size 9 to 14) (size 15 to 20)
#    1.000    0.333    1.667    4.500    4.667    0.667 
#    0.000    0.833    0.000    0.000    0.000    0.000 
#    0.000    0.000    0.000    0.000    0.000    0.000 
#
# Total GULP energy -66993.761209 kJ/mol
# GULP energy per Si atom -5582.813434 kJ/mol
# Density = 1.878280 g / cm^3
# Si number density = 18.825647 Si / 1000 Ang^3
#
#
#
# Elastic Constant Matrix: (Units=GPa)
#
#
# Indices 1 2 3 4 5 6 
#
# 1 80.8172 38.0891 41.7915 5.9288 1.6909 9.9631
# 2 38.0891 169.2163 78.8973 14.2239 2.6227 -11.0697
# 3 41.7915 78.8973 123.7654 12.9135 -22.7183 -10.3139
# 4 5.9288 14.2239 12.9135 27.1192 2.1495 -8.6007
# 5 1.6909 2.6227 -22.7183 2.1495 42.0650 4.0806
# 6 9.9631 -11.0697 -10.3139 -8.6007 4.0806 16.3713
#
#
#
# Elastic Compliance Matrix: (Units=1/GPa)
#
#
# Indices 1 2 3 4 5 6 
#
# 1 0.019968 -0.002091 -0.006839 -0.006432 -0.002024 -0.020749
# 2 -0.002091 0.009378 -0.005599 0.000167 -0.004035 0.005180
# 3 -0.006839 -0.005599 0.016385 -0.001648 0.008816 0.007636
# 4 -0.006432 0.000167 -0.001648 0.049063 -0.006086 0.030282
# 5 -0.002024 -0.004035 0.008816 -0.006086 0.029816 -0.006571
# 6 -0.020749 0.005180 0.007636 0.030282 -0.006571 0.099569
#
#
# Mechanical properties :
#
#
# Convention : Reuss Voigt Hill
#
# Bulk Modulus (GPa) = 59.97754 76.81718 68.39736
# Shear Modulus (GPa) = 19.32040 31.44584 25.38312
#
# Velocity S-wave (km/s) = 3.20704 4.09145 3.67594
# Velocity P-wave (km/s) = 6.75589 7.95067 7.37751
#
# Compressibility (1/GPa) = 0.01667291
#
# Stress axis : x y z
#
# Youngs Moduli (GPa) = 50.08070 106.63205 61.03293
#
# Poissons Ratio (x) = 0.22299 0.41740
# Poissons Ratio (y) = 0.10473 0.34170
# Poissons Ratio (z) = 0.34250 0.59699
#
# Static dielectric constant tensor:
#      x y z
#    x 1.658340 0.000520 -0.009400 
#    y 0.000520 1.632560 -0.019770 
#    z -0.009400 -0.019770 1.648550 
# 
# From -- ./inp_files/144794.got.cif
#   From: 2010.05.17/outbox.cif.g08.bks.cpg/sg2_73_cif.got.tgz:144794.got - 2010.06.03 11:33:40.
