data_PCOD9013138
_publ_section_title
;
Structure prediction by ZEFSAII (Michael W. Deem and Ramdas Pophale) SiO2 
 PCOD9013138
Probable space group: P -1
;
_chemical_formula_sum "Si O2"
_cell_formula_units_Z 16
_cell_length_a 7.494801
_cell_length_b 9.668799
_cell_length_c 18.399962
_cell_angle_alpha 56.252076
_cell_angle_beta 143.982363
_cell_angle_gamma 127.807122
_cell_volume 614.334289
_symmetry_space_group_name_H-M "P -1"
_symmetry_group_IT_number 2
_symmetry_cell_setting 'triclinic'
loop_
_space_group_symop_operation_xyz
x,y,z
-x,-y,-z
loop_
_atom_site_type_symbol
_atom_site_label
_atom_site_fract_x
_atom_site_fract_y
_atom_site_fract_z
Si Si1 0.135975 0.119700 0.098115
Si Si2 0.575581 0.760637 0.031304
Si Si3 0.059192 0.600430 0.281598
Si Si4 0.861596 0.259424 0.235590
Si Si5 0.391963 0.969290 0.345894
Si Si6 0.226374 0.426012 0.644184
Si Si7 0.227004 0.627577 0.094542
Si Si8 0.920510 0.075402 0.588597
O O1 0.509024 0.174635 0.182322
O O2 0.191265 0.084980 0.212491
O O3 0.844629 0.938254 0.039278
O O4 0.990660 0.264826 0.978567
O O5 0.492204 0.768207 0.087626
O O6 0.759175 0.619754 0.131755
O O7 0.261841 0.710472 0.893473
O O8 0.325260 0.797060 0.322297
O O9 0.095992 0.428294 0.307306
O O10 0.924416 0.564915 0.329008
O O11 0.017055 0.106828 0.331400
O O12 0.270890 0.904677 0.406520
O O13 0.754749 0.081348 0.454699
O O14 0.602489 0.484878 0.770240
O O15 0.000000 0.500000 0.500000
O O16 0.221288 0.247689 0.651825
O O17 0.000000 0.500000 0.000000
#
# Coordination Sequence:
#
# PCOD9013138 Si02
#       8
#     2   2   2   2   2   2   2   2
#     4  11  22  38  66  93 136 171 225 276 337 392
#     4  10  21  41  63  91 135 175 215 272 333 403
#     4   9  21  40  62  92 130 170 213 275 334 389
#     4  12  23  38  66 101 135 175 217 281 343 397
#     4   9  21  43  65  89 128 183 225 276 324 408
#     4  10  22  42  65  94 132 174 218 276 324 398
#     4  11  23  40  68 103 128 174 230 274 334 399
#     4  10  22  40  68  91 130 176 232 263 344 401
#
# _framework density 26.044450000000001
#
# number of rings (size 3 to 8) (size 9 to 14) (size 15 to 20)
#    0.000    1.750    0.000    4.875    3.500    1.000 
#    2.250    1.250    0.000    0.000    0.000    0.000 
#    0.000    0.000    0.000    0.000    0.000    0.000 
#
# Total GULP energy -89200.154566 kJ/mol
# GULP energy per Si atom -5575.009660 kJ/mol
# Density = 2.598517 g / cm^3
# Si number density = 26.044450 Si / 1000 Ang^3
#
#
#
# Elastic Constant Matrix: (Units=GPa)
#
#
# Indices 1 2 3 4 5 6 
#
# 1 83.0249 20.0650 7.7071 5.7565 -8.7634 -1.1437
# 2 20.0650 118.0331 38.3517 3.8728 -3.9163 -34.4282
# 3 7.7071 38.3517 155.0186 8.2283 -36.5460 -16.3153
# 4 5.7565 3.8728 8.2283 44.1013 1.1080 6.0896
# 5 -8.7634 -3.9163 -36.5460 1.1080 23.8923 2.0394
# 6 -1.1437 -34.4282 -16.3153 6.0896 2.0394 34.9360
#
#
#
# Elastic Compliance Matrix: (Units=1/GPa)
#
#
# Indices 1 2 3 4 5 6 
#
# 1 0.013504 -0.003126 0.001707 -0.001718 0.007299 -0.001967
# 2 -0.003126 0.013443 -0.002725 -0.001879 -0.004085 0.012439
# 3 0.001707 -0.002725 0.011674 -0.002929 0.017977 0.002284
# 4 -0.001718 -0.001879 -0.002929 0.024761 -0.005948 -0.007245
# 5 0.007299 -0.004085 0.017977 -0.005948 0.071510 0.001471
# 6 -0.001967 0.012439 0.002284 -0.007245 0.001471 0.043061
#
#
# Mechanical properties :
#
#
# Convention : Reuss Voigt Hill
#
# Bulk Modulus (GPa) = 32.96575 54.25824 43.61200
# Shear Modulus (GPa) = 25.46456 39.91608 32.69032
#
# Velocity S-wave (km/s) = 3.13027 3.91911 3.54669
# Velocity P-wave (km/s) = 5.07442 6.43097 5.79254
#
# Compressibility (1/GPa) = 0.03033451
#
# Stress axis : x y z
#
# Youngs Moduli (GPa) = 74.05235 74.38712 85.66050
#
# Poissons Ratio (x) = 0.23250 -0.14621
# Poissons Ratio (y) = 0.23145 0.23339
# Poissons Ratio (z) = -0.12639 0.20268
#
# Static dielectric constant tensor:
#      x y z
#    x 2.484420 -0.288490 0.018560 
#    y -0.288490 2.949960 0.123620 
#    z 0.018560 0.123620 2.120730 
# 
# From -- ./inp_files/587947.got.cif
#   From: 2010.05.17/outbox.cif.g08.bks.cpg/sg2_294_cif.got.tgz:587947.got - 2010.06.03 11:33:40.
