data_PCOD9013181
_publ_section_title
;
Structure prediction by ZEFSAII (Michael W. Deem and Ramdas Pophale) SiO2 
 PCOD9013181
Probable space group: P -1
;
_chemical_formula_sum "Si O2"
_cell_formula_units_Z 14
_cell_length_a 11.224128
_cell_length_b 10.200428
_cell_length_c 12.725164
_cell_angle_alpha 141.137440
_cell_angle_beta 129.622663
_cell_angle_gamma 75.119796
_cell_volume 611.370904
_symmetry_space_group_name_H-M "P -1"
_symmetry_group_IT_number 2
_symmetry_cell_setting 'triclinic'
loop_
_space_group_symop_operation_xyz
x,y,z
-x,-y,-z
loop_
_atom_site_type_symbol
_atom_site_label
_atom_site_fract_x
_atom_site_fract_y
_atom_site_fract_z
Si Si1 0.430572 0.632930 0.467424
Si Si2 0.558796 0.796514 0.412244
Si Si3 0.920790 0.407435 0.724069
Si Si4 0.235879 0.954404 0.783524
Si Si5 0.098549 0.999267 0.393526
Si Si6 0.728923 0.494153 0.093341
Si Si7 0.408004 0.851119 0.007425
O O1 0.500000 0.500000 0.500000
O O2 0.504166 0.668188 0.413380
O O3 0.215700 0.501130 0.268322
O O4 0.504052 0.903828 0.721830
O O5 0.765461 0.911093 0.570885
O O6 0.500000 0.000000 0.500000
O O7 0.445812 0.612528 0.141451
O O8 0.850226 0.263000 0.484373
O O9 0.130687 0.567690 0.923153
O O10 0.900510 0.223441 0.689789
O O11 0.097326 0.049451 0.773210
O O12 0.430018 0.139728 0.962251
O O13 0.272222 0.863556 0.856755
O O14 0.178762 0.219743 0.660659
O O15 0.684530 0.369496 0.103713
#
# Coordination Sequence:
#
# PCOD9013181 Si02
#       7
#     2   2   2   2   2   2   2
#     4  11  25  43  62  90 132 176 210 260 324 384
#     4  12  23  44  65  90 136 170 209 267 317 377
#     4  10  22  42  62  95 131 159 219 273 308 382
#     4   9  20  38  65  89 128 161 206 271 319 362
#     4  11  23  40  67  98 125 165 221 262 318 382
#     4  11  23  39  71  94 122 171 215 264 322 375
#     4  10  21  41  63  94 130 166 217 263 315 380
#
# _framework density 22.899355
#
# number of rings (size 3 to 8) (size 9 to 14) (size 15 to 20)
#    0.000    1.429    2.857    3.000    0.000   10.857 
#    2.571    1.429    0.000    0.000    0.000    0.000 
#    0.000    0.000    0.000    0.000    0.000    0.000 
#
# Total GULP energy -78425.294192 kJ/mol
# GULP energy per Si atom -5601.806728 kJ/mol
# Density = 2.284724 g / cm^3
# Si number density = 22.899355 Si / 1000 Ang^3
#
#
#
# Elastic Constant Matrix: (Units=GPa)
#
#
# Indices 1 2 3 4 5 6 
#
# 1 152.6650 71.2857 22.1955 -18.7552 24.7182 0.0933
# 2 71.2857 152.1857 27.1944 -23.5456 15.5396 10.7768
# 3 22.1955 27.1944 48.8015 -8.0869 -1.6296 -10.6481
# 4 -18.7552 -23.5456 -8.0869 34.1932 -5.4685 -3.2053
# 5 24.7182 15.5396 -1.6296 -5.4685 38.9542 -5.5626
# 6 0.0933 10.7768 -10.6481 -3.2053 -5.5626 45.7832
#
#
#
# Elastic Compliance Matrix: (Units=1/GPa)
#
#
# Indices 1 2 3 4 5 6 
#
# 1 0.009332 -0.003213 -0.002401 0.001585 -0.004555 -0.000264
# 2 -0.003213 0.009791 -0.004228 0.003344 -0.002045 -0.003296
# 3 -0.002401 -0.004228 0.026549 0.003779 0.006018 0.008171
# 4 0.001585 0.003344 0.003779 0.034058 0.003005 0.002838
# 5 -0.004555 -0.002045 0.006018 0.003005 0.030887 0.005853
# 6 -0.000264 -0.003296 0.008171 0.002838 0.005853 0.025429
#
#
# Mechanical properties :
#
#
# Convention : Reuss Voigt Hill
#
# Bulk Modulus (GPa) = 38.47875 66.11149 52.29512
# Shear Modulus (GPa) = 30.41504 39.31792 34.86648
#
# Velocity S-wave (km/s) = 3.64841 4.14815 3.90628
# Velocity P-wave (km/s) = 5.88113 7.20250 6.57510
#
# Compressibility (1/GPa) = 0.02598837
#
# Stress axis : x y z
#
# Youngs Moduli (GPa) = 107.15590 102.13364 37.66620
#
# Poissons Ratio (x) = 0.32818 0.09043
# Poissons Ratio (y) = 0.34432 0.15925
# Poissons Ratio (z) = 0.25725 0.43181
#
# Static dielectric constant tensor:
#      x y z
#    x 1.896460 -0.026800 -0.020660 
#    y -0.026800 1.784770 0.031930 
#    z -0.020660 0.031930 1.885700 
# 
# From -- ./inp_files/331837.got.cif
#   From: 2010.05.17/outbox.cif.g08.bks.cpg/sg2_166_cif.got.tgz:331837.got - 2010.06.03 11:33:40.
