data_PCOD9013053
_publ_section_title
;
Structure prediction by ZEFSAII (Michael W. Deem and Ramdas Pophale) SiO2 
 PCOD9013053
Probable space group: P -1
;
_chemical_formula_sum "Si O2"
_cell_formula_units_Z 12
_cell_length_a 7.061501
_cell_length_b 13.573076
_cell_length_c 10.189426
_cell_angle_alpha 43.556434
_cell_angle_beta 65.528804
_cell_angle_gamma 39.498479
_cell_volume 403.946866
_symmetry_space_group_name_H-M "P -1"
_symmetry_group_IT_number 2
_symmetry_cell_setting 'triclinic'
loop_
_space_group_symop_operation_xyz
x,y,z
-x,-y,-z
loop_
_atom_site_type_symbol
_atom_site_label
_atom_site_fract_x
_atom_site_fract_y
_atom_site_fract_z
Si Si1 0.681740 0.195467 0.032819
Si Si2 0.046919 0.686336 0.812017
Si Si3 0.079279 0.252718 0.923855
Si Si4 0.453068 0.313682 0.687966
Si Si5 0.181746 0.195451 0.532840
Si Si6 0.579291 0.252702 0.423863
O O1 0.749992 0.000010 0.249990
O O2 0.366662 0.424073 0.970424
O O3 0.981826 0.141732 0.029608
O O4 0.611550 0.249480 0.845801
O O5 0.164809 0.790559 0.688870
O O6 0.888450 0.750536 0.654176
O O7 0.867605 0.743474 0.941650
O O8 0.749995 0.500009 0.749997
O O9 0.335180 0.209456 0.811123
O O10 0.632395 0.256525 0.558346
O O11 0.133329 0.575944 0.529553
O O12 0.481834 0.141717 0.529624
#
# Coordination Sequence:
#
# PCOD9013053 Si02
#       6
#     2   2   2   2   2   2
#     4  10  22  39  63  91 118 155 201 244 291 350
#     4  10  23  42  61  86 122 158 194 242 297 350
#     4  10  21  41  63  85 121 160 193 241 299 349
#     4  10  23  42  61  86 122 158 194 242 297 350
#     4  10  22  39  63  91 118 155 201 244 291 350
#     4  10  21  41  63  85 121 160 193 241 299 349
#
# _framework density 29.706876000000001
#
# number of rings (size 3 to 8) (size 9 to 14) (size 15 to 20)
#    0.000    2.000    0.000    4.000    0.000   17.333 
#    0.000   23.333    0.000    0.000    0.000    0.000 
#    0.000    0.000    0.000    0.000    0.000    0.000 
#
# Total GULP energy -67512.631678 kJ/mol
# GULP energy per Si atom -5626.052640 kJ/mol
# Density = 2.963926 g / cm^3
# Si number density = 29.706876 Si / 1000 Ang^3
#
#
#
# Elastic Constant Matrix: (Units=GPa)
#
#
# Indices 1 2 3 4 5 6 
#
# 1 185.5647 24.8429 65.9211 11.3664 -4.3678 12.7468
# 2 24.8429 127.5716 43.8285 8.3363 -8.6343 3.7880
# 3 65.9211 43.8285 194.9157 -15.8472 -2.4481 15.5023
# 4 11.3664 8.3363 -15.8472 80.0764 13.5138 -12.0832
# 5 -4.3678 -8.6343 -2.4481 13.5138 73.2003 -4.5207
# 6 12.7468 3.7880 15.5023 -12.0832 -4.5207 43.7796
#
#
#
# Elastic Compliance Matrix: (Units=1/GPa)
#
#
# Indices 1 2 3 4 5 6 
#
# 1 0.006387 -0.000347 -0.002087 -0.001586 0.000472 -0.001480
# 2 -0.000347 0.008759 -0.001937 -0.001488 0.001207 -0.000257
# 3 -0.002087 -0.001937 0.006492 0.001703 -0.000519 -0.001107
# 4 -0.001586 -0.001488 0.001703 0.014194 -0.002609 0.003636
# 5 0.000472 0.001207 -0.000519 -0.002609 0.014339 0.000702
# 6 -0.001480 -0.000257 -0.001107 0.003636 0.000702 0.024763
#
#
# Mechanical properties :
#
#
# Convention : Reuss Voigt Hill
#
# Bulk Modulus (GPa) = 77.55820 86.35967 81.95894
# Shear Modulus (GPa) = 56.83405 64.30854 60.57130
#
# Velocity S-wave (km/s) = 4.37872 4.65776 4.52039
# Velocity P-wave (km/s) = 7.19227 7.61971 7.40907
#
# Compressibility (1/GPa) = 0.01289354
#
# Stress axis : x y z
#
# Youngs Moduli (GPa) = 156.57107 114.17472 154.03461
#
# Poissons Ratio (x) = 0.03963 0.32153
# Poissons Ratio (y) = 0.05434 0.29844
# Poissons Ratio (z) = 0.32683 0.22121
#
# Static dielectric constant tensor:
#      x y z
#    x 2.309490 0.005820 -0.004710 
#    y 0.005820 2.315840 -0.146980 
#    z -0.004710 -0.146980 2.217120 
# 
# From -- ./inp_files/136336.got.cif
#   From: 2010.05.17/outbox.cif.g08.bks.cpg/sg2_69_cif.got.tgz:136336.got - 2010.06.03 11:33:40.
