data_PCOD9013251
_publ_section_title
;
Structure prediction by ZEFSAII (Michael W. Deem and Ramdas Pophale) SiO2 
 PCOD9013251
Probable space group: P -1
;
_chemical_formula_sum "Si O2"
_cell_formula_units_Z 16
_cell_length_a 9.200052
_cell_length_b 14.769518
_cell_length_c 5.706724
_cell_angle_alpha 70.531959
_cell_angle_beta 89.785684
_cell_angle_gamma 111.092791
_cell_volume 675.337809
_symmetry_space_group_name_H-M "P -1"
_symmetry_group_IT_number 2
_symmetry_cell_setting 'triclinic'
loop_
_space_group_symop_operation_xyz
x,y,z
-x,-y,-z
loop_
_atom_site_type_symbol
_atom_site_label
_atom_site_fract_x
_atom_site_fract_y
_atom_site_fract_z
Si Si1 0.657408 0.761047 0.887212
Si Si2 0.546073 0.462160 0.779605
Si Si3 0.178838 0.077815 0.879280
Si Si4 0.850092 0.433089 0.908773
Si Si5 0.065972 0.210082 0.428145
Si Si6 0.220127 0.902994 0.768833
Si Si7 0.623455 0.226987 0.368700
Si Si8 0.862869 0.275203 0.699105
O O1 0.805236 0.737544 0.814011
O O2 0.547603 0.774738 0.670962
O O3 0.546833 0.662393 0.118025
O O4 0.726916 0.867065 0.940221
O O5 0.500000 0.500000 0.500000
O O6 0.731354 0.485895 0.779779
O O7 0.500000 0.500000 0.000000
O O8 0.154525 0.166811 0.650587
O O9 0.262988 0.012845 0.796462
O O10 0.000000 0.000000 0.000000
O O11 0.903942 0.383189 0.732199
O O12 0.741352 0.332148 0.148862
O O13 0.000000 0.500000 0.000000
O O14 0.919730 0.114600 0.400812
O O15 0.984293 0.278743 0.492537
O O16 0.350032 0.869829 0.670687
O O17 0.143059 0.813991 0.041986
O O18 0.688911 0.237451 0.620801
#
# Coordination Sequence:
#
# PCOD9013251 Si02
#       8
#     2   2   2   2   2   2   2   2
#     4  11  26  44  70 107 139 194 240 300 377 439
#     4  11  29  54  79 110 155 195 254 318 384 455
#     4  12  23  40  68 103 144 186 240 302 362 434
#     4  10  24  47  73 106 138 185 252 307 381 445
#     4  11  22  39  69 101 141 184 242 290 365 429
#     4  10  21  41  63  99 135 183 236 290 351 432
#     4   9  23  43  65  95 141 185 236 295 363 442
#     4  10  21  42  71  92 141 185 232 301 355 438
#
# _framework density 23.691846000000002
#
# number of rings (size 3 to 8) (size 9 to 14) (size 15 to 20)
#    0.000    1.500    2.500    0.375    5.250    7.000 
#    2.250    1.250    0.000    0.000    0.000    0.000 
#    0.000    0.000    0.000    0.000    0.000    0.000 
#
# Total GULP energy -89545.647487 kJ/mol
# GULP energy per Si atom -5596.602968 kJ/mol
# Density = 2.363792 g / cm^3
# Si number density = 23.691846 Si / 1000 Ang^3
#
#
#
# Elastic Constant Matrix: (Units=GPa)
#
#
# Indices 1 2 3 4 5 6 
#
# 1 135.2763 65.8752 48.8833 22.9164 19.0733 -1.9552
# 2 65.8752 128.4288 37.6681 40.5030 -0.4312 3.0603
# 3 48.8833 37.6681 70.7054 23.8732 17.8424 -0.7349
# 4 22.9164 40.5030 23.8732 44.0034 -1.3478 -4.9318
# 5 19.0733 -0.4312 17.8424 -1.3478 37.5485 -0.6384
# 6 -1.9552 3.0603 -0.7349 -4.9318 -0.6384 32.8054
#
#
#
# Elastic Compliance Matrix: (Units=1/GPa)
#
#
# Indices 1 2 3 4 5 6 
#
# 1 0.012049 -0.005115 -0.005061 0.001198 -0.003711 0.001190
# 2 -0.005115 0.013958 -0.001443 -0.009648 0.003046 -0.003030
# 3 -0.005061 -0.001443 0.023887 -0.009413 -0.009155 -0.001225
# 4 0.001198 -0.009648 -0.009413 0.036967 0.005190 0.006419
# 5 -0.003711 0.003046 -0.009155 0.005190 0.033101 0.000714
# 6 0.001190 -0.003030 -0.001225 0.006419 0.000714 0.031788
#
#
# Mechanical properties :
#
#
# Convention : Reuss Voigt Hill
#
# Bulk Modulus (GPa) = 37.51408 71.02928 54.27168
# Shear Modulus (GPa) = 27.19259 35.00374 31.09816
#
# Velocity S-wave (km/s) = 3.39154 3.84794 3.62693
# Velocity P-wave (km/s) = 5.58617 7.05605 6.36369
#
# Compressibility (1/GPa) = 0.02665666
#
# Stress axis : x y z
#
# Youngs Moduli (GPa) = 82.99149 71.64275 41.86393
#
# Poissons Ratio (x) = 0.36644 0.21189
# Poissons Ratio (y) = 0.42448 0.06040
# Poissons Ratio (z) = 0.42006 0.10336
#
# Static dielectric constant tensor:
#      x y z
#    x 1.869130 -0.013060 -0.027390 
#    y -0.013060 1.873410 0.001340 
#    z -0.027390 0.001340 1.930900 
# 
# From -- ./inp_files/38040.got.cif
#   From: 2010.05.17/outbox.cif.g08.bks.cpg/sg2_20_cif.got.tgz:38040.got - 2010.06.03 11:33:40.
