data_PCOD9013399
_publ_section_title
;
Structure prediction by ZEFSAII (Michael W. Deem and Ramdas Pophale) SiO2 
 PCOD9013399
Probable space group: P -1
;
_chemical_formula_sum "Si O2"
_cell_formula_units_Z 14
_cell_length_a 7.770559
_cell_length_b 5.878454
_cell_length_c 15.900089
_cell_angle_alpha 127.651689
_cell_angle_beta 93.027710
_cell_angle_gamma 76.542528
_cell_volume 555.472333
_symmetry_space_group_name_H-M "P -1"
_symmetry_group_IT_number 2
_symmetry_cell_setting 'triclinic'
loop_
_space_group_symop_operation_xyz
x,y,z
-x,-y,-z
loop_
_atom_site_type_symbol
_atom_site_label
_atom_site_fract_x
_atom_site_fract_y
_atom_site_fract_z
Si Si1 0.933437 0.170650 0.799216
Si Si2 0.498894 0.625289 0.137351
Si Si3 0.021376 0.224757 0.124640
Si Si4 0.608030 0.763322 0.343989
Si Si5 0.346940 0.362915 0.499799
Si Si6 0.078975 0.903316 0.572032
Si Si7 0.589129 0.036778 0.923721
O O1 0.719550 0.304416 0.845234
O O2 0.027588 0.442829 0.843624
O O3 0.018260 0.934736 0.823996
O O4 0.953983 0.004250 0.672196
O O5 0.580337 0.581512 0.221341
O O6 0.613815 0.361334 0.022737
O O7 0.521109 0.916897 0.154264
O O8 0.230242 0.198392 0.139200
O O9 0.000000 0.000000 0.000000
O O10 0.662777 0.581227 0.388546
O O11 0.421244 0.010671 0.409956
O O12 0.760831 0.935303 0.374100
O O13 0.500000 0.500000 0.500000
O O14 0.170001 0.552488 0.495499
O O15 0.000000 0.000000 0.500000
O O16 0.500000 0.000000 0.000000
#
# Coordination Sequence:
#
# PCOD9013399 Si02
#       7
#     2   2   2   2   2   2   2
#     4  11  26  44  66 107 138 186 232 288 362 413
#     4  10  23  40  65  97 132 176 234 284 345 421
#     4  11  25  45  69 100 143 182 229 291 353 425
#     4  10  23  44  69  95 129 182 236 286 346 420
#     4   9  22  43  65  96 127 174 237 285 348 407
#     4  11  27  44  67 100 142 182 232 296 356 423
#     4  10  21  41  64  93 132 178 225 286 345 408
#
# _framework density 25.203776000000001
#
# number of rings (size 3 to 8) (size 9 to 14) (size 15 to 20)
#    0.000    1.714    1.429    0.429   10.000    6.286 
#    0.000    0.000    0.000    0.000    0.000    0.000 
#    0.000    0.000    0.000    0.000    0.000    0.000 
#
# Total GULP energy -77992.518759 kJ/mol
# GULP energy per Si atom -5570.894197 kJ/mol
# Density = 2.514641 g / cm^3
# Si number density = 25.203776 Si / 1000 Ang^3
#
#
#
# Elastic Constant Matrix: (Units=GPa)
#
#
# Indices 1 2 3 4 5 6 
#
# 1 77.0737 32.0022 16.3477 -3.9938 -10.9367 3.9485
# 2 32.0022 170.3622 44.3972 -38.3323 -8.3574 9.1915
# 3 16.3477 44.3972 113.1310 -22.8250 -20.1307 2.3992
# 4 -3.9938 -38.3323 -22.8250 41.4454 3.9233 -1.0370
# 5 -10.9367 -8.3574 -20.1307 3.9233 32.7813 1.8675
# 6 3.9485 9.1915 2.3992 -1.0370 1.8675 35.4455
#
#
#
# Elastic Compliance Matrix: (Units=1/GPa)
#
#
# Indices 1 2 3 4 5 6 
#
# 1 0.014815 -0.002776 -0.000686 -0.001935 0.004111 -0.001157
# 2 -0.002776 0.008348 -0.001601 0.006579 -0.000481 -0.001529
# 3 -0.000686 -0.001601 0.011481 0.004202 0.005938 -0.000476
# 4 -0.001935 0.006579 0.004202 0.032340 -0.000212 -0.000817
# 5 0.004111 -0.000481 0.005938 -0.000212 0.035575 -0.002616
# 6 -0.001157 -0.001529 -0.000476 -0.000817 -0.002616 0.028884
#
#
# Mechanical properties :
#
#
# Convention : Reuss Voigt Hill
#
# Bulk Modulus (GPa) = 40.78409 60.67347 50.72878
# Shear Modulus (GPa) = 33.39121 39.78909 36.59015
#
# Velocity S-wave (km/s) = 3.64380 3.97759 3.81435
# Velocity P-wave (km/s) = 5.82408 6.72461 6.29048
#
# Compressibility (1/GPa) = 0.02451936
#
# Stress axis : x y z
#
# Youngs Moduli (GPa) = 67.49940 119.79564 87.09964
#
# Poissons Ratio (x) = 0.33250 0.05974
# Poissons Ratio (y) = 0.18735 0.13942
# Poissons Ratio (z) = 0.04630 0.19176
#
# Static dielectric constant tensor:
#      x y z
#    x 2.113900 -0.025740 0.037900 
#    y -0.025740 1.670200 -0.403170 
#    z 0.037900 -0.403170 1.882920 
# 
# From -- ./inp_files/53045.got.cif
#   From: 2010.05.17/outbox.cif.g08.bks.cpg/sg2_27_cif.got.tgz:53045.got - 2010.06.03 11:33:40.
