data_PCOD9013114
_publ_section_title
;
Structure prediction by ZEFSAII (Michael W. Deem and Ramdas Pophale) SiO2 
 PCOD9013114
Probable space group: P -1
;
_chemical_formula_sum "Si O2"
_cell_formula_units_Z 16
_cell_length_a 16.752785
_cell_length_b 8.107845
_cell_length_c 8.933489
_cell_angle_alpha 129.537098
_cell_angle_beta 115.462274
_cell_angle_gamma 92.628519
_cell_volume 750.694149
_symmetry_space_group_name_H-M "P -1"
_symmetry_group_IT_number 2
_symmetry_cell_setting 'triclinic'
loop_
_space_group_symop_operation_xyz
x,y,z
-x,-y,-z
loop_
_atom_site_type_symbol
_atom_site_label
_atom_site_fract_x
_atom_site_fract_y
_atom_site_fract_z
Si Si1 0.764782 0.548404 0.613196
Si Si2 0.888141 0.081455 0.039309
Si Si3 0.291638 0.833910 0.918436
Si Si4 0.088343 0.988494 0.655218
Si Si5 0.195034 0.507926 0.071604
Si Si6 0.000437 0.500849 0.177549
Si Si7 0.603627 0.236145 0.747302
Si Si8 0.604128 0.604918 0.729352
O O1 0.824881 0.503989 0.773460
O O2 0.673998 0.546424 0.637115
O O3 0.736072 0.358035 0.348401
O O4 0.825835 0.821817 0.763794
O O5 0.935702 0.046025 0.209752
O O6 0.976899 0.264673 0.114582
O O7 0.805915 0.163012 0.081860
O O8 0.357217 0.773623 0.059021
O O9 0.352274 0.106598 0.061715
O O10 0.085399 0.745195 0.454181
O O11 0.000000 0.000000 0.500000
O O12 0.186595 0.244106 0.871972
O O13 0.299586 0.733325 0.251660
O O14 0.109095 0.507541 0.899792
O O15 0.000000 0.500000 0.000000
O O16 0.592351 0.461556 0.794265
O O17 0.500000 0.000000 0.500000
O O18 0.500000 0.500000 0.500000
#
# Coordination Sequence:
#
# PCOD9013114 Si02
#       8
#     2   2   2   2   2   2   2   2
#     4   9  22  40  63  91 124 171 212 260 327 381
#     4  10  21  42  63  90 133 168 210 271 325 385
#     4  11  22  41  67  92 127 176 215 264 331 380
#     4   9  20  40  63  87 123 173 212 262 333 382
#     4   9  20  42  57  86 132 160 204 272 311 381
#     4  11  22  36  61  95 124 165 216 258 319 390
#     4  11  21  40  69  94 124 172 216 266 328 382
#     4  10  21  41  63  90 132 165 211 270 325 384
#
# _framework density 21.313607000000001
#
# number of rings (size 3 to 8) (size 9 to 14) (size 15 to 20)
#    0.000    2.000    2.500    1.125    1.750    1.500 
#    4.500    3.750    0.000    0.000    0.000    0.000 
#    0.000    0.000    0.000    0.000    0.000    0.000 
#
# Total GULP energy -89092.109858 kJ/mol
# GULP energy per Si atom -5568.256866 kJ/mol
# Density = 2.126510 g / cm^3
# Si number density = 21.313607 Si / 1000 Ang^3
#
#
#
# Elastic Constant Matrix: (Units=GPa)
#
#
# Indices 1 2 3 4 5 6 
#
# 1 48.3414 26.6480 48.2957 14.1319 1.9228 -2.9190
# 2 26.6480 155.8641 77.2340 -0.5543 -4.2483 6.8597
# 3 48.2957 77.2340 179.3623 10.4680 -21.5766 6.5314
# 4 14.1319 -0.5543 10.4680 40.2449 -11.8020 18.7588
# 5 1.9228 -4.2483 -21.5766 -11.8020 25.5354 0.0156
# 6 -2.9190 6.8597 6.5314 18.7588 0.0156 33.7446
#
#
#
# Elastic Compliance Matrix: (Units=1/GPa)
#
#
# Indices 1 2 3 4 5 6 
#
# 1 0.053702 -0.003708 -0.016064 -0.039740 -0.036620 0.030617
# 2 -0.003708 0.008585 -0.002625 0.004428 0.001538 -0.004020
# 3 -0.016064 -0.002625 0.012751 0.011942 0.017073 -0.009970
# 4 -0.039740 0.004428 0.011942 0.070914 0.046623 -0.046092
# 5 -0.036620 0.001538 0.017073 0.046623 0.078169 -0.032739
# 6 0.030617 -0.004020 -0.009970 -0.046092 -0.032739 0.060668
#
#
# Mechanical properties :
#
#
# Convention : Reuss Voigt Hill
#
# Bulk Modulus (GPa) = 33.06528 76.43592 54.75060
# Shear Modulus (GPa) = 14.72032 35.33098 25.02565
#
# Velocity S-wave (km/s) = 2.63088 4.07587 3.43032
# Velocity P-wave (km/s) = 4.97756 7.62172 6.43687
#
# Compressibility (1/GPa) = 0.03024320
#
# Stress axis : x y z
#
# Youngs Moduli (GPa) = 18.62121 116.47675 78.42409
#
# Poissons Ratio (x) = 0.43193 1.25981
# Poissons Ratio (y) = 0.06905 0.20589
# Poissons Ratio (z) = 0.29913 0.30580
#
# Static dielectric constant tensor:
#      x y z
#    x 1.933490 -0.082230 0.015190 
#    y -0.082230 1.933150 0.026220 
#    z 0.015190 0.026220 1.746550 
# 
# From -- ./inp_files/329625.got.cif
#   From: 2010.05.17/outbox.cif.g08.bks.cpg/sg2_165_cif.got.tgz:329625.got - 2010.06.03 11:33:40.
