data_PCOD9013185
_publ_section_title
;
Structure prediction by ZEFSAII (Michael W. Deem and Ramdas Pophale) SiO2 
 PCOD9013185
Probable space group: P -1
;
_chemical_formula_sum "Si O2"
_cell_formula_units_Z 14
_cell_length_a 6.057103
_cell_length_b 19.151586
_cell_length_c 7.577118
_cell_angle_alpha 44.905201
_cell_angle_beta 97.725254
_cell_angle_gamma 82.235806
_cell_volume 580.585882
_symmetry_space_group_name_H-M "P -1"
_symmetry_group_IT_number 2
_symmetry_cell_setting 'triclinic'
loop_
_space_group_symop_operation_xyz
x,y,z
-x,-y,-z
loop_
_atom_site_type_symbol
_atom_site_label
_atom_site_fract_x
_atom_site_fract_y
_atom_site_fract_z
Si Si1 0.026571 0.010602 0.717627
Si Si2 0.517264 0.182114 0.976141
Si Si3 0.014379 0.356857 0.115942
Si Si4 0.817615 0.830000 0.763223
Si Si5 0.734603 0.924361 0.068104
Si Si6 0.263672 0.530939 0.802878
Si Si7 0.252615 0.651306 0.234923
O O1 0.069701 0.081782 0.436095
O O2 0.243413 0.902406 0.918085
O O3 0.060396 0.079584 0.766185
O O4 0.799714 0.979757 0.802449
O O5 0.432136 0.141896 0.219550
O O6 0.327030 0.176198 0.821217
O O7 0.552010 0.291887 0.825321
O O8 0.174243 0.240945 0.282303
O O9 0.915561 0.375683 0.268176
O O10 0.793358 0.383957 0.903685
O O11 0.157681 0.436375 0.956566
O O12 0.003724 0.745896 0.059693
O O13 0.500000 0.000000 0.000000
O O14 0.500000 0.500000 0.000000
O O15 0.286561 0.567968 0.541350
#
# Coordination Sequence:
#
# PCOD9013185 Si02
#       7
#     2   2   2   2   2   2   2
#     4  10  21  41  63  94 134 186 235 276 331 400
#     4  11  22  39  63  98 133 187 226 281 338 393
#     4   9  25  45  66 103 131 178 219 285 353 411
#     4  10  24  40  63  94 141 176 223 284 333 409
#     4   9  21  37  59  88 129 177 233 287 326 387
#     4  11  24  46  75  97 131 174 227 284 353 420
#     4  10  25  43  66 102 137 174 224 284 346 414
#
# _framework density 24.113575000000001
#
# number of rings (size 3 to 8) (size 9 to 14) (size 15 to 20)
#    0.857    1.143    0.000    1.714    2.000   13.143 
#    0.000    0.000    0.000    0.000    0.000    0.000 
#    0.000    0.000    0.000    0.000    0.000    0.000 
#
# Total GULP energy -78128.216114 kJ/mol
# GULP energy per Si atom -5580.586865 kJ/mol
# Density = 2.405869 g / cm^3
# Si number density = 24.113575 Si / 1000 Ang^3
#
#
#
# Elastic Constant Matrix: (Units=GPa)
#
#
# Indices 1 2 3 4 5 6 
#
# 1 96.5713 40.2698 14.8450 -5.8877 -30.5205 10.3011
# 2 40.2698 104.0659 -4.1330 0.2274 -17.1081 17.7262
# 3 14.8450 -4.1330 63.5200 8.7610 -9.1359 -5.7934
# 4 -5.8877 0.2274 8.7610 28.1441 -2.1735 -3.8861
# 5 -30.5205 -17.1081 -9.1359 -2.1735 31.4432 8.7456
# 6 10.3011 17.7262 -5.7934 -3.8861 8.7456 58.7476
#
#
#
# Elastic Compliance Matrix: (Units=1/GPa)
#
#
# Indices 1 2 3 4 5 6 
#
# 1 0.018532 -0.003823 -0.003383 0.005616 0.016572 -0.004525
# 2 -0.003823 0.012594 0.002296 -0.001766 0.004723 -0.003723
# 3 -0.003383 0.002296 0.017954 -0.005997 0.002517 0.000900
# 4 0.005616 -0.001766 -0.005997 0.039097 0.005238 0.000763
# 5 0.016572 0.004723 0.002517 0.005238 0.054863 -0.011903
# 6 -0.004525 -0.003723 0.000900 0.000763 -0.011903 0.020850
#
#
# Mechanical properties :
#
#
# Convention : Reuss Voigt Hill
#
# Bulk Modulus (GPa) = 25.47127 40.68009 33.07568
# Shear Modulus (GPa) = 26.76707 37.87866 32.32286
#
# Velocity S-wave (km/s) = 3.33534 3.96769 3.66518
# Velocity P-wave (km/s) = 5.04169 6.15604 5.62652
#
# Compressibility (1/GPa) = 0.03925991
#
# Stress axis : x y z
#
# Youngs Moduli (GPa) = 53.96191 79.40204 55.69678
#
# Poissons Ratio (x) = 0.30352 0.18845
# Poissons Ratio (y) = 0.20627 -0.12788
# Poissons Ratio (z) = 0.18258 -0.18231
#
# Static dielectric constant tensor:
#      x y z
#    x 1.938330 0.033150 0.037950 
#    y 0.033150 2.015610 0.050920 
#    z 0.037950 0.050920 1.974410 
# 
# From -- ./inp_files/115654.got.cif
#   From: 2010.05.17/outbox.cif.g08.bks.cpg/sg2_58_cif.got.tgz:115654.got - 2010.06.03 11:33:40.
