data_PCOD9013731
_publ_section_title
;
Structure prediction by ZEFSAII (Michael W. Deem and Ramdas Pophale) SiO2 
 PCOD9013731
Probable space group: P -1
;
_chemical_formula_sum "Si O2"
_cell_formula_units_Z 16
_cell_length_a 10.594929
_cell_length_b 11.065478
_cell_length_c 7.169157
_cell_angle_alpha 62.266953
_cell_angle_beta 61.536647
_cell_angle_gamma 85.757923
_cell_volume 642.110334
_symmetry_space_group_name_H-M "P -1"
_symmetry_group_IT_number 2
_symmetry_cell_setting 'triclinic'
loop_
_space_group_symop_operation_xyz
x,y,z
-x,-y,-z
loop_
_atom_site_type_symbol
_atom_site_label
_atom_site_fract_x
_atom_site_fract_y
_atom_site_fract_z
Si Si1 0.313260 0.838201 0.240843
Si Si2 0.767004 0.681664 0.333450
Si Si3 0.622212 0.085887 0.222761
Si Si4 0.527666 0.363920 0.191238
Si Si5 0.826048 0.034392 0.417369
Si Si6 0.870254 0.784612 0.794179
Si Si7 0.631777 0.419629 0.455643
Si Si8 0.003159 0.655342 0.465714
O O1 0.271973 0.896215 0.422591
O O2 0.408063 0.725690 0.310301
O O3 0.162316 0.751775 0.316872
O O4 0.377637 0.953933 0.963917
O O5 0.623716 0.693819 0.547644
O O6 0.806927 0.877945 0.619222
O O7 0.757205 0.517626 0.410392
O O8 0.773446 0.741025 0.076401
O O9 0.584046 0.240834 0.132905
O O10 0.771106 0.062153 0.231634
O O11 0.500000 0.000000 0.500000
O O12 0.652419 0.404391 0.232911
O O13 0.500000 0.500000 0.000000
O O14 0.988983 0.114579 0.287626
O O15 0.089643 0.275486 0.672520
O O16 0.922733 0.665300 0.716831
O O17 0.500000 0.500000 0.500000
O O18 0.000000 0.500000 0.500000
#
# Coordination Sequence:
#
# PCOD9013731 Si02
#       8
#     2   2   2   2   2   2   2   2
#     4  11  23  46  68  98 141 177 226 286 342 404
#     4  11  24  42  69 102 135 176 231 281 344 412
#     4  12  27  41  70 104 135 182 234 284 340 411
#     4  11  26  45  69  98 142 187 227 285 350 411
#     4  10  24  48  66  96 138 182 230 278 345 406
#     4  10  25  44  71  97 135 183 226 286 343 410
#     4  10  21  41  65  94 134 182 214 274 351 402
#     4  11  24  42  71 106 133 175 228 289 349 406
#
# _framework density 24.917833999999999
#
# number of rings (size 3 to 8) (size 9 to 14) (size 15 to 20)
#    0.000    1.250    2.500    2.250    5.250    3.000 
#    0.000    3.750    0.000    0.000    0.000    0.000 
#    0.000    0.000    0.000    0.000    0.000    0.000 
#
# Total GULP energy -89405.408733 kJ/mol
# GULP energy per Si atom -5587.838046 kJ/mol
# Density = 2.486112 g / cm^3
# Si number density = 24.917834 Si / 1000 Ang^3
#
#
#
# Elastic Constant Matrix: (Units=GPa)
#
#
# Indices 1 2 3 4 5 6 
#
# 1 102.5457 13.0500 31.7238 -3.0457 20.8525 -3.3788
# 2 13.0500 57.9501 20.4317 -7.2874 8.4680 -15.1314
# 3 31.7238 20.4317 154.0640 -5.9320 15.4303 -16.6491
# 4 -3.0457 -7.2874 -5.9320 23.7565 1.5291 10.3639
# 5 20.8525 8.4680 15.4303 1.5291 43.7984 -1.3578
# 6 -3.3788 -15.1314 -16.6491 10.3639 -1.3578 35.6047
#
#
#
# Elastic Compliance Matrix: (Units=1/GPa)
#
#
# Indices 1 2 3 4 5 6 
#
# 1 0.011416 -0.001338 -0.001752 0.001287 -0.004630 -0.000856
# 2 -0.001338 0.020639 -0.001306 0.002925 -0.002776 0.007076
# 3 -0.001752 -0.001306 0.007466 0.000171 -0.001467 0.002664
# 4 0.001287 0.002925 0.000171 0.049071 -0.003354 -0.012967
# 5 -0.004630 -0.002776 -0.001467 -0.003354 0.026197 -0.000330
# 6 -0.000856 0.007076 0.002664 -0.012967 -0.000330 0.036020
#
#
# Mechanical properties :
#
#
# Convention : Reuss Voigt Hill
#
# Bulk Modulus (GPa) = 32.54353 49.44121 40.99237
# Shear Modulus (GPa) = 29.43856 37.25552 33.34704
#
# Velocity S-wave (km/s) = 3.44092 3.87089 3.66222
# Velocity P-wave (km/s) = 5.37357 6.31373 5.86253
#
# Compressibility (1/GPa) = 0.03072807
#
# Stress axis : x y z
#
# Youngs Moduli (GPa) = 87.59815 48.45145 133.93519
#
# Poissons Ratio (x) = 0.06482 0.23471
# Poissons Ratio (y) = 0.11720 0.17496
# Poissons Ratio (z) = 0.15351 0.06329
#
# Static dielectric constant tensor:
#      x y z
#    x 2.011410 0.026060 0.001780 
#    y 0.026060 2.065700 0.093090 
#    z 0.001780 0.093090 1.882470 
# 
# From -- ./inp_files/75459.got.cif
#   From: 2010.05.17/outbox.cif.g08.bks.cpg/sg2_38_cif.got.tgz:75459.got - 2010.06.03 11:33:40.
