data_PCOD9013509
_publ_section_title
;
Structure prediction by ZEFSAII (Michael W. Deem and Ramdas Pophale) SiO2 
 PCOD9013509
Probable space group: P -1
;
_chemical_formula_sum "Si O2"
_cell_formula_units_Z 16
_cell_length_a 9.110964
_cell_length_b 10.018060
_cell_length_c 15.907091
_cell_angle_alpha 43.236561
_cell_angle_beta 81.458371
_cell_angle_gamma 110.437608
_cell_volume 725.488838
_symmetry_space_group_name_H-M "P -1"
_symmetry_group_IT_number 2
_symmetry_cell_setting 'triclinic'
loop_
_space_group_symop_operation_xyz
x,y,z
-x,-y,-z
loop_
_atom_site_type_symbol
_atom_site_label
_atom_site_fract_x
_atom_site_fract_y
_atom_site_fract_z
Si Si1 0.532285 0.056472 0.335694
Si Si2 0.691288 0.901931 0.530696
Si Si3 0.268208 0.527642 0.018638
Si Si4 0.859994 0.057957 0.965178
Si Si5 0.764541 0.284633 0.608791
Si Si6 0.303315 0.175823 0.096074
Si Si7 0.410640 0.633060 0.257268
Si Si8 0.918655 0.534546 0.767216
O O1 0.451878 0.166746 0.347400
O O2 0.661267 0.247194 0.157624
O O3 0.644795 0.012818 0.409037
O O4 0.341387 0.769286 0.445841
O O5 0.648365 0.646547 0.619756
O O6 0.919776 0.162729 0.415851
O O7 0.454372 0.599353 0.024261
O O8 0.198746 0.282281 0.082808
O O9 0.120758 0.471822 0.127802
O O10 0.979859 0.365195 0.826134
O O11 0.782203 0.971101 0.916677
O O12 0.650963 0.872481 0.120356
O O13 0.000000 0.000000 0.000000
O O14 0.664784 0.328547 0.669192
O O15 0.000000 0.500000 0.500000
O O16 0.728378 0.022854 0.743981
O O17 0.287149 0.625081 0.195415
#
# Coordination Sequence:
#
# PCOD9013509 Si02
#       8
#     2   2   2   2   2   2   2   2
#     4  10  24  46  65  98 144 185 222 292 358 412
#     4  11  27  43  73  99 144 184 232 290 357 420
#     4  10  22  41  74  95 138 176 236 285 343 413
#     4  12  26  43  72 103 142 183 232 288 359 413
#     4  11  24  41  70  99 141 182 234 285 349 424
#     4  10  21  41  65 100 129 183 223 286 343 412
#     4  12  25  47  72 102 142 184 235 293 348 423
#     4  12  25  45  72 107 136 184 237 292 344 425
#
# _framework density 22.054096000000001
#
# number of rings (size 3 to 8) (size 9 to 14) (size 15 to 20)
#    0.000    1.000    2.500    3.750   10.500    1.000 
#    2.250    0.000    0.000    0.000    0.000    0.000 
#    0.000    0.000    0.000    0.000    0.000    0.000 
#
# Total GULP energy -89417.238809 kJ/mol
# GULP energy per Si atom -5588.577426 kJ/mol
# Density = 2.200390 g / cm^3
# Si number density = 22.054096 Si / 1000 Ang^3
#
#
#
# Elastic Constant Matrix: (Units=GPa)
#
#
# Indices 1 2 3 4 5 6 
#
# 1 68.5180 0.5245 13.1163 1.3259 3.4662 0.9741
# 2 0.5245 82.0459 8.8700 -3.2561 7.6730 -8.4943
# 3 13.1163 8.8700 46.1626 -3.1727 1.1855 -9.8471
# 4 1.3259 -3.2561 -3.1727 41.9039 0.3085 8.1192
# 5 3.4662 7.6730 1.1855 0.3085 24.6307 -13.3236
# 6 0.9741 -8.4943 -9.8471 8.1192 -13.3236 26.0850
#
#
#
# Elastic Compliance Matrix: (Units=1/GPa)
#
#
# Indices 1 2 3 4 5 6 
#
# 1 0.015974 0.000434 -0.005573 0.000127 -0.004867 -0.005085
# 2 0.000434 0.012896 -0.002138 0.000535 -0.003104 0.001624
# 3 -0.005573 -0.002138 0.026291 -0.000662 0.007475 0.013461
# 4 0.000127 0.000535 -0.000662 0.026170 -0.006813 -0.011706
# 5 -0.004867 -0.003104 0.007475 -0.006813 0.061077 0.035310
# 6 -0.005085 0.001624 0.013461 -0.011706 0.035310 0.065816
#
#
# Mechanical properties :
#
#
# Convention : Reuss Voigt Hill
#
# Bulk Modulus (GPa) = 24.62643 26.86090 25.74366
# Shear Modulus (GPa) = 21.15825 30.13829 25.64827
#
# Velocity S-wave (km/s) = 3.10075 3.70071 3.41394
# Velocity P-wave (km/s) = 4.90001 5.51964 5.21903
#
# Compressibility (1/GPa) = 0.04060678
#
# Stress axis : x y z
#
# Youngs Moduli (GPa) = 62.60068 77.54130 38.03617
#
# Poissons Ratio (x) = -0.03367 0.21198
# Poissons Ratio (y) = -0.02718 0.08134
# Poissons Ratio (z) = 0.34888 0.16581
#
# Static dielectric constant tensor:
#      x y z
#    x 2.139230 0.098900 -0.036390 
#    y 0.098900 1.877140 -0.055590 
#    z -0.036390 -0.055590 1.880880 
# 
# From -- ./inp_files/494362.got.cif
#   From: 2010.05.17/outbox.cif.g08.bks.cpg/sg2_248_cif.got.tgz:494362.got - 2010.06.03 11:33:40.
