data_PCOD9013037
_publ_section_title
;
Structure prediction by ZEFSAII (Michael W. Deem and Ramdas Pophale) SiO2 
 PCOD9013037
Probable space group: P -1
;
_chemical_formula_sum "Si O2"
_cell_formula_units_Z 14
_cell_length_a 8.703834
_cell_length_b 11.946540
_cell_length_c 13.097802
_cell_angle_alpha 148.872415
_cell_angle_beta 71.609629
_cell_angle_gamma 123.555031
_cell_volume 546.008964
_symmetry_space_group_name_H-M "P -1"
_symmetry_group_IT_number 2
_symmetry_cell_setting 'triclinic'
loop_
_space_group_symop_operation_xyz
x,y,z
-x,-y,-z
loop_
_atom_site_type_symbol
_atom_site_label
_atom_site_fract_x
_atom_site_fract_y
_atom_site_fract_z
Si Si1 0.652139 0.892601 0.682610
Si Si2 0.446853 0.851789 0.288574
Si Si3 0.099641 0.313882 0.218839
Si Si4 0.406333 0.293530 0.017490
Si Si5 0.263074 0.720919 0.693012
Si Si6 0.821875 0.711009 0.354238
Si Si7 0.014630 0.435591 0.064295
O O1 0.596471 0.003790 0.680917
O O2 0.478053 0.779323 0.713245
O O3 0.708746 0.713604 0.478385
O O4 0.858309 0.127511 0.871047
O O5 0.603172 0.800704 0.170648
O O6 0.242981 0.572407 0.134915
O O7 0.500000 0.000000 0.500000
O O8 0.183366 0.491462 0.443233
O O9 0.926707 0.352948 0.258686
O O10 0.282455 0.395183 0.170478
O O11 0.000000 0.000000 0.000000
O O12 0.333988 0.016882 0.873063
O O13 0.638842 0.519539 0.167164
O O14 0.936930 0.583094 0.254123
O O15 0.000000 0.000000 0.500000
O O16 0.000000 0.500000 0.000000
#
# Coordination Sequence:
#
# PCOD9013037 Si02
#       7
#     2   2   2   2   2   2   2
#     4  10  18  30  50  67  96 127 156 199 241 279
#     4  10  19  32  46  66  99 134 164 195 232 279
#     4   9  17  27  45  70  98 120 150 196 252 292
#     4  10  18  29  45  66  99 130 154 196 238 280
#     4   9  16  28  45  70  97 121 153 195 249 290
#     4  12  17  26  49  69  91 129 166 188 236 283
#     4  10  17  30  45  65  92 125 160 197 236 272
#
# _framework density 25.640604
#
# number of rings (size 3 to 8) (size 9 to 14) (size 15 to 20)
#    0.000    2.000    8.571    0.000    0.000    0.000 
#    0.000    0.714    0.000    0.000    0.000    1.000 
#    0.000   17.714    0.000    0.571    0.000    0.000 
#
# Total GULP energy -78047.217931 kJ/mol
# GULP energy per Si atom -5574.801281 kJ/mol
# Density = 2.558225 g / cm^3
# Si number density = 25.640604 Si / 1000 Ang^3
#
#
#
# Elastic Constant Matrix: (Units=GPa)
#
#
# Indices 1 2 3 4 5 6 
#
# 1 17.8242 87.2571 26.9685 -28.1577 -18.9822 10.1430
# 2 87.2571 110.0618 63.5382 -6.0627 -4.0159 53.0769
# 3 26.9685 63.5382 155.0994 -11.1625 -16.1927 15.5176
# 4 -28.1577 -6.0627 -11.1625 53.2391 31.0234 -23.1281
# 5 -18.9822 -4.0159 -16.1927 31.0234 41.9060 -14.2195
# 6 10.1430 53.0769 15.5176 -23.1281 -14.2195 58.6754
#
#
#
# Elastic Compliance Matrix: (Units=1/GPa)
#
#
# Indices 1 2 3 4 5 6 
#
# 1 -0.006237 0.012621 -0.003546 -0.006773 -0.002253 -0.012617
# 2 0.012621 0.000049 -0.001780 0.006306 0.000669 0.000893
# 3 -0.003546 -0.001780 0.007939 -0.002052 0.002809 -0.000005
# 4 -0.006773 0.006306 -0.002052 0.031475 -0.025826 0.002157
# 5 -0.002253 0.000669 0.002809 -0.025826 0.042856 -0.000752
# 6 -0.012617 0.000893 -0.000005 0.002157 -0.000752 0.019086
#
#
# Mechanical properties :
#
#
# Convention : Reuss Voigt Hill
#
# Bulk Modulus (GPa) = 61.19849 70.94591 66.07220
# Shear Modulus (GPa) = 58.12295 37.77886 47.95090
#
# Velocity S-wave (km/s) = 4.76629 3.84265 4.32918
# Velocity P-wave (km/s) = 7.36272 6.88603 7.12836
#
# Compressibility (1/GPa) = 0.01634027
#
# Stress axis : x y z
#
# Youngs Moduli (GPa) = -160.32437 20591.75124 125.95479
#
# Poissons Ratio (x) = -259.89509 0.44667
# Poissons Ratio (y) = 2.02351 0.22422
# Poissons Ratio (z) = -0.56856 36.65664
#
# Static dielectric constant tensor:
#      x y z
#    x 1.613260 -0.226610 -0.170290 
#    y -0.226610 1.959280 -0.117050 
#    z -0.170290 -0.117050 2.107540 
# 
# From -- ./inp_files/407398.got.cif
#   From: 2010.05.17/outbox.cif.g08.bks.cpg/sg2_204_cif.got.tgz:407398.got - 2010.06.03 11:33:40.
