data_PCOD9013326
_publ_section_title
;
Structure prediction by ZEFSAII (Michael W. Deem and Ramdas Pophale) SiO2 
 PCOD9013326
Probable space group: P -1
;
_chemical_formula_sum "Si O2"
_cell_formula_units_Z 13
_cell_length_a 11.347929
_cell_length_b 9.232983
_cell_length_c 8.948386
_cell_angle_alpha 148.414483
_cell_angle_beta 84.701207
_cell_angle_gamma 87.404220
_cell_volume 474.960329
_symmetry_space_group_name_H-M "P -1"
_symmetry_group_IT_number 2
_symmetry_cell_setting 'triclinic'
loop_
_space_group_symop_operation_xyz
x,y,z
-x,-y,-z
loop_
_atom_site_type_symbol
_atom_site_label
_atom_site_fract_x
_atom_site_fract_y
_atom_site_fract_z
Si Si1 0.802604 0.099964 0.144492
Si Si2 0.141299 0.462091 0.669512
Si Si3 0.752146 0.980714 0.374572
Si Si4 0.438973 0.647832 0.787717
Si Si5 0.602872 0.904982 0.588788
Si Si6 0.000000 0.500000 0.500000
Si Si7 0.114288 0.638270 0.137643
O O1 0.870537 0.358684 0.330982
O O2 0.747409 0.107891 0.322565
O O3 0.691284 0.192752 0.124920
O O4 0.895808 0.806702 0.842379
O O5 0.261489 0.221785 0.467455
O O6 0.019160 0.369270 0.566006
O O7 0.141333 0.675281 0.991085
O O8 0.859621 0.091866 0.544167
O O9 0.634589 0.042764 0.552423
O O10 0.786122 0.638344 0.058235
O O11 0.500000 0.500000 0.500000
O O12 0.438723 0.387382 0.669768
O O13 0.476946 0.883009 0.094407
O O14 0.000000 0.500000 0.000000
#
# Coordination Sequence:
#
# PCOD9013326 Si02
#       7
#     2   2   2   2   2   1   2
#     4   9  20  38  61  92 124 160 209 255 307 358
#     4   8  18  36  60  82 126 162 205 244 300 366
#     4  11  22  38  60  87 125 162 206 260 304 364
#     4  11  23  44  69  91 120 163 210 257 316 378
#     4  10  21  41  64  91 123 162 205 256 313 376
#     4   8  16  36  60  86 128 154 208 244 300 348
#     4  11  22  37  55  85 123 174 209 242 305 367
#
# _framework density 27.370706999999999
#
# number of rings (size 3 to 8) (size 9 to 14) (size 15 to 20)
#    0.923    1.231    0.000    4.615    0.000    3.692 
#    0.000    3.077    0.000    0.000    0.000    0.000 
#    0.000    0.000    0.000    0.000    0.000    0.000 
#
# Total GULP energy -72485.791931 kJ/mol
# GULP energy per Si atom -5575.830149 kJ/mol
# Density = 2.730841 g / cm^3
# Si number density = 27.370707 Si / 1000 Ang^3
#
#
#
# Elastic Constant Matrix: (Units=GPa)
#
#
# Indices 1 2 3 4 5 6 
#
# 1 44.9029 18.3971 7.8906 9.0095 -11.9588 -6.2281
# 2 18.3971 175.9467 36.1129 -3.0696 2.2936 4.0826
# 3 7.8906 36.1129 160.0102 4.7378 9.4825 6.3662
# 4 9.0095 -3.0696 4.7378 25.7197 4.9011 -1.0678
# 5 -11.9588 2.2936 9.4825 4.9011 36.9537 -0.2087
# 6 -6.2281 4.0826 6.3662 -1.0678 -0.2087 45.1060
#
#
#
# Elastic Compliance Matrix: (Units=1/GPa)
#
#
# Indices 1 2 3 4 5 6 
#
# 1 0.030297 -0.003399 -0.001236 -0.012907 0.012069 0.004416
# 2 -0.003399 0.006370 -0.001220 0.002429 -0.001509 -0.000823
# 3 -0.001236 -0.001220 0.006763 -0.000624 -0.001983 -0.001039
# 4 -0.012907 0.002429 -0.000624 0.045721 -0.010237 -0.000879
# 5 0.012069 -0.001509 -0.001983 -0.010237 0.032938 0.001993
# 6 0.004416 -0.000823 -0.001039 -0.000879 0.001993 0.022989
#
#
# Mechanical properties :
#
#
# Convention : Reuss Voigt Hill
#
# Bulk Modulus (GPa) = 31.52484 56.18455 43.85470
# Shear Modulus (GPa) = 29.87538 42.78648 36.33093
#
# Velocity S-wave (km/s) = 3.30738 3.95805 3.64726
# Velocity P-wave (km/s) = 5.11153 6.43895 5.81325
#
# Compressibility (1/GPa) = 0.03172102
#
# Stress axis : x y z
#
# Youngs Moduli (GPa) = 33.00684 156.97358 147.86023
#
# Poissons Ratio (x) = 0.53359 0.18269
# Poissons Ratio (y) = 0.11220 0.18037
# Poissons Ratio (z) = 0.04078 0.19149
#
# Static dielectric constant tensor:
#      x y z
#    x 2.268220 0.143620 -0.050760 
#    y 0.143620 2.323980 -0.132110 
#    z -0.050760 -0.132110 2.108030 
# 
# From -- ./inp_files/297166.got.cif
#   From: 2010.05.17/outbox.cif.g08.bks.cpg/sg2_149_cif.got.tgz:297166.got - 2010.06.03 11:33:40.
