data_PCOD9013592
_publ_section_title
;
Structure prediction by ZEFSAII (Michael W. Deem and Ramdas Pophale) SiO2 
 PCOD9013592
Probable space group: P -1
;
_chemical_formula_sum "Si O2"
_cell_formula_units_Z 14
_cell_length_a 11.274929
_cell_length_b 5.705061
_cell_length_c 10.702410
_cell_angle_alpha 120.875315
_cell_angle_beta 104.393761
_cell_angle_gamma 89.297115
_cell_volume 566.786268
_symmetry_space_group_name_H-M "P -1"
_symmetry_group_IT_number 2
_symmetry_cell_setting 'triclinic'
loop_
_space_group_symop_operation_xyz
x,y,z
-x,-y,-z
loop_
_atom_site_type_symbol
_atom_site_label
_atom_site_fract_x
_atom_site_fract_y
_atom_site_fract_z
Si Si1 0.794225 0.496303 0.718334
Si Si2 0.586397 0.763510 0.643230
Si Si3 0.972216 0.642014 0.161290
Si Si4 0.704630 0.551197 0.991200
Si Si5 0.050193 0.204648 0.453047
Si Si6 0.312401 0.084296 0.542735
Si Si7 0.458967 0.138390 0.849847
O O1 0.723844 0.737401 0.717331
O O2 0.940994 0.504884 0.763288
O O3 0.747166 0.234779 0.547414
O O4 0.746310 0.470350 0.842629
O O5 0.500000 0.500000 0.500000
O O6 0.609781 0.932110 0.568043
O O7 0.507359 0.851980 0.761511
O O8 0.825067 0.583018 0.118809
O O9 0.016708 0.972163 0.271329
O O10 0.000000 0.500000 0.000000
O O11 0.641033 0.829825 0.062080
O O12 0.589069 0.336961 0.948097
O O13 0.198118 0.251173 0.528910
O O14 0.000000 0.500000 0.500000
O O15 0.000000 0.000000 0.500000
O O16 0.391459 0.185474 0.712108
#
# Coordination Sequence:
#
# PCOD9013592 Si02
#       7
#     2   2   2   2   2   2   2
#     4  10  21  41  67  96 127 177 233 290 349 424
#     4  12  23  37  68 100 133 177 237 290 353 421
#     4   9  21  44  70  98 141 188 235 296 362 440
#     4  10  21  41  65  89 142 175 226 282 363 425
#     4  11  26  46  75 108 146 189 243 307 368 430
#     4  11  23  42  68  96 139 177 240 289 352 422
#     4  11  22  39  63  98 132 183 222 292 351 428
#
# _framework density 24.700671
#
# number of rings (size 3 to 8) (size 9 to 14) (size 15 to 20)
#    0.000    1.429    2.857    2.143    4.000    1.714 
#    0.000   10.000    0.000    0.000    0.000    0.000 
#    0.000    0.000    0.000    0.000    0.000    0.000 
#
# Total GULP energy -78053.423321 kJ/mol
# GULP energy per Si atom -5575.244523 kJ/mol
# Density = 2.464445 g / cm^3
# Si number density = 24.700671 Si / 1000 Ang^3
#
#
#
# Elastic Constant Matrix: (Units=GPa)
#
#
# Indices 1 2 3 4 5 6 
#
# 1 160.6190 47.2827 55.4285 -8.4107 15.7829 -42.8911
# 2 47.2827 80.9122 40.2135 -2.2436 -0.1607 -33.9111
# 3 55.4285 40.2135 131.7334 10.2207 12.8382 -19.3782
# 4 -8.4107 -2.2436 10.2207 25.4521 -16.9865 -3.2773
# 5 15.7829 -0.1607 12.8382 -16.9865 54.2020 -4.7916
# 6 -42.8911 -33.9111 -19.3782 -3.2773 -4.7916 48.1165
#
#
#
# Elastic Compliance Matrix: (Units=1/GPa)
#
#
# Indices 1 2 3 4 5 6 
#
# 1 0.009803 -0.000962 -0.003237 0.005570 0.000288 0.007165
# 2 -0.000962 0.021480 -0.005481 0.009314 0.005735 0.013280
# 3 -0.003237 -0.005481 0.011423 -0.010062 -0.005229 -0.003354
# 4 0.005570 0.009314 -0.010062 0.062108 0.021477 0.013846
# 5 0.000288 0.005735 -0.005229 0.021477 0.026912 0.006336
# 6 0.007165 0.013280 -0.003354 0.013846 0.006336 0.036752
#
#
# Mechanical properties :
#
#
# Convention : Reuss Voigt Hill
#
# Bulk Modulus (GPa) = 42.83213 73.23490 58.03352
# Shear Modulus (GPa) = 25.55992 40.91012 33.23502
#
# Velocity S-wave (km/s) = 3.22030 4.07410 3.67210
# Velocity P-wave (km/s) = 5.58616 7.20030 6.44397
#
# Compressibility (1/GPa) = 0.02334696
#
# Stress axis : x y z
#
# Youngs Moduli (GPa) = 102.01231 46.55468 87.54161
#
# Poissons Ratio (x) = 0.04477 0.28340
# Poissons Ratio (y) = 0.09810 0.47977
# Poissons Ratio (z) = 0.33025 0.25514
#
# Static dielectric constant tensor:
#      x y z
#    x 2.182040 0.024960 -0.150470 
#    y 0.024960 2.122700 0.040710 
#    z -0.150470 0.040710 2.139940 
# 
# From -- ./inp_files/411399.got.cif
#   From: 2010.05.17/outbox.cif.g08.bks.cpg/sg2_206_cif.got.tgz:411399.got - 2010.06.03 11:33:40.
