data_PCOD9013328
_publ_section_title
;
Structure prediction by ZEFSAII (Michael W. Deem and Ramdas Pophale) SiO2 
 PCOD9013328
Probable space group: P -1
;
_chemical_formula_sum "Si O2"
_cell_formula_units_Z 16
_cell_length_a 11.729018
_cell_length_b 14.822354
_cell_length_c 14.524255
_cell_angle_alpha 29.903807
_cell_angle_beta 147.414658
_cell_angle_gamma 127.565046
_cell_volume 605.535812
_symmetry_space_group_name_H-M "P -1"
_symmetry_group_IT_number 2
_symmetry_cell_setting 'triclinic'
loop_
_space_group_symop_operation_xyz
x,y,z
-x,-y,-z
loop_
_atom_site_type_symbol
_atom_site_label
_atom_site_fract_x
_atom_site_fract_y
_atom_site_fract_z
Si Si1 0.401840 0.768171 0.457289
Si Si2 0.490971 0.126382 0.014937
Si Si3 0.672980 0.820797 0.932857
Si Si4 0.948933 0.623400 0.996577
Si Si5 0.119525 0.174009 0.563854
Si Si6 0.843084 0.035256 0.614659
Si Si7 0.723326 0.416530 0.296357
Si Si8 0.573431 0.488332 0.665701
O O1 0.358208 0.617455 0.628833
O O2 0.408170 0.696068 0.421475
O O3 0.248527 0.001282 0.177812
O O4 0.676419 0.722149 0.694900
O O5 0.303484 0.111467 0.829287
O O6 0.541142 0.309397 0.851544
O O7 0.403950 0.162945 0.027317
O O8 0.731077 0.922072 0.341020
O O9 0.438075 0.890303 0.648774
O O10 0.820758 0.583890 0.218077
O O11 0.998884 0.414781 0.264227
O O12 0.147982 0.570644 0.100140
O O13 0.961474 0.795484 0.918299
O O14 0.935552 0.084588 0.537728
O O15 0.884086 0.188557 0.574083
O O16 0.500000 0.500000 0.000000
O O17 0.500000 0.500000 0.500000
#
# Coordination Sequence:
#
# PCOD9013328 Si02
#       8
#     2   2   2   2   2   2   2   2
#     4  11  24  40  66  93 127 160 205 255 308 366
#     4  11  23  40  63  89 125 167 202 248 315 370
#     4  10  22  40  64  93 120 163 204 252 310 366
#     4  11  22  39  60  97 123 160 202 253 311 367
#     4  11  23  39  62  90 125 163 202 254 305 367
#     4  10  23  39  63  91 121 157 208 254 302 362
#     4  10  21  41  64  91 124 162 206 255 307 355
#     4  12  23  41  63  93 130 164 201 252 309 374
#
# _framework density 26.422878999999998
#
# number of rings (size 3 to 8) (size 9 to 14) (size 15 to 20)
#    0.000    1.250    3.750    2.625    1.750    7.000 
#    0.000    0.625    0.000    3.750    0.000    0.000 
#    0.000    0.000    0.000    0.000    0.000    0.000 
#
# Total GULP energy -89578.381105 kJ/mol
# GULP energy per Si atom -5598.648819 kJ/mol
# Density = 2.636274 g / cm^3
# Si number density = 26.422879 Si / 1000 Ang^3
#
#
#
# Elastic Constant Matrix: (Units=GPa)
#
#
# Indices 1 2 3 4 5 6 
#
# 1 58.4117 20.0615 -6.4552 1.1961 -17.5042 -0.0168
# 2 20.0615 104.7081 77.9192 -35.5758 13.3763 -9.3738
# 3 -6.4552 77.9192 64.6798 -38.6588 -25.3211 3.3993
# 4 1.1961 -35.5758 -38.6588 60.7545 3.6072 8.4785
# 5 -17.5042 13.3763 -25.3211 3.6072 27.8355 -9.3548
# 6 -0.0168 -9.3738 3.3993 8.4785 -9.3548 49.6083
#
#
#
# Elastic Compliance Matrix: (Units=1/GPa)
#
#
# Indices 1 2 3 4 5 6 
#
# 1 0.011069 0.007276 -0.013019 -0.004026 -0.007327 0.001577
# 2 0.007276 -0.001997 0.013585 0.006169 0.017403 0.000922
# 3 -0.013019 0.013585 -0.009099 0.004152 -0.024234 -0.002093
# 4 -0.004026 0.006169 0.004152 0.023775 -0.006267 -0.004365
# 5 -0.007327 0.017403 -0.024234 -0.006267 0.003998 0.006772
# 6 0.001577 0.000922 -0.002093 -0.004365 0.006772 0.022499
#
#
# Mechanical properties :
#
#
# Convention : Reuss Voigt Hill
#
# Bulk Modulus (GPa) = 63.86846 45.65008 54.75927
# Shear Modulus (GPa) = 125.69268 36.72461 81.20865
#
# Velocity S-wave (km/s) = 6.90456 3.73215 5.54986
# Velocity P-wave (km/s) = 9.36953 5.99051 7.86366
#
# Compressibility (1/GPa) = 0.01565718
#
# Stress axis : x y z
#
# Youngs Moduli (GPa) = 90.33991 -500.62748 -109.90202
#
# Poissons Ratio (x) = 3.64280 -1.43079
# Poissons Ratio (y) = -0.65735 1.49297
# Poissons Ratio (z) = 1.17612 6.80079
#
# Static dielectric constant tensor:
#      x y z
#    x 2.083160 -0.009470 0.038880 
#    y -0.009470 2.093250 -0.020930 
#    z 0.038880 -0.020930 2.097130 
# 
# From -- ./inp_files/455490.got.cif
#   From: 2010.05.17/outbox.cif.g08.bks.cpg/sg2_228_cif.got.tgz:455490.got - 2010.06.03 11:33:40.
