data_PCOD9013534
_publ_section_title
;
Structure prediction by ZEFSAII (Michael W. Deem and Ramdas Pophale) SiO2 
 PCOD9013534
Probable space group: P -1
;
_chemical_formula_sum "Si O2"
_cell_formula_units_Z 16
_cell_length_a 6.329606
_cell_length_b 10.966104
_cell_length_c 10.729150
_cell_angle_alpha 108.514661
_cell_angle_beta 68.333172
_cell_angle_gamma 109.227200
_cell_volume 636.996140
_symmetry_space_group_name_H-M "P -1"
_symmetry_group_IT_number 2
_symmetry_cell_setting 'triclinic'
loop_
_space_group_symop_operation_xyz
x,y,z
-x,-y,-z
loop_
_atom_site_type_symbol
_atom_site_label
_atom_site_fract_x
_atom_site_fract_y
_atom_site_fract_z
Si Si1 0.987330 0.802894 0.027691
Si Si2 0.008272 0.525765 0.297730
Si Si3 0.388686 0.363779 0.551511
Si Si4 0.886750 0.740454 0.743703
Si Si5 0.651428 0.359362 0.119427
Si Si6 0.475520 0.390564 0.837882
Si Si7 0.625390 0.918280 0.538181
Si Si8 0.945956 0.005400 0.702962
O O1 0.725460 0.721795 0.093770
O O2 0.041268 0.933280 0.142765
O O3 0.985359 0.798395 0.876616
O O4 0.190579 0.731027 0.000045
O O5 0.883376 0.636334 0.411024
O O6 0.824242 0.443996 0.211781
O O7 0.061271 0.405046 0.329511
O O8 0.250740 0.598126 0.205616
O O9 0.500000 0.500000 0.500000
O O10 0.444114 0.373244 0.688845
O O11 0.478874 0.234943 0.451988
O O12 0.603276 0.717465 0.800743
O O13 0.980655 0.856813 0.663528
O O14 0.585831 0.468194 0.079621
O O15 0.853354 0.912220 0.403617
O O16 0.500000 0.000000 0.500000
O O17 0.707991 0.994064 0.673521
#
# Coordination Sequence:
#
# PCOD9013534 Si02
#       8
#     2   2   2   2   2   2   2   2
#     4  11  22  42  67 106 141 188 236 283 351 428
#     4   9  22  41  69 101 141 175 225 297 356 416
#     4  11  25  44  74 107 134 180 245 297 357 417
#     4  10  23  41  71 105 143 187 229 286 358 420
#     4   9  21  38  64 100 140 182 226 289 344 416
#     4  10  21  41  65 104 142 183 225 293 363 420
#     4  11  28  50  73  99 141 191 237 296 357 416
#     4  11  26  47  69 100 144 188 244 282 349 427
#
# _framework density 25.117892999999999
#
# number of rings (size 3 to 8) (size 9 to 14) (size 15 to 20)
#    0.000    1.750    1.250    0.750    7.000   11.500 
#    0.000    0.000    0.000    0.000    0.000    0.000 
#    0.000    0.000    0.000    0.000    0.000    0.000 
#
# Total GULP energy -89417.067009 kJ/mol
# GULP energy per Si atom -5588.566688 kJ/mol
# Density = 2.506072 g / cm^3
# Si number density = 25.117893 Si / 1000 Ang^3
#
#
#
# Elastic Constant Matrix: (Units=GPa)
#
#
# Indices 1 2 3 4 5 6 
#
# 1 132.0399 47.2563 19.5312 6.1562 -14.1684 -14.9270
# 2 47.2563 133.9520 24.2134 7.8951 4.0031 -16.6777
# 3 19.5312 24.2134 47.6733 5.3658 7.8766 -9.2399
# 4 6.1562 7.8951 5.3658 43.6837 -10.7267 4.4961
# 5 -14.1684 4.0031 7.8766 -10.7267 30.6745 -5.3845
# 6 -14.9270 -16.6777 -9.2399 4.4961 -5.3845 26.8443
#
#
#
# Elastic Compliance Matrix: (Units=1/GPa)
#
#
# Indices 1 2 3 4 5 6 
#
# 1 0.010201 -0.002756 -0.003196 0.000715 0.006865 0.004118
# 2 -0.002756 0.009481 -0.002500 -0.001839 -0.001911 0.003422
# 3 -0.003196 -0.002500 0.026531 -0.005035 -0.008869 0.004865
# 4 0.000715 -0.001839 -0.005035 0.026792 0.010375 -0.004885
# 5 0.006865 -0.001911 -0.008869 0.010375 0.043063 0.006478
# 6 0.004118 0.003422 0.004865 -0.004885 0.006478 0.045460
#
#
# Mechanical properties :
#
#
# Convention : Reuss Voigt Hill
#
# Bulk Modulus (GPa) = 34.12049 55.07410 44.59730
# Shear Modulus (GPa) = 26.56703 35.08479 30.82591
#
# Velocity S-wave (km/s) = 3.25575 3.74144 3.50701
# Velocity P-wave (km/s) = 5.26753 6.37482 5.84744
#
# Compressibility (1/GPa) = 0.02930790
#
# Stress axis : x y z
#
# Youngs Moduli (GPa) = 98.02615 105.47255 37.69213
#
# Poissons Ratio (x) = 0.29066 0.12048
# Poissons Ratio (y) = 0.27014 0.09425
# Poissons Ratio (z) = 0.31333 0.26373
#
# Static dielectric constant tensor:
#      x y z
#    x 2.021810 0.006730 0.041770 
#    y 0.006730 1.994720 0.023070 
#    z 0.041770 0.023070 2.104670 
# 
# From -- ./inp_files/364963.got.cif
#   From: 2010.05.17/outbox.cif.g08.bks.cpg/sg2_183_cif.got.tgz:364963.got - 2010.06.03 11:33:40.
