data_PCOD9013200
_publ_section_title
;
Structure prediction by ZEFSAII (Michael W. Deem and Ramdas Pophale) SiO2 
 PCOD9013200
Probable space group: P -1
;
_chemical_formula_sum "Si O2"
_cell_formula_units_Z 16
_cell_length_a 9.749305
_cell_length_b 16.118880
_cell_length_c 9.066357
_cell_angle_alpha 133.144457
_cell_angle_beta 137.233320
_cell_angle_gamma 61.888663
_cell_volume 704.500417
_symmetry_space_group_name_H-M "P -1"
_symmetry_group_IT_number 2
_symmetry_cell_setting 'triclinic'
loop_
_space_group_symop_operation_xyz
x,y,z
-x,-y,-z
loop_
_atom_site_type_symbol
_atom_site_label
_atom_site_fract_x
_atom_site_fract_y
_atom_site_fract_z
Si Si1 0.043333 0.945856 0.126771
Si Si2 0.298894 0.522367 0.276678
Si Si3 0.075763 0.175104 0.550912
Si Si4 0.079953 0.325341 0.029321
Si Si5 0.364638 0.181067 0.235134
Si Si6 0.359408 0.768080 0.734127
Si Si7 0.694388 0.253972 0.823766
Si Si8 0.417047 0.340855 0.944113
O O1 0.196162 0.844805 0.121714
O O2 0.830008 0.898631 0.971047
O O3 0.137622 0.046959 0.428485
O O4 0.000000 0.000000 0.000000
O O5 0.500000 0.500000 0.500000
O O6 0.125948 0.445714 0.132983
O O7 0.281896 0.656209 0.441129
O O8 0.341651 0.461899 0.082238
O O9 0.217534 0.257689 0.660150
O O10 0.843825 0.174685 0.315717
O O11 0.084231 0.228616 0.786936
O O12 0.264609 0.298628 0.251192
O O13 0.875829 0.314235 0.946496
O O14 0.494311 0.153576 0.159209
O O15 0.523003 0.198059 0.512593
O O16 0.478263 0.719403 0.906401
O O17 0.578952 0.337622 0.939687
#
# Coordination Sequence:
#
# PCOD9013200 Si02
#       8
#     2   2   2   2   2   2   2   2
#     4  11  26  43  64  93 129 169 209 262 321 375
#     4   9  18  39  70  90 127 168 210 254 315 372
#     4  11  22  40  65  92 122 164 222 254 305 378
#     4  10  21  41  63  95 130 163 212 264 302 379
#     4  11  22  41  64  93 130 162 209 267 307 371
#     4  11  21  41  68  94 124 168 212 260 315 368
#     4  11  24  42  64  92 135 165 207 262 323 365
#     4  10  22  40  64  93 128 165 209 261 306 381
#
# _framework density 22.711129
#
# number of rings (size 3 to 8) (size 9 to 14) (size 15 to 20)
#    0.000    1.500    5.000    1.500    0.000    8.500 
#    0.000    3.125    2.750    0.000    0.000    0.000 
#    0.000    0.000    0.000    0.000    0.000    0.000 
#
# Total GULP energy -89441.698066 kJ/mol
# GULP energy per Si atom -5590.106129 kJ/mol
# Density = 2.265944 g / cm^3
# Si number density = 22.711129 Si / 1000 Ang^3
#
#
#
# Elastic Constant Matrix: (Units=GPa)
#
#
# Indices 1 2 3 4 5 6 
#
# 1 147.2422 22.9684 23.4065 13.0775 5.3548 -3.8311
# 2 22.9684 91.5310 14.7962 -8.0092 0.3681 -0.7048
# 3 23.4065 14.7962 52.1538 -1.1818 11.1961 2.9686
# 4 13.0775 -8.0092 -1.1818 43.9663 -1.3332 -2.0145
# 5 5.3548 0.3681 11.1961 -1.3332 28.2337 -2.5347
# 6 -3.8311 -0.7048 2.9686 -2.0145 -2.5347 34.1150
#
#
#
# Elastic Compliance Matrix: (Units=1/GPa)
#
#
# Indices 1 2 3 4 5 6 
#
# 1 0.007818 -0.001690 -0.003083 -0.002682 -0.000281 0.000932
# 2 -0.001690 0.012062 -0.002962 0.002693 0.001518 0.000589
# 3 -0.003083 -0.002962 0.023508 0.000597 -0.008947 -0.003082
# 4 -0.002682 0.002693 0.000597 0.024151 0.001489 0.001239
# 5 -0.000281 0.001518 -0.008947 0.001489 0.039411 0.003794
# 6 0.000932 0.000589 -0.003082 0.001239 0.003794 0.030053
#
#
# Mechanical properties :
#
#
# Convention : Reuss Voigt Hill
#
# Bulk Modulus (GPa) = 35.81842 45.91881 40.86862
# Shear Modulus (GPa) = 30.90655 36.58006 33.74330
#
# Velocity S-wave (km/s) = 3.69298 4.01766 3.85874
# Velocity P-wave (km/s) = 5.83007 6.46411 6.15526
#
# Compressibility (1/GPa) = 0.02791860
#
# Stress axis : x y z
#
# Youngs Moduli (GPa) = 127.91255 82.90339 42.53939
#
# Poissons Ratio (x) = 0.14009 0.13114
# Poissons Ratio (y) = 0.21615 0.12600
# Poissons Ratio (z) = 0.39431 0.24556
#
# Static dielectric constant tensor:
#      x y z
#    x 1.842020 -0.004860 0.000770 
#    y -0.004860 1.845200 -0.023320 
#    z 0.000770 -0.023320 1.878990 
# 
# From -- ./inp_files/218777.got.cif
#   From: 2010.05.17/outbox.cif.g08.bks.cpg/sg2_110_cif.got.tgz:218777.got - 2010.06.03 11:33:40.
