data_PCOD9013869
_publ_section_title
;
Structure prediction by ZEFSAII (Michael W. Deem and Ramdas Pophale) SiO2 
 PCOD9013869
Probable space group: P -1
;
_chemical_formula_sum "Si O2"
_cell_formula_units_Z 14
_cell_length_a 7.337963
_cell_length_b 12.963613
_cell_length_c 11.819267
_cell_angle_alpha 144.682805
_cell_angle_beta 61.130065
_cell_angle_gamma 118.917021
_cell_volume 560.214376
_symmetry_space_group_name_H-M "P -1"
_symmetry_group_IT_number 2
_symmetry_cell_setting 'triclinic'
loop_
_space_group_symop_operation_xyz
x,y,z
-x,-y,-z
loop_
_atom_site_type_symbol
_atom_site_label
_atom_site_fract_x
_atom_site_fract_y
_atom_site_fract_z
Si Si1 0.331125 0.316999 0.006580
Si Si2 0.087596 0.666907 0.761936
Si Si3 0.409200 0.859804 0.002125
Si Si4 0.178171 0.892569 0.716706
Si Si5 0.732270 0.687669 0.635545
Si Si6 0.401895 0.197057 0.453876
Si Si7 0.775478 0.564435 0.107407
O O1 0.574883 0.398902 0.034642
O O2 0.274538 0.361777 0.934677
O O3 0.262825 0.101560 0.853428
O O4 0.157561 0.397843 0.202289
O O5 0.133786 0.832441 0.807474
O O6 0.184864 0.497968 0.539857
O O7 0.198937 0.736721 0.908407
O O8 0.364226 0.988279 0.233049
O O9 0.594693 0.740606 0.828189
O O10 0.500000 0.000000 0.000000
O O11 0.372824 0.790287 0.539198
O O12 0.948707 0.830600 0.676637
O O13 0.600383 0.690579 0.561863
O O14 0.245726 0.277160 0.654699
O O15 0.000000 0.500000 0.000000
#
# Coordination Sequence:
#
# PCOD9013869 Si02
#       7
#     2   2   2   2   2   2   2
#     4  11  27  48  79 111 146 196 257 311 373 454
#     4  12  23  46  74 114 159 199 238 310 378 450
#     4  10  21  41  66 106 156 196 241 291 365 459
#     4  12  26  44  74 116 157 194 239 309 386 452
#     4  11  24  42  70 110 161 199 246 289 368 464
#     4  11  25  45  72 107 146 200 249 303 377 435
#     4  11  27  56  80 103 144 199 263 320 370 433
#
# _framework density 24.990432999999999
#
# number of rings (size 3 to 8) (size 9 to 14) (size 15 to 20)
#    0.000    0.857    2.857    4.714    2.000    5.143 
#    0.000    5.000    0.000    0.000    0.000    0.000 
#    0.000    0.000    0.000    0.000    0.000    0.000 
#
# Total GULP energy -78331.199533 kJ/mol
# GULP energy per Si atom -5595.085681 kJ/mol
# Density = 2.493355 g / cm^3
# Si number density = 24.990433 Si / 1000 Ang^3
#
#
#
# Elastic Constant Matrix: (Units=GPa)
#
#
# Indices 1 2 3 4 5 6 
#
# 1 180.4896 45.1983 88.4470 13.5806 -27.6726 17.9984
# 2 45.1983 128.0915 66.5377 21.0188 -6.7354 8.0800
# 3 88.4470 66.5377 213.4973 11.8706 -23.5705 2.0015
# 4 13.5806 21.0188 11.8706 31.7172 3.9131 4.5013
# 5 -27.6726 -6.7354 -23.5705 3.9131 44.4092 4.3720
# 6 17.9984 8.0800 2.0015 4.5013 4.3720 42.0198
#
#
#
# Elastic Compliance Matrix: (Units=1/GPa)
#
#
# Indices 1 2 3 4 5 6 
#
# 1 0.008087 -0.000789 -0.002507 -0.002025 0.004103 -0.003403
# 2 -0.000789 0.010397 -0.002565 -0.005490 0.000304 -0.000983
# 3 -0.002507 -0.002565 0.006680 -0.000067 0.001492 0.001101
# 4 -0.002025 -0.005490 -0.000067 0.036916 -0.005237 -0.001483
# 5 0.004103 0.000304 0.001492 -0.005237 0.026778 -0.004112
# 6 -0.003403 -0.000983 0.001101 -0.001483 -0.004112 0.025979
#
#
# Mechanical properties :
#
#
# Convention : Reuss Voigt Hill
#
# Bulk Modulus (GPa) = 74.39537 102.49384 88.44460
# Shear Modulus (GPa) = 38.15618 45.08891 41.62255
#
# Velocity S-wave (km/s) = 3.91171 4.25225 4.08553
# Velocity P-wave (km/s) = 7.08774 8.07534 7.59761
#
# Compressibility (1/GPa) = 0.01344170
#
# Stress axis : x y z
#
# Youngs Moduli (GPa) = 123.65064 96.18450 149.69685
#
# Poissons Ratio (x) = 0.07586 0.37532
# Poissons Ratio (y) = 0.09752 0.38403
# Poissons Ratio (z) = 0.31001 0.24675
#
# Static dielectric constant tensor:
#      x y z
#    x 2.068860 -0.048980 0.002770 
#    y -0.048980 2.036210 0.029330 
#    z 0.002770 0.029330 1.973540 
# 
# From -- ./inp_files/391273.got.cif
#   From: 2010.05.17/outbox.cif.g08.bks.cpg/sg2_196_cif.got.tgz:391273.got - 2010.06.03 11:33:40.
