data_PCOD9013620
_publ_section_title
;
Structure prediction by ZEFSAII (Michael W. Deem and Ramdas Pophale) SiO2 
 PCOD9013620
Probable space group: P -1
;
_chemical_formula_sum "Si O2"
_cell_formula_units_Z 14
_cell_length_a 22.141678
_cell_length_b 8.696525
_cell_length_c 9.573747
_cell_angle_alpha 117.437324
_cell_angle_beta 151.235967
_cell_angle_gamma 50.670112
_cell_volume 663.541881
_symmetry_space_group_name_H-M "P -1"
_symmetry_group_IT_number 2
_symmetry_cell_setting 'triclinic'
loop_
_space_group_symop_operation_xyz
x,y,z
-x,-y,-z
loop_
_atom_site_type_symbol
_atom_site_label
_atom_site_fract_x
_atom_site_fract_y
_atom_site_fract_z
Si Si1 0.601409 0.591877 0.715086
Si Si2 0.831412 0.212170 0.586744
Si Si3 0.844965 0.638551 0.324275
Si Si4 0.871581 0.857927 0.727728
Si Si5 0.391234 0.378634 0.570259
Si Si6 0.319203 0.038705 0.341940
Si Si7 0.740338 0.045711 0.107893
O O1 0.500000 0.500000 0.500000
O O2 0.660761 0.530613 0.652464
O O3 0.484333 0.836185 0.589307
O O4 0.742078 0.543427 0.072912
O O5 0.680053 0.432136 0.389920
O O6 0.841124 0.115999 0.414996
O O7 0.835742 0.049769 0.637415
O O8 0.967933 0.232603 0.914614
O O9 0.867837 0.695873 0.549817
O O10 0.000000 0.500000 0.500000
O O11 0.764031 0.849777 0.158594
O O12 0.754931 0.936352 0.649320
O O13 0.330302 0.233489 0.417129
O O14 0.569478 0.232405 0.862856
O O15 0.237195 0.007775 0.032246
#
# Coordination Sequence:
#
# PCOD9013620 Si02
#       7
#     2   2   2   2   2   2   2
#     4  11  22  40  67  97 127 170 219 260 314 380
#     4  10  22  42  64  91 128 171 212 260 312 384
#     4  11  22  43  67  91 128 176 209 257 326 387
#     4  10  24  41  63  94 131 166 215 258 317 382
#     4  11  20  41  67  91 128 167 211 265 322 368
#     4  11  22  41  65  93 130 162 211 272 314 376
#     4  10  21  41  65  91 124 168 211 259 323 374
#
# _framework density 21.098894000000001
#
# number of rings (size 3 to 8) (size 9 to 14) (size 15 to 20)
#    0.000    1.429    2.857    3.000    0.000    4.000 
#    7.714    0.000    0.000    0.000    0.000    0.000 
#    0.000    0.000    0.000    0.000    0.000    0.000 
#
# Total GULP energy -78226.328610 kJ/mol
# GULP energy per Si atom -5587.594901 kJ/mol
# Density = 2.105087 g / cm^3
# Si number density = 21.098894 Si / 1000 Ang^3
#
#
#
# Elastic Constant Matrix: (Units=GPa)
#
#
# Indices 1 2 3 4 5 6 
#
# 1 61.0346 4.2561 34.6566 27.2135 -10.4988 -26.5904
# 2 4.2561 70.7948 35.9667 17.6703 -0.2268 -14.9954
# 3 34.6566 35.9667 134.1937 35.4940 -7.2153 -10.7088
# 4 27.2135 17.6703 35.4940 34.7412 -2.6720 -3.5494
# 5 -10.4988 -0.2268 -7.2153 -2.6720 25.2517 9.4358
# 6 -26.5904 -14.9954 -10.7088 -3.5494 9.4358 28.0462
#
#
#
# Elastic Compliance Matrix: (Units=1/GPa)
#
#
# Indices 1 2 3 4 5 6 
#
# 1 0.092791 0.037472 -0.006577 -0.075554 -0.007786 0.098555
# 2 0.037472 0.034445 -0.005691 -0.036593 -0.008263 0.049919
# 3 -0.006577 -0.005691 0.011370 -0.004025 0.002370 -0.006244
# 4 -0.075554 -0.036593 -0.004025 0.102927 0.008904 -0.082704
# 5 -0.007786 -0.008263 0.002370 0.008904 0.047535 -0.025760
# 6 0.098555 0.049919 -0.006244 -0.082704 -0.025760 0.151601
#
#
# Mechanical properties :
#
#
# Convention : Reuss Voigt Hill
#
# Bulk Modulus (GPa) = 5.29067 46.19799 25.74433
# Shear Modulus (GPa) = 11.03107 30.35075 20.69091
#
# Velocity S-wave (km/s) = 2.28902 3.79687 3.13495
# Velocity P-wave (km/s) = 3.08207 6.41600 5.03310
#
# Compressibility (1/GPa) = 0.18901195
#
# Stress axis : x y z
#
# Youngs Moduli (GPa) = 10.77695 29.03211 87.95384
#
# Poissons Ratio (x) = -1.08789 0.57847
# Poissons Ratio (y) = -0.40383 0.50057
# Poissons Ratio (z) = 0.07088 0.16523
#
# Static dielectric constant tensor:
#      x y z
#    x 1.715310 0.017010 -0.005760 
#    y 0.017010 1.754560 0.016210 
#    z -0.005760 0.016210 1.817260 
# 
# From -- ./inp_files/157100.got.cif
#   From: 2010.05.17/outbox.cif.g08.bks.cpg/sg2_79_cif.got.tgz:157100.got - 2010.06.03 11:33:40.
