data_PCOD9013879
_publ_section_title
;
Structure prediction by ZEFSAII (Michael W. Deem and Ramdas Pophale) SiO2 
 PCOD9013879
Probable space group: P -1
;
_chemical_formula_sum "Si O2"
_cell_formula_units_Z 15
_cell_length_a 15.878648
_cell_length_b 12.962843
_cell_length_c 7.344906
_cell_angle_alpha 48.756484
_cell_angle_beta 136.695935
_cell_angle_gamma 144.290232
_cell_volume 596.335102
_symmetry_space_group_name_H-M "P -1"
_symmetry_group_IT_number 2
_symmetry_cell_setting 'triclinic'
loop_
_space_group_symop_operation_xyz
x,y,z
-x,-y,-z
loop_
_atom_site_type_symbol
_atom_site_label
_atom_site_fract_x
_atom_site_fract_y
_atom_site_fract_z
Si Si1 0.568466 0.900531 0.780618
Si Si2 0.500000 0.500000 0.500000
Si Si3 0.120454 0.272336 0.255622
Si Si4 0.088747 0.737754 0.526451
Si Si5 0.237296 0.634601 0.617115
Si Si6 0.043568 0.098106 0.738604
Si Si7 0.148822 0.741685 0.031742
Si Si8 0.609777 0.683064 0.838621
O O1 0.416549 0.715972 0.853030
O O2 0.602333 0.827855 0.749217
O O3 0.500000 0.000000 0.500000
O O4 0.724018 0.042248 0.982612
O O5 0.306001 0.403326 0.345800
O O6 0.553160 0.630654 0.606105
O O7 0.094546 0.193580 0.510317
O O8 0.016520 0.336527 0.036226
O O9 0.023571 0.100066 0.172786
O O10 0.204347 0.746114 0.556869
O O11 0.121207 0.701395 0.822524
O O12 0.911734 0.573760 0.361091
O O13 0.088359 0.898135 0.382466
O O14 0.224919 0.669192 0.344463
O O15 0.206476 0.226064 0.956222
O O16 0.500000 0.500000 0.000000
#
# Coordination Sequence:
#
# PCOD9013879 Si02
#       8
#     2   1   2   2   2   2   2   2
#     4  10  23  44  67  94 134 180 221 271 335 398
#     4  12  28  40  68 106 134 172 234 280 338 412
#     4  10  22  42  64 102 125 170 221 269 339 402
#     4  10  22  39  63  96 124 168 216 266 324 392
#     4  10  22  40  61  94 127 169 218 262 317 393
#     4  10  21  42  71  89 136 171 214 279 339 394
#     4  10  21  41  66  86 127 173 208 265 327 388
#     4  12  24  45  68 101 137 178 221 290 341 394
#
# _framework density 25.153642999999999
#
# number of rings (size 3 to 8) (size 9 to 14) (size 15 to 20)
#    0.000    1.600    2.667    1.200    3.733    3.200 
#    0.000    0.000    0.000    0.000    0.000    0.000 
#    0.000    0.000    0.000    0.000    0.000    0.000 
#
# Total GULP energy -83683.172699 kJ/mol
# GULP energy per Si atom -5578.878180 kJ/mol
# Density = 2.509639 g / cm^3
# Si number density = 25.153643 Si / 1000 Ang^3
#
#
#
# Elastic Constant Matrix: (Units=GPa)
#
#
# Indices 1 2 3 4 5 6 
#
# 1 131.5534 28.9124 46.7619 17.5767 -0.1019 -8.1767
# 2 28.9124 97.0765 46.3133 30.5059 -6.2420 -14.7640
# 3 46.7619 46.3133 78.0038 39.1953 -7.2579 -0.4321
# 4 17.5767 30.5059 39.1953 56.6644 4.2463 2.9761
# 5 -0.1019 -6.2420 -7.2579 4.2463 49.7132 8.6299
# 6 -8.1767 -14.7640 -0.4321 2.9761 8.6299 50.0933
#
#
#
# Elastic Compliance Matrix: (Units=1/GPa)
#
#
# Indices 1 2 3 4 5 6 
#
# 1 0.009950 -0.000033 -0.006955 0.001762 -0.001445 0.001699
# 2 -0.000033 0.015738 -0.007469 -0.003572 0.000372 0.004717
# 3 -0.006955 -0.007469 0.028930 -0.014045 0.005012 -0.003116
# 4 0.001762 -0.003572 -0.014045 0.029185 -0.004673 -0.001815
# 5 -0.001445 0.000372 0.005012 -0.004673 0.021912 -0.003580
# 6 0.001699 0.004717 -0.003116 -0.001815 -0.003580 0.022328
#
#
# Mechanical properties :
#
#
# Convention : Reuss Voigt Hill
#
# Bulk Modulus (GPa) = 38.90482 61.17875 50.04179
# Shear Modulus (GPa) = 30.20689 43.60393 36.90541
#
# Velocity S-wave (km/s) = 3.46915 4.16805 3.83456
# Velocity P-wave (km/s) = 5.61668 6.89481 6.28830
#
# Compressibility (1/GPa) = 0.02570376
#
# Stress axis : x y z
#
# Youngs Moduli (GPa) = 100.50007 63.54084 34.56591
#
# Poissons Ratio (x) = 0.00212 0.24042
# Poissons Ratio (y) = 0.00335 0.25816
# Poissons Ratio (z) = 0.69901 0.47456
#
# Static dielectric constant tensor:
#      x y z
#    x 1.957180 0.085500 0.004730 
#    y 0.085500 2.088470 -0.086930 
#    z 0.004730 -0.086930 2.014550 
# 
# From -- ./inp_files/182307.got.cif
#   From: 2010.05.17/outbox.cif.g08.bks.cpg/sg2_92_cif.got.tgz:182307.got - 2010.06.03 11:33:40.
