data_PCOD9013007
_publ_section_title
;
Structure prediction by ZEFSAII (Michael W. Deem and Ramdas Pophale) SiO2 
 PCOD9013007
Probable space group: P -1
;
_chemical_formula_sum "Si O2"
_cell_formula_units_Z 15
_cell_length_a 20.567839
_cell_length_b 8.394613
_cell_length_c 9.081539
_cell_angle_alpha 94.842300
_cell_angle_beta 136.922003
_cell_angle_gamma 50.992589
_cell_volume 588.371249
_symmetry_space_group_name_H-M "P -1"
_symmetry_group_IT_number 2
_symmetry_cell_setting 'triclinic'
loop_
_space_group_symop_operation_xyz
x,y,z
-x,-y,-z
loop_
_atom_site_type_symbol
_atom_site_label
_atom_site_fract_x
_atom_site_fract_y
_atom_site_fract_z
Si Si1 0.028695 0.821320 0.415750
Si Si2 0.638303 0.769559 0.427484
Si Si3 0.734344 0.979151 0.976735
Si Si4 0.527696 0.463487 0.215920
Si Si5 0.483517 0.269264 0.350954
Si Si6 0.207073 0.729055 0.185117
Si Si7 0.000000 0.500000 0.500000
Si Si8 0.717197 0.795270 0.269941
O O1 0.213357 0.479771 0.682730
O O2 0.000000 0.000000 0.500000
O O3 0.912140 0.831513 0.282329
O O4 0.962273 0.974062 0.158609
O O5 0.771215 0.463839 0.700435
O O6 0.724393 0.773018 0.456694
O O7 0.532847 0.017713 0.392809
O O8 0.481745 0.907175 0.085719
O O9 0.593114 0.241868 0.873347
O O10 0.652389 0.111059 0.694458
O O11 0.826947 0.681715 0.131872
O O12 0.463801 0.387931 0.175239
O O13 0.716323 0.249246 0.570497
O O14 0.500000 0.500000 0.000000
O O15 0.332791 0.523042 0.234923
O O16 0.857410 0.717758 0.424930
#
# Coordination Sequence:
#
# PCOD9013007 Si02
#       8
#     2   2   2   2   2   2   1   2
#     4  11  22  40  67  92 132 182 227 271 339 409
#     4  11  25  40  70 101 137 170 233 292 340 388
#     4  10  21  41  62  95 127 177 229 278 325 413
#     4  11  23  37  69  98 131 175 230 282 338 399
#     4  11  21  41  68  94 133 180 229 276 339 410
#     4  11  22  43  66  99 133 178 229 285 334 411
#     4  10  22  42  68  84 136 180 214 262 354 404
#     4  10  24  43  64 101 138 178 223 288 338 412
#
# _framework density 25.494107
#
# number of rings (size 3 to 8) (size 9 to 14) (size 15 to 20)
#    0.000    1.333    2.667    3.600    5.600    2.667 
#    0.000    4.000    0.000    0.000    0.000    0.000 
#    0.000    0.000    0.000    0.000    0.000    0.000 
#
# Total GULP energy -83544.038554 kJ/mol
# GULP energy per Si atom -5569.602570 kJ/mol
# Density = 2.543608 g / cm^3
# Si number density = 25.494107 Si / 1000 Ang^3
#
#
#
# Elastic Constant Matrix: (Units=GPa)
#
#
# Indices 1 2 3 4 5 6 
#
# 1 145.8890 10.7766 45.3901 4.8346 -33.0424 -19.5721
# 2 10.7766 57.4884 14.5935 8.4951 -11.5226 -6.6272
# 3 45.3901 14.5935 114.9399 -7.2695 -33.9526 -4.0584
# 4 4.8346 8.4951 -7.2695 40.1136 -0.9071 -8.3263
# 5 -33.0424 -11.5226 -33.9526 -0.9071 47.0637 1.1453
# 6 -19.5721 -6.6272 -4.0584 -8.3263 1.1453 29.9606
#
#
#
# Elastic Compliance Matrix: (Units=1/GPa)
#
#
# Indices 1 2 3 4 5 6 
#
# 1 0.009387 0.000487 -0.002096 -0.000323 0.005053 0.005673
# 2 0.000487 0.019396 -0.001674 -0.003720 0.003733 0.003205
# 3 -0.002096 -0.001674 0.011953 0.003022 0.006789 0.000460
# 4 -0.000323 -0.003720 0.003022 0.027798 0.001408 0.007047
# 5 0.005053 0.003733 0.006789 0.001408 0.030530 0.004270
# 6 0.005673 0.003205 0.000460 0.007047 0.004270 0.039650
#
#
# Mechanical properties :
#
#
# Convention : Reuss Voigt Hill
#
# Bulk Modulus (GPa) = 29.26622 51.09308 40.17965
# Shear Modulus (GPa) = 31.91392 39.93140 35.92266
#
# Velocity S-wave (km/s) = 3.54194 3.96194 3.75781
# Velocity P-wave (km/s) = 5.31334 6.40421 5.88411
#
# Compressibility (1/GPa) = 0.03416909
#
# Stress axis : x y z
#
# Youngs Moduli (GPa) = 106.53038 51.55707 83.65857
#
# Poissons Ratio (x) = -0.02510 0.17537
# Poissons Ratio (y) = -0.05187 0.14007
# Poissons Ratio (z) = 0.22331 0.08632
#
# Static dielectric constant tensor:
#      x y z
#    x 1.849250 -0.224590 0.198490 
#    y -0.224590 1.829540 0.213200 
#    z 0.198490 0.213200 1.880630 
# 
# From -- ./inp_files/342770.got.cif
#   From: 2010.05.17/outbox.cif.g08.bks.cpg/sg2_172_cif.got.tgz:342770.got - 2010.06.03 11:33:40.
