data_PCOD9013224
_publ_section_title
;
Structure prediction by ZEFSAII (Michael W. Deem and Ramdas Pophale) SiO2 
 PCOD9013224
Probable space group: P -1
;
_chemical_formula_sum "Si O2"
_cell_formula_units_Z 14
_cell_length_a 9.365032
_cell_length_b 11.016071
_cell_length_c 10.265071
_cell_angle_alpha 71.056224
_cell_angle_beta 39.401660
_cell_angle_gamma 90.209063
_cell_volume 575.845555
_symmetry_space_group_name_H-M "P -1"
_symmetry_group_IT_number 2
_symmetry_cell_setting 'triclinic'
loop_
_space_group_symop_operation_xyz
x,y,z
-x,-y,-z
loop_
_atom_site_type_symbol
_atom_site_label
_atom_site_fract_x
_atom_site_fract_y
_atom_site_fract_z
Si Si1 0.503265 0.086819 0.098609
Si Si2 0.951944 0.072294 0.885175
Si Si3 0.548779 0.351473 0.683336
Si Si4 0.552502 0.345811 0.118822
Si Si5 0.064468 0.352141 0.335510
Si Si6 0.421845 0.336529 0.481376
Si Si7 0.093728 0.112792 0.255019
O O1 0.615933 0.253658 0.998974
O O2 0.662327 0.036656 0.096980
O O3 0.223154 0.065191 0.298303
O O4 0.500000 0.000000 0.000000
O O5 0.129001 0.237307 0.716546
O O6 0.020647 0.010412 0.727254
O O7 0.000000 0.000000 0.000000
O O8 0.521481 0.319201 0.558364
O O9 0.534176 0.503039 0.638854
O O10 0.328761 0.232902 0.963252
O O11 0.811661 0.363076 0.549470
O O12 0.277691 0.341355 0.283435
O O13 0.541696 0.289562 0.292234
O O14 0.765550 0.503576 0.907608
O O15 0.969284 0.210254 0.364385
#
# Coordination Sequence:
#
# PCOD9013224 Si02
#       7
#     2   2   2   2   2   2   2
#     4   9  21  40  64  87 124 168 201 262 319 363
#     4  11  22  41  62  88 131 170 208 258 314 375
#     4  11  23  41  66  93 130 168 207 262 319 371
#     4  10  21  41  63  97 127 154 221 261 308 385
#     4  10  22  40  66  94 126 168 202 269 317 366
#     4  11  24  40  61  98 127 167 215 255 314 381
#     4  10  21  44  62  94 129 161 216 259 315 380
#
# _framework density 24.312073999999999
#
# number of rings (size 3 to 8) (size 9 to 14) (size 15 to 20)
#    0.000    1.714    2.857    0.857    2.000    2.286 
#    5.143    3.571    0.000    0.000    0.000    0.000 
#    0.000    0.000    0.000    0.000    0.000    0.000 
#
# Total GULP energy -78046.416660 kJ/mol
# GULP energy per Si atom -5574.744047 kJ/mol
# Density = 2.425674 g / cm^3
# Si number density = 24.312074 Si / 1000 Ang^3
#
#
#
# Elastic Constant Matrix: (Units=GPa)
#
#
# Indices 1 2 3 4 5 6 
#
# 1 119.5855 22.1263 16.9741 11.2239 -12.5729 5.3831
# 2 22.1263 91.6893 4.7783 -13.6913 -8.3082 -0.8000
# 3 16.9741 4.7783 58.8107 -7.1446 -17.3445 -4.2264
# 4 11.2239 -13.6913 -7.1446 33.3928 8.1492 -6.0338
# 5 -12.5729 -8.3082 -17.3445 8.1492 17.8879 6.4626
# 6 5.3831 -0.8000 -4.2264 -6.0338 6.4626 35.1416
#
#
#
# Elastic Compliance Matrix: (Units=1/GPa)
#
#
# Indices 1 2 3 4 5 6 
#
# 1 0.011462 -0.003069 -0.001099 -0.009277 0.011862 -0.005732
# 2 -0.003069 0.012685 0.001136 0.006498 0.001231 0.001785
# 3 -0.001099 0.001136 0.024087 0.000019 0.023548 -0.001236
# 4 -0.009277 0.006498 0.000019 0.045655 -0.029653 0.014863
# 5 0.011862 0.001231 0.023548 -0.029653 0.109920 -0.024263
# 6 -0.005732 0.001785 -0.001236 0.014863 -0.024263 0.036240
#
#
# Mechanical properties :
#
#
# Convention : Reuss Voigt Hill
#
# Bulk Modulus (GPa) = 23.71422 39.76033 31.73728
# Shear Modulus (GPa) = 19.21811 32.36492 25.79151
#
# Velocity S-wave (km/s) = 2.81459 3.65256 3.26061
# Velocity P-wave (km/s) = 4.50975 5.84619 5.22091
#
# Compressibility (1/GPa) = 0.04216879
#
# Stress axis : x y z
#
# Youngs Moduli (GPa) = 87.24525 78.83206 41.51615
#
# Poissons Ratio (x) = 0.24194 0.04564
# Poissons Ratio (y) = 0.26776 -0.04715
# Poissons Ratio (z) = 0.09592 -0.08954
#
# Static dielectric constant tensor:
#      x y z
#    x 1.893660 0.012340 0.050000 
#    y 0.012340 1.970390 -0.014480 
#    z 0.050000 -0.014480 2.037420 
# 
# From -- ./inp_files/80272.got.cif
#   From: 2010.05.17/outbox.cif.g08.bks.cpg/sg2_41_cif.got.tgz:80272.got - 2010.06.03 11:33:40.
