data_PCOD9013528
_publ_section_title
;
Structure prediction by ZEFSAII (Michael W. Deem and Ramdas Pophale) SiO2 
 PCOD9013528
Probable space group: P -1
;
_chemical_formula_sum "Si O2"
_cell_formula_units_Z 16
_cell_length_a 5.806062
_cell_length_b 22.398408
_cell_length_c 11.778154
_cell_angle_alpha 31.146870
_cell_angle_beta 58.363857
_cell_angle_gamma 64.155742
_cell_volume 674.226267
_symmetry_space_group_name_H-M "P -1"
_symmetry_group_IT_number 2
_symmetry_cell_setting 'triclinic'
loop_
_space_group_symop_operation_xyz
x,y,z
-x,-y,-z
loop_
_atom_site_type_symbol
_atom_site_label
_atom_site_fract_x
_atom_site_fract_y
_atom_site_fract_z
Si Si1 0.229457 0.696165 0.241682
Si Si2 0.713614 0.275099 0.575363
Si Si3 0.333143 0.515182 0.900203
Si Si4 0.196221 0.118535 0.021903
Si Si5 0.402101 0.108032 0.419651
Si Si6 0.281814 0.648932 0.064419
Si Si7 0.026425 0.069601 0.763971
Si Si8 0.838011 0.784053 0.889585
O O1 0.215957 0.653915 0.443100
O O2 0.021914 0.799910 0.115629
O O3 0.187685 0.618787 0.266288
O O4 0.531225 0.743512 0.061897
O O5 0.610968 0.356898 0.371163
O O6 0.485576 0.179618 0.824899
O O7 0.961423 0.201855 0.587482
O O8 0.500000 0.500000 0.000000
O O9 0.488864 0.429925 0.914280
O O10 0.000000 0.500000 0.000000
O O11 0.115405 0.128348 0.159076
O O12 0.170717 0.995299 0.169782
O O13 0.602357 0.218459 0.191614
O O14 0.152992 0.155155 0.332835
O O15 0.315983 0.066730 0.633176
O O16 0.500000 0.000000 0.500000
O O17 0.007766 0.667787 0.035362
O O18 0.000000 0.000000 0.000000
#
# Coordination Sequence:
#
# PCOD9013528 Si02
#       8
#     2   2   2   2   2   2   2   2
#     4   9  19  41  71 100 139 172 239 294 367 442
#     4  11  25  44  71 101 142 189 242 304 377 444
#     4  12  31  52  76 107 148 197 258 317 370 450
#     4  10  21  41  65 102 138 186 227 301 362 454
#     4  11  24  41  69 104 144 191 243 305 377 450
#     4  10  23  44  74 100 144 189 246 307 370 448
#     4  12  24  40  67 100 148 188 238 302 379 449
#     4   9  20  40  67 100 135 181 239 296 359 444
#
# _framework density 23.730907999999999
#
# number of rings (size 3 to 8) (size 9 to 14) (size 15 to 20)
#    0.000    1.500    1.250    3.375    8.750    3.500 
#    0.000    5.625    0.000    0.000    0.000    0.000 
#    0.000    0.000    0.000    0.000    0.000    0.000 
#
# Total GULP energy -89309.889604 kJ/mol
# GULP energy per Si atom -5581.868100 kJ/mol
# Density = 2.367690 g / cm^3
# Si number density = 23.730908 Si / 1000 Ang^3
#
#
#
# Elastic Constant Matrix: (Units=GPa)
#
#
# Indices 1 2 3 4 5 6 
#
# 1 65.0109 16.3813 2.4653 4.7056 20.4468 -5.4905
# 2 16.3813 131.8381 27.2094 1.5050 11.5681 -20.6704
# 3 2.4653 27.2094 61.2182 11.6903 17.2775 14.6361
# 4 4.7056 1.5050 11.6903 31.5597 4.4099 4.7684
# 5 20.4468 11.5681 17.2775 4.4099 41.3151 1.1532
# 6 -5.4905 -20.6704 14.6361 4.7684 1.1532 27.3119
#
#
#
# Elastic Compliance Matrix: (Units=1/GPa)
#
#
# Indices 1 2 3 4 5 6 
#
# 1 0.019220 -0.001797 0.002931 -0.002747 -0.009993 0.001834
# 2 -0.001797 0.011448 -0.008408 0.000821 0.000760 0.012633
# 3 0.002931 -0.008408 0.028621 -0.006301 -0.009846 -0.019596
# 4 -0.002747 0.000821 -0.006301 0.034770 0.000126 -0.002630
# 5 -0.009993 0.000760 -0.009846 0.000126 0.032973 0.002428
# 6 0.001834 0.012633 -0.019596 -0.002630 0.002428 0.057402
#
#
# Mechanical properties :
#
#
# Convention : Reuss Voigt Hill
#
# Bulk Modulus (GPa) = 22.35057 38.90878 30.62967
# Shear Modulus (GPa) = 23.37587 34.17141 28.77364
#
# Velocity S-wave (km/s) = 3.14194 3.79879 3.48587
# Velocity P-wave (km/s) = 4.75407 5.97264 5.39785
#
# Compressibility (1/GPa) = 0.04474159
#
# Stress axis : x y z
#
# Youngs Moduli (GPa) = 52.02826 87.34971 34.93958
#
# Poissons Ratio (x) = 0.15700 -0.10241
# Poissons Ratio (y) = 0.09351 0.29376
# Poissons Ratio (z) = -0.15249 0.73440
#
# Static dielectric constant tensor:
#      x y z
#    x 2.111850 0.069650 -0.001620 
#    y 0.069650 1.941610 0.012930 
#    z -0.001620 0.012930 1.895150 
# 
# From -- ./inp_files/84193.got.cif
#   From: 2010.05.17/outbox.cif.g08.bks.cpg/sg2_43_cif.got.tgz:84193.got - 2010.06.03 11:33:40.
