data_PCOD9013852
_publ_section_title
;
Structure prediction by ZEFSAII (Michael W. Deem and Ramdas Pophale) SiO2 
 PCOD9013852
Probable space group: P -1
;
_chemical_formula_sum "Si O2"
_cell_formula_units_Z 13
_cell_length_a 14.041564
_cell_length_b 9.434224
_cell_length_c 8.448685
_cell_angle_alpha 100.800769
_cell_angle_beta 115.799454
_cell_angle_gamma 34.429411
_cell_volume 536.372098
_symmetry_space_group_name_H-M "P -1"
_symmetry_group_IT_number 2
_symmetry_cell_setting 'triclinic'
loop_
_space_group_symop_operation_xyz
x,y,z
-x,-y,-z
loop_
_atom_site_type_symbol
_atom_site_label
_atom_site_fract_x
_atom_site_fract_y
_atom_site_fract_z
Si Si1 0.251807 0.150199 0.749422
Si Si2 0.798880 0.647638 0.917642
Si Si3 0.500000 0.000000 0.500000
Si Si4 0.485235 0.425292 0.209111
Si Si5 0.832003 0.505146 0.477105
Si Si6 0.873579 0.226641 0.821579
Si Si7 0.208197 0.743588 0.766293
O O1 0.240606 0.261857 0.608911
O O2 0.046077 0.301966 0.648875
O O3 0.419102 0.842337 0.782762
O O4 0.273624 0.224077 0.933932
O O5 0.846482 0.423355 0.894455
O O6 0.640468 0.884652 0.726697
O O7 0.000000 0.500000 0.000000
O O8 0.341323 0.315400 0.486514
O O9 0.338645 0.604075 0.287704
O O10 0.662930 0.331313 0.293369
O O11 0.345993 0.596262 0.989601
O O12 0.838583 0.367270 0.331747
O O13 0.005095 0.056748 0.724925
O O14 0.000000 0.000000 0.000000
#
# Coordination Sequence:
#
# PCOD9013852 Si02
#       7
#     2   2   1   2   2   2   2
#     4  11  23  45  70 100 142 190 234 300 361 416
#     4  12  24  45  76 106 147 189 238 309 359 431
#     4  12  26  44  70 114 136 186 248 290 370 428
#     4  10  21  41  66 101 133 185 237 290 361 417
#     4  11  25  44  68 105 143 183 243 295 355 440
#     4  10  22  41  71 104 138 189 238 292 366 427
#     4  10  22  42  67  97 139 180 235 293 355 431
#
# _framework density 24.236906999999999
#
# number of rings (size 3 to 8) (size 9 to 14) (size 15 to 20)
#    0.000    1.231    1.538    4.615    0.000    4.923 
#    5.538    0.769    0.000    0.000    0.000    0.000 
#    0.000    0.000    0.000    0.000    0.000    0.000 
#
# Total GULP energy -72524.412435 kJ/mol
# GULP energy per Si atom -5578.800957 kJ/mol
# Density = 2.418174 g / cm^3
# Si number density = 24.236907 Si / 1000 Ang^3
#
#
#
# Elastic Constant Matrix: (Units=GPa)
#
#
# Indices 1 2 3 4 5 6 
#
# 1 118.0830 47.4461 15.5898 -16.0087 17.8916 -10.1676
# 2 47.4461 141.6260 7.8929 -22.9564 25.7729 -26.8984
# 3 15.5898 7.8929 82.9746 -21.8187 17.1345 -9.1403
# 4 -16.0087 -22.9564 -21.8187 26.7359 2.0307 5.9849
# 5 17.8916 25.7729 17.1345 2.0307 33.1198 -8.3112
# 6 -10.1676 -26.8984 -9.1403 5.9849 -8.3112 45.3794
#
#
#
# Elastic Compliance Matrix: (Units=1/GPa)
#
#
# Indices 1 2 3 4 5 6 
#
# 1 0.010645 -0.001730 0.000796 0.005987 -0.005241 -0.000229
# 2 -0.001730 0.012586 0.005808 0.014461 -0.011699 0.004193
# 3 0.000796 0.005808 0.021292 0.023759 -0.017005 0.001662
# 4 0.005987 0.014461 0.023759 0.075434 -0.031668 -0.001050
# 5 -0.005241 -0.011699 -0.017005 -0.031668 0.053479 0.002437
# 6 -0.000229 0.004193 0.001662 -0.001050 0.002437 0.025390
#
#
# Mechanical properties :
#
#
# Convention : Reuss Voigt Hill
#
# Bulk Modulus (GPa) = 18.42610 53.83792 36.13201
# Shear Modulus (GPa) = 24.13505 39.16401 31.64953
#
# Velocity S-wave (km/s) = 3.15905 4.02417 3.61756
# Velocity P-wave (km/s) = 4.57440 6.62218 5.69115
#
# Compressibility (1/GPa) = 0.05427086
#
# Stress axis : x y z
#
# Youngs Moduli (GPa) = 93.94454 79.45427 46.96582
#
# Poissons Ratio (x) = 0.13744 -0.03738
# Poissons Ratio (y) = 0.16250 -0.27278
# Poissons Ratio (z) = -0.07477 -0.46147
#
# Static dielectric constant tensor:
#      x y z
#    x 2.116340 -0.091880 -0.113210 
#    y -0.091880 1.901090 0.064610 
#    z -0.113210 0.064610 1.857960 
# 
# From -- ./inp_files/182922.got.cif
#   From: 2010.05.17/outbox.cif.g08.bks.cpg/sg2_92_cif.got.tgz:182922.got - 2010.06.03 11:33:40.
