data_PCOD9013618
_publ_section_title
;
Structure prediction by ZEFSAII (Michael W. Deem and Ramdas Pophale) SiO2 
 PCOD9013618
Probable space group: P -1
;
_chemical_formula_sum "Si O2"
_cell_formula_units_Z 13
_cell_length_a 7.884963
_cell_length_b 11.784535
_cell_length_c 12.611894
_cell_angle_alpha 32.687375
_cell_angle_beta 61.296238
_cell_angle_gamma 51.502506
_cell_volume 492.680027
_symmetry_space_group_name_H-M "P -1"
_symmetry_group_IT_number 2
_symmetry_cell_setting 'triclinic'
loop_
_space_group_symop_operation_xyz
x,y,z
-x,-y,-z
loop_
_atom_site_type_symbol
_atom_site_label
_atom_site_fract_x
_atom_site_fract_y
_atom_site_fract_z
Si Si1 0.811429 0.764107 0.671755
Si Si2 0.500000 0.500000 0.500000
Si Si3 0.219330 0.700079 0.883617
Si Si4 0.306387 0.546189 0.751736
Si Si5 0.750716 0.911540 0.901746
Si Si6 0.276334 0.270910 0.725304
Si Si7 0.644075 0.954153 0.341117
O O1 0.614195 0.964486 0.640696
O O2 0.051646 0.713498 0.670868
O O3 0.748111 0.823186 0.522088
O O4 0.800281 0.523312 0.890512
O O5 0.464997 0.525868 0.625485
O O6 0.238806 0.534395 0.539445
O O7 0.339064 0.634178 0.787052
O O8 0.325729 0.810676 0.843837
O O9 0.964510 0.886459 0.801854
O O10 0.320996 0.281999 0.967154
O O11 0.544327 0.171559 0.748501
O O12 0.795176 0.839174 0.069864
O O13 0.250977 0.185663 0.686711
#
# Coordination Sequence:
#
# PCOD9013618 Si02
#       7
#     2   1   2   2   2   2   2
#     4  10  23  41  60  98 127 161 208 251 311 373
#     4  10  24  38  66  88 118 162 210 256 308 360
#     4  11  22  40  67  92 123 166 207 256 315 360
#     4  10  21  41  65  91 122 162 212 256 301 371
#     4   9  20  40  66  88 119 168 212 253 301 369
#     4  10  21  42  60  91 127 159 213 255 307 372
#     4  11  24  38  63  96 130 164 197 260 318 365
#
# _framework density 26.386295
#
# number of rings (size 3 to 8) (size 9 to 14) (size 15 to 20)
#    0.000    1.846    0.000    4.154    6.462    1.231 
#    5.538    6.923    0.000    0.000    0.000    0.000 
#    0.000    0.000    0.000    0.000    0.000    0.000 
#
# Total GULP energy -72657.441498 kJ/mol
# GULP energy per Si atom -5589.033961 kJ/mol
# Density = 2.632624 g / cm^3
# Si number density = 26.386295 Si / 1000 Ang^3
#
#
#
# Elastic Constant Matrix: (Units=GPa)
#
#
# Indices 1 2 3 4 5 6 
#
# 1 53.1851 19.2709 11.2806 -0.2461 0.5473 4.5921
# 2 19.2709 127.7542 25.0766 22.9373 1.2013 23.6093
# 3 11.2806 25.0766 130.8340 12.5476 -5.9002 5.9839
# 4 -0.2461 22.9373 12.5476 43.5761 7.7496 12.6673
# 5 0.5473 1.2013 -5.9002 7.7496 26.7809 1.6520
# 6 4.5921 23.6093 5.9839 12.6673 1.6520 65.9704
#
#
#
# Elastic Compliance Matrix: (Units=1/GPa)
#
#
# Indices 1 2 3 4 5 6 
#
# 1 0.020316 -0.003118 -0.001431 0.002583 -0.001299 -0.000632
# 2 -0.003118 0.009698 -0.001036 -0.004278 0.000784 -0.002358
# 3 -0.001431 -0.001036 0.008301 -0.002341 0.002576 0.000103
# 4 0.002583 -0.004278 -0.002341 0.028452 -0.008382 -0.003690
# 5 -0.001299 0.000784 0.002576 -0.008382 0.040314 0.000176
# 6 -0.000632 -0.002358 0.000103 -0.003690 0.000176 0.016741
#
#
# Mechanical properties :
#
#
# Convention : Reuss Voigt Hill
#
# Bulk Modulus (GPa) = 36.84268 47.00327 41.92297
# Shear Modulus (GPa) = 34.71243 44.34183 39.52713
#
# Velocity S-wave (km/s) = 3.63098 4.10382 3.87462
# Velocity P-wave (km/s) = 5.61888 6.34880 5.99496
#
# Compressibility (1/GPa) = 0.02714243
#
# Stress axis : x y z
#
# Youngs Moduli (GPa) = 49.22329 103.11682 120.46322
#
# Poissons Ratio (x) = 0.32155 0.17243
# Poissons Ratio (y) = 0.15349 0.12485
# Poissons Ratio (z) = 0.07046 0.10687
#
# Static dielectric constant tensor:
#      x y z
#    x 2.127750 0.039440 -0.087420 
#    y 0.039440 2.212250 -0.246960 
#    z -0.087420 -0.246960 2.302440 
# 
# From -- ./inp_files/250178.got.cif
#   From: 2010.05.17/outbox.cif.g08.bks.cpg/sg2_126_cif.got.tgz:250178.got - 2010.06.03 11:33:40.
