data_PCOD9013850
_publ_section_title
;
Structure prediction by ZEFSAII (Michael W. Deem and Ramdas Pophale) SiO2 
 PCOD9013850
Probable space group: P -1
;
_chemical_formula_sum "Si O2"
_cell_formula_units_Z 11
_cell_length_a 11.373575
_cell_length_b 5.297899
_cell_length_c 8.519001
_cell_angle_alpha 103.443085
_cell_angle_beta 61.728725
_cell_angle_gamma 78.266371
_cell_volume 409.201298
_symmetry_space_group_name_H-M "P -1"
_symmetry_group_IT_number 2
_symmetry_cell_setting 'triclinic'
loop_
_space_group_symop_operation_xyz
x,y,z
-x,-y,-z
loop_
_atom_site_type_symbol
_atom_site_label
_atom_site_fract_x
_atom_site_fract_y
_atom_site_fract_z
Si Si1 0.568648 0.301659 0.177567
Si Si2 0.911090 0.324567 0.470736
Si Si3 0.000000 0.500000 0.000000
Si Si4 0.574375 0.048621 0.621161
Si Si5 0.829923 0.255573 0.827579
Si Si6 0.794177 0.113646 0.280316
O O1 0.498848 0.629276 0.238754
O O2 0.661661 0.258242 0.272491
O O3 0.459081 0.146509 0.257350
O O4 0.696188 0.178549 0.954741
O O5 0.798957 0.378620 0.690403
O O6 0.846533 0.360850 0.341455
O O7 0.000000 0.500000 0.500000
O O8 0.027583 0.014678 0.328711
O O9 0.122247 0.561232 0.050171
O O10 0.908871 0.838523 0.095579
O O11 0.734377 0.009418 0.458838
O O12 0.500000 0.000000 0.500000
#
# Coordination Sequence:
#
# PCOD9013850 Si02
#       6
#     2   2   1   2   2   2
#     4  11  23  41  72  97 130 172 232 277 320 393
#     4  10  24  42  62  91 141 172 211 272 343 396
#     4  10  22  38  72  94 132 164 230 268 330 382
#     4  10  21  41  66 101 130 172 221 282 328 384
#     4  10  23  41  61  97 127 176 219 274 328 394
#     4  10  22  42  68 102 131 176 218 276 337 391
#
# _framework density 26.881634999999999
#
# number of rings (size 3 to 8) (size 9 to 14) (size 15 to 20)
#    0.000    1.818    0.000    4.364    7.636    1.455 
#   13.091    1.818    0.000    0.000    0.000    0.000 
#    0.000    0.000    0.000    0.000    0.000    0.000 
#
# Total GULP energy -61319.275820 kJ/mol
# GULP energy per Si atom -5574.479620 kJ/mol
# Density = 2.682045 g / cm^3
# Si number density = 26.881635 Si / 1000 Ang^3
#
#
#
# Elastic Constant Matrix: (Units=GPa)
#
#
# Indices 1 2 3 4 5 6 
#
# 1 101.5844 37.6286 30.1301 15.3507 18.2692 12.1912
# 2 37.6286 122.1342 44.2580 14.4121 0.3796 17.9464
# 3 30.1301 44.2580 104.8308 -21.2320 -2.9404 22.4543
# 4 15.3507 14.4121 -21.2320 37.6885 14.6886 -4.2351
# 5 18.2692 0.3796 -2.9404 14.6886 46.8290 8.1856
# 6 12.1912 17.9464 22.4543 -4.2351 8.1856 40.5151
#
#
#
# Elastic Compliance Matrix: (Units=1/GPa)
#
#
# Indices 1 2 3 4 5 6 
#
# 1 0.013356 -0.001768 -0.004203 -0.005868 -0.003476 -0.000817
# 2 -0.001768 0.012361 -0.005693 -0.009036 0.003674 -0.003475
# 3 -0.004203 -0.005693 0.016620 0.013080 -0.000688 -0.003918
# 4 -0.005868 -0.009036 0.013080 0.045028 -0.011925 0.005636
# 5 -0.003476 0.003674 -0.000688 -0.011925 0.027606 -0.007024
# 6 -0.000817 -0.003475 -0.003918 0.005636 -0.007024 0.030647
#
#
# Mechanical properties :
#
#
# Convention : Reuss Voigt Hill
#
# Bulk Modulus (GPa) = 52.61133 61.39811 57.00472
# Shear Modulus (GPa) = 28.52528 39.44205 33.98366
#
# Velocity S-wave (km/s) = 3.26105 3.83462 3.55941
# Velocity P-wave (km/s) = 5.81320 6.51886 6.17612
#
# Compressibility (1/GPa) = 0.01900731
#
# Stress axis : x y z
#
# Youngs Moduli (GPa) = 74.87386 80.89918 60.16868
#
# Poissons Ratio (x) = 0.14306 0.25290
# Poissons Ratio (y) = 0.13240 0.34255
# Poissons Ratio (z) = 0.31471 0.46058
#
# Static dielectric constant tensor:
#      x y z
#    x 2.289660 0.067410 -0.067380 
#    y 0.067410 2.227510 -0.170360 
#    z -0.067380 -0.170360 2.171540 
# 
# From -- ./inp_files/229409.got.cif
#   From: 2010.05.17/outbox.cif.g08.bks.cpg/sg2_115_cif.got.tgz:229409.got - 2010.06.03 11:33:40.
