data_PCOD9013314
_publ_section_title
;
Structure prediction by ZEFSAII (Michael W. Deem and Ramdas Pophale) SiO2 
 PCOD9013314
Probable space group: P -1
;
_chemical_formula_sum "Si O2"
_cell_formula_units_Z 14
_cell_length_a 20.053517
_cell_length_b 8.131148
_cell_length_c 16.228240
_cell_angle_alpha 44.298767
_cell_angle_beta 161.370948
_cell_angle_gamma 125.732804
_cell_volume 535.136180
_symmetry_space_group_name_H-M "P -1"
_symmetry_group_IT_number 2
_symmetry_cell_setting 'triclinic'
loop_
_space_group_symop_operation_xyz
x,y,z
-x,-y,-z
loop_
_atom_site_type_symbol
_atom_site_label
_atom_site_fract_x
_atom_site_fract_y
_atom_site_fract_z
Si Si1 0.144162 0.635675 0.406860
Si Si2 0.657526 0.989773 0.472944
Si Si3 0.606982 0.541271 0.387927
Si Si4 0.460244 0.895344 0.879234
Si Si5 0.843649 0.195772 0.317263
Si Si6 0.875782 0.872972 0.168419
Si Si7 0.739657 0.421379 0.762856
O O1 0.216718 0.867100 0.381374
O O2 0.170302 0.516749 0.388060
O O3 0.328294 0.375180 0.759625
O O4 0.953396 0.741483 0.216459
O O5 0.646953 0.131341 0.322510
O O6 0.788594 0.677654 0.734106
O O7 0.392030 0.066676 0.155887
O O8 0.689751 0.376715 0.625891
O O9 0.508119 0.843659 0.192106
O O10 0.373162 0.555912 0.064771
O O11 0.296609 0.937402 0.750120
O O12 0.000000 0.000000 0.500000
O O13 0.985456 0.250993 0.539053
O O14 0.893909 0.149998 0.082532
O O15 0.500000 0.500000 0.500000
#
# Coordination Sequence:
#
# PCOD9013314 Si02
#       7
#     2   2   2   2   2   2   2
#     4  11  22  40  62  94 131 159 211 262 315 368
#     4  10  21  41  64  90 127 169 203 259 316 367
#     4  10  23  42  65  87 131 170 201 266 315 362
#     4  10  21  42  60  87 133 168 199 261 320 366
#     4  11  20  36  62  95 120 159 216 252 303 375
#     4  11  24  39  66  96 124 167 213 254 312 380
#     4   9  20  43  66  87 128 169 209 254 311 378
#
# _framework density 26.161563000000001
#
# number of rings (size 3 to 8) (size 9 to 14) (size 15 to 20)
#    0.000    1.714    1.429    4.714    2.000    1.714 
#   10.286    2.857    3.143    0.000    0.000    0.000 
#    0.000    0.000    0.000    0.000    0.000    0.000 
#
# Total GULP energy -78111.348829 kJ/mol
# GULP energy per Si atom -5579.382059 kJ/mol
# Density = 2.610202 g / cm^3
# Si number density = 26.161563 Si / 1000 Ang^3
#
#
#
# Elastic Constant Matrix: (Units=GPa)
#
#
# Indices 1 2 3 4 5 6 
#
# 1 152.4679 0.1175 61.1501 -1.0336 31.9950 -3.2793
# 2 0.1175 88.0158 13.4102 -9.6923 -8.3833 1.5975
# 3 61.1501 13.4102 114.0025 3.8620 17.6460 -3.1343
# 4 -1.0336 -9.6923 3.8620 27.6346 -3.0789 2.3351
# 5 31.9950 -8.3833 17.6460 -3.0789 57.1021 -5.4990
# 6 -3.2793 1.5975 -3.1343 2.3351 -5.4990 32.3827
#
#
#
# Elastic Compliance Matrix: (Units=1/GPa)
#
#
# Indices 1 2 3 4 5 6 
#
# 1 0.009084 0.000387 -0.004380 0.000696 -0.003661 -0.000195
# 2 0.000387 0.012517 -0.002262 0.005064 0.002522 -0.000734
# 3 -0.004380 -0.002262 0.011750 -0.002839 -0.001591 0.000740
# 4 0.000696 0.005064 -0.002839 0.038959 0.003067 -0.002743
# 5 -0.003661 0.002522 -0.001591 0.003067 0.020848 0.002670
# 6 -0.000195 -0.000734 0.000740 -0.002743 0.002670 0.031620
#
#
# Mechanical properties :
#
#
# Convention : Reuss Voigt Hill
#
# Bulk Modulus (GPa) = 47.98493 55.98243 51.98368
# Shear Modulus (GPa) = 34.66554 42.07777 38.37166
#
# Velocity S-wave (km/s) = 3.64408 4.01481 3.83393
# Velocity P-wave (km/s) = 6.00728 6.55262 6.28586
#
# Compressibility (1/GPa) = 0.02083988
#
# Stress axis : x y z
#
# Youngs Moduli (GPa) = 110.08335 79.89211 85.10519
#
# Poissons Ratio (x) = -0.03090 0.37280
# Poissons Ratio (y) = -0.04258 0.19251
# Poissons Ratio (z) = 0.48221 0.18071
#
# Static dielectric constant tensor:
#      x y z
#    x 2.065630 -0.079550 -0.004950 
#    y -0.079550 2.156390 0.109060 
#    z -0.004950 0.109060 2.092310 
# 
# From -- ./inp_files/577209.got.cif
#   From: 2010.05.17/outbox.cif.g08.bks.cpg/sg2_289_cif.got.tgz:577209.got - 2010.06.03 11:33:40.
