data_PCOD9013494
_publ_section_title
;
Structure prediction by ZEFSAII (Michael W. Deem and Ramdas Pophale) SiO2 
 PCOD9013494
Probable space group: P -1
;
_chemical_formula_sum "Si O2"
_cell_formula_units_Z 16
_cell_length_a 12.999966
_cell_length_b 21.965070
_cell_length_c 18.402973
_cell_angle_alpha 17.222679
_cell_angle_beta 39.177809
_cell_angle_gamma 28.605945
_cell_volume 666.341345
_symmetry_space_group_name_H-M "P -1"
_symmetry_group_IT_number 2
_symmetry_cell_setting 'triclinic'
loop_
_space_group_symop_operation_xyz
x,y,z
-x,-y,-z
loop_
_atom_site_type_symbol
_atom_site_label
_atom_site_fract_x
_atom_site_fract_y
_atom_site_fract_z
Si Si1 0.509908 0.207392 0.655786
Si Si2 0.708252 0.620728 0.726818
Si Si3 0.157656 0.513486 0.853010
Si Si4 0.274303 0.685606 0.358465
Si Si5 0.711144 0.306387 0.314928
Si Si6 0.067429 0.328355 0.734132
Si Si7 0.732919 0.180432 0.288556
Si Si8 0.092229 0.448688 0.801306
O O1 0.390625 0.503416 0.427526
O O2 0.590753 0.227696 0.511806
O O3 0.312248 0.213812 0.753300
O O4 0.738910 0.894993 0.927098
O O5 0.423546 0.877057 0.577839
O O6 0.858936 0.552451 0.652586
O O7 0.824149 0.622182 0.731888
O O8 0.742639 0.343596 0.036238
O O9 0.335761 0.448509 0.889138
O O10 0.193975 0.380729 0.905228
O O11 0.000283 0.856223 0.525307
O O12 0.000000 0.500000 0.000000
O O13 0.500000 0.500000 0.500000
O O14 0.127073 0.630449 0.534186
O O15 0.126297 0.031612 0.035264
O O16 0.633904 0.374913 0.195336
O O17 0.000000 0.000000 0.500000
O O18 0.000000 0.500000 0.500000
#
# Coordination Sequence:
#
# PCOD9013494 Si02
#       8
#     2   2   2   2   2   2   2   2
#     4  12  24  44  70 103 141 182 235 294 353 421
#     4  11  23  44  69  94 139 187 232 293 351 425
#     4  11  22  38  66 104 136 179 235 292 356 423
#     4  12  24  44  71 105 137 185 238 291 357 424
#     4  10  21  41  64  98 137 180 228 292 353 415
#     4  12  27  47  71 102 146 187 234 295 359 425
#     4  10  22  43  67  95 136 189 234 286 356 419
#     4  12  22  41  70 105 143 181 239 299 354 422
#
# _framework density 24.011717000000001
#
# number of rings (size 3 to 8) (size 9 to 14) (size 15 to 20)
#    0.000    0.750    2.500    7.125    0.000    1.000 
#    0.000    1.250    0.000    0.000    0.000    0.000 
#    0.000    0.000    0.000    0.000    0.000    0.000 
#
# Total GULP energy -89411.643587 kJ/mol
# GULP energy per Si atom -5588.227724 kJ/mol
# Density = 2.395707 g / cm^3
# Si number density = 24.011717 Si / 1000 Ang^3
#
#
#
# Elastic Constant Matrix: (Units=GPa)
#
#
# Indices 1 2 3 4 5 6 
#
# 1 118.8460 34.6266 9.7108 0.1067 -7.8809 -1.4336
# 2 34.6266 93.7664 7.4052 36.1452 -6.9366 9.6617
# 3 9.7108 7.4052 82.0170 22.3071 -5.1865 16.9711
# 4 0.1067 36.1452 22.3071 40.5010 2.9990 -4.5185
# 5 -7.8809 -6.9366 -5.1865 2.9990 34.3635 5.6701
# 6 -1.4336 9.6617 16.9711 -4.5185 5.6701 43.4828
#
#
#
# Elastic Compliance Matrix: (Units=1/GPa)
#
#
# Indices 1 2 3 4 5 6 
#
# 1 0.011367 -0.008972 -0.004975 0.011501 -0.001908 0.005754
# 2 -0.008972 0.029389 0.012367 -0.035763 0.011649 -0.016888
# 3 -0.004975 0.012367 0.022560 -0.025908 0.009606 -0.015662
# 4 0.011501 -0.035763 -0.025908 0.075538 -0.019849 0.028875
# 5 -0.001908 0.011649 0.009606 -0.019849 0.036376 -0.013206
# 6 0.005754 -0.016888 -0.015662 0.028875 -0.013206 0.037775
#
#
# Mechanical properties :
#
#
# Convention : Reuss Voigt Hill
#
# Bulk Modulus (GPa) = 16.62371 44.23498 30.42934
# Shear Modulus (GPa) = 21.16686 39.86191 30.51439
#
# Velocity S-wave (km/s) = 2.97227 4.07886 3.56871
# Velocity P-wave (km/s) = 4.32635 6.37534 5.44804
#
# Compressibility (1/GPa) = 0.06015505
#
# Stress axis : x y z
#
# Youngs Moduli (GPa) = 87.97013 34.02582 44.32699
#
# Poissons Ratio (x) = 0.30529 0.22054
# Poissons Ratio (y) = 0.78931 -0.54819
# Poissons Ratio (z) = 0.43767 -0.42079
#
# Static dielectric constant tensor:
#      x y z
#    x 2.108530 0.005300 0.032280 
#    y 0.005300 1.940460 -0.046210 
#    z 0.032280 -0.046210 1.900480 
# 
# From -- ./inp_files/570686.got.cif
#   From: 2010.05.17/outbox.cif.g08.bks.cpg/sg2_286_cif.got.tgz:570686.got - 2010.06.03 11:33:40.
