data_PCOD9013966
_publ_section_title
;
Structure prediction by ZEFSAII (Michael W. Deem and Ramdas Pophale) SiO2 
 PCOD9013966
Probable space group: P -1
;
_chemical_formula_sum "Si O2"
_cell_formula_units_Z 16
_cell_length_a 9.752483
_cell_length_b 16.377215
_cell_length_c 5.636995
_cell_angle_alpha 107.572373
_cell_angle_beta 107.561340
_cell_angle_gamma 118.651882
_cell_volume 636.979110
_symmetry_space_group_name_H-M "P -1"
_symmetry_group_IT_number 2
_symmetry_cell_setting 'triclinic'
loop_
_space_group_symop_operation_xyz
x,y,z
-x,-y,-z
loop_
_atom_site_type_symbol
_atom_site_label
_atom_site_fract_x
_atom_site_fract_y
_atom_site_fract_z
Si Si1 0.912899 0.258540 0.113022
Si Si2 0.679452 0.894736 0.668416
Si Si3 0.316928 0.947382 0.503267
Si Si4 0.620922 0.252324 0.287223
Si Si5 0.281404 0.212017 0.785181
Si Si6 0.494956 0.449496 0.200011
Si Si7 0.848073 0.491421 0.566307
Si Si8 0.085990 0.902676 0.720618
O O1 0.753699 0.248427 0.176787
O O2 0.990619 0.208126 0.269355
O O3 0.052277 0.383230 0.196838
O O4 0.825247 0.174570 0.777891
O O5 0.479429 0.835161 0.629781
O O6 0.676949 0.798215 0.477612
O O7 0.717574 0.968149 0.526517
O O8 0.842477 0.987625 0.005615
O O9 0.280306 0.938660 0.752658
O O10 0.500000 0.000000 0.500000
O O11 0.746647 0.378380 0.564651
O O12 0.436103 0.218603 0.025135
O O13 0.059838 0.123669 0.578167
O O14 0.320167 0.322517 0.984474
O O15 0.500000 0.500000 0.500000
O O16 0.677696 0.459606 0.293588
O O17 0.500000 0.500000 0.000000
O O18 0.000000 0.500000 0.500000
#
# Coordination Sequence:
#
# PCOD9013966 Si02
#       8
#     2   2   2   2   2   2   2   2
#     4  10  21  41  66  92 133 171 228 279 343 411
#     4  11  23  40  64  93 134 174 227 274 346 412
#     4  11  23  39  63  96 130 174 221 277 342 414
#     4  10  22  41  66  94 131 176 221 283 345 412
#     4  11  25  41  66  95 134 177 227 283 347 415
#     4  11  26  46  74 105 146 191 242 297 366 434
#     4   9  21  44  70 102 137 184 242 292 357 428
#     4  11  24  40  64  97 131 176 224 282 340 413
#
# _framework density 25.118563999999999
#
# number of rings (size 3 to 8) (size 9 to 14) (size 15 to 20)
#    0.000    1.500    0.000    4.125    5.250    6.000 
#    0.000    0.625    0.000    0.000    0.000    0.000 
#    0.000    0.000    0.000    0.000    0.000    0.000 
#
# Total GULP energy -89185.743191 kJ/mol
# GULP energy per Si atom -5574.108949 kJ/mol
# Density = 2.506139 g / cm^3
# Si number density = 25.118564 Si / 1000 Ang^3
#
#
#
# Elastic Constant Matrix: (Units=GPa)
#
#
# Indices 1 2 3 4 5 6 
#
# 1 103.1552 9.1273 16.1630 -1.9204 0.4992 6.7731
# 2 9.1273 111.8294 58.4466 35.2692 -1.5042 3.4488
# 3 16.1630 58.4466 105.5758 37.9375 -20.3569 -3.5008
# 4 -1.9204 35.2692 37.9375 46.0904 -6.7826 5.5127
# 5 0.4992 -1.5042 -20.3569 -6.7826 40.7961 -0.2476
# 6 6.7731 3.4488 -3.5008 5.5127 -0.2476 28.4047
#
#
#
# Elastic Compliance Matrix: (Units=1/GPa)
#
#
# Indices 1 2 3 4 5 6 
#
# 1 0.010484 -0.000254 -0.002998 0.003356 -0.001097 -0.003499
# 2 -0.000254 0.014196 -0.006432 -0.005963 -0.003682 -0.001331
# 3 -0.002998 -0.006432 0.018841 -0.010308 0.007523 0.005884
# 4 0.003356 -0.005963 -0.010308 0.035956 0.000523 -0.008320
# 5 -0.001097 -0.003682 0.007523 0.000523 0.028241 0.001781
# 6 -0.003499 -0.001331 0.005884 -0.008320 0.001781 0.038557
#
#
# Mechanical properties :
#
#
# Convention : Reuss Voigt Hill
#
# Bulk Modulus (GPa) = 41.40045 54.22602 47.81324
# Shear Modulus (GPa) = 28.78611 38.84648 33.81630
#
# Velocity S-wave (km/s) = 3.38895 3.93685 3.67313
# Velocity P-wave (km/s) = 5.64190 6.50384 6.08815
#
# Compressibility (1/GPa) = 0.02415433
#
# Stress axis : x y z
#
# Youngs Moduli (GPa) = 95.38458 70.44005 53.07483
#
# Poissons Ratio (x) = 0.01790 0.15910
# Poissons Ratio (y) = 0.02424 0.34136
# Poissons Ratio (z) = 0.28594 0.45305
#
# Static dielectric constant tensor:
#      x y z
#    x 2.208660 -0.052390 0.044010 
#    y -0.052390 2.000960 0.089840 
#    z 0.044010 0.089840 1.879130 
# 
# From -- ./inp_files/80846.got.cif
#   From: 2010.05.17/outbox.cif.g08.bks.cpg/sg2_41_cif.got.tgz:80846.got - 2010.06.03 11:33:40.
