data_PCOD9013726
_publ_section_title
;
Structure prediction by ZEFSAII (Michael W. Deem and Ramdas Pophale) SiO2 
 PCOD9013726
Probable space group: P -1
;
_chemical_formula_sum "Si O2"
_cell_formula_units_Z 16
_cell_length_a 12.034615
_cell_length_b 9.661757
_cell_length_c 18.391146
_cell_angle_alpha 40.027990
_cell_angle_beta 129.936511
_cell_angle_gamma 99.413064
_cell_volume 787.488333
_symmetry_space_group_name_H-M "P -1"
_symmetry_group_IT_number 2
_symmetry_cell_setting 'triclinic'
loop_
_space_group_symop_operation_xyz
x,y,z
-x,-y,-z
loop_
_atom_site_type_symbol
_atom_site_label
_atom_site_fract_x
_atom_site_fract_y
_atom_site_fract_z
Si Si1 0.950739 0.592289 0.526749
Si Si2 0.452776 0.798923 0.864411
Si Si3 0.626505 0.705712 0.125274
Si Si4 0.442461 0.249146 0.429347
Si Si5 0.978705 0.853416 0.165417
Si Si6 0.021745 0.266629 0.948688
Si Si7 0.394486 0.577829 0.153158
Si Si8 0.663340 0.780541 0.823583
O O1 0.000000 0.500000 0.500000
O O2 0.148070 0.487644 0.686671
O O3 0.901574 0.426672 0.620390
O O4 0.771858 0.931482 0.322018
O O5 0.520629 0.843234 0.801417
O O6 0.500000 0.500000 0.000000
O O7 0.573279 0.779646 0.989308
O O8 0.548522 0.550797 0.180613
O O9 0.500000 0.000000 0.000000
O O10 0.485146 0.419655 0.332297
O O11 0.211131 0.475339 0.253014
O O12 0.500000 0.000000 0.500000
O O13 0.563224 0.079315 0.619946
O O14 0.921809 0.803919 0.083996
O O15 0.789285 0.094561 0.036585
O O16 0.064414 0.998308 0.116245
O O17 0.135002 0.341439 0.008083
O O18 0.319513 0.438446 0.136134
#
# Coordination Sequence:
#
# PCOD9013726 Si02
#       8
#     2   2   2   2   2   2   2   2
#     4  12  25  42  70  97 132 179 221 267 337 400
#     4  12  26  46  67 100 136 171 226 282 323 398
#     4  12  23  45  70  97 135 178 221 274 336 393
#     4   9  21  40  61  93 131 162 214 266 320 387
#     4  10  21  41  66  96 131 166 221 266 325 398
#     4  10  22  41  67  94 126 173 210 274 330 379
#     4  10  21  41  65  94 133 171 216 274 321 392
#     4  11  23  42  66  93 131 169 220 270 329 388
#
# _framework density 20.31776
#
# number of rings (size 3 to 8) (size 9 to 14) (size 15 to 20)
#    0.000    1.250    3.750    1.500    0.000    6.000 
#    4.500    6.250    0.000    0.000    0.000    0.000 
#    0.000    0.000    0.000    0.000    0.000    0.000 
#
# Total GULP energy -89350.839692 kJ/mol
# GULP energy per Si atom -5584.427481 kJ/mol
# Density = 2.027152 g / cm^3
# Si number density = 20.317760 Si / 1000 Ang^3
#
#
#
# Elastic Constant Matrix: (Units=GPa)
#
#
# Indices 1 2 3 4 5 6 
#
# 1 68.1004 21.8026 20.8764 1.6690 -6.3528 -16.0700
# 2 21.8026 87.8000 40.4780 4.5519 2.7467 -13.2672
# 3 20.8764 40.4780 110.3507 -6.2936 4.8577 -12.1580
# 4 1.6690 4.5519 -6.2936 32.5111 -0.3680 -1.7037
# 5 -6.3528 2.7467 4.8577 -0.3680 35.7354 1.8932
# 6 -16.0700 -13.2672 -12.1580 -1.7037 1.8932 32.3475
#
#
#
# Elastic Compliance Matrix: (Units=1/GPa)
#
#
# Indices 1 2 3 4 5 6 
#
# 1 0.018066 -0.002657 -0.001849 -0.000511 0.003293 0.006971
# 2 -0.002657 0.014846 -0.004726 -0.002717 -0.001154 0.002917
# 3 -0.001849 -0.004726 0.011584 0.003073 -0.001601 0.001753
# 4 -0.000511 -0.002717 0.003073 0.031837 -0.000050 0.001466
# 5 0.003293 -0.001154 -0.001601 -0.000050 0.028935 -0.001135
# 6 0.006971 0.002917 0.001753 0.001466 -0.001135 0.036376
#
#
# Mechanical properties :
#
#
# Convention : Reuss Voigt Hill
#
# Bulk Modulus (GPa) = 38.41368 48.06279 43.23823
# Shear Modulus (GPa) = 29.62345 32.32507 30.97426
#
# Velocity S-wave (km/s) = 3.82253 3.99303 3.90871
# Velocity P-wave (km/s) = 6.19918 6.70567 6.45739
#
# Compressibility (1/GPa) = 0.02603239
#
# Stress axis : x y z
#
# Youngs Moduli (GPa) = 55.35152 67.35939 86.32459
#
# Poissons Ratio (x) = 0.17896 0.15964
# Poissons Ratio (y) = 0.14706 0.40795
# Poissons Ratio (z) = 0.10236 0.31832
#
# Static dielectric constant tensor:
#      x y z
#    x 1.797960 0.033100 -0.098370 
#    y 0.033100 1.736210 -0.036100 
#    z -0.098370 -0.036100 1.773220 
# 
# From -- ./inp_files/566444.got.cif
#   From: 2010.05.17/outbox.cif.g08.bks.cpg/sg2_284_cif.got.tgz:566444.got - 2010.06.03 11:33:40.
