data_PCOD9013426
_publ_section_title
;
Structure prediction by ZEFSAII (Michael W. Deem and Ramdas Pophale) SiO2 
 PCOD9013426
Probable space group: P -1
;
_chemical_formula_sum "Si O2"
_cell_formula_units_Z 14
_cell_length_a 15.718319
_cell_length_b 12.366493
_cell_length_c 8.358167
_cell_angle_alpha 126.897470
_cell_angle_beta 89.292651
_cell_angle_gamma 134.296479
_cell_volume 653.946339
_symmetry_space_group_name_H-M "P -1"
_symmetry_group_IT_number 2
_symmetry_cell_setting 'triclinic'
loop_
_space_group_symop_operation_xyz
x,y,z
-x,-y,-z
loop_
_atom_site_type_symbol
_atom_site_label
_atom_site_fract_x
_atom_site_fract_y
_atom_site_fract_z
Si Si1 0.821009 0.291570 0.744883
Si Si2 0.469610 0.302642 0.872753
Si Si3 0.563775 0.459966 0.362029
Si Si4 0.942810 0.556249 0.633705
Si Si5 0.387950 0.754004 0.671701
Si Si6 0.057010 0.973239 0.114781
Si Si7 0.277215 0.562030 0.155301
O O1 0.860829 0.389617 0.650157
O O2 0.753313 0.342397 0.859372
O O3 0.689740 0.987789 0.468855
O O4 0.000000 0.500000 0.000000
O O5 0.626217 0.421940 0.926320
O O6 0.500000 0.500000 0.000000
O O7 0.456139 0.284767 0.049595
O O8 0.500000 0.500000 0.500000
O O9 0.564886 0.332759 0.363239
O O10 0.762859 0.744780 0.562982
O O11 0.800421 0.453263 0.463044
O O12 0.000000 0.500000 0.500000
O O13 0.084582 0.861255 0.939961
O O14 0.389338 0.759061 0.483206
O O15 0.500000 0.000000 0.000000
O O16 0.899824 0.737588 0.031711
O O17 0.000000 0.000000 0.000000
#
# Coordination Sequence:
#
# PCOD9013426 Si02
#       7
#     2   2   2   2   2   2   2
#     4  10  24  46  65  95 134 176 219 266 333 398
#     4  12  28  43  66 101 135 179 221 277 334 391
#     4  12  25  42  68  96 135 175 218 277 333 397
#     4  10  23  38  65  94 127 167 217 273 316 392
#     4  10  21  41  64  95 123 169 222 266 326 386
#     4  10  21  43  67  96 129 172 219 277 333 384
#     4  10  23  46  67  92 139 170 223 276 326 403
#
# _framework density 21.408486
#
# number of rings (size 3 to 8) (size 9 to 14) (size 15 to 20)
#    0.000    1.714    2.857    3.000    8.000    2.857 
#    0.000    0.000    0.000    0.000    0.000    0.000 
#    0.000    0.000    0.000    0.000    0.000    0.000 
#
# Total GULP energy -78092.244641 kJ/mol
# GULP energy per Si atom -5578.017474 kJ/mol
# Density = 2.135976 g / cm^3
# Si number density = 21.408486 Si / 1000 Ang^3
#
#
#
# Elastic Constant Matrix: (Units=GPa)
#
#
# Indices 1 2 3 4 5 6 
#
# 1 196.9758 41.5405 50.9369 -2.5857 -24.9596 -18.7982
# 2 41.5405 44.3669 17.2356 12.6220 1.4431 -6.9878
# 3 50.9369 17.2356 104.1269 18.2130 3.2156 -3.0865
# 4 -2.5857 12.6220 18.2130 35.9433 -0.0261 -6.7128
# 5 -24.9596 1.4431 3.2156 -0.0261 36.9296 -1.4017
# 6 -18.7982 -6.9878 -3.0865 -6.7128 -1.4017 40.4663
#
#
#
# Elastic Compliance Matrix: (Units=1/GPa)
#
#
# Indices 1 2 3 4 5 6 
#
# 1 0.009431 -0.008622 -0.004467 0.006706 0.007253 0.003915
# 2 -0.008622 0.034116 0.001099 -0.013253 -0.007284 -0.000481
# 3 -0.004467 0.001099 0.013025 -0.007745 -0.004290 -0.002325
# 4 0.006706 -0.013253 -0.007745 0.038152 0.006009 0.006773
# 5 0.007253 -0.007284 -0.004290 0.006009 0.032792 0.003917
# 6 0.003915 -0.000481 -0.002325 0.006773 0.003917 0.027530
#
#
# Mechanical properties :
#
#
# Convention : Reuss Voigt Hill
#
# Bulk Modulus (GPa) = 30.68150 62.76618 46.72384
# Shear Modulus (GPa) = 26.33095 38.38493 32.35794
#
# Velocity S-wave (km/s) = 3.51084 4.23895 3.89196
# Velocity P-wave (km/s) = 5.54953 7.30344 6.48604
#
# Compressibility (1/GPa) = 0.03259293
#
# Stress axis : x y z
#
# Youngs Moduli (GPa) = 106.03219 29.31134 76.77386
#
# Poissons Ratio (x) = 0.25272 0.34297
# Poissons Ratio (y) = 0.91421 -0.08440
# Poissons Ratio (z) = 0.47368 -0.03222
#
# Static dielectric constant tensor:
#      x y z
#    x 1.824830 0.018820 0.025730 
#    y 0.018820 1.799530 0.035960 
#    z 0.025730 0.035960 1.860200 
# 
# From -- ./inp_files/305916.got.cif
#   From: 2010.05.17/outbox.cif.g08.bks.cpg/sg2_153_cif.got.tgz:305916.got - 2010.06.03 11:33:40.
