data_PCOD9013428
_publ_section_title
;
Structure prediction by ZEFSAII (Michael W. Deem and Ramdas Pophale) SiO2 
 PCOD9013428
Probable space group: P -1
;
_chemical_formula_sum "Si O2"
_cell_formula_units_Z 12
_cell_length_a 14.078472
_cell_length_b 19.020081
_cell_length_c 17.108038
_cell_angle_alpha 158.272268
_cell_angle_beta 22.841857
_cell_angle_gamma 159.323945
_cell_volume 548.455152
_symmetry_space_group_name_H-M "P -1"
_symmetry_group_IT_number 2
_symmetry_cell_setting 'triclinic'
loop_
_space_group_symop_operation_xyz
x,y,z
-x,-y,-z
loop_
_atom_site_type_symbol
_atom_site_label
_atom_site_fract_x
_atom_site_fract_y
_atom_site_fract_z
Si Si1 0.687963 0.896534 0.170259
Si Si2 0.320169 0.622094 0.488338
Si Si3 0.826328 0.075942 0.814855
Si Si4 0.682346 0.436004 0.027232
Si Si5 0.344064 0.665037 0.331701
Si Si6 0.825737 0.119491 0.675939
O O1 0.610897 0.748826 0.155473
O O2 0.671670 0.113075 0.420174
O O3 0.440904 0.728441 0.123096
O O4 0.000000 0.000000 0.000000
O O5 0.424798 0.466546 0.285314
O O6 0.374220 0.612084 0.343597
O O7 0.977796 0.524888 0.653718
O O8 0.530197 0.876153 0.624966
O O9 0.877659 0.133800 0.743661
O O10 0.052496 0.307858 0.928083
O O11 0.914640 0.894636 0.574788
O O12 0.500000 0.000000 0.000000
O O13 0.791933 0.320065 0.882167
#
# Coordination Sequence:
#
# PCOD9013428 Si02
#       6
#     2   2   2   2   2   2
#     4  11  22  41  62  94 130 169 209 253 313 373
#     4  10  21  41  64  95 127 170 212 252 315 371
#     4  10  24  44  65  94 118 162 212 256 321 377
#     4  11  22  41  65  93 124 165 208 256 316 371
#     4  10  22  40  61  91 135 168 208 258 303 373
#     4  10  22  44  64  88 131 155 204 270 309 373
#
# _framework density 21.879636999999999
#
# number of rings (size 3 to 8) (size 9 to 14) (size 15 to 20)
#    0.000    1.667    3.333    0.500    2.333    1.333 
#    9.000    0.000    0.000    0.000    0.000    0.000 
#    0.000    0.000    0.000    0.000    0.000    0.000 
#
# Total GULP energy -67029.842441 kJ/mol
# GULP energy per Si atom -5585.820203 kJ/mol
# Density = 2.182984 g / cm^3
# Si number density = 21.879637 Si / 1000 Ang^3
#
#
#
# Elastic Constant Matrix: (Units=GPa)
#
#
# Indices 1 2 3 4 5 6 
#
# 1 52.1472 16.1740 16.3088 -13.5956 -17.8666 -4.5563
# 2 16.1740 82.3997 36.9417 -23.3355 2.4063 19.7305
# 3 16.3088 36.9417 87.7914 -18.7093 -31.5075 -9.6224
# 4 -13.5956 -23.3355 -18.7093 30.9315 -6.4640 -0.0201
# 5 -17.8666 2.4063 -31.5075 -6.4640 41.1857 7.2879
# 6 -4.5563 19.7305 -9.6224 -0.0201 7.2879 42.4306
#
#
#
# Elastic Compliance Matrix: (Units=1/GPa)
#
#
# Indices 1 2 3 4 5 6 
#
# 1 0.032659 -0.007587 0.011342 0.020852 0.025638 0.005214
# 2 -0.007587 0.024620 -0.013966 0.004191 -0.012403 -0.013298
# 3 0.011342 -0.013966 0.031907 0.020370 0.031658 0.009520
# 4 0.020852 0.004191 0.020370 0.064217 0.034642 -0.001010
# 5 0.025638 -0.012403 0.031658 0.034642 0.064976 0.004556
# 6 0.005214 -0.013298 0.009520 -0.001010 0.004556 0.031687
#
#
# Mechanical properties :
#
#
# Convention : Reuss Voigt Hill
#
# Bulk Modulus (GPa) = 14.54271 40.13190 27.33730
# Shear Modulus (GPa) = 17.04112 33.10380 25.07246
#
# Velocity S-wave (km/s) = 2.79383 3.89394 3.38883
# Velocity P-wave (km/s) = 4.13140 6.21281 5.27577
#
# Compressibility (1/GPa) = 0.06876300
#
# Stress axis : x y z
#
# Youngs Moduli (GPa) = 30.61981 40.61779 31.34146
#
# Poissons Ratio (x) = 0.30817 -0.35548
# Poissons Ratio (y) = 0.23232 0.43772
# Poissons Ratio (z) = -0.34730 0.56727
#
# Static dielectric constant tensor:
#      x y z
#    x 1.818020 -0.018420 -0.019040 
#    y -0.018420 1.798100 -0.016430 
#    z -0.019040 -0.016430 1.869870 
# 
# From -- ./inp_files/96938.got.cif
#   From: 2010.05.17/outbox.cif.g08.bks.cpg/sg2_49_cif.got.tgz:96938.got - 2010.06.03 11:33:40.
