data_PCOD9013122
_publ_section_title
;
Structure prediction by ZEFSAII (Michael W. Deem and Ramdas Pophale) SiO2 
 PCOD9013122
Probable space group: P -1
;
_chemical_formula_sum "Si O2"
_cell_formula_units_Z 16
_cell_length_a 14.200138
_cell_length_b 9.517799
_cell_length_c 10.516251
_cell_angle_alpha 135.347570
_cell_angle_beta 42.628323
_cell_angle_gamma 109.754658
_cell_volume 623.057107
_symmetry_space_group_name_H-M "P -1"
_symmetry_group_IT_number 2
_symmetry_cell_setting 'triclinic'
loop_
_space_group_symop_operation_xyz
x,y,z
-x,-y,-z
loop_
_atom_site_type_symbol
_atom_site_label
_atom_site_fract_x
_atom_site_fract_y
_atom_site_fract_z
Si Si1 0.324508 0.129460 0.961852
Si Si2 0.664898 0.857151 0.412370
Si Si3 0.826391 0.047889 0.204145
Si Si4 0.930566 0.256384 0.726138
Si Si5 0.252979 0.205673 0.423416
Si Si6 0.344141 0.766820 0.915233
Si Si7 0.696592 0.505758 0.932886
Si Si8 0.587559 0.531317 0.699463
O O1 0.497287 0.035784 0.684128
O O2 0.204921 0.104324 0.966809
O O3 0.289336 0.387988 0.146676
O O4 0.334969 0.935664 0.923564
O O5 0.701106 0.770531 0.463582
O O6 0.673128 0.680935 0.183883
O O7 0.776965 0.972849 0.336696
O O8 0.714615 0.292925 0.438705
O O9 0.000000 0.000000 0.000000
O O10 0.793488 0.311995 0.998538
O O11 0.072362 0.319451 0.654053
O O12 0.854794 0.327358 0.709154
O O13 0.000000 0.000000 0.500000
O O14 0.335315 0.294878 0.291209
O O15 0.311382 0.945669 0.178193
O O16 0.496407 0.570162 0.679033
O O17 0.552239 0.441049 0.048858
#
# Coordination Sequence:
#
# PCOD9013122 Si02
#       8
#     2   2   2   2   2   2   2   2
#     4  11  21  42  66  90 127 164 208 254 314 379
#     4  11  22  41  64  90 131 163 203 262 309 376
#     4  11  25  41  62  95 128 159 209 261 317 368
#     4   9  22  43  62  86 129 165 209 257 307 369
#     4  11  24  40  62  95 126 159 215 260 307 364
#     4  10  23  43  65  89 123 171 207 259 308 373
#     4  10  21  41  63  91 124 171 204 248 323 369
#     4  11  21  39  65  92 124 161 212 253 309 373
#
# _framework density 25.679828000000001
#
# number of rings (size 3 to 8) (size 9 to 14) (size 15 to 20)
#    0.000    1.500    3.750    1.125    5.250    3.500 
#    0.000    7.500    0.000    0.000    0.000    0.000 
#    0.000    0.000    0.000    0.000    0.000    0.000 
#
# Total GULP energy -89299.801248 kJ/mol
# GULP energy per Si atom -5581.237578 kJ/mol
# Density = 2.562138 g / cm^3
# Si number density = 25.679828 Si / 1000 Ang^3
#
#
#
# Elastic Constant Matrix: (Units=GPa)
#
#
# Indices 1 2 3 4 5 6 
#
# 1 82.4147 53.7234 34.0585 -14.1576 -34.0356 0.3632
# 2 53.7234 191.8253 42.3972 -8.2888 -28.8359 -30.1698
# 3 34.0585 42.3972 72.1586 3.5452 -46.5523 -3.2805
# 4 -14.1576 -8.2888 3.5452 46.7030 10.4587 -4.8593
# 5 -34.0356 -28.8359 -46.5523 10.4587 55.0725 -4.3671
# 6 0.3632 -30.1698 -3.2805 -4.8593 -4.3671 56.1117
#
#
#
# Elastic Compliance Matrix: (Units=1/GPa)
#
#
# Indices 1 2 3 4 5 6 
#
# 1 0.019171 -0.003838 -0.002685 0.003665 0.006754 -0.001502
# 2 -0.003838 0.007478 -0.003042 0.001003 -0.000911 0.003883
# 3 -0.002685 -0.003042 0.037058 -0.010740 0.030269 0.001974
# 4 0.003665 0.001003 -0.010740 0.026147 -0.011152 0.001284
# 5 0.006754 -0.000911 0.030269 -0.011152 0.049888 0.004153
# 6 -0.001502 0.003883 0.001974 0.001284 0.004153 0.020469
#
#
# Mechanical properties :
#
#
# Convention : Reuss Voigt Hill
#
# Bulk Modulus (GPa) = 22.43353 67.41743 44.92548
# Shear Modulus (GPa) = 25.74676 45.99208 35.86942
#
# Velocity S-wave (km/s) = 3.16983 4.23659 3.74142
# Velocity P-wave (km/s) = 4.70658 7.08813 6.01638
#
# Compressibility (1/GPa) = 0.04457612
#
# Stress axis : x y z
#
# Youngs Moduli (GPa) = 52.16340 133.73301 26.98472
#
# Poissons Ratio (x) = 0.51330 0.07244
# Poissons Ratio (y) = 0.20021 0.08209
# Poissons Ratio (z) = 0.14004 0.40684
#
# Static dielectric constant tensor:
#      x y z
#    x 2.450480 -0.059840 0.197050 
#    y -0.059840 2.060260 -0.044120 
#    z 0.197050 -0.044120 2.115250 
# 
# From -- ./inp_files/448000.got.cif
#   From: 2010.05.17/outbox.cif.g08.bks.cpg/sg2_224_cif.got.tgz:448000.got - 2010.06.03 11:33:40.
