data_PCOD9013716
_publ_section_title
;
Structure prediction by ZEFSAII (Michael W. Deem and Ramdas Pophale) SiO2 
 PCOD9013716
Probable space group: P -1
;
_chemical_formula_sum "Si O2"
_cell_formula_units_Z 16
_cell_length_a 12.045281
_cell_length_b 12.575420
_cell_length_c 5.563969
_cell_angle_alpha 99.284395
_cell_angle_beta 119.097060
_cell_angle_gamma 77.091889
_cell_volume 716.449953
_symmetry_space_group_name_H-M "P -1"
_symmetry_group_IT_number 2
_symmetry_cell_setting 'triclinic'
loop_
_space_group_symop_operation_xyz
x,y,z
-x,-y,-z
loop_
_atom_site_type_symbol
_atom_site_label
_atom_site_fract_x
_atom_site_fract_y
_atom_site_fract_z
Si Si1 0.564531 0.448495 0.295809
Si Si2 0.204748 0.474975 0.221152
Si Si3 0.162874 0.226817 0.665847
Si Si4 0.826890 0.013081 0.627623
Si Si5 0.398063 0.283226 0.100624
Si Si6 0.959799 0.866433 0.084481
Si Si7 0.471423 0.942736 0.696070
Si Si8 0.985814 0.359016 0.196339
O O1 0.500000 0.500000 0.500000
O O2 0.712539 0.463321 0.485300
O O3 0.528386 0.328115 0.196945
O O4 0.500000 0.500000 0.000000
O O5 0.304525 0.377409 0.175323
O O6 0.095058 0.418839 0.210199
O O7 0.143074 0.559037 0.978798
O O8 0.156044 0.110838 0.495643
O O9 0.140042 0.193658 0.900365
O O10 0.048985 0.325251 0.510490
O O11 0.303389 0.256575 0.778434
O O12 0.921509 0.089417 0.646400
O O13 0.679460 0.064303 0.468430
O O14 0.878157 0.979846 0.938037
O O15 0.439160 0.174058 0.250789
O O16 0.024938 0.762608 0.955516
O O17 0.500000 0.000000 0.500000
O O18 0.500000 0.000000 0.000000
#
# Coordination Sequence:
#
# PCOD9013716 Si02
#       8
#     2   2   2   2   2   2   2   2
#     4  10  23  43  67  95 129 176 221 271 327 393
#     4  10  22  43  62  93 131 169 222 274 333 400
#     4  11  20  39  67  93 128 168 221 269 344 393
#     4  10  23  40  64  95 132 168 223 271 336 401
#     4  11  23  42  68  91 135 178 220 275 342 397
#     4  10  21  41  65  94 130 172 211 284 335 392
#     4  12  27  45  70 102 134 179 228 276 334 409
#     4  10  22  38  65  94 124 169 220 272 333 394
#
# _framework density 22.332332999999998
#
# number of rings (size 3 to 8) (size 9 to 14) (size 15 to 20)
#    0.000    1.500    2.500    1.875    3.500    2.500 
#    4.500    0.000    0.000    0.000    0.000    0.000 
#    0.000    0.000    0.000    0.000    0.000    0.000 
#
# Total GULP energy -89100.964021 kJ/mol
# GULP energy per Si atom -5568.810251 kJ/mol
# Density = 2.228150 g / cm^3
# Si number density = 22.332333 Si / 1000 Ang^3
#
#
#
# Elastic Constant Matrix: (Units=GPa)
#
#
# Indices 1 2 3 4 5 6 
#
# 1 58.0316 34.1839 40.6705 3.6969 30.5624 3.3768
# 2 34.1839 123.3132 55.9879 -17.8030 23.4827 4.5316
# 3 40.6705 55.9879 104.2671 -11.8831 32.0195 5.7952
# 4 3.6969 -17.8030 -11.8831 49.0230 6.3374 20.7335
# 5 30.5624 23.4827 32.0195 6.3374 44.1497 0.7556
# 6 3.3768 4.5316 5.7952 20.7335 0.7556 34.9326
#
#
#
# Elastic Compliance Matrix: (Units=1/GPa)
#
#
# Indices 1 2 3 4 5 6 
#
# 1 0.031955 -0.003695 -0.006354 -0.003778 -0.015022 0.001012
# 2 -0.003695 0.012124 -0.003546 0.005791 -0.002081 -0.004019
# 3 -0.006354 -0.003546 0.017200 0.006622 -0.007045 -0.005557
# 4 -0.003778 0.005791 0.006622 0.034995 -0.009913 -0.022040
# 5 -0.015022 -0.002081 -0.007045 -0.009913 0.040554 0.007898
# 6 0.001012 -0.004019 -0.005557 -0.022040 0.007898 0.042883
#
#
# Mechanical properties :
#
#
# Convention : Reuss Voigt Hill
#
# Bulk Modulus (GPa) = 29.33541 60.81072 45.07307
# Shear Modulus (GPa) = 22.90804 35.93903 29.42354
#
# Velocity S-wave (km/s) = 3.20625 4.01594 3.63372
# Velocity P-wave (km/s) = 5.18374 6.98518 6.15076
#
# Compressibility (1/GPa) = 0.03408850
#
# Stress axis : x y z
#
# Youngs Moduli (GPa) = 31.29417 82.48101 58.13809
#
# Poissons Ratio (x) = 0.30480 0.36939
# Poissons Ratio (y) = 0.11565 0.20618
# Poissons Ratio (z) = 0.19883 0.29251
#
# Static dielectric constant tensor:
#      x y z
#    x 1.918890 0.035910 -0.082040 
#    y 0.035910 1.850930 0.101850 
#    z -0.082040 0.101850 2.359060 
# 
# From -- ./inp_files/70840.got.cif
#   From: 2010.05.17/outbox.cif.g08.bks.cpg/sg2_36_cif.got.tgz:70840.got - 2010.06.03 11:33:40.
