data_PCOD9013057
_publ_section_title
;
Structure prediction by ZEFSAII (Michael W. Deem and Ramdas Pophale) SiO2 
 PCOD9013057
Probable space group: P -1
;
_chemical_formula_sum "Si O2"
_cell_formula_units_Z 16
_cell_length_a 9.422967
_cell_length_b 11.610141
_cell_length_c 10.929880
_cell_angle_alpha 39.340089
_cell_angle_beta 96.574236
_cell_angle_gamma 97.186157
_cell_volume 751.759154
_symmetry_space_group_name_H-M "P -1"
_symmetry_group_IT_number 2
_symmetry_cell_setting 'triclinic'
loop_
_space_group_symop_operation_xyz
x,y,z
-x,-y,-z
loop_
_atom_site_type_symbol
_atom_site_label
_atom_site_fract_x
_atom_site_fract_y
_atom_site_fract_z
Si Si1 0.160756 0.081231 0.915658
Si Si2 0.243177 0.077178 0.196465
Si Si3 0.363256 0.570336 0.781282
Si Si4 0.837383 0.335042 0.500208
Si Si5 0.777056 0.260498 0.949001
Si Si6 0.072160 0.376057 0.008973
Si Si7 0.148175 0.433159 0.450677
Si Si8 0.539078 0.227301 0.151003
O O1 0.170818 0.246573 0.681360
O O2 0.225578 0.153049 0.992982
O O3 0.235834 0.908040 0.008632
O O4 0.000000 0.000000 0.000000
O O5 0.171030 0.878431 0.343453
O O6 0.162213 0.196655 0.189017
O O7 0.410137 0.078579 0.242272
O O8 0.316657 0.607268 0.609010
O O9 0.206166 0.504543 0.869624
O O10 0.468534 0.411394 0.944861
O O11 0.418848 0.737922 0.732886
O O12 0.856779 0.409663 0.576936
O O13 0.989961 0.403830 0.401197
O O14 0.749392 0.461500 0.724914
O O15 0.675833 0.208335 0.095675
O O16 0.941333 0.287447 0.988064
O O17 0.000000 0.500000 0.000000
#
# Coordination Sequence:
#
# PCOD9013057 Si02
#       8
#     2   2   2   2   2   2   2   2
#     4  12  21  40  67  98 130 162 209 268 321 377
#     4  11  23  41  63  93 129 169 210 256 325 384
#     4  10  21  41  63  86 123 172 221 250 314 382
#     4  11  20  38  65  93 123 163 215 264 314 376
#     4  12  22  40  65  98 129 163 213 264 319 373
#     4  11  20  37  66  91 119 165 216 262 310 369
#     4  11  21  36  65 103 123 157 214 270 317 369
#     4  10  24  41  60  88 128 175 209 254 318 387
#
# _framework density 21.283414
#
# number of rings (size 3 to 8) (size 9 to 14) (size 15 to 20)
#    0.000    1.000    6.250    2.250    0.000    1.000 
#    2.250    3.125    0.000    0.000    0.000    0.000 
#    0.000    0.000    0.000    0.000    0.000    0.000 
#
# Total GULP energy -89076.489185 kJ/mol
# GULP energy per Si atom -5567.280574 kJ/mol
# Density = 2.123497 g / cm^3
# Si number density = 21.283414 Si / 1000 Ang^3
#
#
#
# Elastic Constant Matrix: (Units=GPa)
#
#
# Indices 1 2 3 4 5 6 
#
# 1 70.5894 22.3557 5.7923 -2.4835 -7.5856 17.4250
# 2 22.3557 93.2532 14.9561 -17.7534 -4.5057 24.5835
# 3 5.7923 14.9561 51.9134 -21.1756 3.0376 5.5614
# 4 -2.4835 -17.7534 -21.1756 19.5383 9.8370 -0.9485
# 5 -7.5856 -4.5057 3.0376 9.8370 23.8963 1.3895
# 6 17.4250 24.5835 5.5614 -0.9485 1.3895 31.4680
#
#
#
# Elastic Compliance Matrix: (Units=1/GPa)
#
#
# Indices 1 2 3 4 5 6 
#
# 1 0.018639 -0.003934 -0.007897 -0.016926 0.013551 -0.006960
# 2 -0.003934 0.019510 0.011502 0.035522 -0.012873 -0.013457
# 3 -0.007897 0.011502 0.061907 0.100751 -0.049081 -0.010350
# 4 -0.016926 0.035522 0.100751 0.245254 -0.111053 -0.023888
# 5 0.013551 -0.012873 -0.049081 -0.111053 0.095464 0.003664
# 6 -0.006960 -0.013457 -0.010350 -0.023888 0.003664 0.047093
#
#
# Mechanical properties :
#
#
# Convention : Reuss Voigt Hill
#
# Bulk Modulus (GPa) = 10.06058 33.55157 21.80607
# Shear Modulus (GPa) = 9.58481 26.49064 18.03773
#
# Velocity S-wave (km/s) = 2.12443 3.53180 2.91435
# Velocity P-wave (km/s) = 3.27945 5.69473 4.64676
#
# Compressibility (1/GPa) = 0.09939787
#
# Stress axis : x y z
#
# Youngs Moduli (GPa) = 53.64963 51.25581 16.15314
#
# Poissons Ratio (x) = 0.20166 0.12757
# Poissons Ratio (y) = 0.21108 -0.18580
# Poissons Ratio (z) = 0.42369 -0.58956
#
# Static dielectric constant tensor:
#      x y z
#    x 1.750000 0.011240 0.022810 
#    y 0.011240 1.765700 0.034700 
#    z 0.022810 0.034700 1.913860 
# 
# From -- ./inp_files/388865.got.cif
#   From: 2010.05.17/outbox.cif.g08.bks.cpg/sg2_195_cif.got.tgz:388865.got - 2010.06.03 11:33:40.
