data_PCOD9013437
_publ_section_title
;
Structure prediction by ZEFSAII (Michael W. Deem and Ramdas Pophale) SiO2 
 PCOD9013437
Probable space group: P -1
;
_chemical_formula_sum "Si O2"
_cell_formula_units_Z 15
_cell_length_a 11.499818
_cell_length_b 11.627431
_cell_length_c 9.972453
_cell_angle_alpha 97.287026
_cell_angle_beta 49.415863
_cell_angle_gamma 58.743849
_cell_volume 604.960667
_symmetry_space_group_name_H-M "P -1"
_symmetry_group_IT_number 2
_symmetry_cell_setting 'triclinic'
loop_
_space_group_symop_operation_xyz
x,y,z
-x,-y,-z
loop_
_atom_site_type_symbol
_atom_site_label
_atom_site_fract_x
_atom_site_fract_y
_atom_site_fract_z
Si Si1 0.570731 0.098769 0.713291
Si Si2 0.228379 0.460172 0.586094
Si Si3 0.006224 0.802955 0.506921
Si Si4 0.500000 0.000000 0.000000
Si Si5 0.332156 0.664125 0.468487
Si Si6 0.307724 0.910282 0.666195
Si Si7 0.107499 0.523266 0.225047
Si Si8 0.066928 0.656240 0.996545
O O1 0.512956 0.016690 0.827619
O O2 0.543417 0.123766 0.579000
O O3 0.864360 0.947105 0.508870
O O4 0.378552 0.304973 0.955950
O O5 0.271020 0.568413 0.536009
O O6 0.493486 0.238714 0.388909
O O7 0.061364 0.570929 0.864247
O O8 0.074047 0.474420 0.600783
O O9 0.217378 0.744720 0.418592
O O10 0.123027 0.613668 0.334950
O O11 0.767717 0.912094 0.796824
O O12 0.221125 0.835583 0.667044
O O13 0.634756 0.494560 0.229366
O O14 0.091002 0.134106 0.888928
O O15 0.989092 0.650070 0.196928
#
# Coordination Sequence:
#
# PCOD9013437 Si02
#       8
#     2   2   2   1   2   2   2   2
#     4  10  21  41  64  95 132 170 216 271 321 394
#     4  11  26  42  69  99 134 174 226 279 324 394
#     4  10  24  44  66  98 136 171 218 269 332 401
#     4   8  20  42  58  94 134 164 210 266 318 390
#     4  11  25  45  66  99 136 177 221 272 330 399
#     4  11  23  45  68  97 135 172 229 275 328 392
#     4  12  23  44  70  98 134 177 220 272 338 391
#     4  11  23  44  68 100 130 177 224 273 335 389
#
# _framework density 24.795000000000002
#
# number of rings (size 3 to 8) (size 9 to 14) (size 15 to 20)
#    0.800    0.533    4.000    2.800    0.000    8.000 
#    2.400    0.000    0.000    0.000    0.000    0.000 
#    0.000    0.000    0.000    0.000    0.000    0.000 
#
# Total GULP energy -83616.853773 kJ/mol
# GULP energy per Si atom -5574.456918 kJ/mol
# Density = 2.473857 g / cm^3
# Si number density = 24.795000 Si / 1000 Ang^3
#
#
#
# Elastic Constant Matrix: (Units=GPa)
#
#
# Indices 1 2 3 4 5 6 
#
# 1 118.2730 6.3706 24.3553 28.3485 -3.4944 17.6794
# 2 6.3706 89.0833 18.5398 6.6515 4.9661 17.3375
# 3 24.3553 18.5398 50.6385 33.2624 -0.8669 12.9398
# 4 28.3485 6.6515 33.2624 63.9285 1.7515 3.6052
# 5 -3.4944 4.9661 -0.8669 1.7515 23.1465 4.3162
# 6 17.6794 17.3375 12.9398 3.6052 4.3162 29.4910
#
#
#
# Elastic Compliance Matrix: (Units=1/GPa)
#
#
# Indices 1 2 3 4 5 6 
#
# 1 0.010611 0.000845 -0.001208 -0.003889 0.002839 -0.006268
# 2 0.000845 0.013315 -0.004269 0.000865 -0.001779 -0.006307
# 3 -0.001208 -0.004269 0.036360 -0.017447 0.005541 -0.011398
# 4 -0.003889 0.000865 -0.017447 0.026090 -0.004702 0.006977
# 5 0.002839 -0.001779 0.005541 -0.004702 0.046309 -0.009290
# 6 -0.006268 -0.006307 -0.011398 0.006977 -0.009290 0.046882
#
#
# Mechanical properties :
#
#
# Convention : Reuss Voigt Hill
#
# Bulk Modulus (GPa) = 19.59931 39.61400 29.60666
# Shear Modulus (GPa) = 24.29087 37.22846 30.75966
#
# Velocity S-wave (km/s) = 3.13336 3.87906 3.52598
# Velocity P-wave (km/s) = 4.58392 6.00617 5.34258
#
# Compressibility (1/GPa) = 0.05102220
#
# Stress axis : x y z
#
# Youngs Moduli (GPa) = 94.23987 75.10104 27.50308
#
# Poissons Ratio (x) = -0.06343 0.03322
# Poissons Ratio (y) = -0.07959 0.11740
# Poissons Ratio (z) = 0.11384 0.32057
#
# Static dielectric constant tensor:
#      x y z
#    x 5.856280 2.036130 3.451520 
#    y 2.036130 3.175800 1.817190 
#    z 3.451520 1.817190 5.098080 
# 
# From -- ./inp_files/428335.got.cif
#   From: 2010.05.17/outbox.cif.g08.bks.cpg/sg2_215_cif.got.tgz:428335.got - 2010.06.03 11:33:40.
