data_PCOD9013293
_publ_section_title
;
Structure prediction by ZEFSAII (Michael W. Deem and Ramdas Pophale) SiO2 
 PCOD9013293
Probable space group: P -1
;
_chemical_formula_sum "Si O2"
_cell_formula_units_Z 12
_cell_length_a 6.123003
_cell_length_b 13.335739
_cell_length_c 15.881410
_cell_angle_alpha 151.720184
_cell_angle_beta 59.157930
_cell_angle_gamma 118.864316
_cell_volume 525.947570
_symmetry_space_group_name_H-M "P -1"
_symmetry_group_IT_number 2
_symmetry_cell_setting 'triclinic'
loop_
_space_group_symop_operation_xyz
x,y,z
-x,-y,-z
loop_
_atom_site_type_symbol
_atom_site_label
_atom_site_fract_x
_atom_site_fract_y
_atom_site_fract_z
Si Si1 0.828535 0.673047 0.119756
Si Si2 0.487605 0.266318 0.109905
Si Si3 0.051367 0.730134 0.704163
Si Si4 0.900428 0.959821 0.756426
Si Si5 0.208450 0.470347 0.625429
Si Si6 0.669638 0.491115 0.833934
O O1 0.564783 0.681395 0.229060
O O2 0.974830 0.899407 0.239721
O O3 0.759201 0.585016 0.975129
O O4 0.000000 0.500000 0.000000
O O5 0.210956 0.199799 0.152127
O O6 0.598103 0.467339 0.292048
O O7 0.449803 0.335801 0.073154
O O8 0.697752 0.098866 0.944431
O O9 0.000000 0.500000 0.500000
O O10 0.219306 0.668908 0.705098
O O11 0.104846 0.891629 0.735775
O O12 0.757546 0.745708 0.589969
O O13 0.921397 0.435458 0.693470
#
# Coordination Sequence:
#
# PCOD9013293 Si02
#       6
#     2   2   2   2   2   2
#     4  11  21  41  66  88 124 160 208 254 299 362
#     4  11  21  43  63  90 130 157 201 256 301 364
#     4   9  22  41  60  95 125 158 205 249 302 365
#     4  11  22  40  64  93 120 166 206 243 311 360
#     4  10  22  42  63  91 128 158 201 254 303 361
#     4  10  21  41  64  88 127 161 198 262 301 350
#
# _framework density 22.815961000000001
#
# number of rings (size 3 to 8) (size 9 to 14) (size 15 to 20)
#    0.000    1.667    3.333    0.500    0.000    4.000 
#   12.000    3.333    0.000    0.000    0.000    0.000 
#    0.000    0.000    0.000    0.000    0.000    0.000 
#
# Total GULP energy -67062.482058 kJ/mol
# GULP energy per Si atom -5588.540171 kJ/mol
# Density = 2.276403 g / cm^3
# Si number density = 22.815961 Si / 1000 Ang^3
#
#
#
# Elastic Constant Matrix: (Units=GPa)
#
#
# Indices 1 2 3 4 5 6 
#
# 1 84.4908 57.6404 16.4010 10.7275 10.0853 -11.3971
# 2 57.6404 140.9547 27.4365 13.3231 -12.2347 -14.0825
# 3 16.4010 27.4365 62.4266 8.2141 7.7011 1.1187
# 4 10.7275 13.3231 8.2141 32.9565 -3.1972 -6.6354
# 5 10.0853 -12.2347 7.7011 -3.1972 22.4770 -11.3653
# 6 -11.3971 -14.0825 1.1187 -6.6354 -11.3653 58.5254
#
#
#
# Elastic Compliance Matrix: (Units=1/GPa)
#
#
# Indices 1 2 3 4 5 6 
#
# 1 0.020825 -0.010140 0.001889 -0.005335 -0.017495 -0.002423
# 2 -0.010140 0.014259 -0.006047 0.001743 0.017216 0.005113
# 3 0.001889 -0.006047 0.020834 -0.005784 -0.014618 -0.004980
# 4 -0.005335 0.001743 -0.005784 0.035350 0.013442 0.006109
# 5 -0.017495 0.017216 -0.014618 0.013442 0.077528 0.017594
# 6 -0.002423 0.005113 -0.004980 0.006109 0.017594 0.022050
#
#
# Mechanical properties :
#
#
# Convention : Reuss Voigt Hill
#
# Bulk Modulus (GPa) = 36.60228 54.53642 45.56935
# Shear Modulus (GPa) = 21.87708 35.21808 28.54758
#
# Velocity S-wave (km/s) = 3.09989 3.93309 3.54108
# Velocity P-wave (km/s) = 5.37491 6.67685 6.06094
#
# Compressibility (1/GPa) = 0.02732071
#
# Stress axis : x y z
#
# Youngs Moduli (GPa) = 48.01815 70.13359 47.99854
#
# Poissons Ratio (x) = 0.71116 -0.09066
# Poissons Ratio (y) = 0.48691 0.29027
# Poissons Ratio (z) = -0.09070 0.42412
#
# Static dielectric constant tensor:
#      x y z
#    x 1.858100 0.019130 0.004420 
#    y 0.019130 1.889170 0.003710 
#    z 0.004420 0.003710 1.821660 
# 
# From -- ./inp_files/23713.got.cif
#   From: 2010.05.17/outbox.cif.g08.bks.cpg/sg2_12_cif.got.tgz:23713.got - 2010.06.03 11:33:40.
