data_PCOD9013762
_publ_section_title
;
Structure prediction by ZEFSAII (Michael W. Deem and Ramdas Pophale) SiO2 
 PCOD9013762
Probable space group: P -1
;
_chemical_formula_sum "Si O2"
_cell_formula_units_Z 14
_cell_length_a 7.636852
_cell_length_b 13.320425
_cell_length_c 10.863485
_cell_angle_alpha 102.120369
_cell_angle_beta 82.062337
_cell_angle_gamma 153.355969
_cell_volume 481.423620
_symmetry_space_group_name_H-M "P -1"
_symmetry_group_IT_number 2
_symmetry_cell_setting 'triclinic'
loop_
_space_group_symop_operation_xyz
x,y,z
-x,-y,-z
loop_
_atom_site_type_symbol
_atom_site_label
_atom_site_fract_x
_atom_site_fract_y
_atom_site_fract_z
Si Si1 0.909860 0.170475 0.219709
Si Si2 0.116218 0.780977 0.299678
Si Si3 0.378931 0.193100 0.907367
Si Si4 0.495315 0.171434 0.419308
Si Si5 0.951505 0.760174 0.039975
Si Si6 0.338131 0.517328 0.449972
Si Si7 0.210007 0.598521 0.809059
O O1 0.843050 0.172997 0.086438
O O2 0.260067 0.422710 0.300534
O O3 0.580575 0.995907 0.313810
O O4 0.914294 0.051980 0.160932
O O5 0.819245 0.532674 0.277980
O O6 0.134210 0.903142 0.390597
O O7 0.089935 0.780570 0.154824
O O8 0.752604 0.388189 0.829448
O O9 0.102736 0.147545 0.912330
O O10 0.584670 0.290848 0.047867
O O11 0.446939 0.260868 0.500666
O O12 0.888692 0.323697 0.478912
O O13 0.610440 0.243942 0.281182
O O14 0.500000 0.500000 0.000000
O O15 0.500000 0.500000 0.500000
#
# Coordination Sequence:
#
# PCOD9013762 Si02
#       7
#     2   2   2   2   2   2   2
#     4  10  23  41  63  87 131 173 206 266 324 386
#     4  10  22  41  65  97 132 169 209 258 329 400
#     4  10  22  37  61  99 129 166 207 258 325 395
#     4  10  23  45  71  89 129 180 210 272 333 368
#     4  12  23  34  62 100 132 161 210 262 322 387
#     4  10  24  42  67  96 122 169 233 269 314 382
#     4  10  21  41  65  95 135 165 209 263 327 393
#
# _framework density 29.080418999999999
#
# number of rings (size 3 to 8) (size 9 to 14) (size 15 to 20)
#    0.000    1.714    1.429    1.714    8.000    0.000 
#    0.000   11.429    0.000    9.429    0.000    0.000 
#    0.000    0.000    0.000    0.000    0.000    0.000 
#
# Total GULP energy -78231.216405 kJ/mol
# GULP energy per Si atom -5587.944029 kJ/mol
# Density = 2.901423 g / cm^3
# Si number density = 29.080419 Si / 1000 Ang^3
#
#
#
# Elastic Constant Matrix: (Units=GPa)
#
#
# Indices 1 2 3 4 5 6 
#
# 1 130.0703 23.3468 53.2907 13.8214 -24.9972 -20.2175
# 2 23.3468 147.7615 26.7993 34.5134 -12.9502 -28.0888
# 3 53.2907 26.7993 156.7276 31.8984 -3.4104 -23.6105
# 4 13.8214 34.5134 31.8984 54.9779 -8.8911 -25.8538
# 5 -24.9972 -12.9502 -3.4104 -8.8911 54.1044 3.5436
# 6 -20.2175 -28.0888 -23.6105 -25.8538 3.5436 52.6026
#
#
#
# Elastic Compliance Matrix: (Units=1/GPa)
#
#
# Indices 1 2 3 4 5 6 
#
# 1 0.010201 -0.000499 -0.003205 0.001603 0.004478 0.002702
# 2 -0.000499 0.008263 -0.000114 -0.003783 0.000971 0.002244
# 3 -0.003205 -0.000114 0.008351 -0.003941 -0.001671 0.000631
# 4 0.001603 -0.003783 -0.003941 0.027845 0.003489 0.010278
# 5 0.004478 0.000971 -0.001671 0.003489 0.021136 0.001781
# 6 0.002702 0.002244 0.000631 0.010278 0.001781 0.026462
#
#
# Mechanical properties :
#
#
# Convention : Reuss Voigt Hill
#
# Bulk Modulus (GPa) = 52.14217 71.27033 61.70625
# Shear Modulus (GPa) = 42.99752 54.41183 48.70467
#
# Velocity S-wave (km/s) = 3.84939 4.33029 4.09690
# Velocity P-wave (km/s) = 6.14218 7.04011 6.60642
#
# Compressibility (1/GPa) = 0.01917833
#
# Stress axis : x y z
#
# Youngs Moduli (GPa) = 98.02887 121.02835 119.75159
#
# Poissons Ratio (x) = 0.06037 0.38381
# Poissons Ratio (y) = 0.04890 0.01366
# Poissons Ratio (z) = 0.31419 0.01380
#
# Static dielectric constant tensor:
#      x y z
#    x 2.356030 -0.014830 0.041890 
#    y -0.014830 2.413200 -0.041200 
#    z 0.041890 -0.041200 2.239530 
# 
# From -- ./inp_files/199918.got.cif
#   From: 2010.05.17/outbox.cif.g08.bks.cpg/sg2_100_cif.got.tgz:199918.got - 2010.06.03 11:33:40.
