data_PCOD9013264
_publ_section_title
;
Structure prediction by ZEFSAII (Michael W. Deem and Ramdas Pophale) SiO2 
 PCOD9013264
Probable space group: P -1
;
_chemical_formula_sum "Si O2"
_cell_formula_units_Z 16
_cell_length_a 10.976709
_cell_length_b 7.469243
_cell_length_c 9.764744
_cell_angle_alpha 103.687173
_cell_angle_beta 94.236920
_cell_angle_gamma 105.881197
_cell_volume 739.886272
_symmetry_space_group_name_H-M "P -1"
_symmetry_group_IT_number 2
_symmetry_cell_setting 'triclinic'
loop_
_space_group_symop_operation_xyz
x,y,z
-x,-y,-z
loop_
_atom_site_type_symbol
_atom_site_label
_atom_site_fract_x
_atom_site_fract_y
_atom_site_fract_z
Si Si1 0.674121 0.732795 0.467988
Si Si2 0.282373 0.728910 0.273410
Si Si3 0.586384 0.285242 0.436133
Si Si4 0.850665 0.444609 0.012062
Si Si5 0.105657 0.011068 0.296162
Si Si6 0.468650 0.029203 0.158956
Si Si7 0.787004 0.987808 0.965739
Si Si8 0.817968 0.808053 0.223598
O O1 0.616708 0.503297 0.427716
O O2 0.559074 0.801571 0.533453
O O3 0.714449 0.798796 0.329884
O O4 0.803097 0.808656 0.582389
O O5 0.322323 0.708060 0.426927
O O6 0.178658 0.847906 0.290953
O O7 0.406310 0.843114 0.214566
O O8 0.218432 0.546577 0.138073
O O9 0.586213 0.160723 0.278667
O O10 0.804865 0.219320 0.014299
O O11 0.823825 0.594475 0.144002
O O12 0.000000 0.500000 0.000000
O O13 0.958548 0.931094 0.311166
O O14 0.109086 0.042745 0.138124
O O15 0.500000 0.000000 0.000000
O O16 0.348003 0.112494 0.141054
O O17 0.790116 0.903411 0.099062
#
# Coordination Sequence:
#
# PCOD9013264 Si02
#       8
#     2   2   2   2   2   2   2   2
#     4  11  26  41  61  93 134 170 223 268 319 402
#     4  10  22  39  69  90 128 176 208 265 340 383
#     4  11  24  44  62  91 133 175 213 269 336 387
#     4  10  21  41  64 102 130 161 224 268 313 398
#     4  10  21  45  61  96 127 169 218 261 331 399
#     4  10  22  40  65  95 127 166 223 274 314 400
#     4  10  23  40  67  96 128 172 209 271 340 374
#     4  12  24  41  70  95 133 171 222 274 324 387
#
# _framework density 21.624946000000001
#
# number of rings (size 3 to 8) (size 9 to 14) (size 15 to 20)
#    0.000    1.750    5.000    1.125    7.000    0.000 
#    0.000    1.875    0.000    0.000    0.000    0.000 
#    0.000    0.000    0.000    0.000    0.000    0.000 
#
# Total GULP energy -89309.284176 kJ/mol
# GULP energy per Si atom -5581.830261 kJ/mol
# Density = 2.157573 g / cm^3
# Si number density = 21.624946 Si / 1000 Ang^3
#
#
#
# Elastic Constant Matrix: (Units=GPa)
#
#
# Indices 1 2 3 4 5 6 
#
# 1 51.0425 11.9070 29.7251 -8.4294 -0.3044 16.2614
# 2 11.9070 58.6206 36.0568 -4.8994 -2.7071 9.2630
# 3 29.7251 36.0568 145.6389 -8.9076 5.6013 13.1965
# 4 -8.4294 -4.8994 -8.9076 45.4490 7.6772 2.6764
# 5 -0.3044 -2.7071 5.6013 7.6772 35.6805 2.7310
# 6 16.2614 9.2630 13.1965 2.6764 2.7310 19.1760
#
#
#
# Elastic Compliance Matrix: (Units=1/GPa)
#
#
# Indices 1 2 3 4 5 6 
#
# 1 0.030566 0.000634 -0.003839 0.006189 0.001467 -0.024657
# 2 0.000634 0.021361 -0.004680 0.001538 0.002660 -0.008229
# 3 -0.003839 -0.004680 0.008986 0.000905 -0.001954 -0.000515
# 4 0.006189 0.001538 0.000905 0.024825 -0.004593 -0.009425
# 5 0.001467 0.002660 -0.001954 -0.004593 0.029903 -0.004802
# 6 -0.024657 -0.008229 -0.000515 -0.009425 -0.004802 0.079387
#
#
# Mechanical properties :
#
#
# Convention : Reuss Voigt Hill
#
# Bulk Modulus (GPa) = 22.15274 45.63109 33.89191
# Shear Modulus (GPa) = 22.13912 31.90196 27.02054
#
# Velocity S-wave (km/s) = 3.20312 3.84505 3.53867
# Velocity P-wave (km/s) = 4.89350 6.39214 5.69235
#
# Compressibility (1/GPa) = 0.04514115
#
# Stress axis : x y z
#
# Youngs Moduli (GPa) = 32.71655 46.81531 111.28635
#
# Poissons Ratio (x) = -0.02969 0.42725
# Poissons Ratio (y) = -0.02075 0.52087
# Poissons Ratio (z) = 0.12560 0.21912
#
# Static dielectric constant tensor:
#      x y z
#    x 1.833110 0.004020 -0.008500 
#    y 0.004020 1.799850 0.017130 
#    z -0.008500 0.017130 1.830180 
# 
# From -- ./inp_files/244656.got.cif
#   From: 2010.05.17/outbox.cif.g08.bks.cpg/sg2_123_cif.got.tgz:244656.got - 2010.06.03 11:33:40.
