data_PCOD9013274
_publ_section_title
;
Structure prediction by ZEFSAII (Michael W. Deem and Ramdas Pophale) SiO2 
 PCOD9013274
Probable space group: P -1
;
_chemical_formula_sum "Si O2"
_cell_formula_units_Z 14
_cell_length_a 25.341114
_cell_length_b 13.571702
_cell_length_c 10.400207
_cell_angle_alpha 147.949494
_cell_angle_beta 146.110575
_cell_angle_gamma 23.115812
_cell_volume 722.885897
_symmetry_space_group_name_H-M "P -1"
_symmetry_group_IT_number 2
_symmetry_cell_setting 'triclinic'
loop_
_space_group_symop_operation_xyz
x,y,z
-x,-y,-z
loop_
_atom_site_type_symbol
_atom_site_label
_atom_site_fract_x
_atom_site_fract_y
_atom_site_fract_z
Si Si1 0.877560 0.688895 0.859527
Si Si2 0.010141 0.356437 0.237147
Si Si3 0.637392 0.291082 0.962199
Si Si4 0.560447 0.060582 0.373200
Si Si5 0.854770 0.180161 0.973849
Si Si6 0.288612 0.407706 0.649622
Si Si7 0.713698 0.610776 0.967545
O O1 0.945921 0.605436 0.762704
O O2 0.782147 0.644556 0.638833
O O3 0.769028 0.015949 0.000434
O O4 0.000000 0.500000 0.000000
O O5 0.000000 0.500000 0.500000
O O6 0.128651 0.036762 0.159543
O O7 0.859962 0.470447 0.050171
O O8 0.603859 0.195510 0.671384
O O9 0.500000 0.500000 0.000000
O O10 0.668193 0.457867 0.169582
O O11 0.403132 0.271761 0.241455
O O12 0.589571 0.869967 0.334145
O O13 0.653381 0.856644 0.214176
O O14 0.741734 0.388121 0.866571
O O15 0.827841 0.374662 0.239906
O O16 0.000000 0.000000 0.000000
#
# Coordination Sequence:
#
# PCOD9013274 Si02
#       7
#     2   2   2   2   2   2   2
#     4  11  25  43  64  95 129 165 216 265 316 380
#     4  11  20  37  64  93 129 165 205 262 328 379
#     4  11  24  43  63  87 123 177 217 255 321 380
#     4   9  20  41  60  90 128 159 209 265 320 371
#     4   9  17  34  59  90 119 160 198 249 324 370
#     4  10  21  41  64  82 125 164 204 264 314 376
#     4   9  19  36  63  94 124 161 209 266 314 382
#
# _framework density 19.366817999999999
#
# number of rings (size 3 to 8) (size 9 to 14) (size 15 to 20)
#    0.000    2.000    1.429    3.429    0.000    5.143 
#   10.286    2.143    0.000    0.000    0.000    0.000 
#    0.000    0.000    0.000    0.000    0.000    0.000 
#
# Total GULP energy -78029.889709 kJ/mol
# GULP energy per Si atom -5573.563551 kJ/mol
# Density = 1.932274 g / cm^3
# Si number density = 19.366818 Si / 1000 Ang^3
#
#
#
# Elastic Constant Matrix: (Units=GPa)
#
#
# Indices 1 2 3 4 5 6 
#
# 1 100.3594 55.1200 59.2414 -6.5442 19.5688 6.7017
# 2 55.1200 141.0473 67.4825 -18.9503 8.1893 19.0025
# 3 59.2414 67.4825 99.5541 -7.7351 25.6183 33.6401
# 4 -6.5442 -18.9503 -7.7351 23.8492 3.5165 -0.2768
# 5 19.5688 8.1893 25.6183 3.5165 29.9700 0.8859
# 6 6.7017 19.0025 33.6401 -0.2768 0.8859 35.1117
#
#
#
# Elastic Compliance Matrix: (Units=1/GPa)
#
#
# Indices 1 2 3 4 5 6 
#
# 1 0.017931 -0.002654 -0.011816 -0.000754 -0.001071 0.009355
# 2 -0.002654 0.012218 -0.007817 0.005818 0.004355 0.001320
# 3 -0.011816 -0.007817 0.039201 0.006373 -0.023506 -0.030429
# 4 -0.000754 0.005818 0.006373 0.050111 -0.012176 -0.008409
# 5 -0.001071 0.004355 -0.023506 -0.012176 0.053839 0.018914
# 6 0.009355 0.001320 -0.030429 -0.008409 0.018914 0.054591
#
#
# Mechanical properties :
#
#
# Convention : Reuss Voigt Hill
#
# Bulk Modulus (GPa) = 40.36025 78.29427 59.32726
# Shear Modulus (GPa) = 17.81112 28.39397 23.10255
#
# Velocity S-wave (km/s) = 3.03590 3.83314 3.45758
# Velocity P-wave (km/s) = 5.75969 7.75277 6.82933
#
# Compressibility (1/GPa) = 0.02477685
#
# Stress axis : x y z
#
# Youngs Moduli (GPa) = 55.76804 81.84619 25.50957
#
# Poissons Ratio (x) = 0.21721 0.30141
# Poissons Ratio (y) = 0.14800 0.19942
# Poissons Ratio (z) = 0.65894 0.63981
#
# Static dielectric constant tensor:
#      x y z
#    x 1.726420 -0.034190 -0.018850 
#    y -0.034190 1.962240 0.232990 
#    z -0.018850 0.232990 1.837190 
# 
# From -- ./inp_files/476851.got.cif
#   From: 2010.05.17/outbox.cif.g08.bks.cpg/sg2_239_cif.got.tgz:476851.got - 2010.06.03 11:33:40.
