data_PCOD9013516
_publ_section_title
;
Structure prediction by ZEFSAII (Michael W. Deem and Ramdas Pophale) SiO2 
 PCOD9013516
Probable space group: P -1
;
_chemical_formula_sum "Si O2"
_cell_formula_units_Z 14
_cell_length_a 11.958141
_cell_length_b 14.362499
_cell_length_c 8.689200
_cell_angle_alpha 129.106132
_cell_angle_beta 131.876586
_cell_angle_gamma 30.299335
_cell_volume 554.701244
_symmetry_space_group_name_H-M "P -1"
_symmetry_group_IT_number 2
_symmetry_cell_setting 'triclinic'
loop_
_space_group_symop_operation_xyz
x,y,z
-x,-y,-z
loop_
_atom_site_type_symbol
_atom_site_label
_atom_site_fract_x
_atom_site_fract_y
_atom_site_fract_z
Si Si1 0.104371 0.102324 0.968089
Si Si2 0.619972 0.676228 0.744892
Si Si3 0.888713 0.602276 0.204763
Si Si4 0.683419 0.286565 0.986360
Si Si5 0.186614 0.120078 0.760422
Si Si6 0.767932 0.220654 0.360830
Si Si7 0.499263 0.143324 0.686378
O O1 0.112661 0.201541 0.952798
O O2 0.915919 0.193983 0.021100
O O3 0.096584 0.989691 0.736656
O O4 0.350714 0.950023 0.117383
O O5 0.451872 0.664864 0.607982
O O6 0.832483 0.553598 0.692458
O O7 0.429900 0.897303 0.765328
O O8 0.773083 0.589662 0.953078
O O9 0.786709 0.789254 0.238917
O O10 0.763179 0.656283 0.306582
O O11 0.618329 0.190275 0.766211
O O12 0.500000 0.500000 0.000000
O O13 0.702166 0.275640 0.177889
O O14 0.956538 0.199265 0.562994
O O15 0.500000 0.000000 0.500000
#
# Coordination Sequence:
#
# PCOD9013516 Si02
#       7
#     2   2   2   2   2   2   2
#     4  10  22  43  68  96 137 192 234 284 361 427
#     4  10  21  41  65 100 141 181 230 302 355 419
#     4  11  23  39  69 102 145 179 235 292 366 420
#     4  11  25  46  73 100 140 187 245 296 356 418
#     4  11  23  41  70 104 135 186 236 295 363 423
#     4  10  21  44  67  99 136 182 242 291 354 424
#     4  11  24  46  70 102 144 192 235 288 360 441
#
# _framework density 25.238810000000001
#
# number of rings (size 3 to 8) (size 9 to 14) (size 15 to 20)
#    0.000    1.429    4.286    3.857    6.000    0.571 
#    2.571    0.714    0.000    0.000    0.000    0.000 
#    0.000    0.000    0.000    0.000    0.000    0.000 
#
# Total GULP energy -78059.222801 kJ/mol
# GULP energy per Si atom -5575.658772 kJ/mol
# Density = 2.518137 g / cm^3
# Si number density = 25.238810 Si / 1000 Ang^3
#
#
#
# Elastic Constant Matrix: (Units=GPa)
#
#
# Indices 1 2 3 4 5 6 
#
# 1 138.0101 55.6607 26.2943 -20.9718 19.3446 -34.2490
# 2 55.6607 115.2881 13.5345 -29.6972 15.9002 -12.4514
# 3 26.2943 13.5345 68.0433 -7.9791 19.0393 0.6945
# 4 -20.9718 -29.6972 -7.9791 23.1708 -2.8537 4.2977
# 5 19.3446 15.9002 19.0393 -2.8537 35.3269 -6.3201
# 6 -34.2490 -12.4514 0.6945 4.2977 -6.3201 66.1357
#
#
#
# Elastic Compliance Matrix: (Units=1/GPa)
#
#
# Indices 1 2 3 4 5 6 
#
# 1 0.011113 -0.003284 -0.002681 0.003803 -0.002010 0.004726
# 2 -0.003284 0.014774 0.001443 0.015991 -0.004408 -0.000394
# 3 -0.002681 0.001443 0.018676 0.005181 -0.009282 -0.002537
# 4 0.003803 0.015991 0.005181 0.068090 -0.006595 -0.000129
# 5 -0.002010 -0.004408 -0.009282 -0.006595 0.036240 0.002119
# 6 0.004726 -0.000394 -0.002537 -0.000129 0.002119 0.017731
#
#
# Mechanical properties :
#
#
# Convention : Reuss Voigt Hill
#
# Bulk Modulus (GPa) = 28.15340 56.92451 42.53895
# Shear Modulus (GPa) = 26.66521 39.98348 33.32434
#
# Velocity S-wave (km/s) = 3.25394 3.98453 3.63762
# Velocity P-wave (km/s) = 5.02956 6.61604 5.87658
#
# Compressibility (1/GPa) = 0.03551969
#
# Stress axis : x y z
#
# Youngs Moduli (GPa) = 89.98149 67.68509 53.54358
#
# Poissons Ratio (x) = 0.22225 0.14357
# Poissons Ratio (y) = 0.29546 -0.07725
# Poissons Ratio (z) = 0.24128 -0.09765
#
# Static dielectric constant tensor:
#      x y z
#    x 2.386380 -1.010280 -0.746110 
#    y -1.010280 10.330070 6.389250 
#    z -0.746110 6.389250 6.761740 
# 
# From -- ./inp_files/274152.got.cif
#   From: 2010.05.17/outbox.cif.g08.bks.cpg/sg2_138_cif.got.tgz:274152.got - 2010.06.03 11:33:40.
