data_PCOD9013162
_publ_section_title
;
Structure prediction by ZEFSAII (Michael W. Deem and Ramdas Pophale) SiO2 
 PCOD9013162
Probable space group: P -1
;
_chemical_formula_sum "Si O2"
_cell_formula_units_Z 14
_cell_length_a 9.216842
_cell_length_b 21.614755
_cell_length_c 9.266345
_cell_angle_alpha 54.753139
_cell_angle_beta 46.524136
_cell_angle_gamma 30.008530
_cell_volume 669.083579
_symmetry_space_group_name_H-M "P -1"
_symmetry_group_IT_number 2
_symmetry_cell_setting 'triclinic'
loop_
_space_group_symop_operation_xyz
x,y,z
-x,-y,-z
loop_
_atom_site_type_symbol
_atom_site_label
_atom_site_fract_x
_atom_site_fract_y
_atom_site_fract_z
Si Si1 0.946855 0.928719 0.093797
Si Si2 0.730604 0.273170 0.612904
Si Si3 0.399866 0.578561 0.263746
Si Si4 0.864302 0.234253 0.046656
Si Si5 0.222227 0.159084 0.180187
Si Si6 0.267428 0.479623 0.299540
Si Si7 0.072329 0.376377 0.941401
O O1 0.072912 0.839974 0.258772
O O2 0.566523 0.029566 0.182519
O O3 0.135628 0.844875 0.932521
O O4 0.000000 0.000000 0.000000
O O5 0.704786 0.363379 0.584984
O O6 0.368815 0.345372 0.757126
O O7 0.930803 0.216865 0.404216
O O8 0.371261 0.501281 0.332247
O O9 0.167081 0.695638 0.155823
O O10 0.776560 0.490099 0.095624
O O11 0.556200 0.346421 0.206455
O O12 0.161349 0.152887 0.064720
O O13 0.208387 0.254802 0.061732
O O14 0.000000 0.500000 0.500000
O O15 0.114850 0.577081 0.145792
#
# Coordination Sequence:
#
# PCOD9013162 Si02
#       7
#     2   2   2   2   2   2   2
#     4  11  24  43  65  88 124 167 213 260 312 361
#     4  11  25  41  64  94 128 165 210 258 314 366
#     4  10  21  41  63  93 131 165 199 257 316 376
#     4  10  21  42  64  87 123 172 201 253 316 367
#     4  12  22  42  66  89 126 166 213 259 303 370
#     4  11  21  39  66  98 129 162 209 253 311 383
#     4  11  21  40  65  92 129 164 207 253 317 371
#
# _framework density 20.924142
#
# number of rings (size 3 to 8) (size 9 to 14) (size 15 to 20)
#    0.000    1.143    4.286    3.000    0.000    1.714 
#    2.571    0.714    0.000    0.000    0.000    0.000 
#    0.000    0.000    0.000    0.000    0.000    0.000 
#
# Total GULP energy -78213.181231 kJ/mol
# GULP energy per Si atom -5586.655802 kJ/mol
# Density = 2.087652 g / cm^3
# Si number density = 20.924142 Si / 1000 Ang^3
#
#
#
# Elastic Constant Matrix: (Units=GPa)
#
#
# Indices 1 2 3 4 5 6 
#
# 1 120.7542 51.2535 36.3358 9.0780 7.7555 12.0818
# 2 51.2535 95.1397 16.0281 0.9003 8.7055 -3.2668
# 3 36.3358 16.0281 66.9127 3.5233 0.3776 3.2297
# 4 9.0780 0.9003 3.5233 18.2741 -5.8805 1.3629
# 5 7.7555 8.7055 0.3776 -5.8805 36.1643 -0.3896
# 6 12.0818 -3.2668 3.2297 1.3629 -0.3896 51.6336
#
#
#
# Elastic Compliance Matrix: (Units=1/GPa)
#
#
# Indices 1 2 3 4 5 6 
#
# 1 0.013390 -0.006153 -0.005329 -0.005839 -0.002317 -0.003052
# 2 -0.006153 0.014088 -0.000221 0.001664 -0.001774 0.002288
# 3 -0.005329 -0.000221 0.017907 -0.000505 0.000928 0.000133
# 4 -0.005839 0.001664 -0.000505 0.061114 0.010794 -0.000029
# 5 -0.002317 -0.001774 0.000928 0.010794 0.030324 0.000316
# 6 -0.003052 0.002288 0.000133 -0.000029 0.000316 0.020221
#
#
# Mechanical properties :
#
#
# Convention : Reuss Voigt Hill
#
# Bulk Modulus (GPa) = 45.50165 54.44904 49.97535
# Shear Modulus (GPa) = 26.62736 33.16037 29.89386
#
# Velocity S-wave (km/s) = 3.57117 3.98526 3.78389
# Velocity P-wave (km/s) = 6.22877 6.87423 6.55944
#
# Compressibility (1/GPa) = 0.02197722
#
# Stress axis : x y z
#
# Youngs Moduli (GPa) = 74.68436 70.98216 55.84471
#
# Poissons Ratio (x) = 0.43675 0.29761
# Poissons Ratio (y) = 0.45953 0.01236
# Poissons Ratio (z) = 0.39802 0.01571
#
# Static dielectric constant tensor:
#      x y z
#    x 1.764830 -0.018040 0.018580 
#    y -0.018040 1.785900 -0.020420 
#    z 0.018580 -0.020420 1.730480 
# 
# From -- ./inp_files/187202.got.cif
#   From: 2010.05.17/outbox.cif.g08.bks.cpg/sg2_94_cif.got.tgz:187202.got - 2010.06.03 11:33:40.
