data_PCOD9013271
_publ_section_title
;
Structure prediction by ZEFSAII (Michael W. Deem and Ramdas Pophale) SiO2 
 PCOD9013271
Probable space group: P -1
;
_chemical_formula_sum "Si O2"
_cell_formula_units_Z 12
_cell_length_a 10.883455
_cell_length_b 5.621259
_cell_length_c 10.410926
_cell_angle_alpha 74.117357
_cell_angle_beta 59.255589
_cell_angle_gamma 87.704418
_cell_volume 522.658398
_symmetry_space_group_name_H-M "P -1"
_symmetry_group_IT_number 2
_symmetry_cell_setting 'triclinic'
loop_
_space_group_symop_operation_xyz
x,y,z
-x,-y,-z
loop_
_atom_site_type_symbol
_atom_site_label
_atom_site_fract_x
_atom_site_fract_y
_atom_site_fract_z
Si Si1 0.894611 0.701064 0.990890
Si Si2 0.106428 0.186173 0.744824
Si Si3 0.971586 0.621463 0.632177
Si Si4 0.223449 0.073810 0.437270
Si Si5 0.500182 0.939872 0.163803
Si Si6 0.399113 0.522211 0.924966
O O1 0.831739 0.779561 0.150007
O O2 0.765992 0.599305 0.980508
O O3 0.000000 0.500000 0.000000
O O4 0.992938 0.937364 0.845374
O O5 0.010126 0.409996 0.738433
O O6 0.221969 0.178089 0.568862
O O7 0.000000 0.500000 0.500000
O O8 0.091302 0.856438 0.547158
O O9 0.819691 0.720333 0.670733
O O10 0.356202 0.963687 0.317842
O O11 0.531129 0.652638 0.190626
O O12 0.601378 0.179601 0.132446
O O13 0.500000 0.000000 0.000000
O O14 0.500000 0.500000 0.000000
#
# Coordination Sequence:
#
# PCOD9013271 Si02
#       6
#     2   2   2   2   2   2
#     4  11  25  46  73 102 143 188 248 300 362 436
#     4  10  23  41  70 103 140 188 242 305 363 427
#     4   9  20  37  65 102 139 181 239 298 362 422
#     4  10  21  41  64 104 141 187 238 300 363 430
#     4  10  24  44  68 100 144 187 236 296 361 436
#     4  10  25  47  70 105 141 190 242 300 364 430
#
# _framework density 22.959544999999999
#
# number of rings (size 3 to 8) (size 9 to 14) (size 15 to 20)
#    0.000    2.000    0.000    1.000    9.333   10.667 
#    9.000    1.667    0.000    0.000    0.000    0.000 
#    0.000    0.000    0.000    0.000    0.000    0.000 
#
# Total GULP energy -66863.437454 kJ/mol
# GULP energy per Si atom -5571.953121 kJ/mol
# Density = 2.290729 g / cm^3
# Si number density = 22.959545 Si / 1000 Ang^3
#
#
#
# Elastic Constant Matrix: (Units=GPa)
#
#
# Indices 1 2 3 4 5 6 
#
# 1 104.2785 40.2203 50.5583 5.3758 1.6898 15.2943
# 2 40.2203 156.9719 45.2451 11.4981 2.7207 0.1970
# 3 50.5583 45.2451 131.7909 34.7954 28.1882 1.7904
# 4 5.3758 11.4981 34.7954 54.2020 -2.6164 1.8779
# 5 1.6898 2.7207 28.1882 -2.6164 22.6727 6.4459
# 6 15.2943 0.1970 1.7904 1.8779 6.4459 40.1848
#
#
#
# Elastic Compliance Matrix: (Units=1/GPa)
#
#
# Indices 1 2 3 4 5 6 
#
# 1 0.015884 -0.001845 -0.010188 0.006356 0.014783 -0.008251
# 2 -0.001845 0.007472 -0.002360 0.000198 0.002076 0.000428
# 3 -0.010188 -0.002360 0.022931 -0.015037 -0.031661 0.008649
# 4 0.006356 0.000198 -0.015037 0.028801 0.023472 -0.006861
# 5 0.014783 0.002076 -0.031661 0.023472 0.090465 -0.019834
# 6 -0.008251 0.000428 0.008649 -0.006861 -0.019834 0.031140
#
#
# Mechanical properties :
#
#
# Convention : Reuss Voigt Hill
#
# Bulk Modulus (GPa) = 57.13566 73.89876 65.51721
# Shear Modulus (GPa) = 21.61586 40.54638 31.08112
#
# Velocity S-wave (km/s) = 3.07168 4.20693 3.68330
# Velocity P-wave (km/s) = 6.12533 7.47356 6.83278
#
# Compressibility (1/GPa) = 0.01750220
#
# Stress axis : x y z
#
# Youngs Moduli (GPa) = 62.95830 133.82642 43.60984
#
# Poissons Ratio (x) = 0.24687 0.44429
# Poissons Ratio (y) = 0.11614 0.10291
# Poissons Ratio (z) = 0.64140 0.31579
#
# Static dielectric constant tensor:
#      x y z
#    x 1.883550 -0.046370 0.018640 
#    y -0.046370 1.781020 -0.021080 
#    z 0.018640 -0.021080 1.897750 
# 
# From -- ./inp_files/409963.got.cif
#   From: 2010.05.17/outbox.cif.g08.bks.cpg/sg2_205_cif.got.tgz:409963.got - 2010.06.03 11:33:40.
