data_PCOD9013926
_publ_section_title
;
Structure prediction by ZEFSAII (Michael W. Deem and Ramdas Pophale) SiO2 
 PCOD9013926
Probable space group: P -1
;
_chemical_formula_sum "Si O2"
_cell_formula_units_Z 15
_cell_length_a 7.877878
_cell_length_b 11.326712
_cell_length_c 11.773405
_cell_angle_alpha 53.551531
_cell_angle_beta 129.551790
_cell_angle_gamma 105.188711
_cell_volume 640.016320
_symmetry_space_group_name_H-M "P -1"
_symmetry_group_IT_number 2
_symmetry_cell_setting 'triclinic'
loop_
_space_group_symop_operation_xyz
x,y,z
-x,-y,-z
loop_
_atom_site_type_symbol
_atom_site_label
_atom_site_fract_x
_atom_site_fract_y
_atom_site_fract_z
Si Si1 0.500000 0.000000 0.000000
Si Si2 0.086531 0.599112 0.638746
Si Si3 0.525594 0.711997 0.775115
Si Si4 0.396951 0.993830 0.705753
Si Si5 0.152310 0.914144 0.214512
Si Si6 0.844712 0.707801 0.258468
Si Si7 0.872723 0.876527 0.698162
Si Si8 0.872252 0.416813 0.083028
O O1 0.651599 0.980996 0.196972
O O2 0.657753 0.854095 0.096499
O O3 0.274017 0.699763 0.642170
O O4 0.196919 0.428368 0.757023
O O5 0.010610 0.609266 0.730093
O O6 0.888657 0.644403 0.440003
O O7 0.671914 0.791573 0.704200
O O8 0.497968 0.822835 0.807980
O O9 0.649955 0.539807 0.940196
O O10 0.593688 0.087858 0.710835
O O11 0.204247 0.049452 0.497915
O O12 0.071524 0.758384 0.282972
O O13 0.109233 0.008329 0.258924
O O14 0.000000 0.000000 0.000000
O O15 0.099656 0.751226 0.856748
O O16 0.000000 0.500000 0.000000
#
# Coordination Sequence:
#
# PCOD9013926 Si02
#       8
#     1   2   2   2   2   2   2   2
#     4  12  24  40  62  96 132 162 212 272 316 368
#     4  11  23  43  62  90 130 169 211 253 317 390
#     4  10  21  41  66  91 121 167 214 256 313 379
#     4  11  22  42  66  93 126 165 218 258 317 374
#     4  11  22  42  67  93 127 168 214 260 315 380
#     4  11  25  41  63  90 129 172 206 260 324 371
#     4  10  22  40  68  96 121 165 214 268 309 371
#     4  10  22  38  63  91 126 158 211 259 310 369
#
# _framework density 23.436900999999999
#
# number of rings (size 3 to 8) (size 9 to 14) (size 15 to 20)
#    0.000    1.333    1.333    5.200    3.733    2.133 
#    0.000    2.667    0.000    6.400    0.000    0.000 
#    0.000    0.000    0.000    0.000    0.000    0.000 
#
# Total GULP energy -83587.055031 kJ/mol
# GULP energy per Si atom -5572.470335 kJ/mol
# Density = 2.338356 g / cm^3
# Si number density = 23.436901 Si / 1000 Ang^3
#
#
#
# Elastic Constant Matrix: (Units=GPa)
#
#
# Indices 1 2 3 4 5 6 
#
# 1 89.2659 44.9166 16.9522 0.4594 -14.0482 1.2691
# 2 44.9166 132.2194 22.1035 -1.6531 -9.5749 -1.1618
# 3 16.9522 22.1035 88.1752 9.2318 -13.3301 -6.5404
# 4 0.4594 -1.6531 9.2318 43.8340 -17.5305 -3.0315
# 5 -14.0482 -9.5749 -13.3301 -17.5305 29.0247 0.0947
# 6 1.2691 -1.1618 -6.5404 -3.0315 0.0947 32.3138
#
#
#
# Elastic Compliance Matrix: (Units=1/GPa)
#
#
# Indices 1 2 3 4 5 6 
#
# 1 0.014606 -0.004276 -0.001040 0.002542 0.006719 -0.000719
# 2 -0.004276 0.009352 -0.001463 0.001139 0.001031 0.000312
# 3 -0.001040 -0.001463 0.012845 -0.000811 0.004416 0.002499
# 4 0.002542 0.001139 -0.000811 0.031213 0.020078 0.002646
# 5 0.006719 0.001031 0.004416 0.020078 0.052192 0.002398
# 6 -0.000719 0.000312 0.002499 0.002646 0.002398 0.031733
#
#
# Mechanical properties :
#
#
# Convention : Reuss Voigt Hill
#
# Bulk Modulus (GPa) = 43.01710 53.06723 48.04217
# Shear Modulus (GPa) = 28.86041 36.08038 32.47039
#
# Velocity S-wave (km/s) = 3.51295 3.92786 3.72619
# Velocity P-wave (km/s) = 5.90328 6.57743 6.24945
#
# Compressibility (1/GPa) = 0.02324657
#
# Stress axis : x y z
#
# Youngs Moduli (GPa) = 68.46457 106.92976 77.84858
#
# Poissons Ratio (x) = 0.45723 0.08096
# Poissons Ratio (y) = 0.29275 0.11386
# Poissons Ratio (z) = 0.07120 0.15639
#
# Static dielectric constant tensor:
#      x y z
#    x 1.914970 0.014190 0.026350 
#    y 0.014190 1.848520 -0.020500 
#    z 0.026350 -0.020500 1.943360 
# 
# From -- ./inp_files/295357.got.cif
#   From: 2010.05.17/outbox.cif.g08.bks.cpg/sg2_148_cif.got.tgz:295357.got - 2010.06.03 11:33:40.
