data_PCOD9013717
_publ_section_title
;
Structure prediction by ZEFSAII (Michael W. Deem and Ramdas Pophale) SiO2 
 PCOD9013717
Probable space group: P -1
;
_chemical_formula_sum "Si O2"
_cell_formula_units_Z 14
_cell_length_a 16.071317
_cell_length_b 8.457381
_cell_length_c 8.823587
_cell_angle_alpha 108.655380
_cell_angle_beta 138.812534
_cell_angle_gamma 94.972342
_cell_volume 636.983876
_symmetry_space_group_name_H-M "P -1"
_symmetry_group_IT_number 2
_symmetry_cell_setting 'triclinic'
loop_
_space_group_symop_operation_xyz
x,y,z
-x,-y,-z
loop_
_atom_site_type_symbol
_atom_site_label
_atom_site_fract_x
_atom_site_fract_y
_atom_site_fract_z
Si Si1 0.034556 0.554466 0.883833
Si Si2 0.749644 0.280336 0.233634
Si Si3 0.194864 0.050847 0.658211
Si Si4 0.518648 0.693705 0.013181
Si Si5 0.331590 0.813006 0.250394
Si Si6 0.400519 0.550343 0.477852
Si Si7 0.871607 0.753111 0.104384
O O1 0.083843 0.405474 0.843964
O O2 0.881440 0.477926 0.557132
O O3 0.178959 0.772236 0.116965
O O4 0.000000 0.500000 0.000000
O O5 0.590272 0.244891 0.049535
O O6 0.771297 0.104672 0.265245
O O7 0.741411 0.276574 0.040209
O O8 0.202932 0.200300 0.843754
O O9 0.308834 0.144618 0.706513
O O10 0.026248 0.945588 0.338825
O O11 0.472797 0.648876 0.762184
O O12 0.500000 0.500000 0.000000
O O13 0.373922 0.692410 0.382661
O O14 0.500000 0.000000 0.500000
O O15 0.500000 0.500000 0.500000
O O16 0.244628 0.346378 0.220575
#
# Coordination Sequence:
#
# PCOD9013717 Si02
#       7
#     2   2   2   2   2   2   2
#     4  10  22  43  69  95 133 177 218 271 335 394
#     4  11  23  41  66  99 129 175 222 269 326 393
#     4  10  21  41  65  94 130 172 213 269 321 392
#     4  12  25  41  64  97 132 171 220 272 330 391
#     4  11  24  40  65 102 130 166 223 275 325 389
#     4  11  21  41  64  87 131 172 213 264 329 387
#     4   9  20  38  69  88 124 169 219 255 334 376
#
# _framework density 21.978580000000001
#
# number of rings (size 3 to 8) (size 9 to 14) (size 15 to 20)
#    0.000    1.429    1.429    4.286    2.000    2.286 
#    2.571    0.714    0.000    0.000    0.000    0.000 
#    0.000    0.000    0.000    0.000    0.000    0.000 
#
# Total GULP energy -77989.899711 kJ/mol
# GULP energy per Si atom -5570.707122 kJ/mol
# Density = 2.192856 g / cm^3
# Si number density = 21.978580 Si / 1000 Ang^3
#
#
#
# Elastic Constant Matrix: (Units=GPa)
#
#
# Indices 1 2 3 4 5 6 
#
# 1 122.8429 34.2485 28.7393 4.7498 26.1754 12.6992
# 2 34.2485 63.0461 16.5479 -8.6761 -4.6192 11.8454
# 3 28.7393 16.5479 109.2485 7.7210 21.0065 31.2075
# 4 4.7498 -8.6761 7.7210 27.2445 6.1923 0.0631
# 5 26.1754 -4.6192 21.0065 6.1923 38.9929 0.2678
# 6 12.6992 11.8454 31.2075 0.0631 0.2678 42.4133
#
#
#
# Elastic Compliance Matrix: (Units=1/GPa)
#
#
# Indices 1 2 3 4 5 6 
#
# 1 0.012325 -0.007443 0.000277 -0.002574 -0.008883 -0.001755
# 2 -0.007443 0.022696 -0.003018 0.007538 0.008127 -0.001952
# 3 0.000277 -0.003018 0.013884 -0.003230 -0.007445 -0.009404
# 4 -0.002574 0.007538 -0.003230 0.040955 -0.002150 0.000995
# 5 -0.008883 0.008127 -0.007445 -0.002150 0.036885 0.005638
# 6 -0.001755 -0.001952 -0.009404 0.000995 0.005638 0.031531
#
#
# Mechanical properties :
#
#
# Convention : Reuss Voigt Hill
#
# Bulk Modulus (GPa) = 35.04234 50.46765 42.75499
# Shear Modulus (GPa) = 26.57360 36.10359 31.33860
#
# Velocity S-wave (km/s) = 3.48094 4.05739 3.78017
# Velocity P-wave (km/s) = 5.66872 6.70536 6.20871
#
# Compressibility (1/GPa) = 0.02853691
#
# Stress axis : x y z
#
# Youngs Moduli (GPa) = 81.13771 44.05991 72.02595
#
# Poissons Ratio (x) = 0.32794 -0.01992
# Poissons Ratio (y) = 0.60392 0.21734
# Poissons Ratio (z) = -0.02244 0.13295
#
# Static dielectric constant tensor:
#      x y z
#    x 1.836870 0.025010 0.069370 
#    y 0.025010 1.772230 0.058410 
#    z 0.069370 0.058410 1.904910 
# 
# From -- ./inp_files/299346.got.cif
#   From: 2010.05.17/outbox.cif.g08.bks.cpg/sg2_150_cif.got.tgz:299346.got - 2010.06.03 11:33:40.
