data_PCOD9013816
_publ_section_title
;
Structure prediction by ZEFSAII (Michael W. Deem and Ramdas Pophale) SiO2 
 PCOD9013816
Probable space group: P -1
;
_chemical_formula_sum "Si O2"
_cell_formula_units_Z 16
_cell_length_a 20.200408
_cell_length_b 6.078153
_cell_length_c 9.528568
_cell_angle_alpha 73.282214
_cell_angle_beta 133.994302
_cell_angle_gamma 128.816050
_cell_volume 632.604240
_symmetry_space_group_name_H-M "P -1"
_symmetry_group_IT_number 2
_symmetry_cell_setting 'triclinic'
loop_
_space_group_symop_operation_xyz
x,y,z
-x,-y,-z
loop_
_atom_site_type_symbol
_atom_site_label
_atom_site_fract_x
_atom_site_fract_y
_atom_site_fract_z
Si Si1 0.883901 0.969737 0.308800
Si Si2 0.020337 0.431986 0.821010
Si Si3 0.530490 0.773095 0.097683
Si Si4 0.780700 0.134756 0.793945
Si Si5 0.187360 0.309998 0.020883
Si Si6 0.774576 0.955566 0.443377
Si Si7 0.343269 0.639905 0.448645
Si Si8 0.552532 0.659189 0.697640
O O1 0.821972 0.941211 0.366895
O O2 0.927103 0.270372 0.240854
O O3 0.799521 0.707022 0.122757
O O4 0.000000 0.000000 0.500000
O O5 0.098690 0.547185 0.055895
O O6 0.117620 0.771750 0.360706
O O7 0.068191 0.270526 0.856099
O O8 0.671031 0.975296 0.266515
O O9 0.473076 0.586150 0.189405
O O10 0.500000 0.500000 0.000000
O O11 0.500000 0.000000 0.000000
O O12 0.695742 0.176351 0.577958
O O13 0.827880 0.953730 0.872737
O O14 0.290336 0.568215 0.224192
O O15 0.312736 0.072803 0.180084
O O16 0.719875 0.656882 0.501908
O O17 0.476901 0.763614 0.616206
O O18 0.500000 0.500000 0.500000
#
# Coordination Sequence:
#
# PCOD9013816 Si02
#       8
#     2   2   2   2   2   2   2   2
#     4  11  23  42  67 103 135 189 249 290 370 455
#     4  10  23  43  66 100 140 187 236 299 376 455
#     4  11  30  54  78 119 157 205 261 324 406 456
#     4  10  22  40  70 102 136 184 243 302 368 457
#     4  10  21  41  65  98 137 177 242 287 367 444
#     4  11  25  47  71 103 151 189 243 321 379 459
#     4  10  23  44  66 102 137 184 243 302 382 438
#     4  11  23  46  78 104 144 199 259 321 379 470
#
# _framework density 25.292278
#
# number of rings (size 3 to 8) (size 9 to 14) (size 15 to 20)
#    0.000    1.500    2.500    0.750    3.500    7.000 
#    2.250    1.875    0.000    0.000    0.000    0.000 
#    0.000    0.000    0.000    0.000    0.000    0.000 
#
# Total GULP energy -89248.554122 kJ/mol
# GULP energy per Si atom -5578.034633 kJ/mol
# Density = 2.523471 g / cm^3
# Si number density = 25.292278 Si / 1000 Ang^3
#
#
#
# Elastic Constant Matrix: (Units=GPa)
#
#
# Indices 1 2 3 4 5 6 
#
# 1 98.4756 28.9243 65.1419 -0.7898 4.4690 -0.0989
# 2 28.9243 103.1322 51.8736 -10.9110 15.2931 -1.5203
# 3 65.1419 51.8736 153.9535 -11.5974 43.8932 -6.2723
# 4 -0.7898 -10.9110 -11.5974 58.6093 -5.4685 11.4549
# 5 4.4690 15.2931 43.8932 -5.4685 72.5002 -2.8786
# 6 -0.0989 -1.5203 -6.2723 11.4549 -2.8786 42.8873
#
#
#
# Elastic Compliance Matrix: (Units=1/GPa)
#
#
# Indices 1 2 3 4 5 6 
#
# 1 0.015004 -0.001320 -0.006996 -0.000998 0.003493 -0.000535
# 2 -0.001320 0.011921 -0.003254 0.001624 -0.000361 -0.000514
# 3 -0.006996 -0.003254 0.012468 0.000981 -0.006317 0.001006
# 4 -0.000998 0.001624 0.000981 0.018499 0.000333 -0.004720
# 5 0.003493 -0.000361 -0.006317 0.000333 0.017510 0.000158
# 6 -0.000535 -0.000514 0.001006 -0.004720 0.000158 0.024716
#
#
# Mechanical properties :
#
#
# Convention : Reuss Voigt Hill
#
# Bulk Modulus (GPa) = 61.53063 71.93786 66.73425
# Shear Modulus (GPa) = 38.85765 48.77413 43.81589
#
# Velocity S-wave (km/s) = 3.92388 4.39614 4.16670
# Velocity P-wave (km/s) = 6.70147 7.36698 7.04209
#
# Compressibility (1/GPa) = 0.01625207
#
# Stress axis : x y z
#
# Youngs Moduli (GPa) = 66.65036 83.88602 80.20525
#
# Poissons Ratio (x) = 0.11075 0.56115
# Poissons Ratio (y) = 0.08799 0.26096
# Poissons Ratio (z) = 0.46631 0.27294
#
# Static dielectric constant tensor:
#      x y z
#    x 2.797670 -0.410450 -0.260430 
#    y -0.410450 2.143950 0.116950 
#    z -0.260430 0.116950 2.082980 
# 
# From -- ./inp_files/468301.got.cif
#   From: 2010.05.17/outbox.cif.g08.bks.cpg/sg2_235_cif.got.tgz:468301.got - 2010.06.03 11:33:40.
