data_PCOD9013343
_publ_section_title
;
Structure prediction by ZEFSAII (Michael W. Deem and Ramdas Pophale) SiO2 
 PCOD9013343
Probable space group: P -1
;
_chemical_formula_sum "Si O2"
_cell_formula_units_Z 16
_cell_length_a 9.516950
_cell_length_b 9.947432
_cell_length_c 14.374981
_cell_angle_alpha 126.590576
_cell_angle_beta 113.183066
_cell_angle_gamma 109.731302
_cell_volume 634.326994
_symmetry_space_group_name_H-M "P -1"
_symmetry_group_IT_number 2
_symmetry_cell_setting 'triclinic'
loop_
_space_group_symop_operation_xyz
x,y,z
-x,-y,-z
loop_
_atom_site_type_symbol
_atom_site_label
_atom_site_fract_x
_atom_site_fract_y
_atom_site_fract_z
Si Si1 0.254133 0.668011 0.041936
Si Si2 0.725667 0.474937 0.381568
Si Si3 0.953196 0.042502 0.105327
Si Si4 0.447739 0.562243 0.392821
Si Si5 0.553141 0.887160 0.398787
Si Si6 0.843657 0.243313 0.252403
Si Si7 0.905019 0.601261 0.291717
Si Si8 0.116615 0.868739 0.167765
O O1 0.282365 0.602620 0.923281
O O2 0.019009 0.369767 0.896403
O O3 0.426752 0.625623 0.311386
O O4 0.183967 0.804308 0.073162
O O5 0.537260 0.446318 0.361474
O O6 0.974381 0.673298 0.587649
O O7 0.665655 0.225366 0.249467
O O8 0.790675 0.601873 0.348494
O O9 0.205586 0.358653 0.305086
O O10 0.950654 0.884738 0.108020
O O11 0.758130 0.012569 0.074190
O O12 0.000000 0.000000 0.000000
O O13 0.646264 0.846481 0.610583
O O14 0.447392 0.819617 0.238919
O O15 0.500000 0.000000 0.500000
O O16 0.841797 0.109359 0.557221
O O17 0.966668 0.476993 0.307876
#
# Coordination Sequence:
#
# PCOD9013343 Si02
#       8
#     2   2   2   2   2   2   2   2
#     4  11  22  41  62  98 135 165 220 273 323 388
#     4   9  22  41  66  91 132 179 214 264 327 404
#     4  12  24  39  67 102 130 163 223 281 325 387
#     4  12  23  42  66  99 130 169 226 267 329 391
#     4  12  22  38  66  97 127 175 217 271 331 380
#     4   9  20  42  67  92 128 177 215 261 338 386
#     4  10  21  41  64  91 130 176 216 259 328 390
#     4  11  22  38  64  95 131 168 210 278 330 374
#
# _framework density 25.223583999999999
#
# number of rings (size 3 to 8) (size 9 to 14) (size 15 to 20)
#    0.750    0.500    3.750    3.375    0.000    0.500 
#    0.000    2.500    0.000    0.000    0.000    0.000 
#    0.000    0.000    0.000    0.000    0.000    0.000 
#
# Total GULP energy -89343.349742 kJ/mol
# GULP energy per Si atom -5583.959359 kJ/mol
# Density = 2.516617 g / cm^3
# Si number density = 25.223584 Si / 1000 Ang^3
#
#
#
# Elastic Constant Matrix: (Units=GPa)
#
#
# Indices 1 2 3 4 5 6 
#
# 1 93.7996 20.8709 23.2268 3.3856 -12.2260 -10.4687
# 2 20.8709 76.7271 18.9704 -3.4431 -9.1711 -6.7729
# 3 23.2268 18.9704 136.1446 -11.5726 -8.5397 5.4431
# 4 3.3856 -3.4431 -11.5726 47.3556 1.4180 -6.8035
# 5 -12.2260 -9.1711 -8.5397 1.4180 30.5749 1.2792
# 6 -10.4687 -6.7729 5.4431 -6.8035 1.2792 44.8481
#
#
#
# Elastic Compliance Matrix: (Units=1/GPa)
#
#
# Indices 1 2 3 4 5 6 
#
# 1 0.012424 -0.002336 -0.001765 -0.001247 0.003729 0.002466
# 2 -0.002336 0.014588 -0.001438 0.001064 0.002911 0.001911
# 3 -0.001765 -0.001438 0.008122 0.001775 0.001107 -0.001377
# 4 -0.001247 0.001064 0.001775 0.022179 -0.000839 0.003043
# 5 0.003729 0.002911 0.001107 -0.000839 0.035417 0.000038
# 6 0.002466 0.001911 -0.001377 0.003043 0.000038 0.023789
#
#
# Mechanical properties :
#
#
# Convention : Reuss Voigt Hill
#
# Bulk Modulus (GPa) = 41.56613 48.08972 44.82793
# Shear Modulus (GPa) = 36.86879 40.79594 38.83236
#
# Velocity S-wave (km/s) = 3.82734 4.02602 3.92794
# Velocity P-wave (km/s) = 6.00385 6.38111 6.19535
#
# Compressibility (1/GPa) = 0.02405805
#
# Stress axis : x y z
#
# Youngs Moduli (GPa) = 80.48918 68.54781 123.12338
#
# Poissons Ratio (x) = 0.16011 0.21729
# Poissons Ratio (y) = 0.18800 0.17701
# Poissons Ratio (z) = 0.14205 0.09855
#
# Static dielectric constant tensor:
#      x y z
#    x 1.963650 -0.008130 -0.024120 
#    y -0.008130 1.991280 -0.038910 
#    z -0.024120 -0.038910 2.138970 
# 
# From -- ./inp_files/519134.got.cif
#   From: 2010.05.17/outbox.cif.g08.bks.cpg/sg2_260_cif.got.tgz:519134.got - 2010.06.03 11:33:40.
