data_PCOD9013629
_publ_section_title
;
Structure prediction by ZEFSAII (Michael W. Deem and Ramdas Pophale) SiO2 
 PCOD9013629
Probable space group: P -1
;
_chemical_formula_sum "Si O2"
_cell_formula_units_Z 16
_cell_length_a 8.856023
_cell_length_b 20.116801
_cell_length_c 10.199717
_cell_angle_alpha 102.240941
_cell_angle_beta 100.490106
_cell_angle_gamma 27.164946
_cell_volume 810.667431
_symmetry_space_group_name_H-M "P -1"
_symmetry_group_IT_number 2
_symmetry_cell_setting 'triclinic'
loop_
_space_group_symop_operation_xyz
x,y,z
-x,-y,-z
loop_
_atom_site_type_symbol
_atom_site_label
_atom_site_fract_x
_atom_site_fract_y
_atom_site_fract_z
Si Si1 0.873773 0.844636 0.325754
Si Si2 0.851738 0.133195 0.527404
Si Si3 0.127122 0.667439 0.540182
Si Si4 0.226172 0.016730 0.287943
Si Si5 0.113348 0.756813 0.845121
Si Si6 0.885528 0.476719 0.901490
Si Si7 0.706400 0.717443 0.365256
Si Si8 0.886636 0.334816 0.958839
O O1 0.493216 0.972487 0.331822
O O2 0.943015 0.897218 0.358445
O O3 0.039372 0.752545 0.444871
O O4 0.043623 0.738101 0.188669
O O5 0.484978 0.266651 0.580606
O O6 0.000000 0.000000 0.500000
O O7 0.923524 0.130281 0.390140
O O8 0.500000 0.500000 0.500000
O O9 0.112164 0.709980 0.695464
O O10 0.880315 0.700790 0.488283
O O11 0.447383 0.863771 0.295960
O O12 0.075681 0.098839 0.159579
O O13 0.489006 0.627345 0.889808
O O14 0.968988 0.765851 0.940975
O O15 0.012471 0.360812 0.954498
O O16 0.031523 0.413305 0.751832
O O17 0.000000 0.500000 0.000000
O O18 0.500000 0.500000 0.000000
#
# Coordination Sequence:
#
# PCOD9013629 Si02
#       8
#     2   2   2   2   2   2   2   2
#     4  11  21  40  70  86 131 178 211 262 324 387
#     4  10  22  36  61  96 128 165 212 259 327 381
#     4  11  19  39  66  92 123 166 224 266 309 377
#     4  10  21  41  65  91 127 165 220 265 315 383
#     4  11  23  39  67  96 127 164 220 273 305 383
#     4  11  23  45  65  90 133 173 209 266 335 381
#     4  10  22  40  65  93 130 176 207 268 335 378
#     4  10  22  42  63  92 123 170 222 251 317 389
#
# _framework density 19.736823999999999
#
# number of rings (size 3 to 8) (size 9 to 14) (size 15 to 20)
#    0.000    1.500    5.000    1.125    7.000    0.500 
#    2.250    1.875    0.000    0.000    0.000    0.000 
#    0.000    0.000    0.000    0.000    0.000    0.000 
#
# Total GULP energy -89153.378707 kJ/mol
# GULP energy per Si atom -5572.086169 kJ/mol
# Density = 1.969190 g / cm^3
# Si number density = 19.736824 Si / 1000 Ang^3
#
#
#
# Elastic Constant Matrix: (Units=GPa)
#
#
# Indices 1 2 3 4 5 6 
#
# 1 131.1224 23.5883 48.3372 6.2974 1.1272 1.1573
# 2 23.5883 52.3767 3.1532 -14.1041 -2.5238 -4.7206
# 3 48.3372 3.1532 97.4219 -1.5767 3.2813 7.3395
# 4 6.2974 -14.1041 -1.5767 30.5310 3.7417 -1.2564
# 5 1.1272 -2.5238 3.2813 3.7417 33.6482 8.2433
# 6 1.1573 -4.7206 7.3395 -1.2564 8.2433 21.5896
#
#
#
# Elastic Compliance Matrix: (Units=1/GPa)
#
#
# Indices 1 2 3 4 5 6 
#
# 1 0.010934 -0.006101 -0.005285 -0.005426 0.000444 -0.000609
# 2 -0.006101 0.025968 0.001952 0.013772 -0.001186 0.006595
# 3 -0.005285 0.001952 0.013139 0.002577 -0.000398 -0.003454
# 4 -0.005426 0.013772 0.002577 0.041301 -0.005309 0.006857
# 5 0.000444 -0.001186 -0.000398 -0.005309 0.033489 -0.013243
# 6 -0.000609 0.006595 -0.003454 0.006857 -0.013243 0.054423
#
#
# Mechanical properties :
#
#
# Convention : Reuss Voigt Hill
#
# Bulk Modulus (GPa) = 32.07648 47.89762 39.98705
# Shear Modulus (GPa) = 23.97937 30.87657 27.42797
#
# Velocity S-wave (km/s) = 3.48940 3.95956 3.73189
# Velocity P-wave (km/s) = 5.70280 6.72495 6.23486
#
# Compressibility (1/GPa) = 0.03117550
#
# Stress axis : x y z
#
# Youngs Moduli (GPa) = 91.45567 38.50839 76.11013
#
# Poissons Ratio (x) = 0.23493 0.40221
# Poissons Ratio (y) = 0.55795 -0.14860
# Poissons Ratio (z) = 0.48331 -0.07519
#
# Static dielectric constant tensor:
#      x y z
#    x 1.731840 0.003090 -0.019620 
#    y 0.003090 1.838200 0.015940 
#    z -0.019620 0.015940 1.694020 
# 
# From -- ./inp_files/222222.got.cif
#   From: 2010.05.17/outbox.cif.g08.bks.cpg/sg2_112_cif.got.tgz:222222.got - 2010.06.03 11:33:40.
