data_PCOD9013560
_publ_section_title
;
Structure prediction by ZEFSAII (Michael W. Deem and Ramdas Pophale) SiO2 
 PCOD9013560
Probable space group: P -1
;
_chemical_formula_sum "Si O2"
_cell_formula_units_Z 12
_cell_length_a 8.607523
_cell_length_b 12.679495
_cell_length_c 14.601840
_cell_angle_alpha 140.370461
_cell_angle_beta 150.563150
_cell_angle_gamma 57.131882
_cell_volume 455.972035
_symmetry_space_group_name_H-M "P -1"
_symmetry_group_IT_number 2
_symmetry_cell_setting 'triclinic'
loop_
_space_group_symop_operation_xyz
x,y,z
-x,-y,-z
loop_
_atom_site_type_symbol
_atom_site_label
_atom_site_fract_x
_atom_site_fract_y
_atom_site_fract_z
Si Si1 0.655918 0.368246 0.786795
Si Si2 0.613816 0.878007 0.686171
Si Si3 0.746615 0.399061 0.217758
Si Si4 0.368528 0.145793 0.997120
Si Si5 0.828864 0.344563 0.525594
Si Si6 0.687510 0.881641 0.404875
O O1 0.401737 0.233768 0.489921
O O2 0.521563 0.508912 0.855330
O O3 0.624643 0.240892 0.772066
O O4 0.000000 0.500000 0.000000
O O5 0.383657 0.723866 0.536848
O O6 0.437908 0.017956 0.668791
O O7 0.000000 0.000000 0.000000
O O8 0.000000 0.500000 0.500000
O O9 0.930661 0.451326 0.249104
O O10 0.534733 0.204904 0.021856
O O11 0.534515 0.292531 0.259509
O O12 0.962147 0.052717 0.716319
O O13 0.500000 0.000000 0.000000
O O14 0.081691 0.234188 0.577307
#
# Coordination Sequence:
#
# PCOD9013560 Si02
#       6
#     2   2   2   2   2   2
#     4  11  24  43  64  91 128 174 213 258 323 385
#     4  12  25  41  63  99 134 165 212 274 323 364
#     4   9  19  38  63  90 123 167 213 253 310 391
#     4   9  17  36  67  93 117 163 219 259 303 381
#     4   9  20  39  63  95 125 162 216 271 315 366
#     4  10  21  41  65  88 125 177 218 253 311 393
#
# _framework density 26.317399999999999
#
# number of rings (size 3 to 8) (size 9 to 14) (size 15 to 20)
#    0.000    2.000    0.000    4.000    0.000    5.333 
#    0.000   20.000    0.000    0.000    0.000    0.000 
#    0.000    0.000    0.000    0.000    0.000    0.000 
#
# Total GULP energy -67040.305782 kJ/mol
# GULP energy per Si atom -5586.692148 kJ/mol
# Density = 2.625750 g / cm^3
# Si number density = 26.317400 Si / 1000 Ang^3
#
#
#
# Elastic Constant Matrix: (Units=GPa)
#
#
# Indices 1 2 3 4 5 6 
#
# 1 113.7959 44.1791 44.3632 13.4999 6.6035 43.4004
# 2 44.1791 133.1892 50.6789 16.6976 19.0027 47.6386
# 3 44.3632 50.6789 108.1822 0.9680 5.3306 17.6393
# 4 13.4999 16.6976 0.9680 48.3587 15.6549 22.6035
# 5 6.6035 19.0027 5.3306 15.6549 47.2068 8.7700
# 6 43.4004 47.6386 17.6393 22.6035 8.7700 50.2354
#
#
#
# Elastic Compliance Matrix: (Units=1/GPa)
#
#
# Indices 1 2 3 4 5 6 
#
# 1 0.014945 0.001385 -0.004603 0.001762 -0.000230 -0.013361
# 2 0.001385 0.013674 -0.004726 0.002120 -0.003480 -0.012851
# 3 -0.004603 -0.004726 0.012757 0.000975 0.000129 0.003518
# 4 0.001762 0.002120 0.000975 0.029369 -0.008035 -0.015686
# 5 -0.000230 -0.003480 0.000129 -0.008035 0.024756 0.002747
# 6 -0.013361 -0.012851 0.003518 -0.015686 0.002747 0.048979
#
#
# Mechanical properties :
#
#
# Convention : Reuss Voigt Hill
#
# Bulk Modulus (GPa) = 39.23511 70.40107 54.81809
# Shear Modulus (GPa) = 29.60988 43.55660 36.58324
#
# Velocity S-wave (km/s) = 3.35790 4.07264 3.73242
# Velocity P-wave (km/s) = 5.47492 6.99457 6.28088
#
# Compressibility (1/GPa) = 0.02548738
#
# Stress axis : x y z
#
# Youngs Moduli (GPa) = 66.91420 73.13122 78.39072
#
# Poissons Ratio (x) = -0.10131 0.36086
# Poissons Ratio (y) = -0.09270 0.37047
# Poissons Ratio (z) = 0.30803 0.34562
#
# Static dielectric constant tensor:
#      x y z
#    x 2.092330 -0.025820 -0.072210 
#    y -0.025820 2.054430 0.041490 
#    z -0.072210 0.041490 2.170330 
# 
# From -- ./inp_files/381677.got.cif
#   From: 2010.05.17/outbox.cif.g08.bks.cpg/sg2_191_cif.got.tgz:381677.got - 2010.06.03 11:33:40.
