data_PCOD9013355
_publ_section_title
;
Structure prediction by ZEFSAII (Michael W. Deem and Ramdas Pophale) SiO2 
 PCOD9013355
Probable space group: P -1
;
_chemical_formula_sum "Si O2"
_cell_formula_units_Z 14
_cell_length_a 11.156644
_cell_length_b 8.877286
_cell_length_c 14.626831
_cell_angle_alpha 68.876780
_cell_angle_beta 153.693104
_cell_angle_gamma 112.446856
_cell_volume 592.790394
_symmetry_space_group_name_H-M "P -1"
_symmetry_group_IT_number 2
_symmetry_cell_setting 'triclinic'
loop_
_space_group_symop_operation_xyz
x,y,z
-x,-y,-z
loop_
_atom_site_type_symbol
_atom_site_label
_atom_site_fract_x
_atom_site_fract_y
_atom_site_fract_z
Si Si1 0.719104 0.809653 0.941608
Si Si2 0.381425 0.482257 0.819732
Si Si3 0.149958 0.654676 0.920679
Si Si4 0.890493 0.266803 0.606498
Si Si5 0.308793 0.623032 0.380588
Si Si6 0.254956 0.099112 0.420449
Si Si7 0.054581 0.847162 0.976606
O O1 0.464229 0.665010 0.795022
O O2 0.906759 0.814072 0.978648
O O3 0.895109 0.773423 0.158533
O O4 0.701165 0.001758 0.897708
O O5 0.073864 0.394801 0.640383
O O6 0.500000 0.500000 0.000000
O O7 0.551364 0.358541 0.909379
O O8 0.982005 0.480145 0.819456
O O9 0.982239 0.793795 0.731787
O O10 0.140196 0.694713 0.012864
O O11 0.683076 0.349710 0.510572
O O12 0.777391 0.087720 0.530311
O O13 0.500000 0.500000 0.500000
O O14 0.448685 0.792674 0.393857
O O15 0.184248 0.097176 0.264083
#
# Coordination Sequence:
#
# PCOD9013355 Si02
#       7
#     2   2   2   2   2   2   2
#     4   9  16  31  47  66  98 121 149 187 233 276
#     4  10  18  29  45  69  99 122 147 188 234 283
#     4   9  17  29  44  74  92 118 154 187 235 263
#     4  10  18  31  47  71  94 125 149 187 238 274
#     4  10  17  30  46  68  96 117 157 196 226 262
#     4   8  18  30  47  69  93 120 155 189 224 273
#     4   8  17  30  46  70  93 121 152 189 227 271
#
# _framework density 23.617115999999999
#
# number of rings (size 3 to 8) (size 9 to 14) (size 15 to 20)
#    0.857    2.000    2.857    0.429    0.000    1.143 
#    0.000    0.000    0.000    0.857    0.000    1.000 
#    0.000    0.429    0.000    0.000    0.000    0.000 
#
# Total GULP energy -78011.944268 kJ/mol
# GULP energy per Si atom -5572.281733 kJ/mol
# Density = 2.356336 g / cm^3
# Si number density = 23.617116 Si / 1000 Ang^3
#
#
#
# Elastic Constant Matrix: (Units=GPa)
#
#
# Indices 1 2 3 4 5 6 
#
# 1 75.0400 68.7164 21.4906 14.6139 15.9969 7.0074
# 2 68.7164 196.2703 43.3766 37.0108 16.7291 1.6216
# 3 21.4906 43.3766 82.1633 38.4892 11.3878 4.0424
# 4 14.6139 37.0108 38.4892 46.3727 4.8680 -2.8572
# 5 15.9969 16.7291 11.3878 4.8680 34.4544 2.3061
# 6 7.0074 1.6216 4.0424 -2.8572 2.3061 41.8255
#
#
#
# Elastic Compliance Matrix: (Units=1/GPa)
#
#
# Indices 1 2 3 4 5 6 
#
# 1 0.021325 -0.006680 -0.001029 -0.000070 -0.006114 -0.002882
# 2 -0.006680 0.008351 -0.000917 -0.003742 -0.000164 0.000637
# 3 -0.001029 -0.000917 0.021215 -0.016345 -0.003595 -0.002761
# 4 -0.000070 -0.003742 -0.016345 0.038238 0.001564 0.004262
# 5 -0.006114 -0.000164 -0.003595 0.001564 0.032932 -0.000331
# 6 -0.002882 0.000637 -0.002761 0.004262 -0.000331 0.024943
#
#
# Mechanical properties :
#
#
# Convention : Reuss Voigt Hill
#
# Bulk Modulus (GPa) = 29.72804 68.96010 49.34407
# Shear Modulus (GPa) = 28.49521 39.18985 33.84253
#
# Velocity S-wave (km/s) = 3.47731 4.07797 3.78956
# Velocity P-wave (km/s) = 5.36070 7.17187 6.33138
#
# Compressibility (1/GPa) = 0.03363827
#
# Stress axis : x y z
#
# Youngs Moduli (GPa) = 46.89430 119.74726 47.13668
#
# Poissons Ratio (x) = 0.79996 0.04849
# Poissons Ratio (y) = 0.31327 0.04323
# Poissons Ratio (z) = 0.04824 0.10981
#
# Static dielectric constant tensor:
#      x y z
#    x 1.923000 0.022980 -0.045250 
#    y 0.022980 1.936180 -0.050760 
#    z -0.045250 -0.050760 2.014460 
# 
# From -- ./inp_files/172742.got.cif
#   From: 2010.05.17/outbox.cif.g08.bks.cpg/sg2_87_cif.got.tgz:172742.got - 2010.06.03 11:33:40.
