data_PCOD9013988
_publ_section_title
;
Structure prediction by ZEFSAII (Michael W. Deem and Ramdas Pophale) SiO2 
 PCOD9013988
Probable space group: P -1
;
_chemical_formula_sum "Si O2"
_cell_formula_units_Z 13
_cell_length_a 21.677498
_cell_length_b 21.438016
_cell_length_c 9.238985
_cell_angle_alpha 144.447864
_cell_angle_beta 154.098248
_cell_angle_gamma 18.429187
_cell_volume 567.733181
_symmetry_space_group_name_H-M "P -1"
_symmetry_group_IT_number 2
_symmetry_cell_setting 'triclinic'
loop_
_space_group_symop_operation_xyz
x,y,z
-x,-y,-z
loop_
_atom_site_type_symbol
_atom_site_label
_atom_site_fract_x
_atom_site_fract_y
_atom_site_fract_z
Si Si1 0.433219 0.884149 0.227706
Si Si2 0.000477 0.530808 0.224666
Si Si3 0.118656 0.694858 0.126044
Si Si4 0.000000 0.000000 0.000000
Si Si5 0.171151 0.664188 0.849496
Si Si6 0.249984 0.783628 0.808246
Si Si7 0.719177 0.642311 0.101533
O O1 0.730882 0.700959 0.579780
O O2 0.482819 0.838622 0.075402
O O3 0.320136 0.849007 0.997179
O O4 0.204526 0.120247 0.221485
O O5 0.027544 0.641329 0.505139
O O6 0.742673 0.660325 0.018786
O O7 0.000000 0.500000 0.000000
O O8 0.133682 0.778032 0.432908
O O9 0.222286 0.656970 0.113781
O O10 0.276706 0.488389 0.123703
O O11 0.980670 0.139926 0.174658
O O12 0.925303 0.081200 0.165517
O O13 0.458891 0.455863 0.987499
O O14 0.000000 0.500000 0.500000
#
# Coordination Sequence:
#
# PCOD9013988 Si02
#       7
#     2   2   2   1   2   2   2
#     4  10  22  42  67  97 132 171 222 278 315 392
#     4  10  23  46  68  95 138 176 216 271 338 394
#     4  12  22  41  70  98 129 171 228 270 324 389
#     4  12  26  42  64  98 142 168 222 262 340 396
#     4  11  24  45  69  94 139 171 221 280 323 393
#     4  11  24  42  67  99 134 178 213 278 334 387
#     4  10  21  41  66  93 130 173 218 274 322 381
#
# _framework density 22.898081000000001
#
# number of rings (size 3 to 8) (size 9 to 14) (size 15 to 20)
#    0.000    1.231    6.154    1.385    2.154    2.462 
#    5.538    0.769    3.385    0.000    0.000    0.000 
#    0.000    0.000    0.000    0.000    0.000    0.000 
#
# Total GULP energy -72423.910789 kJ/mol
# GULP energy per Si atom -5571.070061 kJ/mol
# Density = 2.284596 g / cm^3
# Si number density = 22.898081 Si / 1000 Ang^3
#
#
#
# Elastic Constant Matrix: (Units=GPa)
#
#
# Indices 1 2 3 4 5 6 
#
# 1 172.1308 18.3481 34.2006 15.9934 -15.2802 -18.4857
# 2 18.3481 71.2720 7.3382 7.8471 -1.4650 -1.4243
# 3 34.2006 7.3382 35.5333 15.3713 -8.2824 -13.0325
# 4 15.9934 7.8471 15.3713 20.7592 -11.0009 -5.8718
# 5 -15.2802 -1.4650 -8.2824 -11.0009 19.5780 14.8852
# 6 -18.4857 -1.4243 -13.0325 -5.8718 14.8852 39.8059
#
#
#
# Elastic Compliance Matrix: (Units=1/GPa)
#
#
# Indices 1 2 3 4 5 6 
#
# 1 0.007481 -0.001348 -0.006813 0.001854 0.003886 0.000016
# 2 -0.001348 0.015027 0.000478 -0.007003 -0.004090 0.000564
# 3 -0.006813 0.000478 0.052679 -0.037914 -0.015046 0.014134
# 4 0.001854 -0.007003 -0.037914 0.101897 0.055451 -0.017507
# 5 0.003886 -0.004090 -0.015046 0.055451 0.104602 -0.034204
# 6 0.000016 0.000564 0.014134 -0.017507 -0.034204 0.039985
#
#
# Mechanical properties :
#
#
# Convention : Reuss Voigt Hill
#
# Bulk Modulus (GPa) = 16.71675 44.30110 30.50892
# Shear Modulus (GPa) = 14.00642 30.63190 22.31916
#
# Velocity S-wave (km/s) = 2.47591 3.66149 3.12543
# Velocity P-wave (km/s) = 3.93572 6.10446 5.13587
#
# Compressibility (1/GPa) = 0.05982025
#
# Stress axis : x y z
#
# Youngs Moduli (GPa) = 133.66718 66.54716 18.98276
#
# Poissons Ratio (x) = 0.08974 0.12932
# Poissons Ratio (y) = 0.18025 -0.00907
# Poissons Ratio (z) = 0.91064 -0.03178
#
# Static dielectric constant tensor:
#      x y z
#    x 1.879170 -0.008010 0.036070 
#    y -0.008010 1.882590 -0.075560 
#    z 0.036070 -0.075560 1.942610 
# 
# From -- ./inp_files/266602.got.cif
#   From: 2010.05.17/outbox.cif.g08.bks.cpg/sg2_134_cif.got.tgz:266602.got - 2010.06.03 11:33:40.
