data_PCOD9013076
_publ_section_title
;
Structure prediction by ZEFSAII (Michael W. Deem and Ramdas Pophale) SiO2 
 PCOD9013076
Probable space group: P -1
;
_chemical_formula_sum "Si O2"
_cell_formula_units_Z 14
_cell_length_a 17.996257
_cell_length_b 13.408136
_cell_length_c 9.701136
_cell_angle_alpha 30.907237
_cell_angle_beta 34.770760
_cell_angle_gamma 31.884377
_cell_volume 596.712588
_symmetry_space_group_name_H-M "P -1"
_symmetry_group_IT_number 2
_symmetry_cell_setting 'triclinic'
loop_
_space_group_symop_operation_xyz
x,y,z
-x,-y,-z
loop_
_atom_site_type_symbol
_atom_site_label
_atom_site_fract_x
_atom_site_fract_y
_atom_site_fract_z
Si Si1 0.085111 0.040814 0.627116
Si Si2 0.681178 0.375667 0.366008
Si Si3 0.218663 0.282271 0.295212
Si Si4 0.140609 0.121026 0.855644
Si Si5 0.461931 0.990858 0.792684
Si Si6 0.476263 0.726067 0.833187
Si Si7 0.163666 0.043559 0.222322
O O1 0.105802 0.222990 0.460033
O O2 0.248490 0.819409 0.625265
O O3 0.046079 0.126019 0.426841
O O4 0.973303 0.952830 0.945831
O O5 0.500000 0.500000 0.500000
O O6 0.758452 0.228098 0.561321
O O7 0.756043 0.525926 0.035466
O O8 0.162463 0.297936 0.521063
O O9 0.388621 0.073787 0.276534
O O10 0.303153 0.904124 0.863429
O O11 0.107651 0.158092 0.024968
O O12 0.502784 0.768416 0.901677
O O13 0.432284 0.183593 0.501296
O O14 0.308668 0.066611 0.014642
O O15 0.500000 0.500000 0.000000
#
# Coordination Sequence:
#
# PCOD9013076 Si02
#       7
#     2   2   2   2   2   2   2
#     4  10  23  40  63  86 127 166 196 242 312 362
#     4  10  22  40  63  92 121 158 204 251 303 361
#     4  11  21  39  63  90 125 158 203 249 302 360
#     4  10  21  41  63  88 124 161 203 249 298 362
#     4   9  18  35  57  89 118 150 198 253 295 348
#     4   9  19  36  59  88 119 153 196 253 301 342
#     4   9  20  41  63  83 123 160 200 251 300 353
#
# _framework density 23.461880000000001
#
# number of rings (size 3 to 8) (size 9 to 14) (size 15 to 20)
#    0.857    1.429    1.429    1.714    0.000    5.143 
#    5.143    6.429    0.000    0.000    0.000    0.000 
#    0.000    0.000    0.000    0.000    0.000    0.000 
#
# Total GULP energy -77960.521122 kJ/mol
# GULP energy per Si atom -5568.608652 kJ/mol
# Density = 2.340848 g / cm^3
# Si number density = 23.461880 Si / 1000 Ang^3
#
#
#
# Elastic Constant Matrix: (Units=GPa)
#
#
# Indices 1 2 3 4 5 6 
#
# 1 63.7254 14.7955 46.4923 2.0149 -13.8782 -13.2719
# 2 14.7955 34.7336 4.1745 -0.1020 -10.7705 -5.7936
# 3 46.4923 4.1745 182.8446 16.7261 3.5006 5.5517
# 4 2.0149 -0.1020 16.7261 27.5208 -1.6445 -10.4795
# 5 -13.8782 -10.7705 3.5006 -1.6445 35.1926 1.2329
# 6 -13.2719 -5.7936 5.5517 -10.4795 1.2329 20.5463
#
#
#
# Elastic Compliance Matrix: (Units=1/GPa)
#
#
# Indices 1 2 3 4 5 6 
#
# 1 0.033647 -0.003603 -0.011264 0.017246 0.012979 0.031779
# 2 -0.003603 0.034956 -0.000835 0.005207 0.009258 0.009855
# 3 -0.011264 -0.000835 0.010003 -0.011612 -0.005682 -0.015796
# 4 0.017246 0.005207 -0.011612 0.060244 0.010759 0.045827
# 5 0.012979 0.009258 -0.005682 0.010759 0.036881 0.015804
# 6 0.031779 0.009855 -0.015796 0.045827 0.015804 0.098671
#
#
# Mechanical properties :
#
#
# Convention : Reuss Voigt Hill
#
# Bulk Modulus (GPa) = 21.18551 45.80313 33.49432
# Shear Modulus (GPa) = 15.55029 31.04136 23.29583
#
# Velocity S-wave (km/s) = 2.57726 3.64133 3.15449
# Velocity P-wave (km/s) = 4.23152 6.10277 5.25117
#
# Compressibility (1/GPa) = 0.04720208
#
# Stress axis : x y z
#
# Youngs Moduli (GPa) = 29.72075 28.60778 99.97015
#
# Poissons Ratio (x) = 0.10306 1.12607
# Poissons Ratio (y) = 0.10707 0.08345
# Poissons Ratio (z) = 0.33478 0.02388
#
# Static dielectric constant tensor:
#      x y z
#    x 1.989170 0.003910 0.057110 
#    y 0.003910 1.892830 -0.005120 
#    z 0.057110 -0.005120 1.922030 
# 
# From -- ./inp_files/471644.got.cif
#   From: 2010.05.17/outbox.cif.g08.bks.cpg/sg2_236_cif.got.tgz:471644.got - 2010.06.03 11:33:40.
