data_PCOD9013169
_publ_section_title
;
Structure prediction by ZEFSAII (Michael W. Deem and Ramdas Pophale) SiO2 
 PCOD9013169
Probable space group: P -1
;
_chemical_formula_sum "Si O2"
_cell_formula_units_Z 14
_cell_length_a 18.584197
_cell_length_b 7.538559
_cell_length_c 7.620911
_cell_angle_alpha 93.544121
_cell_angle_beta 148.247615
_cell_angle_gamma 83.005577
_cell_volume 555.899216
_symmetry_space_group_name_H-M "P -1"
_symmetry_group_IT_number 2
_symmetry_cell_setting 'triclinic'
loop_
_space_group_symop_operation_xyz
x,y,z
-x,-y,-z
loop_
_atom_site_type_symbol
_atom_site_label
_atom_site_fract_x
_atom_site_fract_y
_atom_site_fract_z
Si Si1 0.154843 0.053684 0.852811
Si Si2 0.403352 0.094763 0.155072
Si Si3 0.916433 0.205381 0.842494
Si Si4 0.595824 0.217464 0.096592
Si Si5 0.797437 0.302775 0.950492
Si Si6 0.981610 0.374672 0.627989
Si Si7 0.499777 0.567010 0.750739
O O1 0.124063 0.241687 0.895987
O O2 0.244411 0.077287 0.870147
O O3 0.000000 0.000000 0.500000
O O4 0.234426 0.902955 0.131549
O O5 0.424905 0.300949 0.203699
O O6 0.500000 0.000000 0.500000
O O7 0.440976 0.970903 0.056956
O O8 0.755719 0.192072 0.478695
O O9 0.914004 0.300846 0.037528
O O10 0.955763 0.341309 0.780189
O O11 0.000000 0.000000 0.000000
O O12 0.507037 0.322754 0.072921
O O13 0.572344 0.366689 0.903836
O O14 0.659960 0.430036 0.631094
O O15 0.845044 0.312607 0.250595
O O16 0.000000 0.500000 0.500000
#
# Coordination Sequence:
#
# PCOD9013169 Si02
#       7
#     2   2   2   2   2   2   2
#     4  10  21  41  63  93 138 177 223 283 341 419
#     4  12  24  39  70 102 134 183 233 282 359 423
#     4  11  23  42  72  96 131 196 227 280 365 415
#     4  10  24  44  67 100 139 178 235 295 351 420
#     4  10  21  44  68  95 136 180 231 282 356 420
#     4  11  25  41  66 104 139 175 236 297 344 420
#     4  10  23  45  68  97 138 181 231 295 351 419
#
# _framework density 25.184421
#
# number of rings (size 3 to 8) (size 9 to 14) (size 15 to 20)
#    0.000    1.429    2.857    2.143    4.000    2.286 
#    0.000    4.286    0.000    0.000    0.000    0.000 
#    0.000    0.000    0.000    0.000    0.000    0.000 
#
# Total GULP energy -77974.398987 kJ/mol
# GULP energy per Si atom -5569.599928 kJ/mol
# Density = 2.512710 g / cm^3
# Si number density = 25.184421 Si / 1000 Ang^3
#
#
#
# Elastic Constant Matrix: (Units=GPa)
#
#
# Indices 1 2 3 4 5 6 
#
# 1 154.7660 35.0635 18.8784 3.3897 -15.0067 8.0011
# 2 35.0635 56.0567 18.7363 -21.5456 -2.6353 26.8956
# 3 18.8784 18.7363 87.7318 -21.2796 0.5354 -3.2777
# 4 3.3897 -21.5456 -21.2796 34.5171 -2.6004 -7.3002
# 5 -15.0067 -2.6353 0.5354 -2.6004 37.0260 1.4664
# 6 8.0011 26.8956 -3.2777 -7.3002 1.4664 45.4980
#
#
#
# Elastic Compliance Matrix: (Units=1/GPa)
#
#
# Indices 1 2 3 4 5 6 
#
# 1 0.008826 -0.008392 -0.001604 -0.006448 0.002464 0.002179
# 2 -0.008392 0.041914 -0.002780 0.021151 0.001906 -0.020169
# 3 -0.001604 -0.002780 0.014497 0.008222 -0.000651 0.004310
# 4 -0.006448 0.021151 0.008222 0.047356 0.002228 -0.003250
# 5 0.002464 0.001906 -0.000651 0.002228 0.028394 -0.002165
# 6 0.002179 -0.020169 0.004310 -0.003250 -0.002165 0.033377
#
#
# Mechanical properties :
#
#
# Convention : Reuss Voigt Hill
#
# Bulk Modulus (GPa) = 25.20046 49.32344 37.26195
# Shear Modulus (GPa) = 23.45823 38.46662 30.96243
#
# Velocity S-wave (km/s) = 3.05529 3.91243 3.51012
# Velocity P-wave (km/s) = 4.74073 6.32747 5.59068
#
# Compressibility (1/GPa) = 0.03968182
#
# Stress axis : x y z
#
# Youngs Moduli (GPa) = 113.30276 23.85851 68.98168
#
# Poissons Ratio (x) = 0.20023 0.11068
# Poissons Ratio (y) = 0.95089 0.19179
# Poissons Ratio (z) = 0.18179 0.06633
#
# Static dielectric constant tensor:
#      x y z
#    x 2.684910 -2.063770 -1.406520 
#    y -2.063770 11.409930 6.348990 
#    z -1.406520 6.348990 6.307490 
# 
# From -- ./inp_files/341833.got.cif
#   From: 2010.05.17/outbox.cif.g08.bks.cpg/sg2_171_cif.got.tgz:341833.got - 2010.06.03 11:33:40.
