data_PCOD9013525
_publ_section_title
;
Structure prediction by ZEFSAII (Michael W. Deem and Ramdas Pophale) SiO2 
 PCOD9013525
Probable space group: P -1
;
_chemical_formula_sum "Si O2"
_cell_formula_units_Z 15
_cell_length_a 9.410081
_cell_length_b 8.148985
_cell_length_c 12.037708
_cell_angle_alpha 118.228658
_cell_angle_beta 53.077388
_cell_angle_gamma 105.888447
_cell_volume 650.118454
_symmetry_space_group_name_H-M "P -1"
_symmetry_group_IT_number 2
_symmetry_cell_setting 'triclinic'
loop_
_space_group_symop_operation_xyz
x,y,z
-x,-y,-z
loop_
_atom_site_type_symbol
_atom_site_label
_atom_site_fract_x
_atom_site_fract_y
_atom_site_fract_z
Si Si1 0.278367 0.865001 0.467163
Si Si2 0.205714 0.875325 0.053377
Si Si3 0.758092 0.602649 0.943640
Si Si4 0.597456 0.204011 0.857343
Si Si5 0.609312 0.730712 0.417305
Si Si6 0.020547 0.758265 0.724867
Si Si7 0.338727 0.681921 0.720988
Si Si8 0.000000 0.500000 0.000000
O O1 0.307057 0.850269 0.318902
O O2 0.451736 0.772237 0.416650
O O3 0.105922 0.766886 0.566031
O O4 0.276823 0.083610 0.572229
O O5 0.326701 0.918698 0.117185
O O6 0.082426 0.696133 0.071334
O O7 0.330019 0.812801 0.872509
O O8 0.079034 0.048420 0.143028
O O9 0.655298 0.410428 0.933013
O O10 0.878289 0.605918 0.777013
O O11 0.611645 0.768716 0.058829
O O12 0.886334 0.617195 0.993256
O O13 0.519120 0.699581 0.571222
O O14 0.699746 0.529884 0.285058
O O15 0.185565 0.734255 0.723207
#
# Coordination Sequence:
#
# PCOD9013525 Si02
#       8
#     2   2   2   2   2   2   2   1
#     4  10  23  42  66  95 135 177 212 276 320 409
#     4  11  24  40  67  99 130 172 216 276 325 389
#     4  10  23  42  65 100 126 173 217 271 322 396
#     4  10  25  43  64  95 135 174 215 260 348 383
#     4   9  22  40  67  95 134 171 224 260 342 373
#     4  11  24  40  65  98 130 170 229 267 327 374
#     4  10  21  41  65 102 124 172 223 285 307 396
#     4  10  22  38  68  92 130 164 210 280 318 374
#
# _framework density 23.072717999999998
#
# number of rings (size 3 to 8) (size 9 to 14) (size 15 to 20)
#    0.000    1.867    1.333    0.400    9.333    2.667 
#    0.000    0.000    0.000    0.000    0.000    0.000 
#    0.000    0.000    0.000    0.000    0.000    0.000 
#
# Total GULP energy -83629.405615 kJ/mol
# GULP energy per Si atom -5575.293708 kJ/mol
# Density = 2.302020 g / cm^3
# Si number density = 23.072718 Si / 1000 Ang^3
#
#
#
# Elastic Constant Matrix: (Units=GPa)
#
#
# Indices 1 2 3 4 5 6 
#
# 1 63.8100 34.4737 29.6391 15.8563 -8.8419 -4.4431
# 2 34.4737 62.5440 -9.3823 7.4638 -13.1611 -27.0107
# 3 29.6391 -9.3823 86.4157 -4.0061 5.7519 -22.0211
# 4 15.8563 7.4638 -4.0061 37.4111 -1.2603 -18.3077
# 5 -8.8419 -13.1611 5.7519 -1.2603 24.2034 -2.7128
# 6 -4.4431 -27.0107 -22.0211 -18.3077 -2.7128 11.3726
#
#
#
# Elastic Compliance Matrix: (Units=1/GPa)
#
#
# Indices 1 2 3 4 5 6 
#
# 1 0.015892 0.002900 0.000298 0.004398 0.010138 0.023170
# 2 0.002900 0.005176 -0.007348 -0.014670 0.002177 -0.023899
# 3 0.000298 -0.007348 0.006557 -0.006521 -0.007687 -0.016969
# 4 0.004398 -0.014670 -0.006521 0.017970 -0.005930 -0.018237
# 5 0.010138 0.002177 -0.007687 -0.005930 0.047271 -0.004021
# 6 0.023170 -0.023899 -0.016969 -0.018237 -0.004021 -0.022953
#
#
# Mechanical properties :
#
#
# Convention : Reuss Voigt Hill
#
# Bulk Modulus (GPa) = 51.74813 35.80342 43.77577
# Shear Modulus (GPa) = 59.06271 25.13336 42.09804
#
# Velocity S-wave (km/s) = 5.06499 3.30405 4.27615
# Velocity P-wave (km/s) = 7.52877 5.48698 6.58747
#
# Compressibility (1/GPa) = 0.01932437
#
# Stress axis : x y z
#
# Youngs Moduli (GPa) = 62.92497 193.20370 152.49850
#
# Poissons Ratio (x) = -0.56025 -0.04538
# Poissons Ratio (y) = -0.18247 1.12053
# Poissons Ratio (z) = -0.01872 1.41962
#
# Static dielectric constant tensor:
#      x y z
#    x 1.821060 -0.015700 -0.051470 
#    y -0.015700 1.952570 -0.112960 
#    z -0.051470 -0.112960 1.996360 
# 
# From -- ./inp_files/380229.got.cif
#   From: 2010.05.17/outbox.cif.g08.bks.cpg/sg2_191_cif.got.tgz:380229.got - 2010.06.03 11:33:40.
