data_PCOD9013195
_publ_section_title
;
Structure prediction by ZEFSAII (Michael W. Deem and Ramdas Pophale) SiO2 
 PCOD9013195
Probable space group: P -1
;
_chemical_formula_sum "Si O2"
_cell_formula_units_Z 16
_cell_length_a 12.295744
_cell_length_b 18.599748
_cell_length_c 9.045252
_cell_angle_alpha 49.120090
_cell_angle_beta 63.394884
_cell_angle_gamma 29.621291
_cell_volume 731.339744
_symmetry_space_group_name_H-M "P -1"
_symmetry_group_IT_number 2
_symmetry_cell_setting 'triclinic'
loop_
_space_group_symop_operation_xyz
x,y,z
-x,-y,-z
loop_
_atom_site_type_symbol
_atom_site_label
_atom_site_fract_x
_atom_site_fract_y
_atom_site_fract_z
Si Si1 0.229749 0.170693 0.475052
Si Si2 0.398070 0.634040 0.251885
Si Si3 0.320999 0.677648 0.709420
Si Si4 0.395686 0.783840 0.287560
Si Si5 0.207873 0.589272 0.068529
Si Si6 0.967382 0.613816 0.971920
Si Si7 0.929507 0.851239 0.139030
Si Si8 0.110386 0.463216 0.633640
O O1 0.112744 0.251788 0.274967
O O2 0.185386 0.112988 0.690103
O O3 0.097393 0.342401 0.416185
O O4 0.500000 0.000000 0.500000
O O5 0.500000 0.500000 0.500000
O O6 0.561037 0.492396 0.212014
O O7 0.417592 0.723326 0.191785
O O8 0.139345 0.778974 0.165131
O O9 0.268810 0.791744 0.463294
O O10 0.525334 0.586323 0.806038
O O11 0.145929 0.735833 0.840558
O O12 0.654481 0.631727 0.393613
O O13 0.250523 0.973976 0.089341
O O14 0.049775 0.692003 0.174752
O O15 0.165518 0.531488 0.060089
O O16 0.811897 0.674582 0.117450
O O17 0.000000 0.500000 0.000000
O O18 0.000000 0.500000 0.500000
#
# Coordination Sequence:
#
# PCOD9013195 Si02
#       8
#     2   2   2   2   2   2   2   2
#     4  11  24  42  63  93 130 169 222 275 328 386
#     4   9  19  36  63  94 125 169 217 268 325 386
#     4   9  20  37  65  94 129 166 217 267 330 392
#     4  11  22  37  66  97 132 170 221 271 334 395
#     4  10  21  41  63  95 128 171 216 270 330 399
#     4  10  23  38  64  93 123 167 222 268 317 381
#     4  11  23  40  63  96 137 175 211 273 338 400
#     4  11  23  43  69  93 130 174 226 268 333 399
#
# _framework density 21.877655000000001
#
# number of rings (size 3 to 8) (size 9 to 14) (size 15 to 20)
#    0.000    1.750    0.000    4.875    7.000    1.500 
#    0.000    2.500    2.750    0.000    0.000    0.000 
#    0.000    0.000    0.000    0.000    0.000    0.000 
#
# Total GULP energy -89098.951832 kJ/mol
# GULP energy per Si atom -5568.684489 kJ/mol
# Density = 2.182786 g / cm^3
# Si number density = 21.877655 Si / 1000 Ang^3
#
#
#
# Elastic Constant Matrix: (Units=GPa)
#
#
# Indices 1 2 3 4 5 6 
#
# 1 120.2090 25.4480 8.7351 -1.7783 20.6227 6.5047
# 2 25.4480 75.6591 32.9250 2.2125 6.7796 -10.7874
# 3 8.7351 32.9250 132.7675 17.9319 0.2906 -0.9871
# 4 -1.7783 2.2125 17.9319 37.1928 -2.8788 -2.5078
# 5 20.6227 6.7796 0.2906 -2.8788 38.8247 10.5796
# 6 6.5047 -10.7874 -0.9871 -2.5078 10.5796 20.4403
#
#
#
# Elastic Compliance Matrix: (Units=1/GPa)
#
#
# Indices 1 2 3 4 5 6 
#
# 1 0.009859 -0.003486 0.000190 0.000091 -0.003810 -0.002985
# 2 -0.003486 0.018660 -0.004477 0.001408 -0.004940 0.013470
# 3 0.000190 -0.004477 0.009181 -0.004272 0.001139 -0.003093
# 4 0.000091 0.001408 -0.004272 0.029182 0.000917 0.003614
# 5 -0.003810 -0.004940 0.001139 0.000917 0.033805 -0.018724
# 6 -0.002985 0.013470 -0.003093 0.003614 -0.018724 0.066967
#
#
# Mechanical properties :
#
#
# Convention : Reuss Voigt Hill
#
# Bulk Modulus (GPa) = 45.13881 51.42798 48.28339
# Shear Modulus (GPa) = 26.23497 36.72672 31.48085
#
# Velocity S-wave (km/s) = 3.46666 4.10168 3.79746
# Velocity P-wave (km/s) = 6.05812 6.78158 6.43003
#
# Compressibility (1/GPa) = 0.02215389
#
# Stress axis : x y z
#
# Youngs Moduli (GPa) = 101.42595 53.59053 108.91724
#
# Poissons Ratio (x) = 0.18679 -0.02064
# Poissons Ratio (y) = 0.35353 0.48766
# Poissons Ratio (z) = -0.01922 0.23994
#
# Static dielectric constant tensor:
#      x y z
#    x 1.815370 -0.001040 -0.044800 
#    y -0.001040 1.856590 0.071380 
#    z -0.044800 0.071380 1.896050 
# 
# From -- ./inp_files/278987.got.cif
#   From: 2010.05.17/outbox.cif.g08.bks.cpg/sg2_140_cif.got.tgz:278987.got - 2010.06.03 11:33:40.
