data_PCOD9013791
_publ_section_title
;
Structure prediction by ZEFSAII (Michael W. Deem and Ramdas Pophale) SiO2 
 PCOD9013791
Probable space group: P -1
;
_chemical_formula_sum "Si O2"
_cell_formula_units_Z 16
_cell_length_a 21.246048
_cell_length_b 26.445871
_cell_length_c 8.394731
_cell_angle_alpha 61.943071
_cell_angle_beta 62.307963
_cell_angle_gamma 11.116519
_cell_volume 802.397262
_symmetry_space_group_name_H-M "P -1"
_symmetry_group_IT_number 2
_symmetry_cell_setting 'triclinic'
loop_
_space_group_symop_operation_xyz
x,y,z
-x,-y,-z
loop_
_atom_site_type_symbol
_atom_site_label
_atom_site_fract_x
_atom_site_fract_y
_atom_site_fract_z
Si Si1 0.748781 0.341792 0.342020
Si Si2 0.641358 0.264913 0.974019
Si Si3 0.943107 0.806889 0.575994
Si Si4 0.017288 0.895748 0.861498
Si Si5 0.907168 0.701099 0.799896
Si Si6 0.125102 0.330603 0.777773
Si Si7 0.168926 0.432020 0.571188
Si Si8 0.321251 0.552114 0.203442
O O1 0.500000 0.500000 0.500000
O O2 0.518225 0.551569 0.171086
O O3 0.016527 0.095512 0.294914
O O4 0.906195 0.269573 0.357633
O O5 0.420910 0.424343 0.148765
O O6 0.703160 0.172481 0.897215
O O7 0.000000 0.000000 0.000000
O O8 0.993108 0.700631 0.707408
O O9 0.126678 0.679080 0.388338
O O10 0.559715 0.122643 0.552809
O O11 0.335265 0.687597 0.798030
O O12 0.103697 0.773399 0.051831
O O13 0.057378 0.553331 0.683017
O O14 0.511281 0.011779 0.788903
O O15 0.997542 0.600895 0.012648
O O16 0.071078 0.441796 0.690313
O O17 0.974962 0.432415 0.630157
#
# Coordination Sequence:
#
# PCOD9013791 Si02
#       8
#     2   2   2   2   2   2   2   2
#     4  11  22  39  57  80 121 163 206 260 302 349
#     4   9  20  37  59  81  97 150 221 258 302 360
#     4  11  24  39  54  92 130 155 201 255 309 356
#     4   9  18  37  60  76 103 159 218 251 299 355
#     4  10  21  41  65  97 129 154 197 257 298 366
#     4   9  20  42  71  94 120 159 204 234 304 384
#     4  10  21  41  67  96 124 163 197 241 309 377
#     4   9  18  37  57  79 115 151 200 263 299 351
#
# _framework density 19.940249999999999
#
# number of rings (size 3 to 8) (size 9 to 14) (size 15 to 20)
#    0.000    2.250    1.250    1.500    0.000    2.500 
#   13.500    0.000    0.000    0.000    0.000    0.000 
#    0.000    0.000    0.000    0.000    0.000    0.000 
#
# Total GULP energy -89187.218245 kJ/mol
# GULP energy per Si atom -5574.201140 kJ/mol
# Density = 1.989486 g / cm^3
# Si number density = 19.940250 Si / 1000 Ang^3
#
#
#
# Elastic Constant Matrix: (Units=GPa)
#
#
# Indices 1 2 3 4 5 6 
#
# 1 114.3565 38.2669 61.0992 21.6417 19.4767 21.1656
# 2 38.2669 48.5698 40.2736 12.6251 6.7838 17.9469
# 3 61.0992 40.2736 141.3550 15.9924 14.9295 6.2696
# 4 21.6417 12.6251 15.9924 31.1930 7.9645 14.0390
# 5 19.4767 6.7838 14.9295 7.9645 27.7358 13.7514
# 6 21.1656 17.9469 6.2696 14.0390 13.7514 36.3531
#
#
#
# Elastic Compliance Matrix: (Units=1/GPa)
#
#
# Indices 1 2 3 4 5 6 
#
# 1 0.014566 -0.006435 -0.003434 -0.003862 -0.005047 -0.001311
# 2 -0.006435 0.037189 -0.007768 -0.001567 0.007797 -0.015618
# 3 -0.003434 -0.007768 0.011161 -0.001929 -0.004246 0.006261
# 4 -0.003862 -0.001567 -0.001929 0.042384 -0.001951 -0.012275
# 5 -0.005047 0.007797 -0.004246 -0.001951 0.049544 -0.018166
# 6 -0.001311 -0.015618 0.006261 -0.012275 -0.018166 0.046514
#
#
# Mechanical properties :
#
#
# Convention : Reuss Voigt Hill
#
# Bulk Modulus (GPa) = 36.17760 64.84008 50.50884
# Shear Modulus (GPa) = 20.33792 30.03249 25.18520
#
# Velocity S-wave (km/s) = 3.19712 3.88509 3.55777
# Velocity P-wave (km/s) = 5.64014 7.26037 6.50093
#
# Compressibility (1/GPa) = 0.02764142
#
# Stress axis : x y z
#
# Youngs Moduli (GPa) = 68.65298 26.88975 89.59794
#
# Poissons Ratio (x) = 0.17304 0.30772
# Poissons Ratio (y) = 0.44180 0.69596
# Poissons Ratio (z) = 0.23578 0.20887
#
# Static dielectric constant tensor:
#      x y z
#    x 1.747650 0.024880 0.068610 
#    y 0.024880 1.618930 -0.030140 
#    z 0.068610 -0.030140 1.721360 
# 
# From -- ./inp_files/355671.got.cif
#   From: 2010.05.17/outbox.cif.g08.bks.cpg/sg2_178_cif.got.tgz:355671.got - 2010.06.03 11:33:40.
