data_PCOD9013523
_publ_section_title
;
Structure prediction by ZEFSAII (Michael W. Deem and Ramdas Pophale) SiO2 
 PCOD9013523
Probable space group: P -1
;
_chemical_formula_sum "Si O2"
_cell_formula_units_Z 12
_cell_length_a 9.951349
_cell_length_b 7.169300
_cell_length_c 9.923256
_cell_angle_alpha 52.776549
_cell_angle_beta 55.364913
_cell_angle_gamma 79.118076
_cell_volume 450.668820
_symmetry_space_group_name_H-M "P -1"
_symmetry_group_IT_number 2
_symmetry_cell_setting 'triclinic'
loop_
_space_group_symop_operation_xyz
x,y,z
-x,-y,-z
loop_
_atom_site_type_symbol
_atom_site_label
_atom_site_fract_x
_atom_site_fract_y
_atom_site_fract_z
Si Si1 0.837828 0.522932 0.670128
Si Si2 0.506426 0.525217 0.148133
Si Si3 0.971400 0.720660 0.016499
Si Si4 0.126645 0.718810 0.573428
Si Si5 0.689732 0.150335 0.314006
Si Si6 0.724950 0.011283 0.898542
O O1 0.686424 0.602602 0.646694
O O2 0.740931 0.247917 0.879664
O O3 0.000000 0.500000 0.500000
O O4 0.927899 0.695367 0.663523
O O5 0.645330 0.398759 0.183051
O O6 0.500000 0.500000 0.000000
O O7 0.563279 0.793639 0.060366
O O8 0.160222 0.884583 0.853687
O O9 0.863343 0.879974 0.935736
O O10 0.000000 0.500000 0.000000
O O11 0.885456 0.566261 0.261601
O O12 0.223577 0.846787 0.591107
O O13 0.224766 0.861396 0.330043
O O14 0.500000 0.000000 0.500000
#
# Coordination Sequence:
#
# PCOD9013523 Si02
#       6
#     2   2   2   2   2   2
#     4  10  25  44  69 100 142 187 226 277 356 413
#     4  12  24  44  72 105 136 181 238 285 338 415
#     4  10  21  41  65 101 139 169 236 281 346 399
#     4  10  22  43  66  97 134 181 224 275 344 411
#     4  11  24  40  65 103 138 174 233 293 335 404
#     4  11  23  44  71  98 138 186 221 288 346 412
#
# _framework density 26.627092000000001
#
# number of rings (size 3 to 8) (size 9 to 14) (size 15 to 20)
#    0.000    1.333    3.333    2.500    7.000    3.333 
#    0.000    3.333    0.000    0.000    0.000    0.000 
#    0.000    0.000    0.000    0.000    0.000    0.000 
#
# Total GULP energy -66922.709162 kJ/mol
# GULP energy per Si atom -5576.892430 kJ/mol
# Density = 2.656649 g / cm^3
# Si number density = 26.627092 Si / 1000 Ang^3
#
#
#
# Elastic Constant Matrix: (Units=GPa)
#
#
# Indices 1 2 3 4 5 6 
#
# 1 238.7341 40.7284 58.5920 5.1819 -29.8284 4.9091
# 2 40.7284 86.2797 21.7909 -12.3330 0.6141 0.2731
# 3 58.5920 21.7909 141.9219 4.3377 -3.1913 1.2686
# 4 5.1819 -12.3330 4.3377 39.6086 12.6931 -2.6223
# 5 -29.8284 0.6141 -3.1913 12.6931 70.9180 -4.7208
# 6 4.9091 0.2731 1.2686 -2.6223 -4.7208 43.3170
#
#
#
# Elastic Compliance Matrix: (Units=1/GPa)
#
#
# Indices 1 2 3 4 5 6 
#
# 1 0.005404 -0.002435 -0.001731 -0.002125 0.002570 -0.000395
# 2 -0.002435 0.013881 -0.001346 0.005504 -0.002168 0.000325
# 3 -0.001731 -0.001346 0.007995 -0.001017 -0.000182 -0.000111
# 4 -0.002125 0.005504 -0.001017 0.029414 -0.006163 0.001345
# 5 0.002570 -0.002168 -0.000182 -0.006163 0.016371 0.001139
# 6 -0.000395 0.000325 -0.000111 0.001345 0.001139 0.023337
#
#
# Mechanical properties :
#
#
# Convention : Reuss Voigt Hill
#
# Bulk Modulus (GPa) = 61.51230 78.79534 70.15382
# Shear Modulus (GPa) = 44.30819 53.82369 49.06594
#
# Velocity S-wave (km/s) = 4.08367 4.50086 4.29733
# Velocity P-wave (km/s) = 6.73697 7.52773 7.14330
#
# Compressibility (1/GPa) = 0.01625691
#
# Stress axis : x y z
#
# Youngs Moduli (GPa) = 185.03408 72.04233 125.07123
#
# Poissons Ratio (x) = 0.17541 0.21650
# Poissons Ratio (y) = 0.45053 0.16834
# Poissons Ratio (z) = 0.32030 0.09697
#
# Static dielectric constant tensor:
#      x y z
#    x 2.143990 0.058790 0.003430 
#    y 0.058790 2.334940 0.036370 
#    z 0.003430 0.036370 2.211930 
# 
# From -- ./inp_files/181414.got.cif
#   From: 2010.05.17/outbox.cif.g08.bks.cpg/sg2_91_cif.got.tgz:181414.got - 2010.06.03 11:33:40.
