data_PCOD9013526
_publ_section_title
;
Structure prediction by ZEFSAII (Michael W. Deem and Ramdas Pophale) SiO2 
 PCOD9013526
Probable space group: P -1
;
_chemical_formula_sum "Si O2"
_cell_formula_units_Z 13
_cell_length_a 6.588037
_cell_length_b 11.171963
_cell_length_c 12.676972
_cell_angle_alpha 49.938044
_cell_angle_beta 47.611593
_cell_angle_gamma 70.525853
_cell_volume 519.025276
_symmetry_space_group_name_H-M "P -1"
_symmetry_group_IT_number 2
_symmetry_cell_setting 'triclinic'
loop_
_space_group_symop_operation_xyz
x,y,z
-x,-y,-z
loop_
_atom_site_type_symbol
_atom_site_label
_atom_site_fract_x
_atom_site_fract_y
_atom_site_fract_z
Si Si1 0.000000 0.500000 0.500000
Si Si2 0.496407 0.657178 0.640516
Si Si3 0.986284 0.740043 0.170888
Si Si4 0.762314 0.933275 0.989350
Si Si5 0.453932 0.670600 0.885407
Si Si6 0.074697 0.033379 0.633176
Si Si7 0.108239 0.804570 0.572577
O O1 0.694768 0.527735 0.636154
O O2 0.053580 0.397666 0.649634
O O3 0.359886 0.656947 0.804145
O O4 0.267936 0.662950 0.626631
O O5 0.713019 0.825166 0.468615
O O6 0.070611 0.907190 0.106575
O O7 0.238622 0.726959 0.008987
O O8 0.736444 0.780048 0.160398
O O9 0.935169 0.908561 0.838070
O O10 0.500000 0.000000 0.000000
O O11 0.773058 0.765058 0.722949
O O12 0.500000 0.500000 0.000000
O O13 0.851696 0.123447 0.599373
O O14 0.202963 0.939069 0.550606
#
# Coordination Sequence:
#
# PCOD9013526 Si02
#       7
#     1   2   2   2   2   2   2
#     4  12  24  46  66 100 138 184 214 276 346 402
#     4  11  23  43  69  95 137 176 220 278 337 394
#     4  11  25  45  68  95 142 171 225 281 330 401
#     4  11  24  42  69 100 132 178 226 276 337 395
#     4  11  23  44  65  97 136 180 221 272 337 402
#     4  10  21  41  65 102 130 168 230 277 334 385
#     4  10  23  39  69 100 129 173 229 277 326 407
#
# _framework density 25.046952000000001
#
# number of rings (size 3 to 8) (size 9 to 14) (size 15 to 20)
#    0.000    1.231    3.077    2.308    2.154    3.077 
#    2.769    3.846    0.000    0.000    0.000    0.000 
#    0.000    0.000    0.000    0.000    0.000    0.000 
#
# Total GULP energy -72373.124648 kJ/mol
# GULP energy per Si atom -5567.163434 kJ/mol
# Density = 2.498994 g / cm^3
# Si number density = 25.046952 Si / 1000 Ang^3
#
#
#
# Elastic Constant Matrix: (Units=GPa)
#
#
# Indices 1 2 3 4 5 6 
#
# 1 109.2774 40.3943 42.0407 -5.6717 48.3316 -34.3374
# 2 40.3943 70.7512 35.4147 15.2238 11.7018 -31.6713
# 3 42.0407 35.4147 136.8564 6.3420 59.5934 -16.3980
# 4 -5.6717 15.2238 6.3420 41.4538 -6.6821 7.2456
# 5 48.3316 11.7018 59.5934 -6.6821 43.2313 -18.7300
# 6 -34.3374 -31.6713 -16.3980 7.2456 -18.7300 44.0291
#
#
#
# Elastic Compliance Matrix: (Units=1/GPa)
#
#
# Indices 1 2 3 4 5 6 
#
# 1 0.052303 -0.043002 0.042128 0.002128 -0.114823 -0.023648
# 2 -0.043002 0.068726 -0.048079 -0.013837 0.114904 0.049152
# 3 0.042128 -0.048079 0.060609 -0.001098 -0.133253 -0.035662
# 4 0.002128 -0.013837 -0.001098 0.032306 0.002207 -0.013080
# 5 -0.114823 0.114904 -0.133253 0.002207 0.342996 0.089025
# 6 -0.023648 0.049152 -0.035662 -0.013080 0.089025 0.066368
#
#
# Mechanical properties :
#
#
# Convention : Reuss Voigt Hill
#
# Bulk Modulus (GPa) = 11.94260 61.39827 36.67043
# Shear Modulus (GPa) = 6.67445 39.01185 22.84315
#
# Velocity S-wave (km/s) = 1.63418 3.95086 3.02323
# Velocity P-wave (km/s) = 2.88776 6.73639 5.18257
#
# Compressibility (1/GPa) = 0.08373388
#
# Stress axis : x y z
#
# Youngs Moduli (GPa) = 19.11920 14.55044 16.49909
#
# Poissons Ratio (x) = 0.62569 -0.69507
# Poissons Ratio (y) = 0.82216 0.79325
# Poissons Ratio (z) = -0.80545 0.69956
#
# Static dielectric constant tensor:
#      x y z
#    x 1.576600 -0.316700 0.436620 
#    y -0.316700 1.829610 0.227290 
#    z 0.436620 0.227290 1.727830 
# 
# From -- ./inp_files/362555.got.cif
#   From: 2010.05.17/outbox.cif.g08.bks.cpg/sg2_182_cif.got.tgz:362555.got - 2010.06.03 11:33:40.
