data_PCOD9013800
_publ_section_title
;
Structure prediction by ZEFSAII (Michael W. Deem and Ramdas Pophale) SiO2 
 PCOD9013800
Probable space group: P -1
;
_chemical_formula_sum "Si O2"
_cell_formula_units_Z 14
_cell_length_a 8.110757
_cell_length_b 18.802471
_cell_length_c 9.335527
_cell_angle_alpha 121.408224
_cell_angle_beta 134.663894
_cell_angle_gamma 36.801908
_cell_volume 603.675567
_symmetry_space_group_name_H-M "P -1"
_symmetry_group_IT_number 2
_symmetry_cell_setting 'triclinic'
loop_
_space_group_symop_operation_xyz
x,y,z
-x,-y,-z
loop_
_atom_site_type_symbol
_atom_site_label
_atom_site_fract_x
_atom_site_fract_y
_atom_site_fract_z
Si Si1 0.491459 0.926580 0.034323
Si Si2 0.536719 0.587788 0.085590
Si Si3 0.624460 0.125686 0.374266
Si Si4 0.785469 0.500327 0.562584
Si Si5 0.740907 0.914907 0.690115
Si Si6 0.764752 0.271704 0.700720
Si Si7 0.347459 0.652547 0.715102
O O1 0.857087 0.823487 0.217066
O O2 0.253626 0.012554 0.110719
O O3 0.429462 0.868412 0.823560
O O4 0.500000 0.000000 0.000000
O O5 0.241552 0.712372 0.116616
O O6 0.877779 0.537708 0.302134
O O7 0.500000 0.500000 0.000000
O O8 0.505461 0.610491 0.923550
O O9 0.402202 0.125098 0.342092
O O10 0.600569 0.227003 0.512512
O O11 0.000000 0.000000 0.500000
O O12 0.472970 0.596674 0.369084
O O13 0.642734 0.575227 0.700665
O O14 0.839723 0.387140 0.475228
O O15 0.085394 0.794953 0.707262
O O16 0.500000 0.000000 0.500000
#
# Coordination Sequence:
#
# PCOD9013800 Si02
#       7
#     2   2   2   2   2   2   2
#     4  10  21  41  65  97 135 173 224 276 334 399
#     4  12  25  42  70 105 133 174 234 285 342 409
#     4  11  23  40  68  95 137 180 223 276 336 408
#     4  11  26  45  68  99 138 184 224 281 352 406
#     4  11  23  44  69 100 138 179 223 281 339 405
#     4  12  23  41  71  99 132 177 229 283 341 403
#     4  11  25  46  68  96 145 181 223 281 344 411
#
# _framework density 23.191264
#
# number of rings (size 3 to 8) (size 9 to 14) (size 15 to 20)
#    0.000    0.857    4.286    4.286    4.000    0.000 
#    0.000    3.571    0.000    0.000    0.000    0.000 
#    0.000    0.000    0.000    0.000    0.000    0.000 
#
# Total GULP energy -78273.429405 kJ/mol
# GULP energy per Si atom -5590.959243 kJ/mol
# Density = 2.313848 g / cm^3
# Si number density = 23.191264 Si / 1000 Ang^3
#
#
#
# Elastic Constant Matrix: (Units=GPa)
#
#
# Indices 1 2 3 4 5 6 
#
# 1 43.5452 27.4801 15.9462 7.7187 -1.2014 -4.4659
# 2 27.4801 118.8013 38.3061 17.5471 -7.1953 -15.2583
# 3 15.9462 38.3061 97.6123 14.6752 -25.7987 -1.6914
# 4 7.7187 17.5471 14.6752 56.0077 -7.8212 -6.6444
# 5 -1.2014 -7.1953 -25.7987 -7.8212 45.2357 5.8445
# 6 -4.4659 -15.2583 -1.6914 -6.6444 5.8445 24.6409
#
#
#
# Elastic Compliance Matrix: (Units=1/GPa)
#
#
# Indices 1 2 3 4 5 6 
#
# 1 0.027646 -0.005175 -0.002796 -0.001557 -0.002174 0.001710
# 2 -0.005175 0.011751 -0.003836 -0.001455 -0.001487 0.006036
# 3 -0.002796 -0.003836 0.014440 -0.001601 0.007814 -0.004176
# 4 -0.001557 -0.001455 -0.001601 0.019613 0.001742 0.003582
# 5 -0.002174 -0.001487 0.007814 0.001742 0.027451 -0.006820
# 6 0.001710 0.006036 -0.004176 0.003582 -0.006820 0.046927
#
#
# Mechanical properties :
#
#
# Convention : Reuss Voigt Hill
#
# Bulk Modulus (GPa) = 33.08784 47.04707 40.06746
# Shear Modulus (GPa) = 27.54548 37.05861 32.30205
#
# Velocity S-wave (km/s) = 3.45012 4.00178 3.73614
# Velocity P-wave (km/s) = 5.49267 6.45623 5.99384
#
# Compressibility (1/GPa) = 0.03022258
#
# Stress axis : x y z
#
# Youngs Moduli (GPa) = 36.17170 85.09582 69.25092
#
# Poissons Ratio (x) = 0.44040 0.19364
# Poissons Ratio (y) = 0.18720 0.26564
# Poissons Ratio (z) = 0.10114 0.32642
#
# Static dielectric constant tensor:
#      x y z
#    x 1.903420 0.020680 0.002910 
#    y 0.020680 1.887550 0.034720 
#    z 0.002910 0.034720 1.921800 
# 
# From -- ./inp_files/223884.got.cif
#   From: 2010.05.17/outbox.cif.g08.bks.cpg/sg2_112_cif.got.tgz:223884.got - 2010.06.03 11:33:40.
