data_PCOD9013405
_publ_section_title
;
Structure prediction by ZEFSAII (Michael W. Deem and Ramdas Pophale) SiO2 
 PCOD9013405
Probable space group: P -1
;
_chemical_formula_sum "Si O2"
_cell_formula_units_Z 14
_cell_length_a 15.196437
_cell_length_b 9.503045
_cell_length_c 11.690857
_cell_angle_alpha 56.978416
_cell_angle_beta 151.126864
_cell_angle_gamma 135.477310
_cell_volume 555.700360
_symmetry_space_group_name_H-M "P -1"
_symmetry_group_IT_number 2
_symmetry_cell_setting 'triclinic'
loop_
_space_group_symop_operation_xyz
x,y,z
-x,-y,-z
loop_
_atom_site_type_symbol
_atom_site_label
_atom_site_fract_x
_atom_site_fract_y
_atom_site_fract_z
Si Si1 0.143716 0.796963 0.602350
Si Si2 0.522805 0.273709 0.865448
Si Si3 0.028146 0.171500 0.037972
Si Si4 0.939102 0.637382 0.804485
Si Si5 0.278300 0.819134 0.485211
Si Si6 0.265617 0.434128 0.619340
Si Si7 0.492185 0.712135 0.428279
O O1 0.172723 0.789218 0.503101
O O2 0.882078 0.680651 0.385129
O O3 0.299709 0.036869 0.711866
O O4 0.270790 0.706944 0.845593
O O5 0.442510 0.392478 0.794295
O O6 0.578996 0.318723 0.772954
O O7 0.945700 0.155817 0.080803
O O8 0.286824 0.280386 0.312448
O O9 0.913165 0.254996 0.795801
O O10 0.000000 0.000000 0.000000
O O11 0.945607 0.674488 0.663155
O O12 0.673906 0.466521 0.594975
O O13 0.000000 0.500000 0.000000
O O14 0.363151 0.674798 0.634098
O O15 0.453131 0.068023 0.565442
#
# Coordination Sequence:
#
# PCOD9013405 Si02
#       7
#     2   2   2   2   2   2   2
#     4  10  23  44  64  89 133 172 212 269 321 379
#     4  10  22  41  67  92 122 173 223 260 319 386
#     4  10  21  41  64  94 126 167 211 260 328 378
#     4  12  23  39  65  97 129 169 213 264 323 385
#     4  10  23  42  64  94 134 170 209 269 324 377
#     4  12  23  38  66  97 126 166 223 263 315 384
#     4  10  22  42  65  92 132 171 211 263 328 382
#
# _framework density 25.193432000000001
#
# number of rings (size 3 to 8) (size 9 to 14) (size 15 to 20)
#    0.000    1.429    2.857    2.143    0.000    1.143 
#    0.000    1.429    0.000    0.000    0.000    0.000 
#    0.000    0.000    0.000    0.000    0.000    0.000 
#
# Total GULP energy -78097.846656 kJ/mol
# GULP energy per Si atom -5578.417618 kJ/mol
# Density = 2.513609 g / cm^3
# Si number density = 25.193432 Si / 1000 Ang^3
#
#
#
# Elastic Constant Matrix: (Units=GPa)
#
#
# Indices 1 2 3 4 5 6 
#
# 1 86.4764 35.0219 14.0364 2.8732 -6.6458 -21.3255
# 2 35.0219 116.7810 -19.9516 -5.0124 4.6558 -30.5217
# 3 14.0364 -19.9516 55.6187 -3.0799 -3.3609 4.8376
# 4 2.8732 -5.0124 -3.0799 23.8953 -13.4572 0.6580
# 5 -6.6458 4.6558 -3.3609 -13.4572 39.3903 -4.9591
# 6 -21.3255 -30.5217 4.8376 0.6580 -4.9591 39.8690
#
#
#
# Elastic Compliance Matrix: (Units=1/GPa)
#
#
# Indices 1 2 3 4 5 6 
#
# 1 0.016255 -0.004474 -0.006226 -0.002321 0.002753 0.006406
# 2 -0.004474 0.012717 0.005350 0.003925 0.000380 0.006676
# 3 -0.006226 0.005350 0.022069 0.005884 0.001989 -0.001762
# 4 -0.002321 0.003925 0.005884 0.054008 0.018406 0.002448
# 5 0.002753 0.000380 0.001989 0.018406 0.032934 0.005315
# 6 0.006406 0.006676 -0.001762 0.002448 0.005315 0.034454
#
#
# Mechanical properties :
#
#
# Convention : Reuss Voigt Hill
#
# Bulk Modulus (GPa) = 24.78786 35.23216 30.01001
# Shear Modulus (GPa) = 25.43457 35.94887 30.69172
#
# Velocity S-wave (km/s) = 3.18082 3.78155 3.49412
# Velocity P-wave (km/s) = 4.83224 5.75168 5.31189
#
# Compressibility (1/GPa) = 0.04034234
#
# Stress axis : x y z
#
# Youngs Moduli (GPa) = 61.52073 78.63584 45.31151
#
# Poissons Ratio (x) = 0.35178 0.28212
# Poissons Ratio (y) = 0.27522 -0.24244
# Poissons Ratio (z) = 0.38304 -0.42074
#
# Static dielectric constant tensor:
#      x y z
#    x 2.451290 -0.389930 -0.232320 
#    y -0.389930 2.314410 0.029870 
#    z -0.232320 0.029870 1.605120 
# 
# From -- ./inp_files/176937.got.cif
#   From: 2010.05.17/outbox.cif.g08.bks.cpg/sg2_89_cif.got.tgz:176937.got - 2010.06.03 11:33:40.
