data_PCOD9013749
_publ_section_title
;
Structure prediction by ZEFSAII (Michael W. Deem and Ramdas Pophale) SiO2 
 PCOD9013749
Probable space group: P -1
;
_chemical_formula_sum "Si O2"
_cell_formula_units_Z 15
_cell_length_a 17.259877
_cell_length_b 10.863842
_cell_length_c 20.279016
_cell_angle_alpha 147.109444
_cell_angle_beta 19.685924
_cell_angle_gamma 148.144812
_cell_volume 658.732729
_symmetry_space_group_name_H-M "P -1"
_symmetry_group_IT_number 2
_symmetry_cell_setting 'triclinic'
loop_
_space_group_symop_operation_xyz
x,y,z
-x,-y,-z
loop_
_atom_site_type_symbol
_atom_site_label
_atom_site_fract_x
_atom_site_fract_y
_atom_site_fract_z
Si Si1 0.535956 0.364483 0.975691
Si Si2 0.083735 0.552906 0.635544
Si Si3 0.705862 0.174764 0.098576
Si Si4 0.500000 0.500000 0.500000
Si Si5 0.807485 0.879573 0.369635
Si Si6 0.555552 0.542202 0.308799
Si Si7 0.719640 0.347094 0.612797
Si Si8 0.237149 0.080565 0.800493
O O1 0.802762 0.463280 0.838891
O O2 0.477062 0.091151 0.880444
O O3 0.500000 0.500000 0.000000
O O4 0.344613 0.432008 0.205703
O O5 0.277343 0.444215 0.463646
O O6 0.087306 0.544296 0.549974
O O7 0.216064 0.832183 0.670824
O O8 0.664562 0.320535 0.260429
O O9 0.661867 0.332216 0.144322
O O10 0.967430 0.140683 0.861985
O O11 0.754700 0.732077 0.412603
O O12 0.574809 0.680062 0.427445
O O13 0.796238 0.145045 0.499647
O O14 0.715086 0.723202 0.207702
O O15 0.468225 0.183360 0.707967
O O16 0.000000 0.000000 0.000000
#
# Coordination Sequence:
#
# PCOD9013749 Si02
#       8
#     2   2   2   1   2   2   2   2
#     4  12  27  43  65  99 138 179 225 263 333 411
#     4  11  22  43  66  99 130 171 229 275 327 398
#     4  11  26  44  62  99 140 176 221 272 332 402
#     4  10  22  40  66  92 126 182 218 268 334 378
#     4  11  21  40  65  98 134 166 224 276 327 387
#     4  10  21  41  65  95 131 166 219 287 325 378
#     4  11  22  40  69  96 131 175 216 284 333 379
#     4  11  20  38  72 102 125 170 232 280 332 383
#
# _framework density 22.770994999999999
#
# number of rings (size 3 to 8) (size 9 to 14) (size 15 to 20)
#    0.000    1.067    4.000    4.000    0.000    5.867 
#    0.000    2.667    0.000    0.000    0.000    0.000 
#    0.000    0.000    0.000    0.000    0.000    0.000 
#
# Total GULP energy -83509.278615 kJ/mol
# GULP energy per Si atom -5567.285241 kJ/mol
# Density = 2.271917 g / cm^3
# Si number density = 22.770995 Si / 1000 Ang^3
#
#
#
# Elastic Constant Matrix: (Units=GPa)
#
#
# Indices 1 2 3 4 5 6 
#
# 1 38.5067 32.7769 19.8732 4.5920 -18.2478 3.3188
# 2 32.7769 83.1821 32.3159 12.8640 -17.7655 5.8424
# 3 19.8732 32.3159 129.5190 5.1929 4.7052 -0.7861
# 4 4.5920 12.8640 5.1929 45.4729 5.8778 -7.3932
# 5 -18.2478 -17.7655 4.7052 5.8778 33.7879 -3.3844
# 6 3.3188 5.8424 -0.7861 -7.3932 -3.3844 25.1108
#
#
#
# Elastic Compliance Matrix: (Units=1/GPa)
#
#
# Indices 1 2 3 4 5 6 
#
# 1 0.050196 -0.012236 -0.005290 -0.004200 0.021919 -0.002235
# 2 -0.012236 0.020287 -0.003173 -0.005464 0.005037 -0.004132
# 3 -0.005290 -0.003173 0.009495 0.001332 -0.005947 0.001325
# 4 -0.004200 -0.005464 0.001332 0.026347 -0.009068 0.008403
# 5 0.021919 0.005037 -0.005947 -0.009068 0.046421 -0.000669
# 6 -0.002235 -0.004132 0.001325 0.008403 -0.000669 0.043506
#
#
# Mechanical properties :
#
#
# Convention : Reuss Voigt Hill
#
# Bulk Modulus (GPa) = 25.92112 46.79331 36.35721
# Shear Modulus (GPa) = 19.95921 31.95712 25.95817
#
# Velocity S-wave (km/s) = 2.96382 3.75028 3.38000
# Velocity P-wave (km/s) = 4.80837 6.27271 5.58871
#
# Compressibility (1/GPa) = 0.03857858
#
# Stress axis : x y z
#
# Youngs Moduli (GPa) = 19.92206 49.29260 105.31768
#
# Poissons Ratio (x) = 0.60313 0.55718
# Poissons Ratio (y) = 0.24376 0.33420
# Poissons Ratio (z) = 0.10540 0.15642
#
# Static dielectric constant tensor:
#      x y z
#    x 2.087080 0.398010 0.221720 
#    y 0.398010 1.848090 0.313000 
#    z 0.221720 0.313000 2.419240 
# 
# From -- ./inp_files/519176.got.cif
#   From: 2010.05.17/outbox.cif.g08.bks.cpg/sg2_260_cif.got.tgz:519176.got - 2010.06.03 11:33:40.
