data_PCOD9013604
_publ_section_title
;
Structure prediction by ZEFSAII (Michael W. Deem and Ramdas Pophale) SiO2 
 PCOD9013604
Probable space group: P -1
;
_chemical_formula_sum "Si O2"
_cell_formula_units_Z 16
_cell_length_a 13.035177
_cell_length_b 12.962664
_cell_length_c 5.548186
_cell_angle_alpha 106.449423
_cell_angle_beta 91.334994
_cell_angle_gamma 117.488609
_cell_volume 784.427158
_symmetry_space_group_name_H-M "P -1"
_symmetry_group_IT_number 2
_symmetry_cell_setting 'triclinic'
loop_
_space_group_symop_operation_xyz
x,y,z
-x,-y,-z
loop_
_atom_site_type_symbol
_atom_site_label
_atom_site_fract_x
_atom_site_fract_y
_atom_site_fract_z
Si Si1 0.802152 0.777057 0.876132
Si Si2 0.442656 0.337279 0.142492
Si Si3 0.571968 0.407964 0.691597
Si Si4 0.806900 0.456326 0.975805
Si Si5 0.835252 0.683275 0.322159
Si Si6 0.071739 0.925734 0.458012
Si Si7 0.962932 0.391236 0.225068
Si Si8 0.075769 0.880422 0.920480
O O1 0.683497 0.784064 0.903827
O O2 0.783082 0.713259 0.571737
O O3 0.943836 0.866267 0.924287
O O4 0.794633 0.706302 0.077902
O O5 0.523162 0.350786 0.387893
O O6 0.424670 0.459135 0.229818
O O7 0.493861 0.341373 0.881764
O O8 0.695870 0.414257 0.769116
O O9 0.797527 0.541339 0.239149
O O10 0.848093 0.370018 0.054664
O O11 0.923222 0.551021 0.900447
O O12 0.973861 0.781438 0.382427
O O13 0.137476 0.956091 0.734900
O O14 0.134079 0.940265 0.217584
O O15 0.000000 0.000000 0.500000
O O16 0.941493 0.256350 0.200597
O O17 0.000000 0.500000 0.500000
#
# Coordination Sequence:
#
# PCOD9013604 Si02
#       8
#     2   2   2   2   2   2   2   2
#     4  10  17  30  47  64  92 124 163 197 228 290
#     4  10  19  30  44  64  89 128 168 191 250 270
#     4  10  21  29  43  64  91 126 167 205 228 283
#     4  11  22  33  46  69  98 133 181 199 232 279
#     4  10  19  30  48  67  96 126 159 200 231 281
#     4  10  19  33  51  71  96 129 159 200 256 301
#     4  11  22  33  52  68  93 141 180 209 232 272
#     4  10  20  34  50  74  99 129 169 200 241 287
#
# _framework density 20.397048999999999
#
# number of rings (size 3 to 8) (size 9 to 14) (size 15 to 20)
#    0.000    1.750    3.750    2.625    7.000    0.000 
#    0.000    0.000    0.000    0.000    0.000    0.000 
#    0.000    0.000    0.000   90.000    0.000    0.250 
#
# Total GULP energy -89068.381030 kJ/mol
# GULP energy per Si atom -5566.773814 kJ/mol
# Density = 2.035062 g / cm^3
# Si number density = 20.397049 Si / 1000 Ang^3
#
#
#
# Elastic Constant Matrix: (Units=GPa)
#
#
# Indices 1 2 3 4 5 6 
#
# 1 81.0413 20.5386 32.0628 -11.6302 23.1766 -2.8933
# 2 20.5386 67.6464 45.6685 -6.0998 9.8317 -11.9350
# 3 32.0628 45.6685 155.2984 -28.4082 -5.7457 -1.4888
# 4 -11.6302 -6.0998 -28.4082 29.8454 -2.1418 3.3437
# 5 23.1766 9.8317 -5.7457 -2.1418 32.2679 -8.1075
# 6 -2.8933 -11.9350 -1.4888 3.3437 -8.1075 18.8924
#
#
#
# Elastic Compliance Matrix: (Units=1/GPa)
#
#
# Indices 1 2 3 4 5 6 
#
# 1 0.018526 -0.002033 -0.003203 0.003334 -0.014412 -0.005474
# 2 -0.002033 0.022521 -0.007064 -0.004591 -0.003815 0.012535
# 3 -0.003203 -0.007064 0.010933 0.008489 0.006229 -0.002921
# 4 0.003334 -0.004591 0.008489 0.043020 0.001150 -0.008842
# 5 -0.014412 -0.003815 0.006229 0.001150 0.047750 0.016162
# 6 -0.005474 0.012535 -0.002921 -0.008842 0.016162 0.068282
#
#
# Mechanical properties :
#
#
# Convention : Reuss Voigt Hill
#
# Bulk Modulus (GPa) = 36.52215 55.61398 46.06807
# Shear Modulus (GPa) = 20.42825 29.91556 25.17191
#
# Velocity S-wave (km/s) = 3.16813 3.83386 3.51678
# Velocity P-wave (km/s) = 5.59707 6.85002 6.25500
#
# Compressibility (1/GPa) = 0.02738064
#
# Stress axis : x y z
#
# Youngs Moduli (GPa) = 53.97706 44.40335 91.46624
#
# Poissons Ratio (x) = 0.09029 0.29294
# Poissons Ratio (y) = 0.10976 0.64609
# Poissons Ratio (z) = 0.17287 0.31365
#
# Static dielectric constant tensor:
#      x y z
#    x 1.786900 -0.007930 0.017770 
#    y -0.007930 1.803450 0.017840 
#    z 0.017770 0.017840 1.854680 
# 
# From -- ./inp_files/71360.got.cif
#   From: 2010.05.17/outbox.cif.g08.bks.cpg/sg2_36_cif.got.tgz:71360.got - 2010.06.03 11:33:40.
