data_PCOD9013192
_publ_section_title
;
Structure prediction by ZEFSAII (Michael W. Deem and Ramdas Pophale) SiO2 
 PCOD9013192
Probable space group: P -1
;
_chemical_formula_sum "Si O2"
_cell_formula_units_Z 14
_cell_length_a 6.060544
_cell_length_b 24.089407
_cell_length_c 18.148700
_cell_angle_alpha 161.268650
_cell_angle_beta 49.065605
_cell_angle_gamma 119.531669
_cell_volume 546.728270
_symmetry_space_group_name_H-M "P -1"
_symmetry_group_IT_number 2
_symmetry_cell_setting 'triclinic'
loop_
_space_group_symop_operation_xyz
x,y,z
-x,-y,-z
loop_
_atom_site_type_symbol
_atom_site_label
_atom_site_fract_x
_atom_site_fract_y
_atom_site_fract_z
Si Si1 0.761065 0.312391 0.976009
Si Si2 0.910103 0.883813 0.779918
Si Si3 0.999816 0.451907 0.855479
Si Si4 0.070384 0.232111 0.213823
Si Si5 0.237464 0.801355 0.452235
Si Si6 0.493443 0.600409 0.705986
Si Si7 0.500238 0.951108 0.351663
O O1 0.488735 0.252814 0.932345
O O2 0.795289 0.311758 0.056677
O O3 0.119323 0.131582 0.636549
O O4 0.731827 0.516951 0.209284
O O5 0.967936 0.740917 0.656205
O O6 0.142637 0.772878 0.519327
O O7 0.500000 0.000000 0.000000
O O8 0.027030 0.043292 0.971743
O O9 0.030381 0.236184 0.578526
O O10 0.621956 0.621769 0.120899
O O11 0.000000 0.500000 0.000000
O O12 0.412101 0.229781 0.115647
O O13 0.786111 0.415944 0.458907
O O14 0.233206 0.006682 0.696282
O O15 0.500000 0.500000 0.500000
O O16 0.500000 0.000000 0.500000
#
# Coordination Sequence:
#
# PCOD9013192 Si02
#       7
#     2   2   2   2   2   2   2
#     4  10  23  38  65  93 126 163 221 259 337 396
#     4  11  24  42  66  92 135 180 224 276 330 399
#     4  10  22  39  62  95 123 162 206 272 328 389
#     4  10  25  42  61  98 127 173 231 270 336 396
#     4  10  23  39  61  92 126 162 218 258 331 387
#     4  11  24  43  66  96 135 175 225 284 337 401
#     4  10  21  41  63  95 125 169 209 273 331 398
#
# _framework density 25.606870000000001
#
# number of rings (size 3 to 8) (size 9 to 14) (size 15 to 20)
#    0.000    1.714    0.000    2.571    6.000    5.714 
#    0.000    0.000    0.000    0.000    0.000    0.000 
#    0.000    0.000    0.000    0.000    0.000    0.000 
#
# Total GULP energy -78192.387822 kJ/mol
# GULP energy per Si atom -5585.170559 kJ/mol
# Density = 2.554859 g / cm^3
# Si number density = 25.606870 Si / 1000 Ang^3
#
#
#
# Elastic Constant Matrix: (Units=GPa)
#
#
# Indices 1 2 3 4 5 6 
#
# 1 109.6863 76.7444 31.5700 12.1797 27.4762 3.7024
# 2 76.7444 218.8143 31.2985 1.2925 22.2605 11.3096
# 3 31.5700 31.2985 72.0123 -1.3801 5.6945 10.7438
# 4 12.1797 1.2925 -1.3801 41.8894 4.0149 14.7447
# 5 27.4762 22.2605 5.6945 4.0149 39.7447 4.4517
# 6 3.7024 11.3096 10.7438 14.7447 4.4517 55.6723
#
#
#
# Elastic Compliance Matrix: (Units=1/GPa)
#
#
# Indices 1 2 3 4 5 6 
#
# 1 0.015860 -0.004168 -0.005021 -0.004845 -0.007719 0.002661
# 2 -0.004168 0.006230 -0.000629 0.001478 -0.000531 -0.001216
# 3 -0.005021 -0.000629 0.016865 0.003216 0.001504 -0.003765
# 4 -0.004845 0.001478 0.003216 0.028170 0.000119 -0.008069
# 5 -0.007719 -0.000531 0.001504 0.000119 0.030809 -0.002164
# 6 0.002661 -0.001216 -0.003765 -0.008069 -0.002164 0.021069
#
#
# Mechanical properties :
#
#
# Convention : Reuss Voigt Hill
#
# Bulk Modulus (GPa) = 51.75990 75.52652 63.64321
# Shear Modulus (GPa) = 34.46377 44.85462 39.65920
#
# Velocity S-wave (km/s) = 3.67260 4.18983 3.93971
# Velocity P-wave (km/s) = 6.18395 7.27770 6.75300
#
# Compressibility (1/GPa) = 0.01931997
#
# Stress axis : x y z
#
# Youngs Moduli (GPa) = 63.05101 160.51349 59.29285
#
# Poissons Ratio (x) = 0.66903 0.29771
# Poissons Ratio (y) = 0.26280 0.03728
# Poissons Ratio (z) = 0.31658 0.10092
#
# Static dielectric constant tensor:
#      x y z
#    x 2.129720 0.021210 0.091900 
#    y 0.021210 2.093830 -0.215720 
#    z 0.091900 -0.215720 2.599950 
# 
# From -- ./inp_files/84389.got.cif
#   From: 2010.05.17/outbox.cif.g08.bks.cpg/sg2_43_cif.got.tgz:84389.got - 2010.06.03 11:33:40.
