data_PCOD9013724
_publ_section_title
;
Structure prediction by ZEFSAII (Michael W. Deem and Ramdas Pophale) SiO2 
 PCOD9013724
Probable space group: P -1
;
_chemical_formula_sum "Si O2"
_cell_formula_units_Z 16
_cell_length_a 11.739904
_cell_length_b 7.504056
_cell_length_c 12.026613
_cell_angle_alpha 61.497388
_cell_angle_beta 133.661090
_cell_angle_gamma 109.704853
_cell_volume 673.534562
_symmetry_space_group_name_H-M "P -1"
_symmetry_group_IT_number 2
_symmetry_cell_setting 'triclinic'
loop_
_space_group_symop_operation_xyz
x,y,z
-x,-y,-z
loop_
_atom_site_type_symbol
_atom_site_label
_atom_site_fract_x
_atom_site_fract_y
_atom_site_fract_z
Si Si1 0.910410 0.677072 0.951108
Si Si2 0.169400 0.740028 0.279659
Si Si3 0.119335 0.041900 0.737275
Si Si4 0.789958 0.967675 0.589414
Si Si5 0.512772 0.273873 0.625123
Si Si6 0.949633 0.555587 0.325800
Si Si7 0.437361 0.209682 0.844741
Si Si8 0.718894 0.386769 0.058608
O O1 0.772287 0.570430 0.960401
O O2 0.028578 0.784582 0.084880
O O3 0.850909 0.822139 0.771991
O O4 0.000000 0.500000 0.000000
O O5 0.318741 0.783693 0.290819
O O6 0.091025 0.530439 0.338724
O O7 0.228527 0.829398 0.411706
O O8 0.094361 0.202676 0.774639
O O9 0.250730 0.173564 0.720607
O O10 0.198405 0.821343 0.869237
O O11 0.936797 0.000991 0.593625
O O12 0.630121 0.872603 0.464866
O O13 0.500000 0.500000 0.500000
O O14 0.506056 0.266410 0.754905
O O15 0.801794 0.428924 0.219657
O O16 0.000000 0.500000 0.500000
O O17 0.530606 0.365816 0.940602
O O18 0.500000 0.000000 0.000000
#
# Coordination Sequence:
#
# PCOD9013724 Si02
#       8
#     2   2   2   2   2   2   2   2
#     4  11  19  38  68  94 126 176 223 274 329 412
#     4  10  24  41  63  97 136 169 226 279 337 406
#     4  10  23  41  66  92 131 172 224 267 338 396
#     4  11  23  41  66  99 132 176 220 283 344 392
#     4  12  26  42  69 100 133 176 228 281 341 403
#     4  10  24  41  66  97 131 174 224 276 337 407
#     4  10  24  43  66  98 132 178 227 274 336 410
#     4  10  21  41  65  94 132 174 223 275 334 397
#
# _framework density 23.755275999999999
#
# number of rings (size 3 to 8) (size 9 to 14) (size 15 to 20)
#    0.000    1.500    1.250    3.000    5.250    5.500 
#    0.000    0.000    0.000    0.000    0.000    0.000 
#    0.000    0.000    0.000    0.000    0.000    0.000 
#
# Total GULP energy -89116.592227 kJ/mol
# GULP energy per Si atom -5569.787014 kJ/mol
# Density = 2.370121 g / cm^3
# Si number density = 23.755276 Si / 1000 Ang^3
#
#
#
# Elastic Constant Matrix: (Units=GPa)
#
#
# Indices 1 2 3 4 5 6 
#
# 1 108.6476 37.9319 22.0856 14.9935 -5.8455 44.8492
# 2 37.9319 111.9952 48.5554 40.9146 16.8460 28.6138
# 3 22.0856 48.5554 96.6346 22.3535 -20.5021 13.2041
# 4 14.9935 40.9146 22.3535 41.4856 6.3498 8.6924
# 5 -5.8455 16.8460 -20.5021 6.3498 27.8607 8.6893
# 6 44.8492 28.6138 13.2041 8.6924 8.6893 45.5140
#
#
#
# Elastic Compliance Matrix: (Units=1/GPa)
#
#
# Indices 1 2 3 4 5 6 
#
# 1 0.020287 -0.005824 0.006190 -0.003499 0.019751 -0.021228
# 2 -0.005824 0.023820 -0.013157 -0.010985 -0.023145 0.001098
# 3 0.006190 -0.013157 0.025020 -0.005526 0.032093 -0.010158
# 4 -0.003499 -0.010985 -0.005526 0.039269 -0.009037 0.006183
# 5 0.019751 -0.023145 0.032093 -0.009037 0.088899 -0.029469
# 6 -0.021228 0.001098 -0.010158 0.006183 -0.029469 0.049592
#
#
# Mechanical properties :
#
#
# Convention : Reuss Voigt Hill
#
# Bulk Modulus (GPa) = 22.96444 59.38035 41.17240
# Shear Modulus (GPa) = 17.42265 36.88572 27.15419
#
# Velocity S-wave (km/s) = 2.71112 3.94475 3.38461
# Velocity P-wave (km/s) = 4.41455 6.76750 5.71346
#
# Compressibility (1/GPa) = 0.04354558
#
# Stress axis : x y z
#
# Youngs Moduli (GPa) = 49.29152 41.98190 39.96843
#
# Poissons Ratio (x) = 0.24450 -0.24741
# Poissons Ratio (y) = 0.28707 0.52586
# Poissons Ratio (z) = -0.30512 0.55235
#
# Static dielectric constant tensor:
#      x y z
#    x 2.067660 -0.056070 0.070850 
#    y -0.056070 1.940410 -0.009580 
#    z 0.070850 -0.009580 1.855040 
# 
# From -- ./inp_files/416712.got.cif
#   From: 2010.05.17/outbox.cif.g08.bks.cpg/sg2_209_cif.got.tgz:416712.got - 2010.06.03 11:33:40.
