data_PCOD9013032
_publ_section_title
;
Structure prediction by ZEFSAII (Michael W. Deem and Ramdas Pophale) SiO2 
 PCOD9013032
Probable space group: P -1
;
_chemical_formula_sum "Si O2"
_cell_formula_units_Z 14
_cell_length_a 18.422991
_cell_length_b 5.257133
_cell_length_c 19.123363
_cell_angle_alpha 119.758148
_cell_angle_beta 158.990447
_cell_angle_gamma 67.280092
_cell_volume 558.492826
_symmetry_space_group_name_H-M "P -1"
_symmetry_group_IT_number 2
_symmetry_cell_setting 'triclinic'
loop_
_space_group_symop_operation_xyz
x,y,z
-x,-y,-z
loop_
_atom_site_type_symbol
_atom_site_label
_atom_site_fract_x
_atom_site_fract_y
_atom_site_fract_z
Si Si1 0.624755 0.569746 0.006608
Si Si2 0.984874 0.339176 0.057026
Si Si3 0.231364 0.461898 0.432856
Si Si4 0.360142 0.672557 0.350847
Si Si5 0.614293 0.904292 0.377750
Si Si6 0.927923 0.093983 0.569814
Si Si7 0.231931 0.482754 0.722940
O O1 0.824323 0.836814 0.203944
O O2 0.698337 0.429516 0.124015
O O3 0.563202 0.332096 0.856021
O O4 0.410412 0.640623 0.850545
O O5 0.050052 0.359236 0.199370
O O6 0.157494 0.601808 0.209549
O O7 0.767273 0.408681 0.848520
O O8 0.000000 0.000000 0.000000
O O9 0.343746 0.213147 0.525547
O O10 0.139686 0.595241 0.436805
O O11 0.400367 0.751398 0.592550
O O12 0.500000 0.500000 0.500000
O O13 0.500000 0.000000 0.500000
O O14 0.828496 0.932507 0.529469
O O15 0.801228 0.881941 0.366750
O O16 0.000000 0.500000 0.500000
#
# Coordination Sequence:
#
# PCOD9013032 Si02
#       7
#     2   2   2   2   2   2   2
#     4  10  21  41  63 100 123 184 225 274 348 403
#     4  11  25  45  78 103 147 188 237 296 361 416
#     4  10  24  46  67  96 145 178 222 289 344 399
#     4  11  24  45  71 109 142 178 238 292 353 429
#     4   9  23  43  63  96 137 174 228 279 335 414
#     4   9  22  42  62  93 138 170 230 278 340 410
#     4  10  22  38  67  96 134 171 231 289 338 404
#
# _framework density 25.067468000000002
#
# number of rings (size 3 to 8) (size 9 to 14) (size 15 to 20)
#    0.857    1.143    1.429    0.429    8.000    1.714 
#    5.143    0.000    0.000    0.000    0.000    0.000 
#    0.000    0.000    0.000    0.000    0.000    0.000 
#
# Total GULP energy -78059.499216 kJ/mol
# GULP energy per Si atom -5575.678515 kJ/mol
# Density = 2.501041 g / cm^3
# Si number density = 25.067468 Si / 1000 Ang^3
#
#
#
# Elastic Constant Matrix: (Units=GPa)
#
#
# Indices 1 2 3 4 5 6 
#
# 1 62.3064 31.2910 42.8337 -2.3644 1.5719 7.1947
# 2 31.2910 149.0533 59.5298 -3.7988 -11.2124 31.9951
# 3 42.8337 59.5298 185.1948 2.6814 6.4297 11.4224
# 4 -2.3644 -3.7988 2.6814 45.0195 3.9081 -1.5479
# 5 1.5719 -11.2124 6.4297 3.9081 59.0677 1.6018
# 6 7.1947 31.9951 11.4224 -1.5479 1.6018 29.7279
#
#
#
# Elastic Compliance Matrix: (Units=1/GPa)
#
#
# Indices 1 2 3 4 5 6 
#
# 1 0.020070 -0.002631 -0.003758 0.001098 -0.000684 -0.000487
# 2 -0.002631 0.010484 -0.002244 0.000318 0.002552 -0.009905
# 3 -0.003758 -0.002244 0.006996 -0.000689 -0.001060 0.000657
# 4 0.001098 0.000318 -0.000689 0.022491 -0.001406 0.000903
# 5 -0.000684 0.002552 -0.001060 -0.001406 0.017728 -0.003202
# 6 -0.000487 -0.009905 0.000657 0.000903 -0.003202 0.044384
#
#
# Mechanical properties :
#
#
# Convention : Reuss Voigt Hill
#
# Bulk Modulus (GPa) = 49.29998 73.76263 61.53130
# Shear Modulus (GPa) = 34.20414 44.28967 39.24691
#
# Velocity S-wave (km/s) = 3.69790 4.20791 3.96112
# Velocity P-wave (km/s) = 6.15973 7.28685 6.74687
#
# Compressibility (1/GPa) = 0.02028398
#
# Stress axis : x y z
#
# Youngs Moduli (GPa) = 49.82542 95.38549 142.93038
#
# Poissons Ratio (x) = 0.25097 0.53718
# Poissons Ratio (y) = 0.13110 0.32068
# Poissons Ratio (z) = 0.18726 0.21401
#
# Static dielectric constant tensor:
#      x y z
#    x 2.049570 -0.091260 0.009130 
#    y -0.091260 2.094350 -0.012660 
#    z 0.009130 -0.012660 1.949220 
# 
# From -- ./inp_files/600813.got.cif
#   From: 2010.05.17/outbox.cif.g08.bks.cpg/sg2_301_cif.got.tgz:600813.got - 2010.06.03 11:33:40.
