data_PCOD9013655
_publ_section_title
;
Structure prediction by ZEFSAII (Michael W. Deem and Ramdas Pophale) SiO2 
 PCOD9013655
Probable space group: P -1
;
_chemical_formula_sum "Si O2"
_cell_formula_units_Z 16
_cell_length_a 7.454974
_cell_length_b 17.309371
_cell_length_c 19.447633
_cell_angle_alpha 26.599388
_cell_angle_beta 142.548997
_cell_angle_gamma 127.333424
_cell_volume 632.082214
_symmetry_space_group_name_H-M "P -1"
_symmetry_group_IT_number 2
_symmetry_cell_setting 'triclinic'
loop_
_space_group_symop_operation_xyz
x,y,z
-x,-y,-z
loop_
_atom_site_type_symbol
_atom_site_label
_atom_site_fract_x
_atom_site_fract_y
_atom_site_fract_z
Si Si1 0.812332 0.044048 0.478896
Si Si2 0.720406 0.871386 0.273926
Si Si3 0.403776 0.723716 0.969223
Si Si4 0.440976 0.806518 0.527871
Si Si5 0.754135 0.495495 0.782152
Si Si6 0.399388 0.417226 0.115787
Si Si7 0.765089 0.985412 0.880357
Si Si8 0.309088 0.806450 0.087296
O O1 0.499402 0.995022 0.409268
O O2 0.697846 0.252899 0.304302
O O3 0.000000 0.000000 0.500000
O O4 0.065251 0.899250 0.722420
O O5 0.578928 0.768232 0.257851
O O6 0.098535 0.803200 0.442057
O O7 0.567534 0.870664 0.302456
O O8 0.610909 0.081534 0.040661
O O9 0.394034 0.597461 0.130535
O O10 0.442152 0.600616 0.010127
O O11 0.681595 0.801047 0.998317
O O12 0.562098 0.714937 0.563462
O O13 0.668644 0.674166 0.761737
O O14 0.729022 0.382207 0.797878
O O15 0.111249 0.457455 0.943870
O O16 0.980299 0.956764 0.900021
O O17 0.000000 0.000000 0.000000
#
# Coordination Sequence:
#
# PCOD9013655 Si02
#       8
#     2   2   2   2   2   2   2   2
#     4  12  26  38  60  98 133 174 218 271 331 399
#     4  10  21  41  65  92 127 171 223 273 326 392
#     4  11  22  42  63  93 131 173 219 268 332 393
#     4  11  22  42  64  90 132 174 223 271 328 398
#     4  11  21  41  66  93 130 174 220 275 331 390
#     4  11  23  41  65  91 132 177 218 269 331 395
#     4  10  22  40  66  93 126 169 220 274 326 391
#     4  10  22  38  66  95 124 173 219 273 334 385
#
# _framework density 25.313164
#
# number of rings (size 3 to 8) (size 9 to 14) (size 15 to 20)
#    0.000    1.250    3.750    2.625    3.500    2.000 
#    0.000    0.000    0.000    9.750    0.000    0.000 
#    0.000    0.000    0.000    0.000    0.000    0.000 
#
# Total GULP energy -89461.340135 kJ/mol
# GULP energy per Si atom -5591.333758 kJ/mol
# Density = 2.525555 g / cm^3
# Si number density = 25.313164 Si / 1000 Ang^3
#
#
#
# Elastic Constant Matrix: (Units=GPa)
#
#
# Indices 1 2 3 4 5 6 
#
# 1 116.1051 26.6201 14.3158 6.2677 21.3085 -14.4079
# 2 26.6201 230.1940 59.4141 -5.4668 21.2534 -5.2069
# 3 14.3158 59.4141 95.2606 -2.2120 40.2931 -0.0546
# 4 6.2677 -5.4668 -2.2120 38.1807 -2.8095 16.2719
# 5 21.3085 21.2534 40.2931 -2.8095 34.8409 -6.1802
# 6 -14.4079 -5.2069 -0.0546 16.2719 -6.1802 37.3177
#
#
#
# Elastic Compliance Matrix: (Units=1/GPa)
#
#
# Indices 1 2 3 4 5 6 
#
# 1 0.010919 -0.001141 0.002562 -0.004377 -0.008489 0.004563
# 2 -0.001141 0.005355 -0.004145 0.000728 0.002350 0.000372
# 3 0.002562 -0.004145 0.024687 0.000173 -0.028342 -0.004322
# 4 -0.004377 0.000728 0.000173 0.034030 0.001920 -0.016108
# 5 -0.008489 0.002350 -0.028342 0.001920 0.066671 0.007213
# 6 0.004563 0.000372 -0.004322 -0.016108 0.007213 0.036823
#
#
# Mechanical properties :
#
#
# Convention : Reuss Voigt Hill
#
# Bulk Modulus (GPa) = 28.15848 71.36219 49.76034
# Shear Modulus (GPa) = 25.54007 44.81515 35.17761
#
# Velocity S-wave (km/s) = 3.17987 4.21221 3.73191
# Velocity P-wave (km/s) = 4.96289 7.20485 6.18628
#
# Compressibility (1/GPa) = 0.03551327
#
# Stress axis : x y z
#
# Youngs Moduli (GPa) = 91.58391 186.75067 40.50675
#
# Poissons Ratio (x) = 0.21308 -0.10379
# Poissons Ratio (y) = 0.10450 0.16791
# Poissons Ratio (z) = -0.23467 0.77410
#
# Static dielectric constant tensor:
#      x y z
#    x 2.047980 -0.047310 -0.032180 
#    y -0.047310 1.991660 -0.016070 
#    z -0.032180 -0.016070 2.062380 
# 
# From -- ./inp_files/308775.got.cif
#   From: 2010.05.17/outbox.cif.g08.bks.cpg/sg2_155_cif.got.tgz:308775.got - 2010.06.03 11:33:40.
