data_PCOD9013431
_publ_section_title
;
Structure prediction by ZEFSAII (Michael W. Deem and Ramdas Pophale) SiO2 
 PCOD9013431
Probable space group: P -1
;
_chemical_formula_sum "Si O2"
_cell_formula_units_Z 16
_cell_length_a 8.566537
_cell_length_b 19.109568
_cell_length_c 5.538346
_cell_angle_alpha 80.684036
_cell_angle_beta 58.342340
_cell_angle_gamma 55.019973
_cell_volume 619.634213
_symmetry_space_group_name_H-M "P -1"
_symmetry_group_IT_number 2
_symmetry_cell_setting 'triclinic'
loop_
_space_group_symop_operation_xyz
x,y,z
-x,-y,-z
loop_
_atom_site_type_symbol
_atom_site_label
_atom_site_fract_x
_atom_site_fract_y
_atom_site_fract_z
Si Si1 0.284710 0.263396 0.868560
Si Si2 0.137146 0.041741 0.374053
Si Si3 0.487667 0.569276 0.298103
Si Si4 0.006714 0.199450 0.670815
Si Si5 0.625709 0.910710 0.203498
Si Si6 0.917828 0.370537 0.701839
Si Si7 0.601773 0.290366 0.336771
Si Si8 0.782672 0.595521 0.787532
O O1 0.317205 0.173537 0.947828
O O2 0.053107 0.330736 0.865577
O O3 0.498333 0.239515 0.542173
O O4 0.289845 0.318799 0.046745
O O5 0.978927 0.140940 0.543969
O O6 0.359234 0.978663 0.391206
O O7 0.252388 0.048574 0.036308
O O8 0.000000 0.000000 0.500000
O O9 0.500000 0.500000 0.500000
O O10 0.376127 0.659508 0.487651
O O11 0.734141 0.541018 0.033046
O O12 0.342315 0.583370 0.170724
O O13 0.251790 0.133357 0.623313
O O14 0.006469 0.280386 0.539538
O O15 0.818972 0.236692 0.017315
O O16 0.982963 0.430591 0.495286
O O17 0.394762 0.367768 0.305000
#
# Coordination Sequence:
#
# PCOD9013431 Si02
#       8
#     2   2   2   2   2   2   2   2
#     4   9  21  41  67  94 126 166 218 269 305 381
#     4  11  26  42  62  94 129 171 208 261 328 374
#     4  11  25  43  65  95 134 167 208 264 320 384
#     4  11  23  42  67  93 125 166 217 268 309 382
#     4  10  24  43  63  92 129 167 213 263 321 372
#     4  10  22  40  68  94 119 171 217 258 319 375
#     4  10  23  40  68  99 121 170 217 260 323 375
#     4  10  21  41  64  95 130 162 215 262 313 381
#
# _framework density 25.821684000000001
#
# number of rings (size 3 to 8) (size 9 to 14) (size 15 to 20)
#    0.000    1.750    1.250    1.125    8.750    1.500 
#    4.500    5.625    0.000    0.000    0.000    0.000 
#    0.000    0.000    0.000    0.000    0.000    0.000 
#
# Total GULP energy -89474.875135 kJ/mol
# GULP energy per Si atom -5592.179696 kJ/mol
# Density = 2.576291 g / cm^3
# Si number density = 25.821684 Si / 1000 Ang^3
#
#
#
# Elastic Constant Matrix: (Units=GPa)
#
#
# Indices 1 2 3 4 5 6 
#
# 1 136.4302 40.8168 34.8773 -8.5210 -19.5005 9.5430
# 2 40.8168 123.5533 28.7166 -7.8586 -22.0512 13.8009
# 3 34.8773 28.7166 100.7892 2.9340 -35.9786 21.9196
# 4 -8.5210 -7.8586 2.9340 51.2048 14.3067 -12.0195
# 5 -19.5005 -22.0512 -35.9786 14.3067 38.7076 -17.2208
# 6 9.5430 13.8009 21.9196 -12.0195 -17.2208 39.7601
#
#
#
# Elastic Compliance Matrix: (Units=1/GPa)
#
#
# Indices 1 2 3 4 5 6 
#
# 1 0.008716 -0.002194 -0.002230 0.001131 0.000938 0.000647
# 2 -0.002194 0.009674 -0.000526 -0.000069 0.003472 -0.001059
# 3 -0.002230 -0.000526 0.017474 -0.006765 0.015413 -0.004285
# 4 0.001131 -0.000069 -0.006765 0.024894 -0.012463 0.005610
# 5 0.000938 0.003472 0.015413 -0.012463 0.050942 0.008368
# 6 0.000647 -0.001059 -0.004285 0.005610 0.008368 0.033046
#
#
# Mechanical properties :
#
#
# Convention : Reuss Voigt Hill
#
# Bulk Modulus (GPa) = 38.51245 63.28822 50.90034
# Shear Modulus (GPa) = 30.61894 43.02532 36.82213
#
# Velocity S-wave (km/s) = 3.44726 4.08640 3.78036
# Velocity P-wave (km/s) = 5.54905 6.84308 6.22976
#
# Compressibility (1/GPa) = 0.02596563
#
# Stress axis : x y z
#
# Youngs Moduli (GPa) = 114.73663 103.36853 57.22823
#
# Poissons Ratio (x) = 0.22678 0.12759
# Poissons Ratio (y) = 0.25172 0.03007
# Poissons Ratio (z) = 0.25581 0.05432
#
# Static dielectric constant tensor:
#      x y z
#    x 1.990240 0.027990 0.016750 
#    y 0.027990 2.066440 0.050090 
#    z 0.016750 0.050090 2.108790 
# 
# From -- ./inp_files/47357.got.cif
#   From: 2010.05.17/outbox.cif.g08.bks.cpg/sg2_24_cif.got.tgz:47357.got - 2010.06.03 11:33:40.
