data_PCOD9013654
_publ_section_title
;
Structure prediction by ZEFSAII (Michael W. Deem and Ramdas Pophale) SiO2 
 PCOD9013654
Probable space group: P -1
;
_chemical_formula_sum "Si O2"
_cell_formula_units_Z 16
_cell_length_a 12.040602
_cell_length_b 11.793788
_cell_length_c 11.909180
_cell_angle_alpha 44.482736
_cell_angle_beta 104.160752
_cell_angle_gamma 68.597602
_cell_volume 698.451685
_symmetry_space_group_name_H-M "P -1"
_symmetry_group_IT_number 2
_symmetry_cell_setting 'triclinic'
loop_
_space_group_symop_operation_xyz
x,y,z
-x,-y,-z
loop_
_atom_site_type_symbol
_atom_site_label
_atom_site_fract_x
_atom_site_fract_y
_atom_site_fract_z
Si Si1 0.820779 0.696254 0.581706
Si Si2 0.830879 0.000456 0.244257
Si Si3 0.274462 0.502080 0.689520
Si Si4 0.492587 0.546940 0.833001
Si Si5 0.214956 0.939318 0.063576
Si Si6 0.745058 0.802630 0.983395
Si Si7 0.233687 0.558203 0.373740
Si Si8 0.321321 0.089767 0.369468
O O1 0.752736 0.946473 0.343228
O O2 0.714584 0.656425 0.536744
O O3 0.819826 0.705277 0.709577
O O4 0.030901 0.455002 0.753975
O O5 0.053278 0.778042 0.470291
O O6 0.710947 0.296692 0.025914
O O7 0.794716 0.986506 0.117925
O O8 0.390950 0.519500 0.756618
O O9 0.282127 0.481082 0.571423
O O10 0.336322 0.264285 0.929747
O O11 0.385066 0.832998 0.580463
O O12 0.500000 0.500000 0.000000
O O13 0.297261 0.666407 0.277954
O O14 0.320275 0.952821 0.155702
O O15 0.996320 0.173415 0.883272
O O16 0.733868 0.813931 0.839329
O O17 0.500000 0.000000 0.500000
#
# Coordination Sequence:
#
# PCOD9013654 Si02
#       8
#     2   2   2   2   2   2   2   2
#     4  10  21  41  65  92 127 169 211 258 316 378
#     4  10  22  42  67  98 124 169 210 259 324 370
#     4  10  22  43  69  96 127 167 209 263 319 375
#     4  12  25  45  64  93 132 165 216 264 309 382
#     4   9  18  36  64  97 127 158 208 265 313 375
#     4  10  21  41  66  93 126 166 213 258 316 380
#     4   9  18  36  65  96 126 162 208 261 316 374
#     4  12  26  43  59  91 133 168 210 263 315 372
#
# _framework density 22.907812
#
# number of rings (size 3 to 8) (size 9 to 14) (size 15 to 20)
#    0.000    1.750    1.250    2.625    1.750    4.500 
#    4.500    2.500    0.000    0.000    0.000    0.000 
#    0.000    0.000    0.000    0.000    0.000    0.000 
#
# Total GULP energy -89459.581492 kJ/mol
# GULP energy per Si atom -5591.223843 kJ/mol
# Density = 2.285567 g / cm^3
# Si number density = 22.907812 Si / 1000 Ang^3
#
#
#
# Elastic Constant Matrix: (Units=GPa)
#
#
# Indices 1 2 3 4 5 6 
#
# 1 79.0174 17.0930 31.1209 4.4476 -15.9666 24.0651
# 2 17.0930 56.6678 23.9297 -7.6404 -6.6409 20.6022
# 3 31.1209 23.9297 79.9759 1.9820 -13.9642 15.6707
# 4 4.4476 -7.6404 1.9820 31.9623 -6.1049 -0.2563
# 5 -15.9666 -6.6409 -13.9642 -6.1049 39.9612 -5.2154
# 6 24.0651 20.6022 15.6707 -0.2563 -5.2154 36.2487
#
#
#
# Elastic Compliance Matrix: (Units=1/GPa)
#
#
# Indices 1 2 3 4 5 6 
#
# 1 0.018284 0.000216 -0.004493 -0.001475 0.004278 -0.009714
# 2 0.000216 0.025189 -0.005109 0.006582 0.001936 -0.011926
# 3 -0.004493 -0.005109 0.016466 -0.001082 0.002836 -0.000831
# 4 -0.001475 0.006582 -0.001082 0.034109 0.005166 -0.001310
# 5 0.004278 0.001936 0.002836 0.005166 0.028705 -0.001000
# 6 -0.009714 -0.011926 -0.000831 -0.001310 -0.001000 0.041021
#
#
# Mechanical properties :
#
#
# Convention : Reuss Voigt Hill
#
# Bulk Modulus (GPa) = 24.29087 39.99428 32.14257
# Shear Modulus (GPa) = 25.47538 31.20227 28.33883
#
# Velocity S-wave (km/s) = 3.33841 3.69464 3.52103
# Velocity P-wave (km/s) = 5.04844 5.97471 5.53100
#
# Compressibility (1/GPa) = 0.04116774
#
# Stress axis : x y z
#
# Youngs Moduli (GPa) = 54.69249 39.69933 60.73268
#
# Poissons Ratio (x) = -0.00859 0.27285
# Poissons Ratio (y) = -0.01183 0.31030
# Poissons Ratio (z) = 0.24571 0.20284
#
# Static dielectric constant tensor:
#      x y z
#    x 1.870410 -0.019140 0.031020 
#    y -0.019140 1.848030 -0.054480 
#    z 0.031020 -0.054480 2.104670 
# 
# From -- ./inp_files/207738.got.cif
#   From: 2010.05.17/outbox.cif.g08.bks.cpg/sg2_104_cif.got.tgz:207738.got - 2010.06.03 11:33:40.
