data_PCOD9013168
_publ_section_title
;
Structure prediction by ZEFSAII (Michael W. Deem and Ramdas Pophale) SiO2 
 PCOD9013168
Probable space group: P -1
;
_chemical_formula_sum "Si O2"
_cell_formula_units_Z 11
_cell_length_a 8.592210
_cell_length_b 10.160219
_cell_length_c 10.848102
_cell_angle_alpha 42.425884
_cell_angle_beta 46.650001
_cell_angle_gamma 74.519218
_cell_volume 405.308031
_symmetry_space_group_name_H-M "P -1"
_symmetry_group_IT_number 2
_symmetry_cell_setting 'triclinic'
loop_
_space_group_symop_operation_xyz
x,y,z
-x,-y,-z
loop_
_atom_site_type_symbol
_atom_site_label
_atom_site_fract_x
_atom_site_fract_y
_atom_site_fract_z
Si Si1 0.115222 0.278453 0.009317
Si Si2 0.766139 0.095099 0.727435
Si Si3 0.386348 0.695311 0.734206
Si Si4 0.000000 0.500000 0.500000
Si Si5 0.539046 0.092299 0.209896
Si Si6 0.082740 0.257775 0.769639
O O1 0.853384 0.267680 0.157409
O O2 0.108990 0.047183 0.196441
O O3 0.279595 0.453725 0.901326
O O4 0.202176 0.351499 0.770970
O O5 0.913029 0.345356 0.521418
O O6 0.688821 0.032258 0.670795
O O7 0.500000 0.000000 0.000000
O O8 0.484604 0.754176 0.778809
O O9 0.554439 0.891387 0.412158
O O10 0.206845 0.411590 0.480576
O O11 0.808573 0.241738 0.893788
O O12 0.000000 0.000000 0.000000
#
# Coordination Sequence:
#
# PCOD9013168 Si02
#       6
#     2   2   2   1   2   2
#     4  10  21  41  66  93 133 172 224 269 333 391
#     4  12  24  42  64 101 133 170 219 277 329 396
#     4   9  21  41  66  92 123 188 215 271 330 382
#     4  12  24  40  66  96 134 172 214 264 342 380
#     4  10  21  41  63  93 136 162 233 268 319 407
#     4  11  21  41  65  94 134 177 213 277 329 390
#
# _framework density 27.139854
#
# number of rings (size 3 to 8) (size 9 to 14) (size 15 to 20)
#    0.000    1.455    3.636    1.091    0.000    2.909 
#    3.273    3.636    0.000    0.000    0.000    0.000 
#    0.000    0.000    0.000    0.000    0.000    0.000 
#
# Total GULP energy -61373.798855 kJ/mol
# GULP energy per Si atom -5579.436260 kJ/mol
# Density = 2.707808 g / cm^3
# Si number density = 27.139854 Si / 1000 Ang^3
#
#
#
# Elastic Constant Matrix: (Units=GPa)
#
#
# Indices 1 2 3 4 5 6 
#
# 1 140.3955 64.6404 40.5284 -19.7253 2.6160 47.2270
# 2 64.6404 95.4043 41.8853 -34.6468 -13.4252 47.1776
# 3 40.5284 41.8853 89.9465 -34.5617 -10.9597 3.1334
# 4 -19.7253 -34.6468 -34.5617 64.7959 -3.7120 -16.1420
# 5 2.6160 -13.4252 -10.9597 -3.7120 56.1923 -2.3634
# 6 47.2270 47.1776 3.1334 -16.1420 -2.3634 69.5955
#
#
#
# Elastic Compliance Matrix: (Units=1/GPa)
#
#
# Indices 1 2 3 4 5 6 
#
# 1 0.012241 -0.005203 -0.004404 -0.002917 -0.003090 -0.005363
# 2 -0.005203 0.025531 -0.006174 0.006096 0.005040 -0.011914
# 3 -0.004404 -0.006174 0.019082 0.007776 0.003312 0.008230
# 4 -0.002917 0.006096 0.007776 0.022968 0.004752 0.002986
# 5 -0.003090 0.005040 0.003312 0.004752 0.020117 0.000317
# 6 -0.005363 -0.011914 0.008230 0.002986 0.000317 0.026417
#
#
# Mechanical properties :
#
#
# Convention : Reuss Voigt Hill
#
# Bulk Modulus (GPa) = 39.53443 68.87272 54.20358
# Shear Modulus (GPa) = 30.05741 50.02953 40.04347
#
# Velocity S-wave (km/s) = 3.33152 4.29814 3.84532
# Velocity P-wave (km/s) = 5.42193 7.07560 6.30323
#
# Compressibility (1/GPa) = 0.02529441
#
# Stress axis : x y z
#
# Youngs Moduli (GPa) = 81.69141 39.16734 52.40640
#
# Poissons Ratio (x) = 0.20378 0.23078
# Poissons Ratio (y) = 0.42502 0.32353
# Poissons Ratio (z) = 0.35974 0.24180
#
# Static dielectric constant tensor:
#      x y z
#    x 2.416350 -0.155420 0.641420 
#    y -0.155420 2.368940 -0.124140 
#    z 0.641420 -0.124140 3.757040 
# 
# From -- ./inp_files/64012.got.cif
#   From: 2010.05.17/outbox.cif.g08.bks.cpg/sg2_33_cif.got.tgz:64012.got - 2010.06.03 11:33:40.
