data_PCOD9013417
_publ_section_title
;
Structure prediction by ZEFSAII (Michael W. Deem and Ramdas Pophale) SiO2 
 PCOD9013417
Probable space group: P -1
;
_chemical_formula_sum "Si O2"
_cell_formula_units_Z 14
_cell_length_a 16.840139
_cell_length_b 13.702116
_cell_length_c 13.881883
_cell_angle_alpha 34.764901
_cell_angle_beta 23.619796
_cell_angle_gamma 25.440879
_cell_volume 551.002913
_symmetry_space_group_name_H-M "P -1"
_symmetry_group_IT_number 2
_symmetry_cell_setting 'triclinic'
loop_
_space_group_symop_operation_xyz
x,y,z
-x,-y,-z
loop_
_atom_site_type_symbol
_atom_site_label
_atom_site_fract_x
_atom_site_fract_y
_atom_site_fract_z
Si Si1 0.310503 0.017937 0.824992
Si Si2 0.824030 0.721275 0.739372
Si Si3 0.061073 0.681604 0.695483
Si Si4 0.837486 0.207577 0.088839
Si Si5 0.705304 0.139569 0.834661
Si Si6 0.393259 0.426215 0.255925
Si Si7 0.522809 0.178386 0.608840
O O1 0.251009 0.905981 0.063125
O O2 0.056197 0.210623 0.887577
O O3 0.424234 0.106504 0.691123
O O4 0.516704 0.810190 0.692582
O O5 0.909800 0.652173 0.809707
O O6 0.084528 0.592130 0.488746
O O7 0.661653 0.991495 0.689214
O O8 0.606013 0.708901 0.959785
O O9 0.864104 0.885970 0.820788
O O10 0.286818 0.438175 0.689540
O O11 0.186342 0.762168 0.425448
O O12 0.563989 0.386008 0.191466
O O13 0.744222 0.161833 0.323845
O O14 0.000000 0.000000 0.000000
O O15 0.500000 0.500000 0.000000
#
# Coordination Sequence:
#
# PCOD9013417 Si02
#       7
#     2   2   2   2   2   2   2
#     4  10  24  43  67 101 134 174 232 268 341 398
#     4  11  23  44  67 101 139 175 225 277 341 398
#     4  11  23  47  68 100 137 177 231 276 342 389
#     4  10  21  41  64  94 134 174 218 271 329 399
#     4  10  24  44  73  98 134 181 224 284 334 405
#     4  11  22  42  71  97 142 180 215 285 335 401
#     4  11  24  42  67 102 132 177 222 283 329 405
#
# _framework density 25.408211999999999
#
# number of rings (size 3 to 8) (size 9 to 14) (size 15 to 20)
#    0.000    1.429    1.429    3.857    0.000    8.000 
#    5.143    6.429    0.000    0.000    0.000    0.000 
#    0.000    0.000    0.000    0.000    0.000    0.000 
#
# Total GULP energy -78360.213116 kJ/mol
# GULP energy per Si atom -5597.158080 kJ/mol
# Density = 2.535038 g / cm^3
# Si number density = 25.408212 Si / 1000 Ang^3
#
#
#
# Elastic Constant Matrix: (Units=GPa)
#
#
# Indices 1 2 3 4 5 6 
#
# 1 71.4861 29.4618 38.5527 29.2178 -1.5187 5.4461
# 2 29.4618 137.7600 44.9204 38.7847 2.6481 4.8273
# 3 38.5527 44.9204 136.3468 31.0310 -9.5987 -2.3604
# 4 29.2178 38.7847 31.0310 51.0724 0.6488 3.8411
# 5 -1.5187 2.6481 -9.5987 0.6488 38.6756 6.6336
# 6 5.4461 4.8273 -2.3604 3.8411 6.6336 52.0860
#
#
#
# Elastic Compliance Matrix: (Units=1/GPa)
#
#
# Indices 1 2 3 4 5 6 
#
# 1 0.019744 -0.000634 -0.003410 -0.008629 0.000387 -0.001573
# 2 -0.000634 0.009643 -0.001736 -0.005867 -0.000957 -0.000352
# 3 -0.003410 -0.001736 0.009659 -0.002693 0.002279 0.000864
# 4 -0.008629 -0.005867 -0.002693 0.030682 -0.000981 -0.000814
# 5 0.000387 -0.000957 0.002279 -0.000981 0.027072 -0.003224
# 6 -0.001573 -0.000352 0.000864 -0.000814 -0.003224 0.019906
#
#
# Mechanical properties :
#
#
# Convention : Reuss Voigt Hill
#
# Bulk Modulus (GPa) = 36.38181 63.49585 49.93883
# Shear Modulus (GPa) = 36.38304 43.87736 40.13020
#
# Velocity S-wave (km/s) = 3.78820 4.16010 3.97850
# Velocity P-wave (km/s) = 5.78653 6.93684 6.38764
#
# Compressibility (1/GPa) = 0.02748626
#
# Stress axis : x y z
#
# Youngs Moduli (GPa) = 50.64911 103.70064 103.53306
#
# Poissons Ratio (x) = 0.06570 0.35306
# Poissons Ratio (y) = 0.03209 0.17974
# Poissons Ratio (z) = 0.17272 0.18003
#
# Static dielectric constant tensor:
#      x y z
#    x 1.942560 0.029210 -0.013610 
#    y 0.029210 2.112350 -0.061140 
#    z -0.013610 -0.061140 1.987120 
# 
# From -- ./inp_files/578317.got.cif
#   From: 2010.05.17/outbox.cif.g08.bks.cpg/sg2_290_cif.got.tgz:578317.got - 2010.06.03 11:33:40.
