data_PCOD9013025
_publ_section_title
;
Structure prediction by ZEFSAII (Michael W. Deem and Ramdas Pophale) SiO2 
 PCOD9013025
Probable space group: P -1
;
_chemical_formula_sum "Si O2"
_cell_formula_units_Z 16
_cell_length_a 11.102561
_cell_length_b 7.277836
_cell_length_c 13.385601
_cell_angle_alpha 112.069575
_cell_angle_beta 116.695149
_cell_angle_gamma 114.839106
_cell_volume 629.495106
_symmetry_space_group_name_H-M "P -1"
_symmetry_group_IT_number 2
_symmetry_cell_setting 'triclinic'
loop_
_space_group_symop_operation_xyz
x,y,z
-x,-y,-z
loop_
_atom_site_type_symbol
_atom_site_label
_atom_site_fract_x
_atom_site_fract_y
_atom_site_fract_z
Si Si1 0.702399 0.281331 0.260441
Si Si2 0.202341 0.193559 0.331774
Si Si3 0.235400 0.271462 0.143408
Si Si4 0.560455 0.242487 0.810063
Si Si5 0.858408 0.126494 0.135215
Si Si6 0.355273 0.392328 0.832826
Si Si7 0.951903 0.552725 0.097737
Si Si8 0.051308 0.155990 0.447293
O O1 0.747716 0.134324 0.181025
O O2 0.645221 0.399308 0.185155
O O3 0.891344 0.563883 0.442801
O O4 0.551868 0.063117 0.247253
O O5 0.312336 0.301410 0.288838
O O6 0.236400 0.276416 0.477841
O O7 0.051383 0.214318 0.257403
O O8 0.110900 0.882026 0.239685
O O9 0.321026 0.577036 0.209937
O O10 0.270026 0.157238 0.039364
O O11 0.000000 0.000000 0.000000
O O12 0.405832 0.256213 0.754296
O O13 0.500000 0.500000 0.000000
O O14 0.933601 0.373645 0.139292
O O15 0.255623 0.558981 0.007605
O O16 0.142060 0.117724 0.735609
O O17 0.000000 0.500000 0.000000
O O18 0.000000 0.000000 0.500000
#
# Coordination Sequence:
#
# PCOD9013025 Si02
#       8
#     2   2   2   2   2   2   2   2
#     4  11  27  43  67 106 150 197 230 290 362 443
#     4  11  21  42  68  95 137 183 239 295 354 410
#     4  10  21  41  62  97 137 185 233 304 361 406
#     4  12  25  39  64 101 146 179 243 298 363 421
#     4  11  22  38  64 102 143 179 237 288 369 418
#     4  11  25  43  71 106 145 181 239 304 354 415
#     4  12  22  38  67 103 141 180 234 302 361 420
#     4  10  23  48  72 100 146 196 235 278 364 443
#
# _framework density 25.417197000000002
#
# number of rings (size 3 to 8) (size 9 to 14) (size 15 to 20)
#    0.000    1.000    3.750    4.500    3.500    3.000 
#    0.000    0.625    0.000    8.250    0.000    0.000 
#    0.000    0.000    0.000    0.000    0.000    0.000 
#
# Total GULP energy -89118.645192 kJ/mol
# GULP energy per Si atom -5569.915324 kJ/mol
# Density = 2.535935 g / cm^3
# Si number density = 25.417197 Si / 1000 Ang^3
#
#
#
# Elastic Constant Matrix: (Units=GPa)
#
#
# Indices 1 2 3 4 5 6 
#
# 1 96.9793 19.9356 25.0117 4.6263 -12.2148 -3.4489
# 2 19.9356 217.1178 39.2426 18.9978 0.9443 -8.7894
# 3 25.0117 39.2426 87.3057 5.7271 -20.1910 10.8616
# 4 4.6263 18.9978 5.7271 31.1968 7.3154 -0.6649
# 5 -12.2148 0.9443 -20.1910 7.3154 30.4673 2.7725
# 6 -3.4489 -8.7894 10.8616 -0.6649 2.7725 46.7925
#
#
#
# Elastic Compliance Matrix: (Units=1/GPa)
#
#
# Indices 1 2 3 4 5 6 
#
# 1 0.011563 -0.000455 -0.002329 -0.001793 0.003439 0.001078
# 2 -0.000455 0.005427 -0.002793 -0.002263 -0.001814 0.001710
# 3 -0.002329 -0.002793 0.017070 -0.003998 0.011918 -0.005422
# 4 -0.001793 -0.002263 -0.003998 0.037381 -0.012423 0.001638
# 5 0.003439 -0.001814 0.011918 -0.012423 0.045660 -0.005736
# 6 0.001078 0.001710 -0.005422 0.001638 -0.005736 0.023393
#
#
# Mechanical properties :
#
#
# Convention : Reuss Voigt Hill
#
# Bulk Modulus (GPa) = 43.65760 63.30918 53.48339
# Shear Modulus (GPa) = 31.39066 42.83884 37.11475
#
# Velocity S-wave (km/s) = 3.51809 4.10985 3.82543
# Velocity P-wave (km/s) = 5.80658 6.89081 6.37180
#
# Compressibility (1/GPa) = 0.02290552
#
# Stress axis : x y z
#
# Youngs Moduli (GPa) = 86.48454 184.24690 58.58340
#
# Poissons Ratio (x) = 0.08385 0.13646
# Poissons Ratio (y) = 0.03936 0.16362
# Poissons Ratio (z) = 0.20145 0.51458
#
# Static dielectric constant tensor:
#      x y z
#    x 2.119800 0.079710 0.002000 
#    y 0.079710 2.131060 -0.135990 
#    z 0.002000 -0.135990 2.184090 
# 
# From -- ./inp_files/514615.got.cif
#   From: 2010.05.17/outbox.cif.g08.bks.cpg/sg2_258_cif.got.tgz:514615.got - 2010.06.03 11:33:40.
