data_PCOD9013009
_publ_section_title
;
Structure prediction by ZEFSAII (Michael W. Deem and Ramdas Pophale) SiO2 
 PCOD9013009
Probable space group: P -1
;
_chemical_formula_sum "Si O2"
_cell_formula_units_Z 14
_cell_length_a 10.420774
_cell_length_b 7.770223
_cell_length_c 11.104338
_cell_angle_alpha 75.007388
_cell_angle_beta 100.143185
_cell_angle_gamma 137.915499
_cell_volume 581.936194
_symmetry_space_group_name_H-M "P -1"
_symmetry_group_IT_number 2
_symmetry_cell_setting 'triclinic'
loop_
_space_group_symop_operation_xyz
x,y,z
-x,-y,-z
loop_
_atom_site_type_symbol
_atom_site_label
_atom_site_fract_x
_atom_site_fract_y
_atom_site_fract_z
Si Si1 0.398227 0.565746 0.526888
Si Si2 0.501806 0.910806 0.272266
Si Si3 0.838917 0.477307 0.155037
Si Si4 0.539075 0.253099 0.947370
Si Si5 0.351437 0.138293 0.277437
Si Si6 0.166090 0.020532 0.035445
Si Si7 0.021144 0.320946 0.586066
O O1 0.500000 0.500000 0.500000
O O2 0.486151 0.816304 0.419741
O O3 0.457537 0.624226 0.665406
O O4 0.170676 0.362185 0.522890
O O5 0.408896 0.689153 0.196278
O O6 0.719304 0.177260 0.219512
O O7 0.387330 0.981390 0.251613
O O8 0.899109 0.597971 0.277840
O O9 0.042656 0.711219 0.079696
O O10 0.689032 0.431286 0.049737
O O11 0.500000 0.000000 0.000000
O O12 0.342562 0.165043 0.949358
O O13 0.274184 0.176601 0.149435
O O14 0.188910 0.968409 0.382604
O O15 0.000000 0.000000 0.000000
O O16 0.000000 0.500000 0.500000
#
# Coordination Sequence:
#
# PCOD9013009 Si02
#       7
#     2   2   2   2   2   2   2
#     4  12  26  43  66 100 132 166 214 279 330 366
#     4  11  21  42  69  93 126 177 220 256 311 402
#     4  10  22  40  67  95 126 174 216 259 319 385
#     4  10  21  41  62  95 132 166 220 265 311 389
#     4  11  22  44  67  93 131 173 222 253 324 406
#     4  11  24  41  66  99 132 167 213 271 329 376
#     4  11  21  39  71  94 126 173 220 259 321 391
#
# _framework density 24.057621999999999
#
# number of rings (size 3 to 8) (size 9 to 14) (size 15 to 20)
#    0.000    1.143    5.714    1.286    0.000    6.857 
#    0.000    2.857    0.000    0.000    0.000    0.000 
#    0.000    0.000    0.000    0.000    0.000    0.000 
#
# Total GULP energy -78065.244101 kJ/mol
# GULP energy per Si atom -5576.088864 kJ/mol
# Density = 2.400287 g / cm^3
# Si number density = 24.057622 Si / 1000 Ang^3
#
#
#
# Elastic Constant Matrix: (Units=GPa)
#
#
# Indices 1 2 3 4 5 6 
#
# 1 141.7333 13.9067 31.4504 15.1140 -4.1063 20.6475
# 2 13.9067 57.6467 3.9970 5.6264 -4.1921 21.8377
# 3 31.4504 3.9970 97.2240 17.6017 10.3011 7.2358
# 4 15.1140 5.6264 17.6017 32.4876 7.5293 3.0033
# 5 -4.1063 -4.1921 10.3011 7.5293 36.0070 -3.3625
# 6 20.6475 21.8377 7.2358 3.0033 -3.3625 30.1292
#
#
#
# Elastic Compliance Matrix: (Units=1/GPa)
#
#
# Indices 1 2 3 4 5 6 
#
# 1 0.008590 0.000466 -0.002072 -0.002872 0.001737 -0.005247
# 2 0.000466 0.024312 0.000606 -0.003556 0.001817 -0.017529
# 3 -0.002072 0.000606 0.012260 -0.004970 -0.002800 -0.001781
# 4 -0.002872 -0.003556 -0.004970 0.036910 -0.006918 0.001288
# 5 0.001737 0.001817 -0.002800 -0.006918 0.030642 0.002274
# 6 -0.005247 -0.017529 -0.001781 0.001288 0.002274 0.050044
#
#
# Mechanical properties :
#
#
# Convention : Reuss Voigt Hill
#
# Bulk Modulus (GPa) = 23.16864 43.92358 33.54611
# Shear Modulus (GPa) = 27.91016 36.20809 32.05912
#
# Velocity S-wave (km/s) = 3.40977 3.88371 3.65444
# Velocity P-wave (km/s) = 5.01532 6.19744 5.63745
#
# Compressibility (1/GPa) = 0.04316178
#
# Stress axis : x y z
#
# Youngs Moduli (GPa) = 116.40800 41.13157 81.56796
#
# Poissons Ratio (x) = -0.01915 0.16897
# Poissons Ratio (y) = -0.05419 -0.04941
# Poissons Ratio (z) = 0.24115 -0.02491
#
# Static dielectric constant tensor:
#      x y z
#    x 1.951170 -0.050530 0.044780 
#    y -0.050530 2.191650 -0.186350 
#    z 0.044780 -0.186350 2.152720 
# 
# From -- ./inp_files/176947.got.cif
#   From: 2010.05.17/outbox.cif.g08.bks.cpg/sg2_89_cif.got.tgz:176947.got - 2010.06.03 11:33:40.
