data_PCOD9013329
_publ_section_title
;
Structure prediction by ZEFSAII (Michael W. Deem and Ramdas Pophale) SiO2 
 PCOD9013329
Probable space group: P -1
;
_chemical_formula_sum "Si O2"
_cell_formula_units_Z 16
_cell_length_a 17.366529
_cell_length_b 9.368164
_cell_length_c 14.842602
_cell_angle_alpha 41.429603
_cell_angle_beta 148.941246
_cell_angle_gamma 138.303597
_cell_volume 784.868379
_symmetry_space_group_name_H-M "P -1"
_symmetry_group_IT_number 2
_symmetry_cell_setting 'triclinic'
loop_
_space_group_symop_operation_xyz
x,y,z
-x,-y,-z
loop_
_atom_site_type_symbol
_atom_site_label
_atom_site_fract_x
_atom_site_fract_y
_atom_site_fract_z
Si Si1 0.433077 0.536202 0.320435
Si Si2 0.238004 0.683608 0.824244
Si Si3 0.347026 0.180139 0.744755
Si Si4 0.787742 0.167184 0.006808
Si Si5 0.036289 0.307416 0.346631
Si Si6 0.899756 0.200841 0.900693
Si Si7 0.508938 0.710461 0.972575
Si Si8 0.769042 0.772759 0.861857
O O1 0.500000 0.500000 0.500000
O O2 0.558556 0.712968 0.300278
O O3 0.372715 0.304302 0.313544
O O4 0.286152 0.631132 0.142832
O O5 0.060050 0.680200 0.664365
O O6 0.332143 0.914360 0.861757
O O7 0.330715 0.715794 0.807852
O O8 0.243044 0.449767 0.984549
O O9 0.174066 0.201887 0.551558
O O10 0.429830 0.310908 0.854409
O O11 0.913840 0.178855 0.206807
O O12 0.639277 0.939188 0.962756
O O13 0.871468 0.198869 0.979411
O O14 0.106393 0.563156 0.258735
O O15 0.778514 0.985726 0.832756
O O16 0.069745 0.178524 0.055991
O O17 0.500000 0.500000 0.000000
#
# Coordination Sequence:
#
# PCOD9013329 Si02
#       8
#     2   2   2   2   2   2   2   2
#     4  12  24  40  65  96 127 170 218 264 315 384
#     4  11  20  43  68  90 124 167 213 261 320 379
#     4  12  23  42  65  97 129 165 219 267 315 380
#     4  12  22  41  64  93 125 170 220 259 315 387
#     4  11  23  39  69  92 127 172 218 264 320 376
#     4  10  22  39  64  91 129 168 213 261 320 383
#     4  12  24  41  67  96 130 169 210 263 328 386
#     4  10  21  41  64  91 124 171 209 263 328 371
#
# _framework density 20.385581999999999
#
# number of rings (size 3 to 8) (size 9 to 14) (size 15 to 20)
#    0.000    0.750    6.250    2.625    1.750    0.000 
#    2.250    1.875    2.750    0.000    0.000    0.000 
#    0.000    0.000    0.000    0.000    0.000    0.000 
#
# Total GULP energy -89355.338709 kJ/mol
# GULP energy per Si atom -5584.708669 kJ/mol
# Density = 2.033918 g / cm^3
# Si number density = 20.385582 Si / 1000 Ang^3
#
#
#
# Elastic Constant Matrix: (Units=GPa)
#
#
# Indices 1 2 3 4 5 6 
#
# 1 119.9958 47.3812 21.1237 -7.4652 8.9790 4.0545
# 2 47.3812 135.9035 15.3297 -2.2229 -6.3901 -12.0751
# 3 21.1237 15.3297 56.8501 0.9448 1.3092 0.0430
# 4 -7.4652 -2.2229 0.9448 18.3071 3.6585 0.4259
# 5 8.9790 -6.3901 1.3092 3.6585 27.8238 0.2743
# 6 4.0545 -12.0751 0.0430 0.4259 0.2743 37.9256
#
#
#
# Elastic Compliance Matrix: (Units=1/GPa)
#
#
# Indices 1 2 3 4 5 6 
#
# 1 0.011223 -0.003936 -0.003079 0.005326 -0.005057 -0.002473
# 2 -0.003936 0.009304 -0.001111 -0.001213 0.003585 0.003372
# 3 -0.003079 -0.001111 0.019070 -0.002406 0.000158 -0.000020
# 4 0.005326 -0.001213 -0.002406 0.058725 -0.009590 -0.001543
# 5 -0.005057 0.003585 0.000158 -0.009590 0.039635 0.001503
# 6 -0.002473 0.003372 -0.000020 -0.001543 0.001503 0.027712
#
#
# Mechanical properties :
#
#
# Convention : Reuss Voigt Hill
#
# Bulk Modulus (GPa) = 42.83595 53.37984 48.10790
# Shear Modulus (GPa) = 26.35709 32.07228 29.21469
#
# Velocity S-wave (km/s) = 3.59963 3.97077 3.78974
# Velocity P-wave (km/s) = 6.19152 6.87492 6.54215
#
# Compressibility (1/GPa) = 0.02334488
#
# Stress axis : x y z
#
# Youngs Moduli (GPa) = 89.10310 107.48011 52.43775
#
# Poissons Ratio (x) = 0.42302 0.16146
# Poissons Ratio (y) = 0.35069 0.05828
# Poissons Ratio (z) = 0.27435 0.11945
#
# Static dielectric constant tensor:
#      x y z
#    x 1.746650 0.040510 0.024610 
#    y 0.040510 1.759740 0.017570 
#    z 0.024610 0.017570 1.709170 
# 
# From -- ./inp_files/390350.got.cif
#   From: 2010.05.17/outbox.cif.g08.bks.cpg/sg2_196_cif.got.tgz:390350.got - 2010.06.03 11:33:40.
