data_PCOD9013257
_publ_section_title
;
Structure prediction by ZEFSAII (Michael W. Deem and Ramdas Pophale) SiO2 
 PCOD9013257
Probable space group: P -1
;
_chemical_formula_sum "Si O2"
_cell_formula_units_Z 16
_cell_length_a 10.905028
_cell_length_b 8.426652
_cell_length_c 9.455173
_cell_angle_alpha 79.073174
_cell_angle_beta 128.663407
_cell_angle_gamma 106.587785
_cell_volume 650.127045
_symmetry_space_group_name_H-M "P -1"
_symmetry_group_IT_number 2
_symmetry_cell_setting 'triclinic'
loop_
_space_group_symop_operation_xyz
x,y,z
-x,-y,-z
loop_
_atom_site_type_symbol
_atom_site_label
_atom_site_fract_x
_atom_site_fract_y
_atom_site_fract_z
Si Si1 0.687831 0.335747 0.377997
Si Si2 0.144906 0.514561 0.930738
Si Si3 0.391253 0.029457 0.550136
Si Si4 0.933620 0.236199 0.378693
Si Si5 0.788337 0.338290 0.764982
Si Si6 0.265173 0.147997 0.690895
Si Si7 0.811721 0.978171 0.845453
Si Si8 0.631471 0.691003 0.970907
O O1 0.858664 0.339484 0.426709
O O2 0.704832 0.367234 0.552803
O O3 0.545615 0.402612 0.191572
O O4 0.614626 0.138902 0.343201
O O5 0.097574 0.676287 0.804141
O O6 0.978325 0.386932 0.861708
O O7 0.237620 0.553785 0.138942
O O8 0.252790 0.436981 0.917204
O O9 0.392754 0.163197 0.650916
O O10 0.226258 0.035797 0.346909
O O11 0.500000 0.000000 0.500000
O O12 0.121678 0.243578 0.540071
O O13 0.835425 0.044300 0.337250
O O14 0.755301 0.146364 0.818490
O O15 0.355520 0.209524 0.890211
O O16 0.715371 0.821916 0.888491
O O17 0.000000 0.000000 0.000000
#
# Coordination Sequence:
#
# PCOD9013257 Si02
#       8
#     2   2   2   2   2   2   2   2
#     4  10  23  43  62  96 138 172 217 275 330 395
#     4  11  24  42  66  97 131 178 225 272 325 395
#     4  10  21  41  64 100 133 162 214 275 336 379
#     4  10  23  44  67  95 137 167 226 273 326 394
#     4  10  23  41  66  96 131 176 223 274 332 382
#     4  10  24  41  70 100 127 176 221 276 328 394
#     4  11  22  39  69  98 131 171 221 284 319 395
#     4  12  24  41  65 100 136 176 224 270 337 394
#
# _framework density 24.610572000000001
#
# number of rings (size 3 to 8) (size 9 to 14) (size 15 to 20)
#    0.000    1.500    2.500    1.500    7.000    5.000 
#    4.500    0.000    0.000    0.000    0.000    0.000 
#    0.000    0.000    0.000    0.000    0.000    0.000 
#
# Total GULP energy -89378.578276 kJ/mol
# GULP energy per Si atom -5586.161142 kJ/mol
# Density = 2.455456 g / cm^3
# Si number density = 24.610572 Si / 1000 Ang^3
#
#
#
# Elastic Constant Matrix: (Units=GPa)
#
#
# Indices 1 2 3 4 5 6 
#
# 1 97.3633 16.3756 4.9033 -2.8093 8.5709 -5.6449
# 2 16.3756 56.1403 13.7104 -8.5474 3.4370 4.0452
# 3 4.9033 13.7104 102.7594 9.9559 8.8007 -17.1646
# 4 -2.8093 -8.5474 9.9559 35.0668 -3.9108 -5.3230
# 5 8.5709 3.4370 8.8007 -3.9108 28.0116 7.6538
# 6 -5.6449 4.0452 -17.1646 -5.3230 7.6538 26.2079
#
#
#
# Elastic Compliance Matrix: (Units=1/GPa)
#
#
# Indices 1 2 3 4 5 6 
#
# 1 0.011587 -0.003789 0.001280 -0.000100 -0.004957 0.005346
# 2 -0.003789 0.021165 -0.004501 0.005404 0.002557 -0.006680
# 3 0.001280 -0.004501 0.013122 -0.003892 -0.007502 0.010965
# 4 -0.000100 0.005404 -0.003892 0.031698 0.004550 0.001704
# 5 -0.004957 0.002557 -0.007502 0.004550 0.044973 -0.018585
# 6 0.005346 -0.006680 0.010965 0.001704 -0.018585 0.053294
#
#
# Mechanical properties :
#
#
# Convention : Reuss Voigt Hill
#
# Bulk Modulus (GPa) = 31.39484 36.24908 33.82196
# Shear Modulus (GPa) = 24.94035 32.60882 28.77458
#
# Velocity S-wave (km/s) = 3.18685 3.64399 3.42306
# Velocity P-wave (km/s) = 5.13085 5.69789 5.42179
#
# Compressibility (1/GPa) = 0.03185237
#
# Stress axis : x y z
#
# Youngs Moduli (GPa) = 86.30221 47.24813 76.20720
#
# Poissons Ratio (x) = 0.17905 -0.09755
# Poissons Ratio (y) = 0.32704 0.34304
# Poissons Ratio (z) = -0.11047 0.21269
#
# Static dielectric constant tensor:
#      x y z
#    x 2.069670 0.060500 0.028590 
#    y 0.060500 1.998210 -0.000350 
#    z 0.028590 -0.000350 1.940080 
# 
# From -- ./inp_files/243727.got.cif
#   From: 2010.05.17/outbox.cif.g08.bks.cpg/sg2_122_cif.got.tgz:243727.got - 2010.06.03 11:33:40.
