data_PCOD9013048
_publ_section_title
;
Structure prediction by ZEFSAII (Michael W. Deem and Ramdas Pophale) SiO2 
 PCOD9013048
Probable space group: P -1
;
_chemical_formula_sum "Si O2"
_cell_formula_units_Z 14
_cell_length_a 23.932544
_cell_length_b 5.839645
_cell_length_c 9.328293
_cell_angle_alpha 106.178772
_cell_angle_beta 150.293829
_cell_angle_gamma 61.622507
_cell_volume 540.831318
_symmetry_space_group_name_H-M "P -1"
_symmetry_group_IT_number 2
_symmetry_cell_setting 'triclinic'
loop_
_space_group_symop_operation_xyz
x,y,z
-x,-y,-z
loop_
_atom_site_type_symbol
_atom_site_label
_atom_site_fract_x
_atom_site_fract_y
_atom_site_fract_z
Si Si1 0.338545 0.946394 0.717249
Si Si2 0.738394 0.379036 0.676018
Si Si3 0.037414 0.094958 0.743119
Si Si4 0.565720 0.769469 0.826859
Si Si5 0.328813 0.086124 0.201274
Si Si6 0.219048 0.842809 0.716260
Si Si7 0.111496 0.438081 0.125071
O O1 0.369869 0.677560 0.646797
O O2 0.258832 0.936064 0.676475
O O3 0.239559 0.191048 0.437951
O O4 0.440466 0.026947 0.024586
O O5 0.695047 0.664350 0.706274
O O6 0.841211 0.352468 0.778610
O O7 0.826733 0.147820 0.943690
O O8 0.917479 0.148510 0.588692
O O9 0.000000 0.000000 0.500000
O O10 0.058924 0.355567 0.851215
O O11 0.615363 0.856426 0.810879
O O12 0.427842 0.824225 0.470817
O O13 0.666993 0.464467 0.046992
O O14 0.219222 0.032646 0.881029
O O15 0.000000 0.500000 0.000000
#
# Coordination Sequence:
#
# PCOD9013048 Si02
#       7
#     2   2   2   2   2   2   2
#     4  10  22  38  59  86 115 154 196 236 288 344
#     4  11  23  39  58  89 123 151 190 239 292 345
#     4  11  23  36  58  89 118 151 189 238 294 346
#     4  10  21  41  63  85 114 154 198 240 288 342
#     4  10  23  39  61  88 116 152 196 242 288 344
#     4  11  21  39  62  85 116 154 197 239 288 345
#     4  11  22  38  58  84 120 157 194 234 283 348
#
# _framework density 25.886075000000002
#
# number of rings (size 3 to 8) (size 9 to 14) (size 15 to 20)
#    0.000    1.429    0.000    5.571    0.000    8.571 
#    0.000    2.857    0.000    0.000    0.000    0.000 
#    0.000    0.000    0.000    0.000    0.000    0.000 
#
# Total GULP energy -78303.007773 kJ/mol
# GULP energy per Si atom -5593.071984 kJ/mol
# Density = 2.582716 g / cm^3
# Si number density = 25.886075 Si / 1000 Ang^3
#
#
#
# Elastic Constant Matrix: (Units=GPa)
#
#
# Indices 1 2 3 4 5 6 
#
# 1 73.6779 -4.7887 16.1545 5.7985 -25.6818 -0.7081
# 2 -4.7887 55.8191 24.5360 30.5822 -9.4294 -20.1985
# 3 16.1545 24.5360 130.3993 34.1452 -11.2507 -2.8208
# 4 5.7985 30.5822 34.1452 56.7049 -8.3043 -10.5705
# 5 -25.6818 -9.4294 -11.2507 -8.3043 32.7619 7.5965
# 6 -0.7081 -20.1985 -2.8208 -10.5705 7.5965 33.7385
#
#
#
# Elastic Compliance Matrix: (Units=1/GPa)
#
#
# Indices 1 2 3 4 5 6 
#
# 1 0.020364 0.006355 -0.001738 -0.002073 0.016748 -0.000334
# 2 0.006355 0.033169 -0.002635 -0.013313 0.006997 0.014024
# 3 -0.001738 -0.002635 0.009560 -0.004514 0.000564 -0.002356
# 4 -0.002073 -0.013313 -0.004514 0.027801 -0.000036 0.000327
# 5 0.016748 0.006997 0.000564 -0.000036 0.047256 -0.006064
# 6 -0.000334 0.014024 -0.002356 0.000327 -0.006064 0.039300
#
#
# Mechanical properties :
#
#
# Convention : Reuss Voigt Hill
#
# Bulk Modulus (GPa) = 14.91275 36.85553 25.88414
# Shear Modulus (GPa) = 25.53118 39.57402 32.55260
#
# Velocity S-wave (km/s) = 3.14393 3.91420 3.55002
# Velocity P-wave (km/s) = 4.35345 5.89037 5.17923
#
# Compressibility (1/GPa) = 0.06705669
#
# Stress axis : x y z
#
# Youngs Moduli (GPa) = 49.10532 30.14833 104.60646
#
# Poissons Ratio (x) = -0.19160 0.18182
# Poissons Ratio (y) = -0.31207 0.27568
# Poissons Ratio (z) = 0.08535 0.07945
#
# Static dielectric constant tensor:
#      x y z
#    x 2.104150 -0.064510 0.017270 
#    y -0.064510 2.081310 0.046990 
#    z 0.017270 0.046990 1.983820 
# 
# From -- ./inp_files/26722.got.cif
#   From: 2010.05.17/outbox.cif.g08.bks.cpg/sg2_14_cif.got.tgz:26722.got - 2010.06.03 11:33:40.
