data_PCOD9013977
_publ_section_title
;
Structure prediction by ZEFSAII (Michael W. Deem and Ramdas Pophale) SiO2 
 PCOD9013977
Probable space group: P -1
;
_chemical_formula_sum "Si O2"
_cell_formula_units_Z 14
_cell_length_a 8.834788
_cell_length_b 6.986989
_cell_length_c 14.341663
_cell_angle_alpha 98.185737
_cell_angle_beta 44.028339
_cell_angle_gamma 73.460383
_cell_volume 503.483226
_symmetry_space_group_name_H-M "P -1"
_symmetry_group_IT_number 2
_symmetry_cell_setting 'triclinic'
loop_
_space_group_symop_operation_xyz
x,y,z
-x,-y,-z
loop_
_atom_site_type_symbol
_atom_site_label
_atom_site_fract_x
_atom_site_fract_y
_atom_site_fract_z
Si Si1 0.133311 0.828332 0.016831
Si Si2 0.774840 0.667200 0.187134
Si Si3 0.893766 0.835257 0.647477
Si Si4 0.016578 0.568962 0.743405
Si Si5 0.627702 0.576751 0.675429
Si Si6 0.612520 0.878004 0.542515
Si Si7 0.567247 0.241871 0.945124
O O1 0.386382 0.601702 0.838902
O O2 0.261475 0.885177 0.047040
O O3 0.922062 0.797248 0.157301
O O4 0.000000 0.000000 0.000000
O O5 0.803836 0.511820 0.250847
O O6 0.475233 0.900366 0.335124
O O7 0.000000 0.500000 0.000000
O O8 0.052859 0.721058 0.665522
O O9 0.723821 0.723235 0.697787
O O10 0.127667 0.691795 0.460403
O O11 0.709596 0.101757 0.778507
O O12 0.095860 0.334342 0.634477
O O13 0.717435 0.711998 0.918668
O O14 0.542814 0.720891 0.624609
O O15 0.500000 0.000000 0.500000
O O16 0.500000 0.500000 0.000000
#
# Coordination Sequence:
#
# PCOD9013977 Si02
#       7
#     2   2   2   2   2   2   2
#     4  12  25  42  65  96 138 172 217 282 327 397
#     4  11  24  40  64  98 131 176 221 268 332 394
#     4  10  23  41  71  96 128 173 219 276 329 396
#     4  10  21  41  66  93 124 174 220 269 324 394
#     4  10  21  42  68  98 128 172 224 267 335 392
#     4   9  20  39  62  91 130 168 215 264 324 392
#     4  12  25  43  65 101 136 170 224 274 335 393
#
# _framework density 27.806291000000002
#
# number of rings (size 3 to 8) (size 9 to 14) (size 15 to 20)
#    0.000    1.429    4.286    0.429    4.000    0.000 
#    2.571    1.429    0.000    0.000    0.000    0.000 
#    0.000    0.000    0.000    0.000    0.000    0.000 
#
# Total GULP energy -78077.613043 kJ/mol
# GULP energy per Si atom -5576.972360 kJ/mol
# Density = 2.774300 g / cm^3
# Si number density = 27.806291 Si / 1000 Ang^3
#
#
#
# Elastic Constant Matrix: (Units=GPa)
#
#
# Indices 1 2 3 4 5 6 
#
# 1 55.4209 31.7633 31.2598 9.2042 15.2179 -9.3130
# 2 31.7633 81.9353 35.8772 -0.8114 13.3938 -15.3640
# 3 31.2598 35.8772 222.0446 40.3787 37.1369 -0.0637
# 4 9.2042 -0.8114 40.3787 62.3336 3.5508 2.3734
# 5 15.2179 13.3938 37.1369 3.5508 37.5498 -8.9743
# 6 -9.3130 -15.3640 -0.0637 2.3734 -8.9743 40.8034
#
#
#
# Elastic Compliance Matrix: (Units=1/GPa)
#
#
# Indices 1 2 3 4 5 6 
#
# 1 0.025704 -0.008423 -0.000658 -0.003190 -0.006092 0.001540
# 2 -0.008423 0.017225 -0.002106 0.002654 0.000163 0.004441
# 3 -0.000658 -0.002106 0.006556 -0.003786 -0.005572 -0.001938
# 4 -0.003190 0.002654 -0.003786 0.018887 0.002223 -0.000345
# 5 -0.006092 0.000163 -0.005572 0.002223 0.035878 0.006424
# 6 0.001540 0.004441 -0.001938 -0.000345 0.006424 0.027961
#
#
# Mechanical properties :
#
#
# Convention : Reuss Voigt Hill
#
# Bulk Modulus (GPa) = 36.88624 61.91127 49.39875
# Shear Modulus (GPa) = 30.55811 45.50406 38.03108
#
# Velocity S-wave (km/s) = 3.31866 4.04971 3.70228
# Velocity P-wave (km/s) = 5.28951 6.64684 6.00664
#
# Compressibility (1/GPa) = 0.02711038
#
# Stress axis : x y z
#
# Youngs Moduli (GPa) = 38.90451 58.05611 152.52525
#
# Poissons Ratio (x) = 0.48903 0.10038
# Poissons Ratio (y) = 0.32771 0.32119
# Poissons Ratio (z) = 0.02560 0.12226
#
# Static dielectric constant tensor:
#      x y z
#    x 2.267800 -0.004610 0.076170 
#    y -0.004610 2.246710 0.107660 
#    z 0.076170 0.107660 2.243740 
# 
# From -- ./inp_files/279664.got.cif
#   From: 2010.05.17/outbox.cif.g08.bks.cpg/sg2_140_cif.got.tgz:279664.got - 2010.06.03 11:33:40.
