data_PCOD9013983
_publ_section_title
;
Structure prediction by ZEFSAII (Michael W. Deem and Ramdas Pophale) SiO2 
 PCOD9013983
Probable space group: P -1
;
_chemical_formula_sum "Si O2"
_cell_formula_units_Z 16
_cell_length_a 6.177160
_cell_length_b 19.689222
_cell_length_c 7.679246
_cell_angle_alpha 123.363689
_cell_angle_beta 63.228500
_cell_angle_gamma 95.417732
_cell_volume 681.563309
_symmetry_space_group_name_H-M "P -1"
_symmetry_group_IT_number 2
_symmetry_cell_setting 'triclinic'
loop_
_space_group_symop_operation_xyz
x,y,z
-x,-y,-z
loop_
_atom_site_type_symbol
_atom_site_label
_atom_site_fract_x
_atom_site_fract_y
_atom_site_fract_z
Si Si1 0.554729 0.199752 0.618374
Si Si2 0.516121 0.878959 0.956411
Si Si3 0.266305 0.466300 0.113450
Si Si4 0.633325 0.271536 0.068218
Si Si5 0.706350 0.031675 0.191376
Si Si6 0.182882 0.402851 0.431755
Si Si7 0.104318 0.310060 0.808701
Si Si8 0.008391 0.735875 0.594132
O O1 0.548845 0.248107 0.871254
O O2 0.661986 0.101769 0.455295
O O3 0.285263 0.223124 0.666186
O O4 0.737492 0.233946 0.468117
O O5 0.426853 0.919485 0.860932
O O6 0.780527 0.814333 0.784745
O O7 0.327897 0.818906 0.986203
O O8 0.567111 0.955655 0.161578
O O9 0.278913 0.443915 0.284172
O O10 0.997316 0.528953 0.292489
O O11 0.500000 0.500000 0.000000
O O12 0.243557 0.383088 0.904161
O O13 0.865410 0.312199 0.014026
O O14 0.424289 0.341032 0.332795
O O15 0.000000 0.000000 0.000000
O O16 0.017865 0.333301 0.352532
O O17 0.014563 0.309681 0.644563
#
# Coordination Sequence:
#
# PCOD9013983 Si02
#       8
#     2   2   2   2   2   2   2   2
#     4  11  21  40  66  94 131 170 217 267 329 384
#     4  10  22  40  60  97 128 162 227 263 319 393
#     4  11  24  45  69  98 133 173 215 274 328 393
#     4  10  24  42  64  95 131 171 217 272 318 393
#     4  11  22  38  65  94 129 175 214 273 331 381
#     4  10  23  44  64  97 134 167 219 270 321 389
#     4  11  23  41  66  95 128 173 214 267 336 387
#     4  10  21  41  66  93 128 173 215 271 316 391
#
# _framework density 23.475442999999999
#
# number of rings (size 3 to 8) (size 9 to 14) (size 15 to 20)
#    0.000    1.500    3.750    0.750    1.750    3.500 
#    9.000    1.250    0.000    0.000    0.000    0.000 
#    0.000    0.000    0.000    0.000    0.000    0.000 
#
# Total GULP energy -89323.232545 kJ/mol
# GULP energy per Si atom -5582.702034 kJ/mol
# Density = 2.342201 g / cm^3
# Si number density = 23.475443 Si / 1000 Ang^3
#
#
#
# Elastic Constant Matrix: (Units=GPa)
#
#
# Indices 1 2 3 4 5 6 
#
# 1 42.2499 10.3805 30.0144 -4.0983 -1.1213 6.6333
# 2 10.3805 129.1907 34.2662 -2.5449 -10.2252 20.7266
# 3 30.0144 34.2662 110.2082 14.3670 -17.7571 12.0235
# 4 -4.0983 -2.5449 14.3670 42.3798 -0.8211 -5.8724
# 5 -1.1213 -10.2252 -17.7571 -0.8211 33.5462 -0.0778
# 6 6.6333 20.7266 12.0235 -5.8724 -0.0778 38.3593
#
#
#
# Elastic Compliance Matrix: (Units=1/GPa)
#
#
# Indices 1 2 3 4 5 6 
#
# 1 0.031356 0.000138 -0.009858 0.006100 -0.003982 -0.001481
# 2 0.000138 0.009136 -0.002275 0.000793 0.001595 -0.004123
# 3 -0.009858 -0.002275 0.014625 -0.006281 0.006559 -0.002599
# 4 0.006100 0.000793 -0.006281 0.026959 -0.002209 0.004608
# 5 -0.003982 0.001595 0.006559 -0.002209 0.033575 -0.002499
# 6 -0.001481 -0.004123 -0.002599 0.004608 -0.002499 0.030068
#
#
# Mechanical properties :
#
#
# Convention : Reuss Voigt Hill
#
# Bulk Modulus (GPa) = 32.12559 47.88567 40.00563
# Shear Modulus (GPa) = 27.76493 36.65625 32.21059
#
# Velocity S-wave (km/s) = 3.44280 3.95583 3.70820
# Velocity P-wave (km/s) = 5.43308 6.42708 5.95087
#
# Compressibility (1/GPa) = 0.03112783
#
# Stress axis : x y z
#
# Youngs Moduli (GPa) = 31.89149 109.45649 68.37753
#
# Poissons Ratio (x) = -0.01508 0.67405
# Poissons Ratio (y) = -0.00439 0.15554
# Poissons Ratio (z) = 0.31438 0.24898
#
# Static dielectric constant tensor:
#      x y z
#    x 1.889620 -0.014020 0.025150 
#    y -0.014020 1.960150 -0.031040 
#    z 0.025150 -0.031040 1.911310 
# 
# From -- ./inp_files/141563.got.cif
#   From: 2010.05.17/outbox.cif.g08.bks.cpg/sg2_71_cif.got.tgz:141563.got - 2010.06.03 11:33:40.
