data_PCOD9013723
_publ_section_title
;
Structure prediction by ZEFSAII (Michael W. Deem and Ramdas Pophale) SiO2 
 PCOD9013723
Probable space group: P -1
;
_chemical_formula_sum "Si O2"
_cell_formula_units_Z 16
_cell_length_a 21.744033
_cell_length_b 9.399846
_cell_length_c 12.614474
_cell_angle_alpha 72.461018
_cell_angle_beta 39.411801
_cell_angle_gamma 40.924258
_cell_volume 787.167757
_symmetry_space_group_name_H-M "P -1"
_symmetry_group_IT_number 2
_symmetry_cell_setting 'triclinic'
loop_
_space_group_symop_operation_xyz
x,y,z
-x,-y,-z
loop_
_atom_site_type_symbol
_atom_site_label
_atom_site_fract_x
_atom_site_fract_y
_atom_site_fract_z
Si Si1 0.938080 0.996522 0.398818
Si Si2 0.138950 0.589070 0.526979
Si Si3 0.864179 0.237213 0.219810
Si Si4 0.501467 0.524161 0.141140
Si Si5 0.523255 0.211758 0.062852
Si Si6 0.844710 0.574950 0.687032
Si Si7 0.030653 0.307057 0.062536
Si Si8 0.464628 0.615009 0.638262
O O1 0.084555 0.667996 0.294048
O O2 0.970482 0.104511 0.400670
O O3 0.941610 0.054251 0.263054
O O4 0.723474 0.211378 0.646876
O O5 0.351550 0.365676 0.323181
O O6 0.168190 0.462976 0.407937
O O7 0.044143 0.610455 0.736115
O O8 0.642322 0.491329 0.444834
O O9 0.903642 0.356922 0.156827
O O10 0.000000 0.000000 0.000000
O O11 0.606789 0.235403 0.019262
O O12 0.525924 0.500395 0.240835
O O13 0.550483 0.602918 0.986910
O O14 0.660888 0.898147 0.910507
O O15 0.000000 0.500000 0.500000
O O16 0.000000 0.500000 0.000000
O O17 0.253711 0.965367 0.840180
O O18 0.500000 0.500000 0.500000
#
# Coordination Sequence:
#
# PCOD9013723 Si02
#       8
#     2   2   2   2   2   2   2   2
#     4   9  20  40  62  92 131 173 209 267 326 391
#     4  10  24  43  62  88 136 172 214 269 334 406
#     4  10  21  44  67  95 132 171 228 271 317 404
#     4   9  20  39  66  94 133 175 212 264 331 405
#     4  10  21  41  65  94 132 173 216 271 333 389
#     4  12  23  36  62 102 128 166 220 267 329 388
#     4  11  26  46  68  98 132 174 224 285 339 388
#     4  11  23  42  71  98 133 184 225 265 339 405
#
# _framework density 20.326036999999999
#
# number of rings (size 3 to 8) (size 9 to 14) (size 15 to 20)
#    0.000    1.750    2.500    1.500    1.750    4.500 
#    2.250    0.000    0.000    0.000    0.000    0.000 
#    0.000    0.000    0.000    0.000    0.000    0.000 
#
# Total GULP energy -89282.899664 kJ/mol
# GULP energy per Si atom -5580.181229 kJ/mol
# Density = 2.027977 g / cm^3
# Si number density = 20.326037 Si / 1000 Ang^3
#
#
#
# Elastic Constant Matrix: (Units=GPa)
#
#
# Indices 1 2 3 4 5 6 
#
# 1 82.1583 36.6503 24.7304 3.0088 17.7780 1.8223
# 2 36.6503 135.0535 65.3807 -1.4904 12.9511 12.8157
# 3 24.7304 65.3807 123.3617 -4.5396 17.6010 -0.8099
# 4 3.0088 -1.4904 -4.5396 32.4405 2.8013 5.6695
# 5 17.7780 12.9511 17.6010 2.8013 38.0494 -0.6585
# 6 1.8223 12.8157 -0.8099 5.6695 -0.6585 25.3855
#
#
#
# Elastic Compliance Matrix: (Units=1/GPa)
#
#
# Indices 1 2 3 4 5 6 
#
# 1 0.015068 -0.003423 -0.000455 -0.001274 -0.005557 0.000772
# 2 -0.003423 0.011545 -0.005429 0.001139 -0.000007 -0.006011
# 3 -0.000455 -0.005429 0.011617 0.001222 -0.003355 0.002784
# 4 -0.001274 0.001139 0.001222 0.032789 -0.002908 -0.007843
# 5 -0.005557 -0.000007 -0.003355 -0.002908 0.030677 0.001741
# 6 0.000772 -0.006011 0.002784 -0.007843 0.001741 0.044257
#
#
# Mechanical properties :
#
#
# Convention : Reuss Voigt Hill
#
# Bulk Modulus (GPa) = 50.98228 66.01069 58.49649
# Shear Modulus (GPa) = 29.22161 33.42921 31.32541
#
# Velocity S-wave (km/s) = 3.79574 4.05983 3.93000
# Velocity P-wave (km/s) = 6.65935 7.38395 7.03099
#
# Compressibility (1/GPa) = 0.01961466
#
# Stress axis : x y z
#
# Youngs Moduli (GPa) = 66.36709 86.61478 86.08149
#
# Poissons Ratio (x) = 0.29648 0.03920
# Poissons Ratio (y) = 0.22717 0.46736
# Poissons Ratio (z) = 0.03022 0.47026
#
# Static dielectric constant tensor:
#      x y z
#    x 1.775710 -0.022490 0.005300 
#    y -0.022490 1.639500 0.071530 
#    z 0.005300 0.071530 1.694990 
# 
# From -- ./inp_files/469944.got.cif
#   From: 2010.05.17/outbox.cif.g08.bks.cpg/sg2_235_cif.got.tgz:469944.got - 2010.06.03 11:33:40.
