data_PCOD9013134
_publ_section_title
;
Structure prediction by ZEFSAII (Michael W. Deem and Ramdas Pophale) SiO2 
 PCOD9013134
Probable space group: P -1
;
_chemical_formula_sum "Si O2"
_cell_formula_units_Z 14
_cell_length_a 16.416117
_cell_length_b 12.571396
_cell_length_c 16.190176
_cell_angle_alpha 147.093013
_cell_angle_beta 146.919467
_cell_angle_gamma 22.658850
_cell_volume 666.704097
_symmetry_space_group_name_H-M "P -1"
_symmetry_group_IT_number 2
_symmetry_cell_setting 'triclinic'
loop_
_space_group_symop_operation_xyz
x,y,z
-x,-y,-z
loop_
_atom_site_type_symbol
_atom_site_label
_atom_site_fract_x
_atom_site_fract_y
_atom_site_fract_z
Si Si1 0.192089 0.235617 0.869244
Si Si2 0.387315 0.282393 0.197958
Si Si3 0.745312 0.362340 0.116632
Si Si4 0.471065 0.872757 0.320548
Si Si5 0.732617 0.641916 0.665301
Si Si6 0.415268 0.631896 0.695517
Si Si7 0.779897 0.254320 0.899926
O O1 0.989011 0.432516 0.763628
O O2 0.410597 0.050981 0.878485
O O3 0.227970 0.982413 0.772730
O O4 0.191020 0.395099 0.045276
O O5 0.355675 0.296143 0.276123
O O6 0.459950 0.424851 0.320001
O O7 0.705463 0.556863 0.282108
O O8 0.500000 0.500000 0.000000
O O9 0.774984 0.400379 0.071164
O O10 0.969109 0.019087 0.097652
O O11 0.305884 0.867521 0.212158
O O12 0.500000 0.000000 0.500000
O O13 0.371515 0.079247 0.291426
O O14 0.683094 0.488255 0.474692
O O15 0.597877 0.473403 0.818918
#
# Coordination Sequence:
#
# PCOD9013134 Si02
#       7
#     2   2   2   2   2   2   2
#     4   9  22  41  62  93 120 164 208 259 316 374
#     4   9  22  40  59  93 121 159 214 251 316 372
#     4   9  22  42  65  92 123 169 220 256 317 373
#     4  11  24  41  59  97 130 166 214 252 322 382
#     4  12  22  40  64  89 129 166 203 264 313 381
#     4  10  21  41  63  91 131 153 212 264 318 378
#     4  10  21  44  64  93 126 168 210 269 314 373
#
# _framework density 20.998821
#
# number of rings (size 3 to 8) (size 9 to 14) (size 15 to 20)
#    0.857    1.143    1.429    1.286    2.000    5.143 
#    7.714    0.000    0.000    0.000    0.000    0.000 
#    0.000    0.000    0.000    0.000    0.000    0.000 
#
# Total GULP energy -77982.466138 kJ/mol
# GULP energy per Si atom -5570.176153 kJ/mol
# Density = 2.095103 g / cm^3
# Si number density = 20.998821 Si / 1000 Ang^3
#
#
#
# Elastic Constant Matrix: (Units=GPa)
#
#
# Indices 1 2 3 4 5 6 
#
# 1 65.6040 13.5312 1.4209 2.7040 -2.3824 7.1467
# 2 13.5312 70.3934 5.5629 -10.3392 -10.6023 -6.8090
# 3 1.4209 5.5629 67.1099 5.4071 -14.0015 -11.7183
# 4 2.7040 -10.3392 5.4071 31.8129 4.6947 -3.9521
# 5 -2.3824 -10.6023 -14.0015 4.6947 39.7287 3.7300
# 6 7.1467 -6.8090 -11.7183 -3.9521 3.7300 40.3859
#
#
#
# Elastic Compliance Matrix: (Units=1/GPa)
#
#
# Indices 1 2 3 4 5 6 
#
# 1 0.016668 -0.003959 -0.000356 -0.003237 0.000584 -0.004091
# 2 -0.003959 0.016672 -0.000505 0.005853 0.002999 0.003661
# 3 -0.000356 -0.000505 0.017173 -0.003419 0.005917 0.004080
# 4 -0.003237 0.005853 -0.003419 0.035399 -0.004437 0.004441
# 5 0.000584 0.002999 0.005917 -0.004437 0.028706 -0.000966
# 6 -0.004091 0.003661 0.004080 0.004441 -0.000966 0.027810
#
#
# Mechanical properties :
#
#
# Convention : Reuss Voigt Hill
#
# Bulk Modulus (GPa) = 24.46674 27.12637 25.79656
# Shear Modulus (GPa) = 30.17646 34.55832 32.36739
#
# Velocity S-wave (km/s) = 3.79496 4.06116 3.93031
# Velocity P-wave (km/s) = 5.55690 5.91073 5.73654
#
# Compressibility (1/GPa) = 0.04087181
#
# Stress axis : x y z
#
# Youngs Moduli (GPa) = 59.99678 59.98014 58.23212
#
# Poissons Ratio (x) = 0.23746 0.02075
# Poissons Ratio (y) = 0.23752 0.02940
# Poissons Ratio (z) = 0.02138 0.03029
#
# Static dielectric constant tensor:
#      x y z
#    x 1.768120 -0.006020 0.015010 
#    y -0.006020 1.773920 0.016380 
#    z 0.015010 0.016380 1.836790 
# 
# From -- ./inp_files/532058.got.cif
#   From: 2010.05.17/outbox.cif.g08.bks.cpg/sg2_267_cif.got.tgz:532058.got - 2010.06.03 11:33:40.
