data_PCOD9013439
_publ_section_title
;
Structure prediction by ZEFSAII (Michael W. Deem and Ramdas Pophale) SiO2 
 PCOD9013439
Probable space group: P -1
;
_chemical_formula_sum "Si O2"
_cell_formula_units_Z 16
_cell_length_a 21.942549
_cell_length_b 7.763268
_cell_length_c 6.406375
_cell_angle_alpha 68.993730
_cell_angle_beta 107.419739
_cell_angle_gamma 140.089378
_cell_volume 653.093678
_symmetry_space_group_name_H-M "P -1"
_symmetry_group_IT_number 2
_symmetry_cell_setting 'triclinic'
loop_
_space_group_symop_operation_xyz
x,y,z
-x,-y,-z
loop_
_atom_site_type_symbol
_atom_site_label
_atom_site_fract_x
_atom_site_fract_y
_atom_site_fract_z
Si Si1 0.695658 0.245799 0.170175
Si Si2 0.619512 0.401411 0.295781
Si Si3 0.920109 0.046332 0.406115
Si Si4 0.756010 0.670596 0.703339
Si Si5 0.100432 0.336165 0.708443
Si Si6 0.915322 0.418130 0.076212
Si Si7 0.568756 0.812185 0.878772
Si Si8 0.271826 0.068879 0.129353
O O1 0.639652 0.250610 0.272472
O O2 0.790318 0.365306 0.318508
O O3 0.626086 0.974240 0.079856
O O4 0.736690 0.473527 0.938530
O O5 0.668442 0.501372 0.527296
O O6 0.506844 0.197496 0.265218
O O7 0.678489 0.681360 0.095768
O O8 0.893901 0.204446 0.305419
O O9 0.029062 0.257183 0.492561
O O10 0.849421 0.815662 0.607287
O O11 0.900806 0.886726 0.245401
O O12 0.762483 0.876906 0.741910
O O13 0.062744 0.347873 0.878811
O O14 0.000000 0.500000 0.000000
O O15 0.819351 0.228424 0.929004
O O16 0.500000 0.500000 0.000000
O O17 0.646312 0.905573 0.753375
#
# Coordination Sequence:
#
# PCOD9013439 Si02
#       8
#     2   2   2   2   2   2   2   2
#     4  11  22  42  65 100 128 175 233 271 336 407
#     4  10  21  42  68  91 130 179 216 286 341 385
#     4  11  24  45  65 103 138 181 227 272 344 396
#     4  11  22  40  68  92 138 180 217 285 333 398
#     4  11  24  42  70  96 139 178 227 271 335 403
#     4  12  24  43  67  99 140 180 224 279 337 402
#     4  10  22  42  67  95 131 175 223 284 341 397
#     4  10  21  41  64  95 132 174 225 275 338 399
#
# _framework density 24.498781999999999
#
# number of rings (size 3 to 8) (size 9 to 14) (size 15 to 20)
#    0.000    1.250    3.750    2.250    0.000    4.000 
#    2.250    2.500    0.000    0.000    0.000    0.000 
#    0.000    0.000    0.000    0.000    0.000    0.000 
#
# Total GULP energy -89518.384728 kJ/mol
# GULP energy per Si atom -5594.899045 kJ/mol
# Density = 2.444302 g / cm^3
# Si number density = 24.498782 Si / 1000 Ang^3
#
#
#
# Elastic Constant Matrix: (Units=GPa)
#
#
# Indices 1 2 3 4 5 6 
#
# 1 163.2835 59.2240 37.8649 21.8686 -14.2331 16.3926
# 2 59.2240 133.3283 47.7811 44.6204 -6.0117 8.9099
# 3 37.8649 47.7811 59.2344 17.3352 -11.2114 -2.7447
# 4 21.8686 44.6204 17.3352 42.4752 0.5272 -5.8498
# 5 -14.2331 -6.0117 -11.2114 0.5272 39.4444 17.1375
# 6 16.3926 8.9099 -2.7447 -5.8498 17.1375 49.0516
#
#
#
# Elastic Compliance Matrix: (Units=1/GPa)
#
#
# Indices 1 2 3 4 5 6 
#
# 1 0.008424 -0.001443 -0.003037 -0.002227 0.003873 -0.004342
# 2 -0.001443 0.015901 -0.007783 -0.013527 0.002130 -0.005199
# 3 -0.003037 -0.007783 0.026193 -0.000676 0.004144 0.002366
# 4 -0.002227 -0.013527 -0.000676 0.040788 -0.008360 0.010949
# 5 0.003873 0.002130 0.004144 -0.008360 0.034693 -0.014567
# 6 -0.004342 -0.005199 0.002366 0.010949 -0.014567 0.029309
#
#
# Mechanical properties :
#
#
# Convention : Reuss Voigt Hill
#
# Bulk Modulus (GPa) = 38.47341 71.73178 55.10260
# Shear Modulus (GPa) = 26.52544 40.25933 33.39238
#
# Velocity S-wave (km/s) = 3.29405 4.05819 3.69592
# Velocity P-wave (km/s) = 5.49600 7.16253 6.38388
#
# Compressibility (1/GPa) = 0.02599198
#
# Stress axis : x y z
#
# Youngs Moduli (GPa) = 118.71121 62.88878 38.17767
#
# Poissons Ratio (x) = 0.09077 0.11594
# Poissons Ratio (y) = 0.17134 0.29713
# Poissons Ratio (z) = 0.36052 0.48946
#
# Static dielectric constant tensor:
#      x y z
#    x 1.967150 -0.016280 0.028650 
#    y -0.016280 1.955610 -0.057750 
#    z 0.028650 -0.057750 1.983840 
# 
# From -- ./inp_files/122528.got.cif
#   From: 2010.05.17/outbox.cif.g08.bks.cpg/sg2_62_cif.got.tgz:122528.got - 2010.06.03 11:33:40.
