data_PCOD9013960
_publ_section_title
;
Structure prediction by ZEFSAII (Michael W. Deem and Ramdas Pophale) SiO2 
 PCOD9013960
Probable space group: P -1
;
_chemical_formula_sum "Si O2"
_cell_formula_units_Z 16
_cell_length_a 20.274682
_cell_length_b 19.771160
_cell_length_c 8.802470
_cell_angle_alpha 136.606116
_cell_angle_beta 40.899110
_cell_angle_gamma 160.102813
_cell_volume 784.237594
_symmetry_space_group_name_H-M "P -1"
_symmetry_group_IT_number 2
_symmetry_cell_setting 'triclinic'
loop_
_space_group_symop_operation_xyz
x,y,z
-x,-y,-z
loop_
_atom_site_type_symbol
_atom_site_label
_atom_site_fract_x
_atom_site_fract_y
_atom_site_fract_z
Si Si1 0.608386 0.344805 0.852953
Si Si2 0.702912 0.781894 0.224224
Si Si3 0.608360 0.180830 0.015649
Si Si4 0.560970 0.580632 0.692952
Si Si5 0.895541 0.799433 0.667764
Si Si6 0.330320 0.588936 0.481010
Si Si7 0.372185 0.974178 0.776078
Si Si8 0.932632 0.515906 0.775802
O O1 0.716650 0.420335 0.624922
O O2 0.767203 0.449894 0.881225
O O3 0.416953 0.109368 0.821534
O O4 0.522605 0.381275 0.073307
O O5 0.562178 0.596734 0.273050
O O6 0.552902 0.727619 0.310453
O O7 0.801688 0.789884 0.947144
O O8 0.865680 0.979853 0.364238
O O9 0.828273 0.364946 0.847003
O O10 0.463440 0.070325 0.941004
O O11 0.641315 0.298297 0.266987
O O12 0.500000 0.000000 0.000000
O O13 0.500000 0.500000 0.500000
O O14 0.794925 0.756981 0.620113
O O15 0.823970 0.626626 0.541572
O O16 0.138882 0.747350 0.834855
O O17 0.500000 0.000000 0.500000
O O18 0.000000 0.500000 0.500000
#
# Coordination Sequence:
#
# PCOD9013960 Si02
#       8
#     2   2   2   2   2   2   2   2
#     4  11  23  41  69  96 128 179 216 267 336 392
#     4  10  21  41  66  92 131 173 215 264 330 385
#     4  11  26  44  69  99 129 172 224 278 337 391
#     4  11  23  40  63  93 134 171 215 269 315 391
#     4  10  21  41  66  92 132 170 218 265 324 388
#     4  11  22  42  64  97 133 168 218 275 327 391
#     4  11  23  46  67  93 132 170 216 277 335 394
#     4  11  25  46  69  93 132 174 220 272 339 400
#
# _framework density 20.401980999999999
#
# number of rings (size 3 to 8) (size 9 to 14) (size 15 to 20)
#    0.000    1.250    5.000    1.500    7.000    4.000 
#    0.000    0.000    0.000    0.000    0.000    0.000 
#    0.000    0.000    0.000    0.000    0.000    0.000 
#
# Total GULP energy -89267.460001 kJ/mol
# GULP energy per Si atom -5579.216250 kJ/mol
# Density = 2.035555 g / cm^3
# Si number density = 20.401981 Si / 1000 Ang^3
#
#
#
# Elastic Constant Matrix: (Units=GPa)
#
#
# Indices 1 2 3 4 5 6 
#
# 1 87.6050 35.5194 29.2289 9.0092 12.0889 -10.8766
# 2 35.5194 138.8374 27.4166 22.3629 -15.4377 -3.1746
# 3 29.2289 27.4166 99.3864 25.6835 10.7422 -20.7264
# 4 9.0092 22.3629 25.6835 34.4866 1.9207 5.4448
# 5 12.0889 -15.4377 10.7422 1.9207 18.8842 4.2175
# 6 -10.8766 -3.1746 -20.7264 5.4448 4.2175 31.7182
#
#
#
# Elastic Compliance Matrix: (Units=1/GPa)
#
#
# Indices 1 2 3 4 5 6 
#
# 1 0.017448 -0.006241 0.000705 -0.001352 -0.018434 0.008503
# 2 -0.006241 0.011835 -0.003245 -0.003834 0.016949 -0.004671
# 3 0.000705 -0.003245 0.020239 -0.015042 -0.017107 0.017999
# 4 -0.001352 -0.003834 -0.015042 0.045758 0.005949 -0.019323
# 5 -0.018434 0.016949 -0.017107 0.005949 0.094295 -0.029363
# 6 0.008503 -0.004671 0.017999 -0.019323 -0.029363 0.052959
#
#
# Mechanical properties :
#
#
# Convention : Reuss Voigt Hill
#
# Bulk Modulus (GPa) = 31.28661 56.68431 43.98546
# Shear Modulus (GPa) = 18.46721 32.59540 25.53130
#
# Velocity S-wave (km/s) = 3.01186 4.00141 3.54137
# Velocity P-wave (km/s) = 5.24056 7.01373 6.19096
#
# Compressibility (1/GPa) = 0.03196256
#
# Stress axis : x y z
#
# Youngs Moduli (GPa) = 57.31212 84.49186 49.40864
#
# Poissons Ratio (x) = 0.52728 -0.03484
# Poissons Ratio (y) = 0.35766 0.16033
# Poissons Ratio (z) = -0.04042 0.27417
#
# Static dielectric constant tensor:
#      x y z
#    x 1.779400 0.037590 -0.003730 
#    y 0.037590 1.766700 -0.005060 
#    z -0.003730 -0.005060 1.740070 
# 
# From -- ./inp_files/349719.got.cif
#   From: 2010.05.17/outbox.cif.g08.bks.cpg/sg2_175_cif.got.tgz:349719.got - 2010.06.03 11:33:40.
