data_PCOD9013027
_publ_section_title
;
Structure prediction by ZEFSAII (Michael W. Deem and Ramdas Pophale) SiO2 
 PCOD9013027
Probable space group: P -1
;
_chemical_formula_sum "Si O2"
_cell_formula_units_Z 14
_cell_length_a 14.046724
_cell_length_b 12.821606
_cell_length_c 9.633340
_cell_angle_alpha 128.647316
_cell_angle_beta 151.821261
_cell_angle_gamma 50.519752
_cell_volume 622.523799
_symmetry_space_group_name_H-M "P -1"
_symmetry_group_IT_number 2
_symmetry_cell_setting 'triclinic'
loop_
_space_group_symop_operation_xyz
x,y,z
-x,-y,-z
loop_
_atom_site_type_symbol
_atom_site_label
_atom_site_fract_x
_atom_site_fract_y
_atom_site_fract_z
Si Si1 0.534433 0.681316 0.807615
Si Si2 0.239992 0.958836 0.740627
Si Si3 0.777763 0.615026 0.475056
Si Si4 0.456765 0.088469 0.654116
Si Si5 0.819845 0.340732 0.132797
Si Si6 0.417146 0.399262 0.506083
Si Si7 0.833873 0.839925 0.435865
O O1 0.339420 0.809651 0.681192
O O2 0.463371 0.547850 0.657918
O O3 0.611619 0.661417 0.731642
O O4 0.722500 0.712713 0.166717
O O5 0.253921 0.068885 0.732290
O O6 0.363348 0.959250 0.042138
O O7 0.000000 0.000000 0.500000
O O8 0.599485 0.750225 0.322563
O O9 0.747952 0.480024 0.244980
O O10 0.760014 0.594290 0.600777
O O11 0.996235 0.640718 0.721034
O O12 0.253927 0.075904 0.469943
O O13 0.500000 0.000000 0.500000
O O14 0.926218 0.223124 0.281025
O O15 0.630397 0.315102 0.779433
#
# Coordination Sequence:
#
# PCOD9013027 Si02
#       7
#     2   2   2   2   2   2   2
#     4  10  23  44  59  94 124 168 209 256 321 375
#     4  11  25  41  63  91 127 168 208 257 314 377
#     4  10  22  37  67  90 129 161 206 270 310 364
#     4  10  22  40  65  91 119 165 215 249 317 372
#     4  10  21  41  62  98 118 165 217 250 316 379
#     4  11  23  39  69  91 130 161 213 265 309 375
#     4  10  23  43  66  84 132 168 199 265 315 370
#
# _framework density 22.489097999999998
#
# number of rings (size 3 to 8) (size 9 to 14) (size 15 to 20)
#    0.000    1.714    0.000    5.571    8.000    2.286 
#    0.000    3.571    0.000    0.000    0.000    0.000 
#    0.000    0.000    0.000    0.000    0.000    0.000 
#
# Total GULP energy -78237.490627 kJ/mol
# GULP energy per Si atom -5588.392188 kJ/mol
# Density = 2.243791 g / cm^3
# Si number density = 22.489098 Si / 1000 Ang^3
#
#
#
# Elastic Constant Matrix: (Units=GPa)
#
#
# Indices 1 2 3 4 5 6 
#
# 1 160.0485 44.6650 33.3249 -0.3521 -37.7452 -12.5324
# 2 44.6650 111.7383 40.4825 -28.7971 -26.6818 -8.4280
# 3 33.3249 40.4825 35.5641 -12.5522 -12.9281 -13.5059
# 4 -0.3521 -28.7971 -12.5522 24.5804 -7.0481 -6.0177
# 5 -37.7452 -26.6818 -12.9281 -7.0481 37.4606 0.1833
# 6 -12.5324 -8.4280 -13.5059 -6.0177 0.1833 36.9949
#
#
#
# Elastic Compliance Matrix: (Units=1/GPa)
#
#
# Indices 1 2 3 4 5 6 
#
# 1 0.009236 0.000178 -0.006077 -0.000482 0.007241 0.000836
# 2 0.000178 0.028334 -0.002709 0.042690 0.027398 0.012335
# 3 -0.006077 -0.002709 0.081116 0.055602 0.030228 0.035832
# 4 -0.000482 0.042690 0.055602 0.154821 0.077972 0.054658
# 5 0.007241 0.027398 0.030228 0.077972 0.078450 0.032024
# 6 0.000836 0.012335 0.035832 0.054658 0.032024 0.051938
#
#
# Mechanical properties :
#
#
# Convention : Reuss Voigt Hill
#
# Bulk Modulus (GPa) = 9.85507 60.47733 35.16620
# Shear Modulus (GPa) = 10.99058 32.39907 21.69482
#
# Velocity S-wave (km/s) = 2.21307 3.79972 3.10930
# Velocity P-wave (km/s) = 3.30483 6.79711 5.34428
#
# Compressibility (1/GPa) = 0.10147060
#
# Stress axis : x y z
#
# Youngs Moduli (GPa) = 108.27325 35.29282 12.32800
#
# Poissons Ratio (x) = -0.00627 0.07492
# Poissons Ratio (y) = -0.01925 0.03339
# Poissons Ratio (z) = 0.65798 0.09560
#
# Static dielectric constant tensor:
#      x y z
#    x 1.951390 0.110150 0.041640 
#    y 0.110150 1.920440 -0.007170 
#    z 0.041640 -0.007170 1.815210 
# 
# From -- ./inp_files/263240.got.cif
#   From: 2010.05.17/outbox.cif.g08.bks.cpg/sg2_132_cif.got.tgz:263240.got - 2010.06.03 11:33:40.
