data_PCOD9013236
_publ_section_title
;
Structure prediction by ZEFSAII (Michael W. Deem and Ramdas Pophale) SiO2 
 PCOD9013236
Probable space group: P -1
;
_chemical_formula_sum "Si O2"
_cell_formula_units_Z 14
_cell_length_a 11.782581
_cell_length_b 14.272141
_cell_length_c 11.955260
_cell_angle_alpha 61.759104
_cell_angle_beta 35.131877
_cell_angle_gamma 34.943759
_cell_volume 530.960430
_symmetry_space_group_name_H-M "P -1"
_symmetry_group_IT_number 2
_symmetry_cell_setting 'triclinic'
loop_
_space_group_symop_operation_xyz
x,y,z
-x,-y,-z
loop_
_atom_site_type_symbol
_atom_site_label
_atom_site_fract_x
_atom_site_fract_y
_atom_site_fract_z
Si Si1 0.777947 0.492656 0.454361
Si Si2 0.542634 0.692501 0.751593
Si Si3 0.293644 0.831079 0.507428
Si Si4 0.611494 0.865153 0.687843
Si Si5 0.204897 0.146346 0.053119
Si Si6 0.786571 0.246890 0.792643
Si Si7 0.431647 0.424010 0.754462
O O1 0.504377 0.649162 0.690767
O O2 0.693638 0.625010 0.361859
O O3 0.688992 0.412907 0.532024
O O4 0.201219 0.291485 0.274137
O O5 0.397450 0.881635 0.770930
O O6 0.000000 0.500000 0.500000
O O7 0.369143 0.710868 0.985288
O O8 0.378994 0.768127 0.343906
O O9 0.060269 0.833707 0.729890
O O10 0.067543 0.031606 0.629732
O O11 0.957850 0.764368 0.404795
O O12 0.381869 0.054134 0.838792
O O13 0.951505 0.368403 0.118066
O O14 0.500000 0.000000 0.000000
O O15 0.450976 0.411067 0.879650
#
# Coordination Sequence:
#
# PCOD9013236 Si02
#       7
#     2   2   2   2   2   2   2
#     4   9  20  39  68  91 129 172 224 256 332 383
#     4  10  22  43  71  94 128 176 225 268 324 389
#     4  11  21  41  67  95 134 177 213 271 330 393
#     4  10  21  41  63  98 129 169 217 270 323 382
#     4  11  20  38  65  96 133 173 220 265 322 395
#     4  11  23  43  67  98 135 170 218 272 329 388
#     4  10  22  39  65 100 134 175 214 270 335 387
#
# _framework density 26.367311000000001
#
# number of rings (size 3 to 8) (size 9 to 14) (size 15 to 20)
#    0.000    1.714    1.429    4.714    0.000    5.714 
#    5.143    2.143    0.000    0.000    0.000    0.000 
#    0.000    0.000    0.000    0.000    0.000    0.000 
#
# Total GULP energy -78259.452151 kJ/mol
# GULP energy per Si atom -5589.960868 kJ/mol
# Density = 2.630730 g / cm^3
# Si number density = 26.367311 Si / 1000 Ang^3
#
#
#
# Elastic Constant Matrix: (Units=GPa)
#
#
# Indices 1 2 3 4 5 6 
#
# 1 110.5636 34.5051 39.3558 -0.1518 23.8611 11.2592
# 2 34.5051 92.1247 5.9996 15.6539 0.6764 1.9912
# 3 39.3558 5.9996 97.3539 -18.7287 12.4334 7.3689
# 4 -0.1518 15.6539 -18.7287 48.9946 7.3952 4.9269
# 5 23.8611 0.6764 12.4334 7.3952 51.9012 7.3333
# 6 11.2592 1.9912 7.3689 4.9269 7.3333 35.2628
#
#
#
# Elastic Compliance Matrix: (Units=1/GPa)
#
#
# Indices 1 2 3 4 5 6 
#
# 1 0.013279 -0.004787 -0.004094 0.000967 -0.004884 -0.002233
# 2 -0.004787 0.013457 -0.000248 -0.004905 0.002649 0.000955
# 3 -0.004094 -0.000248 0.013413 0.005666 -0.001869 -0.001885
# 4 0.000967 -0.004905 0.005666 0.025248 -0.004807 -0.003744
# 5 -0.004884 0.002649 -0.001869 -0.004807 0.022935 -0.002298
# 6 -0.002233 0.000955 -0.001885 -0.003744 -0.002298 0.030413
#
#
# Mechanical properties :
#
#
# Convention : Reuss Voigt Hill
#
# Bulk Modulus (GPa) = 45.68205 51.08479 48.38342
# Shear Modulus (GPa) = 34.64961 41.91050 38.28006
#
# Velocity S-wave (km/s) = 3.62900 3.99116 3.81438
# Velocity P-wave (km/s) = 5.90952 6.37617 6.14727
#
# Compressibility (1/GPa) = 0.02189044
#
# Stress axis : x y z
#
# Youngs Moduli (GPa) = 75.30914 74.30826 74.55211
#
# Poissons Ratio (x) = 0.35572 0.30522
# Poissons Ratio (y) = 0.36051 0.01852
# Poissons Ratio (z) = 0.30832 0.01846
#
# Static dielectric constant tensor:
#      x y z
#    x 2.157260 -0.023630 -0.012460 
#    y -0.023630 2.141540 0.084700 
#    z -0.012460 0.084700 2.088020 
# 
# From -- ./inp_files/271335.got.cif
#   From: 2010.05.17/outbox.cif.g08.bks.cpg/sg2_136_cif.got.tgz:271335.got - 2010.06.03 11:33:40.
