data_PCOD9013203
_publ_section_title
;
Structure prediction by ZEFSAII (Michael W. Deem and Ramdas Pophale) SiO2 
 PCOD9013203
Probable space group: P -1
;
_chemical_formula_sum "Si O2"
_cell_formula_units_Z 12
_cell_length_a 8.565512
_cell_length_b 15.141868
_cell_length_c 18.203114
_cell_angle_alpha 158.541294
_cell_angle_beta 43.876691
_cell_angle_gamma 125.792835
_cell_volume 563.139645
_symmetry_space_group_name_H-M "P -1"
_symmetry_group_IT_number 2
_symmetry_cell_setting 'triclinic'
loop_
_space_group_symop_operation_xyz
x,y,z
-x,-y,-z
loop_
_atom_site_type_symbol
_atom_site_label
_atom_site_fract_x
_atom_site_fract_y
_atom_site_fract_z
Si Si1 0.074313 0.890521 0.605296
Si Si2 0.366650 0.236693 0.282330
Si Si3 0.270523 0.825499 0.752717
Si Si4 0.201461 0.776573 0.304385
Si Si5 0.537147 0.069732 0.381203
Si Si6 0.053588 0.529309 0.919693
O O1 0.153757 0.800346 0.425798
O O2 0.298942 0.873111 0.567030
O O3 0.891055 0.767663 0.606868
O O4 0.933548 0.193720 0.883230
O O5 0.313133 0.523134 0.489611
O O6 0.544511 0.190492 0.256167
O O7 0.500000 0.000000 0.000000
O O8 0.334569 0.955295 0.759450
O O9 0.000000 0.000000 0.000000
O O10 0.158631 0.524872 0.094099
O O11 0.440027 0.837091 0.251172
O O12 0.000000 0.000000 0.500000
O O13 0.299823 0.318668 0.650015
O O14 0.000000 0.500000 0.000000
#
# Coordination Sequence:
#
# PCOD9013203 Si02
#       6
#     2   2   2   2   2   2
#     4  12  24  42  67  98 135 175 224 277 341 404
#     4  11  25  46  72  99 138 180 232 287 341 404
#     4  11  26  47  70 101 137 182 233 283 342 406
#     4  10  21  41  63  95 131 170 217 272 332 398
#     4  11  24  43  66  98 136 171 228 279 335 407
#     4  11  23  41  66  95 134 177 219 273 343 401
#
# _framework density 21.309100999999998
#
# number of rings (size 3 to 8) (size 9 to 14) (size 15 to 20)
#    0.000    1.000    3.333    4.500    0.000    8.667 
#    0.000    0.000    0.000    0.000    0.000    0.000 
#    0.000    0.000    0.000    0.000    0.000    0.000 
#
# Total GULP energy -67090.133806 kJ/mol
# GULP energy per Si atom -5590.844484 kJ/mol
# Density = 2.126060 g / cm^3
# Si number density = 21.309101 Si / 1000 Ang^3
#
#
#
# Elastic Constant Matrix: (Units=GPa)
#
#
# Indices 1 2 3 4 5 6 
#
# 1 149.2321 76.8374 44.3817 -2.7036 11.8224 9.3262
# 2 76.8374 196.6283 62.8192 -4.0462 32.8132 16.4011
# 3 44.3817 62.8192 100.4188 -1.1020 17.6748 3.9337
# 4 -2.7036 -4.0462 -1.1020 52.4905 8.5089 5.4328
# 5 11.8224 32.8132 17.6748 8.5089 48.3981 -2.6649
# 6 9.3262 16.4011 3.9337 5.4328 -2.6649 34.3738
#
#
#
# Elastic Compliance Matrix: (Units=1/GPa)
#
#
# Indices 1 2 3 4 5 6 
#
# 1 0.008784 -0.002721 -0.002221 0.000213 0.000426 -0.000832
# 2 -0.002721 0.008110 -0.002988 0.001446 -0.004181 -0.003342
# 3 -0.002221 -0.002988 0.013202 0.000272 -0.002285 0.000297
# 4 0.000213 0.001446 0.000272 0.020439 -0.004967 -0.004394
# 5 0.000426 -0.004181 -0.002285 -0.004967 0.025369 0.004892
# 6 -0.000832 -0.003342 0.000297 -0.004394 0.004892 0.031952
#
#
# Mechanical properties :
#
#
# Convention : Reuss Voigt Hill
#
# Bulk Modulus (GPa) = 70.23579 90.48398 80.35988
# Shear Modulus (GPa) = 38.92221 44.53521 41.72871
#
# Velocity S-wave (km/s) = 4.27846 4.57657 4.43002
# Velocity P-wave (km/s) = 7.57885 8.39532 7.99751
#
# Compressibility (1/GPa) = 0.01423776
#
# Stress axis : x y z
#
# Youngs Moduli (GPa) = 113.84044 123.30845 75.74354
#
# Poissons Ratio (x) = 0.33548 0.16819
# Poissons Ratio (y) = 0.30972 0.22633
# Poissons Ratio (z) = 0.25278 0.36847
#
# Static dielectric constant tensor:
#      x y z
#    x 1.737300 0.066480 -0.000690 
#    y 0.066480 1.600590 0.001550 
#    z -0.000690 0.001550 1.768900 
# 
# From -- ./inp_files/466006.got.cif
#   From: 2010.05.17/outbox.cif.g08.bks.cpg/sg2_234_cif.got.tgz:466006.got - 2010.06.03 11:33:40.
