data_PCOD9013460
_publ_section_title
;
Structure prediction by ZEFSAII (Michael W. Deem and Ramdas Pophale) SiO2 
 PCOD9013460
Probable space group: P -1
;
_chemical_formula_sum "Si O2"
_cell_formula_units_Z 15
_cell_length_a 19.764953
_cell_length_b 13.174646
_cell_length_c 7.020928
_cell_angle_alpha 89.246225
_cell_angle_beta 114.539375
_cell_angle_gamma 145.715051
_cell_volume 716.708532
_symmetry_space_group_name_H-M "P -1"
_symmetry_group_IT_number 2
_symmetry_cell_setting 'triclinic'
loop_
_space_group_symop_operation_xyz
x,y,z
-x,-y,-z
loop_
_atom_site_type_symbol
_atom_site_label
_atom_site_fract_x
_atom_site_fract_y
_atom_site_fract_z
Si Si1 0.724661 0.172177 0.210118
Si Si2 0.467501 0.515372 0.657833
Si Si3 0.167614 0.307515 0.330525
Si Si4 0.743885 0.825696 0.247337
Si Si5 0.000000 0.000000 0.500000
Si Si6 0.025923 0.476448 0.831961
Si Si7 0.666276 0.339605 0.191622
Si Si8 0.085110 0.313958 0.852716
O O1 0.811413 0.277670 0.100547
O O2 0.703652 0.265209 0.236060
O O3 0.859675 0.289098 0.509243
O O4 0.536456 0.892700 0.013450
O O5 0.500000 0.500000 0.500000
O O6 0.333435 0.441424 0.481290
O O7 0.375769 0.324903 0.703973
O O8 0.646697 0.764215 0.968220
O O9 0.232839 0.484472 0.522624
O O10 0.088448 0.247746 0.041811
O O11 0.036269 0.089077 0.322885
O O12 0.789942 0.767940 0.240384
O O13 0.937325 0.094679 0.535392
O O14 0.051611 0.387416 0.877744
O O15 0.000000 0.500000 0.000000
O O16 0.741838 0.472949 0.076543
#
# Coordination Sequence:
#
# PCOD9013460 Si02
#       8
#     2   2   2   2   1   2   2   2
#     4   9  21  40  67  90 129 175 204 260 330 373
#     4  10  25  42  61  86 130 166 212 261 327 375
#     4  11  24  41  65  96 125 172 214 267 319 383
#     4  10  23  42  62  91 120 167 212 267 314 381
#     4  10  22  42  68  84 126 166 214 264 320 378
#     4  10  21  41  64  96 133 168 209 260 319 390
#     4  10  21  42  63  94 129 165 217 267 314 387
#     4  11  24  39  68  97 126 167 222 264 319 378
#
# _framework density 20.929010000000002
#
# number of rings (size 3 to 8) (size 9 to 14) (size 15 to 20)
#    0.000    1.867    1.333    0.800    5.600    3.200 
#    2.400    4.000    0.000    0.000    0.000    0.000 
#    0.000    0.000    0.000    0.000    0.000    0.000 
#
# Total GULP energy -83560.474935 kJ/mol
# GULP energy per Si atom -5570.698329 kJ/mol
# Density = 2.088137 g / cm^3
# Si number density = 20.929010 Si / 1000 Ang^3
#
#
#
# Elastic Constant Matrix: (Units=GPa)
#
#
# Indices 1 2 3 4 5 6 
#
# 1 64.9519 40.1454 55.3033 -19.6115 6.5590 16.1369
# 2 40.1454 123.4473 81.1958 -5.8176 6.6976 18.4763
# 3 55.3033 81.1958 121.6862 -22.0355 0.6028 17.5526
# 4 -19.6115 -5.8176 -22.0355 32.9988 -1.0308 2.7528
# 5 6.5590 6.6976 0.6028 -1.0308 27.3952 8.1174
# 6 16.1369 18.4763 17.5526 2.7528 8.1174 29.4473
#
#
#
# Elastic Compliance Matrix: (Units=1/GPa)
#
#
# Indices 1 2 3 4 5 6 
#
# 1 0.031111 -0.001773 -0.009017 0.012971 -0.003093 -0.010922
# 2 -0.001773 0.015584 -0.010320 -0.005176 -0.002951 -0.001358
# 3 -0.009017 -0.010320 0.020960 0.007261 0.005460 -0.003261
# 4 0.012971 -0.005176 0.007261 0.043160 0.003535 -0.013197
# 5 -0.003093 -0.002951 0.005460 0.003535 0.041368 -0.011442
# 6 -0.010922 -0.001358 -0.003261 -0.013197 -0.011442 0.047128
#
#
# Mechanical properties :
#
#
# Convention : Reuss Voigt Hill
#
# Bulk Modulus (GPa) = 39.31398 73.70825 56.51111
# Shear Modulus (GPa) = 19.99929 26.86432 23.43180
#
# Velocity S-wave (km/s) = 3.09460 3.58661 3.34965
# Velocity P-wave (km/s) = 5.62085 7.24199 6.48230
#
# Compressibility (1/GPa) = 0.02543625
#
# Stress axis : x y z
#
# Youngs Moduli (GPa) = 32.14277 64.16707 47.71043
#
# Poissons Ratio (x) = 0.11378 0.43018
# Poissons Ratio (y) = 0.05700 0.49236
# Poissons Ratio (z) = 0.28982 0.66219
#
# Static dielectric constant tensor:
#      x y z
#    x 1.529280 0.020350 0.045110 
#    y 0.020350 1.761000 0.011630 
#    z 0.045110 0.011630 1.741210 
# 
# From -- ./inp_files/39299.got.cif
#   From: 2010.05.17/outbox.cif.g08.bks.cpg/sg2_20_cif.got.tgz:39299.got - 2010.06.03 11:33:40.
