data_PCOD9013792
_publ_section_title
;
Structure prediction by ZEFSAII (Michael W. Deem and Ramdas Pophale) SiO2 
 PCOD9013792
Probable space group: P -1
;
_chemical_formula_sum "Si O2"
_cell_formula_units_Z 14
_cell_length_a 18.868332
_cell_length_b 21.909595
_cell_length_c 5.462675
_cell_angle_alpha 109.059766
_cell_angle_beta 105.821445
_cell_angle_gamma 17.728126
_cell_volume 644.130081
_symmetry_space_group_name_H-M "P -1"
_symmetry_group_IT_number 2
_symmetry_cell_setting 'triclinic'
loop_
_space_group_symop_operation_xyz
x,y,z
-x,-y,-z
loop_
_atom_site_type_symbol
_atom_site_label
_atom_site_fract_x
_atom_site_fract_y
_atom_site_fract_z
Si Si1 0.354994 0.899388 0.085872
Si Si2 0.750363 0.758799 0.250219
Si Si3 0.768501 0.194105 0.870338
Si Si4 0.722746 0.888823 0.759068
Si Si5 0.167319 0.993782 0.535622
Si Si6 0.864045 0.530482 0.141883
Si Si7 0.651695 0.413615 0.726274
O O1 0.271208 0.936709 0.308197
O O2 0.632643 0.681578 0.078257
O O3 0.243644 0.063591 0.172886
O O4 0.284532 0.920293 0.800775
O O5 0.684960 0.882414 0.461641
O O6 0.790065 0.663542 0.340198
O O7 0.527219 0.918390 0.091842
O O8 0.994977 0.569731 0.102108
O O9 0.797202 0.112806 0.597568
O O10 0.742437 0.285676 0.841894
O O11 0.528960 0.386810 0.054990
O O12 0.000000 0.000000 0.000000
O O13 0.947022 0.666616 0.787102
O O14 0.890101 0.241758 0.609676
O O15 0.500000 0.500000 0.500000
#
# Coordination Sequence:
#
# PCOD9013792 Si02
#       7
#     2   2   2   2   2   2   2
#     4  11  29  45  65 100 149 190 225 283 345 447
#     4   9  20  38  68  97 126 171 246 299 347 392
#     4  11  24  47  77 109 140 181 236 306 349 417
#     4  10  21  41  65  98 132 180 233 296 345 411
#     4  12  27  51  69 105 153 185 234 285 360 426
#     4  10  21  41  65  97 129 182 236 289 354 408
#     4  11  25  45  79 108 135 180 245 297 353 412
#
# _framework density 21.734739999999999
#
# number of rings (size 3 to 8) (size 9 to 14) (size 15 to 20)
#    0.000    1.429    1.429    2.143    8.000    1.143 
#    5.143    0.000    0.000    0.000    0.000    0.000 
#    0.000    0.000    0.000    0.000    0.000    0.000 
#
# Total GULP energy -78147.460883 kJ/mol
# GULP energy per Si atom -5581.961492 kJ/mol
# Density = 2.168527 g / cm^3
# Si number density = 21.734740 Si / 1000 Ang^3
#
#
#
# Elastic Constant Matrix: (Units=GPa)
#
#
# Indices 1 2 3 4 5 6 
#
# 1 88.7811 64.5349 39.6531 -9.8569 -2.0360 -23.1165
# 2 64.5349 229.1395 45.0035 -27.6379 -1.6348 -51.8875
# 3 39.6531 45.0035 103.9285 2.0538 10.1890 -11.7990
# 4 -9.8569 -27.6379 2.0538 58.8727 3.2382 18.1638
# 5 -2.0360 -1.6348 10.1890 3.2382 36.1935 7.5107
# 6 -23.1165 -51.8875 -11.7990 18.1638 7.5107 80.4649
#
#
#
# Elastic Compliance Matrix: (Units=1/GPa)
#
#
# Indices 1 2 3 4 5 6 
#
# 1 0.016267 -0.003161 -0.004846 0.000827 0.001735 0.001576
# 2 -0.003161 0.006287 -0.001230 0.001673 -0.000239 0.002611
# 3 -0.004846 -0.001230 0.012449 -0.001734 -0.003757 0.000383
# 4 0.000827 0.001673 -0.001734 0.018975 -0.000427 -0.003181
# 5 0.001735 -0.000239 -0.003757 -0.000427 0.029404 -0.002855
# 6 0.001576 0.002611 0.000383 -0.003181 -0.002855 0.015605
#
#
# Mechanical properties :
#
#
# Convention : Reuss Voigt Hill
#
# Bulk Modulus (GPa) = 60.49022 80.02580 70.25801
# Shear Modulus (GPa) = 40.66000 53.28338 46.97169
#
# Velocity S-wave (km/s) = 4.32989 4.95667 4.65384
# Velocity P-wave (km/s) = 7.27247 8.34609 7.82771
#
# Compressibility (1/GPa) = 0.01653160
#
# Stress axis : x y z
#
# Youngs Moduli (GPa) = 61.47234 159.05539 80.32562
#
# Poissons Ratio (x) = 0.50276 0.38922
# Poissons Ratio (y) = 0.19431 0.09878
# Poissons Ratio (z) = 0.29787 0.19559
#
# Static dielectric constant tensor:
#      x y z
#    x 1.803370 -0.010570 -0.034940 
#    y -0.010570 1.887110 0.059800 
#    z -0.034940 0.059800 1.887170 
# 
# From -- ./inp_files/112268.got.cif
#   From: 2010.05.17/outbox.cif.g08.bks.cpg/sg2_57_cif.got.tgz:112268.got - 2010.06.03 11:33:40.
