data_PCOD9013028
_publ_section_title
;
Structure prediction by ZEFSAII (Michael W. Deem and Ramdas Pophale) SiO2 
 PCOD9013028
Probable space group: P -1
;
_chemical_formula_sum "Si O2"
_cell_formula_units_Z 16
_cell_length_a 14.872138
_cell_length_b 12.126112
_cell_length_c 9.660092
_cell_angle_alpha 132.531613
_cell_angle_beta 137.995100
_cell_angle_gamma 42.052270
_cell_volume 750.280200
_symmetry_space_group_name_H-M "P -1"
_symmetry_group_IT_number 2
_symmetry_cell_setting 'triclinic'
loop_
_space_group_symop_operation_xyz
x,y,z
-x,-y,-z
loop_
_atom_site_type_symbol
_atom_site_label
_atom_site_fract_x
_atom_site_fract_y
_atom_site_fract_z
Si Si1 0.431101 0.187434 0.646014
Si Si2 0.145033 0.410770 0.691657
Si Si3 0.356816 0.511725 0.676931
Si Si4 0.135446 0.346966 0.934815
Si Si5 0.304574 0.639220 0.125520
Si Si6 0.050089 0.099016 0.752750
Si Si7 0.727256 0.428904 0.683536
Si Si8 0.753853 0.163010 0.017101
O O1 0.293150 0.250490 0.653152
O O2 0.358860 0.337070 0.573415
O O3 0.500000 0.000000 0.500000
O O4 0.586640 0.182599 0.874240
O O5 0.096821 0.362175 0.740772
O O6 0.000000 0.500000 0.500000
O O7 0.202191 0.547778 0.910760
O O8 0.533258 0.466680 0.855928
O O9 0.310946 0.572841 0.520454
O O10 0.247845 0.667557 0.781739
O O11 0.157997 0.168102 0.866221
O O12 0.274193 0.391143 0.142220
O O13 0.000000 0.500000 0.000000
O O14 0.353733 0.616852 0.324084
O O15 0.230504 0.822394 0.118393
O O16 0.897965 0.271279 0.764763
O O17 0.124038 0.992600 0.885512
O O18 0.000000 0.000000 0.500000
#
# Coordination Sequence:
#
# PCOD9013028 Si02
#       8
#     2   2   2   2   2   2   2   2
#     4  11  25  42  67 102 132 173 222 269 333 382
#     4  11  23  40  70  95 129 172 223 269 324 397
#     4  11  20  42  71  87 130 173 215 261 328 399
#     4   9  23  41  60  93 131 169 217 266 330 380
#     4  10  21  41  62  98 120 169 221 262 323 389
#     4  11  23  39  62  94 129 172 213 266 325 382
#     4  10  22  39  66  94 127 168 218 268 327 389
#     4  11  22  42  69  88 133 171 214 267 319 398
#
# _framework density 21.325364
#
# number of rings (size 3 to 8) (size 9 to 14) (size 15 to 20)
#    0.000    1.500    3.750    1.125    7.000    2.500 
#    4.500    0.625    0.000    0.000    0.000    0.000 
#    0.000    0.000    0.000    0.000    0.000    0.000 
#
# Total GULP energy -89189.327222 kJ/mol
# GULP energy per Si atom -5574.332951 kJ/mol
# Density = 2.127683 g / cm^3
# Si number density = 21.325364 Si / 1000 Ang^3
#
#
#
# Elastic Constant Matrix: (Units=GPa)
#
#
# Indices 1 2 3 4 5 6 
#
# 1 93.0487 33.9763 15.2533 -0.9728 -25.5457 18.6078
# 2 33.9763 117.9374 27.8605 -4.8123 -10.4551 24.9842
# 3 15.2533 27.8605 56.4664 -2.8687 -21.0496 12.5578
# 4 -0.9728 -4.8123 -2.8687 39.9858 10.0478 -7.7277
# 5 -25.5457 -10.4551 -21.0496 10.0478 33.0429 -6.0689
# 6 18.6078 24.9842 12.5578 -7.7277 -6.0689 38.4202
#
#
#
# Elastic Compliance Matrix: (Units=1/GPa)
#
#
# Indices 1 2 3 4 5 6 
#
# 1 0.016306 -0.003270 0.003476 -0.004363 0.014092 -0.005559
# 2 -0.003270 0.011264 -0.004785 0.000841 -0.003094 -0.004497
# 3 0.003476 -0.004785 0.027091 -0.004291 0.018758 -0.005327
# 4 -0.004363 0.000841 -0.004291 0.029402 -0.013542 0.006743
# 5 0.014092 -0.003094 0.018758 -0.013542 0.055342 -0.004926
# 6 -0.005559 -0.004497 -0.005327 0.006743 -0.004926 0.033964
#
#
# Mechanical properties :
#
#
# Convention : Reuss Voigt Hill
#
# Bulk Modulus (GPa) = 21.97610 46.84808 34.41209
# Shear Modulus (GPa) = 25.29160 34.98059 30.13610
#
# Velocity S-wave (km/s) = 3.44755 4.05449 3.76328
# Velocity P-wave (km/s) = 5.11615 6.62831 5.92070
#
# Compressibility (1/GPa) = 0.04550398
#
# Stress axis : x y z
#
# Youngs Moduli (GPa) = 61.32692 88.77737 36.91299
#
# Poissons Ratio (x) = 0.29030 -0.12833
# Poissons Ratio (y) = 0.20054 0.17663
# Poissons Ratio (z) = -0.21320 0.42480
#
# Static dielectric constant tensor:
#      x y z
#    x 1.971660 0.039110 -0.032310 
#    y 0.039110 1.783050 0.001240 
#    z -0.032310 0.001240 1.846790 
# 
# From -- ./inp_files/206860.got.cif
#   From: 2010.05.17/outbox.cif.g08.bks.cpg/sg2_104_cif.got.tgz:206860.got - 2010.06.03 11:33:40.
