data_PCOD9013622
_publ_section_title
;
Structure prediction by ZEFSAII (Michael W. Deem and Ramdas Pophale) SiO2 
 PCOD9013622
Probable space group: P -1
;
_chemical_formula_sum "Si O2"
_cell_formula_units_Z 16
_cell_length_a 12.766607
_cell_length_b 7.537644
_cell_length_c 11.337971
_cell_angle_alpha 124.561407
_cell_angle_beta 56.089021
_cell_angle_gamma 130.134982
_cell_volume 654.128599
_symmetry_space_group_name_H-M "P -1"
_symmetry_group_IT_number 2
_symmetry_cell_setting 'triclinic'
loop_
_space_group_symop_operation_xyz
x,y,z
-x,-y,-z
loop_
_atom_site_type_symbol
_atom_site_label
_atom_site_fract_x
_atom_site_fract_y
_atom_site_fract_z
Si Si1 0.927350 0.101288 0.848624
Si Si2 0.169482 0.024307 0.743027
Si Si3 0.190230 0.779827 0.400199
Si Si4 0.930871 0.710313 0.403197
Si Si5 0.713650 0.583385 0.673247
Si Si6 0.394382 0.430762 0.895454
Si Si7 0.558659 0.068705 0.856358
Si Si8 0.720135 0.095430 0.148989
O O1 0.811430 0.856504 0.763639
O O2 0.036740 0.287365 0.753771
O O3 0.840076 0.205711 0.015676
O O4 0.014429 0.008136 0.842632
O O5 0.280118 0.304898 0.814693
O O6 0.207463 0.864463 0.752463
O O7 0.187259 0.948158 0.571934
O O8 0.031903 0.634431 0.388209
O O9 0.245782 0.602610 0.353634
O O10 0.302043 0.934888 0.284869
O O11 0.769333 0.585928 0.505927
O O12 0.000000 0.000000 0.500000
O O13 0.548860 0.506554 0.770312
O O14 0.345348 0.201569 0.927856
O O15 0.389668 0.642005 0.052810
O O16 0.425071 0.898998 0.790332
O O17 0.500000 0.000000 0.000000
#
# Coordination Sequence:
#
# PCOD9013622 Si02
#       8
#     2   2   2   2   2   2   2   2
#     4  11  20  41  66  92 123 174 212 261 311 384
#     4  10  24  38  67  95 131 164 213 258 333 366
#     4  12  22  41  64 101 122 168 218 269 304 380
#     4  10  22  37  64  93 127 166 216 261 314 372
#     4  11  21  38  70  89 125 163 230 254 301 380
#     4  10  23  43  64  97 120 175 208 261 314 381
#     4  12  24  39  69  95 130 163 220 261 314 377
#     4  10  21  41  65  91 124 172 213 253 311 388
#
# _framework density 24.460021000000001
#
# number of rings (size 3 to 8) (size 9 to 14) (size 15 to 20)
#    0.750    0.500    5.000    2.625    1.750    2.000 
#    0.000    3.750    0.000    2.250    0.000    0.000 
#    0.000    0.000    0.000    0.000    0.000    0.000 
#
# Total GULP energy -89365.469379 kJ/mol
# GULP energy per Si atom -5585.341836 kJ/mol
# Density = 2.440435 g / cm^3
# Si number density = 24.460021 Si / 1000 Ang^3
#
#
#
# Elastic Constant Matrix: (Units=GPa)
#
#
# Indices 1 2 3 4 5 6 
#
# 1 91.7757 6.0957 25.7948 1.1150 4.4104 31.2742
# 2 6.0957 38.9962 35.4631 -6.2619 3.7768 8.4829
# 3 25.7948 35.4631 123.5226 -27.4390 -3.7300 29.6048
# 4 1.1150 -6.2619 -27.4390 48.1893 2.3252 -1.1289
# 5 4.4104 3.7768 -3.7300 2.3252 40.2410 -5.2771
# 6 31.2742 8.4829 29.6048 -1.1289 -5.2771 28.1557
#
#
#
# Elastic Compliance Matrix: (Units=1/GPa)
#
#
# Indices 1 2 3 4 5 6 
#
# 1 0.018694 0.001702 0.001077 0.000104 -0.005180 -0.023376
# 2 0.001702 0.035647 -0.010336 -0.001125 -0.004780 -0.002704
# 3 0.001077 -0.010336 0.015974 0.007386 -0.000006 -0.014583
# 4 0.000104 -0.001125 0.007386 0.024723 -0.001547 -0.006842
# 5 -0.005180 -0.004780 -0.000006 -0.001547 0.027569 0.012306
# 6 -0.023376 -0.002704 -0.014583 -0.006842 0.012306 0.079663
#
#
# Mechanical properties :
#
#
# Convention : Reuss Voigt Hill
#
# Bulk Modulus (GPa) = 18.11550 43.22241 30.66896
# Shear Modulus (GPa) = 21.20575 35.77991 28.49283
#
# Velocity S-wave (km/s) = 2.94761 3.82880 3.41673
# Velocity P-wave (km/s) = 4.35967 6.10371 5.30387
#
# Compressibility (1/GPa) = 0.05520135
#
# Stress axis : x y z
#
# Youngs Moduli (GPa) = 53.49299 28.05249 62.60182
#
# Poissons Ratio (x) = -0.04775 -0.06741
# Poissons Ratio (y) = -0.09105 0.64705
# Poissons Ratio (z) = -0.05760 0.28995
#
# Static dielectric constant tensor:
#      x y z
#    x 2.010270 -0.081590 0.039060 
#    y -0.081590 2.022190 -0.015350 
#    z 0.039060 -0.015350 1.936100 
# 
# From -- ./inp_files/446299.got.cif
#   From: 2010.05.17/outbox.cif.g08.bks.cpg/sg2_224_cif.got.tgz:446299.got - 2010.06.03 11:33:40.
