data_PCOD9013259
_publ_section_title
;
Structure prediction by ZEFSAII (Michael W. Deem and Ramdas Pophale) SiO2 
 PCOD9013259
Probable space group: P -1
;
_chemical_formula_sum "Si O2"
_cell_formula_units_Z 16
_cell_length_a 11.305417
_cell_length_b 5.561440
_cell_length_c 20.108918
_cell_angle_alpha 112.565938
_cell_angle_beta 140.715649
_cell_angle_gamma 53.774912
_cell_volume 639.044953
_symmetry_space_group_name_H-M "P -1"
_symmetry_group_IT_number 2
_symmetry_cell_setting 'triclinic'
loop_
_space_group_symop_operation_xyz
x,y,z
-x,-y,-z
loop_
_atom_site_type_symbol
_atom_site_label
_atom_site_fract_x
_atom_site_fract_y
_atom_site_fract_z
Si Si1 0.336642 0.238523 0.265785
Si Si2 0.362816 0.959119 0.118565
Si Si3 0.889661 0.604075 0.602177
Si Si4 0.748191 0.227308 0.427526
Si Si5 0.740379 0.406845 0.298689
Si Si6 0.258595 0.629288 0.937319
Si Si7 0.743340 0.866917 0.185681
Si Si8 0.824971 0.057854 0.726038
O O1 0.595734 0.101143 0.370239
O O2 0.249153 0.593139 0.278048
O O3 0.255375 0.221572 0.153852
O O4 0.272597 0.054775 0.269063
O O5 0.550956 0.706714 0.218541
O O6 0.501202 0.998985 0.124481
O O7 0.239075 0.803493 0.015416
O O8 0.738409 0.477354 0.499543
O O9 0.032366 0.603732 0.602316
O O10 0.072695 0.366871 0.707840
O O11 0.783334 0.919769 0.626743
O O12 0.668493 0.352149 0.332343
O O13 0.000000 0.000000 0.500000
O O14 0.775110 0.150007 0.233940
O O15 0.232035 0.334156 0.889246
O O16 0.500000 0.500000 0.000000
O O17 0.076997 0.875954 0.836968
#
# Coordination Sequence:
#
# PCOD9013259 Si02
#       8
#     2   2   2   2   2   2   2   2
#     4  12  27  47  70  99 153 193 234 289 356 424
#     4  10  21  41  64 100 138 181 234 289 352 417
#     4  10  23  40  66 100 141 181 236 290 350 422
#     4  12  23  43  73 106 133 185 245 294 354 420
#     4  11  20  38  71 103 142 176 228 311 359 404
#     4   9  21  45  72 105 134 182 242 290 352 425
#     4   9  18  38  64 103 137 168 227 296 360 398
#     4  11  28  49  69 104 148 197 230 290 358 424
#
# _framework density 25.037361000000001
#
# number of rings (size 3 to 8) (size 9 to 14) (size 15 to 20)
#    0.000    1.500    2.500    2.625    3.500    3.500 
#    4.500    0.000    0.000    0.000    0.000    0.000 
#    0.000    0.000    0.000    0.000    0.000    0.000 
#
# Total GULP energy -89456.721332 kJ/mol
# GULP energy per Si atom -5591.045083 kJ/mol
# Density = 2.498037 g / cm^3
# Si number density = 25.037361 Si / 1000 Ang^3
#
#
#
# Elastic Constant Matrix: (Units=GPa)
#
#
# Indices 1 2 3 4 5 6 
#
# 1 85.4923 3.8392 25.4255 6.2952 7.4571 8.0021
# 2 3.8392 127.5941 34.0376 33.1406 -1.8093 -10.5290
# 3 25.4255 34.0376 112.4720 44.7086 2.3357 -8.9497
# 4 6.2952 33.1406 44.7086 62.0681 -12.2513 -4.6731
# 5 7.4571 -1.8093 2.3357 -12.2513 31.4715 13.1020
# 6 8.0021 -10.5290 -8.9497 -4.6731 13.1020 25.9272
#
#
#
# Elastic Compliance Matrix: (Units=1/GPa)
#
#
# Indices 1 2 3 4 5 6 
#
# 1 0.013249 -0.000062 -0.003732 0.000917 -0.000416 -0.005027
# 2 -0.000062 0.009609 -0.000434 -0.005118 -0.003266 0.004500
# 3 -0.003732 -0.000434 0.015190 -0.011310 -0.008119 0.008283
# 4 0.000917 -0.005118 -0.011310 0.029272 0.015368 -0.008756
# 5 -0.000416 -0.003266 -0.008119 0.015368 0.049116 -0.026051
# 6 -0.005027 0.004500 0.008283 -0.008756 -0.026051 0.056394
#
#
# Mechanical properties :
#
#
# Convention : Reuss Voigt Hill
#
# Bulk Modulus (GPa) = 33.79274 50.24035 42.01655
# Shear Modulus (GPa) = 26.15740 41.37710 33.76725
#
# Velocity S-wave (km/s) = 3.23574 4.06965 3.67641
# Velocity P-wave (km/s) = 5.24273 6.49557 5.90249
#
# Compressibility (1/GPa) = 0.02959215
#
# Stress axis : x y z
#
# Youngs Moduli (GPa) = 75.47734 104.06637 65.83392
#
# Poissons Ratio (x) = 0.00645 0.24571
# Poissons Ratio (y) = 0.00468 0.02855
# Poissons Ratio (z) = 0.28170 0.04513
#
# Static dielectric constant tensor:
#      x y z
#    x 2.069880 -0.075940 0.013560 
#    y -0.075940 2.046840 0.012590 
#    z 0.013560 0.012590 1.952120 
# 
# From -- ./inp_files/510896.got.cif
#   From: 2010.05.17/outbox.cif.g08.bks.cpg/sg2_256_cif.got.tgz:510896.got - 2010.06.03 11:33:40.
