data_PCOD9013010
_publ_section_title
;
Structure prediction by ZEFSAII (Michael W. Deem and Ramdas Pophale) SiO2 
 PCOD9013010
Probable space group: P -1
;
_chemical_formula_sum "Si O2"
_cell_formula_units_Z 14
_cell_length_a 8.890894
_cell_length_b 10.478683
_cell_length_c 12.289954
_cell_angle_alpha 49.978957
_cell_angle_beta 74.316706
_cell_angle_gamma 42.769655
_cell_volume 548.786660
_symmetry_space_group_name_H-M "P -1"
_symmetry_group_IT_number 2
_symmetry_cell_setting 'triclinic'
loop_
_space_group_symop_operation_xyz
x,y,z
-x,-y,-z
loop_
_atom_site_type_symbol
_atom_site_label
_atom_site_fract_x
_atom_site_fract_y
_atom_site_fract_z
Si Si1 0.688397 0.084844 0.847422
Si Si2 0.559917 0.627265 0.864310
Si Si3 0.187389 0.686565 0.228057
Si Si4 0.165814 0.312819 0.684881
Si Si5 0.256473 0.088257 0.512182
Si Si6 0.614104 0.789932 0.981392
Si Si7 0.442382 0.786477 0.442669
O O1 0.857763 0.081077 0.876417
O O2 0.641059 0.182989 0.679227
O O3 0.450308 0.276983 0.867961
O O4 0.776396 0.821736 0.952811
O O5 0.746050 0.439662 0.833738
O O6 0.645139 0.674379 0.922776
O O7 0.336277 0.891112 0.697009
O O8 0.500000 0.500000 0.000000
O O9 0.983153 0.731249 0.287899
O O10 0.421566 0.464562 0.378927
O O11 0.976839 0.609140 0.589836
O O12 0.353809 0.092103 0.856006
O O13 0.500000 0.000000 0.500000
O O14 0.236309 0.019049 0.435320
O O15 0.349842 0.241150 0.601110
#
# Coordination Sequence:
#
# PCOD9013010 Si02
#       7
#     2   2   2   2   2   2   2
#     4  10  21  41  62  95 132 181 208 259 350 389
#     4  11  22  40  65  99 129 171 220 273 319 387
#     4  11  22  37  67  99 127 167 225 273 321 384
#     4  11  23  39  68 104 126 166 231 275 317 387
#     4  11  21  38  68 101 125 173 220 269 330 384
#     4  10  23  40  69  89 136 179 209 267 338 394
#     4  10  22  39  68  91 134 173 214 271 327 392
#
# _framework density 25.510826000000002
#
# number of rings (size 3 to 8) (size 9 to 14) (size 15 to 20)
#    0.000    1.429    4.286    2.571    2.000    0.571 
#    0.000    0.714    9.429    7.714    0.000    0.000 
#    0.000    0.000    0.000    0.000    0.000    0.000 
#
# Total GULP energy -78145.015692 kJ/mol
# GULP energy per Si atom -5581.786835 kJ/mol
# Density = 2.545276 g / cm^3
# Si number density = 25.510826 Si / 1000 Ang^3
#
#
#
# Elastic Constant Matrix: (Units=GPa)
#
#
# Indices 1 2 3 4 5 6 
#
# 1 94.6189 72.0534 21.2205 -3.4869 -13.4638 41.1682
# 2 72.0534 199.8506 73.3166 25.9983 2.3662 28.7361
# 3 21.2205 73.3166 97.8266 10.2909 -5.0470 14.9171
# 4 -3.4869 25.9983 10.2909 52.1202 11.5603 19.0925
# 5 -13.4638 2.3662 -5.0470 11.5603 35.9227 -7.3542
# 6 41.1682 28.7361 14.9171 19.0925 -7.3542 41.7459
#
#
#
# Elastic Compliance Matrix: (Units=1/GPa)
#
#
# Indices 1 2 3 4 5 6 
#
# 1 0.037154 -0.012358 0.004971 0.022365 0.000024 -0.040134
# 2 -0.012358 0.011599 -0.006744 -0.008774 -0.001395 0.010380
# 3 0.004971 -0.006744 0.015021 0.002569 0.002280 -0.006401
# 4 0.022365 -0.008774 0.002569 0.040922 -0.011563 -0.037687
# 5 0.000024 -0.001395 0.002280 -0.011563 0.034326 0.011457
# 6 -0.040134 0.010380 -0.006401 -0.037687 0.011457 0.077930
#
#
# Mechanical properties :
#
#
# Convention : Reuss Voigt Hill
#
# Bulk Modulus (GPa) = 28.15921 80.60857 54.38389
# Shear Modulus (GPa) = 19.45141 41.00481 30.22811
#
# Velocity S-wave (km/s) = 2.76429 4.01353 3.44599
# Velocity P-wave (km/s) = 4.60983 7.29001 6.09897
#
# Compressibility (1/GPa) = 0.03551236
#
# Stress axis : x y z
#
# Youngs Moduli (GPa) = 26.91472 86.21734 66.57156
#
# Poissons Ratio (x) = 1.06547 -0.33090
# Poissons Ratio (y) = 0.33261 0.44894
# Poissons Ratio (z) = -0.13378 0.58142
#
# Static dielectric constant tensor:
#      x y z
#    x 2.083750 0.063200 0.006770 
#    y 0.063200 2.042490 0.048430 
#    z 0.006770 0.048430 2.146400 
# 
# From -- ./inp_files/420588.got.cif
#   From: 2010.05.17/outbox.cif.g08.bks.cpg/sg2_211_cif.got.tgz:420588.got - 2010.06.03 11:33:40.
