data_PCOD9013565
_publ_section_title
;
Structure prediction by ZEFSAII (Michael W. Deem and Ramdas Pophale) SiO2 
 PCOD9013565
Probable space group: P -1
;
_chemical_formula_sum "Si O2"
_cell_formula_units_Z 16
_cell_length_a 7.889933
_cell_length_b 24.471917
_cell_length_c 9.430824
_cell_angle_alpha 28.707821
_cell_angle_beta 129.829835
_cell_angle_gamma 126.751746
_cell_volume 668.391341
_symmetry_space_group_name_H-M "P -1"
_symmetry_group_IT_number 2
_symmetry_cell_setting 'triclinic'
loop_
_space_group_symop_operation_xyz
x,y,z
-x,-y,-z
loop_
_atom_site_type_symbol
_atom_site_label
_atom_site_fract_x
_atom_site_fract_y
_atom_site_fract_z
Si Si1 0.255326 0.983384 0.682564
Si Si2 0.656540 0.553722 0.279872
Si Si3 0.111339 0.609506 0.505735
Si Si4 0.750208 0.702150 0.727596
Si Si5 0.778445 0.543567 0.851965
Si Si6 0.708073 0.193842 0.682189
Si Si7 0.212941 0.771011 0.942004
Si Si8 0.457664 0.779795 0.760185
O O1 0.295927 0.881020 0.829042
O O2 0.394719 0.100577 0.451311
O O3 0.293237 0.933880 0.971768
O O4 0.000000 0.000000 0.500000
O O5 0.429667 0.471501 0.331719
O O6 0.878788 0.533340 0.530353
O O7 0.732431 0.592290 0.074103
O O8 0.586786 0.671576 0.039525
O O9 0.092472 0.728848 0.308556
O O10 0.264218 0.549171 0.833214
O O11 0.206873 0.658970 0.295047
O O12 0.790260 0.660190 0.684039
O O13 0.527135 0.763859 0.487510
O O14 0.962813 0.777077 0.736340
O O15 0.000000 0.500000 0.000000
O O16 0.721131 0.214984 0.474227
O O17 0.358211 0.764024 0.897285
#
# Coordination Sequence:
#
# PCOD9013565 Si02
#       8
#     2   2   2   2   2   2   2   2
#     4  11  22  41  66  95 132 175 218 265 334 399
#     4  10  22  41  65  96 132 174 217 268 330 390
#     4  10  22  43  63  92 134 175 219 259 342 376
#     4  10  21  41  65  88 133 174 216 267 331 387
#     4  12  24  42  67  98 133 172 226 277 320 394
#     4  10  21  41  67  93 128 180 215 262 336 392
#     4  10  23  40  63  97 133 170 217 277 322 390
#     4  11  20  40  67  96 137 166 223 275 319 390
#
# _framework density 23.938071999999998
#
# number of rings (size 3 to 8) (size 9 to 14) (size 15 to 20)
#    0.000    1.500    2.500    4.875    0.000    2.500 
#    6.750    5.000    0.000    0.750    0.000    0.000 
#    0.000    0.000    0.000    0.000    0.000    0.000 
#
# Total GULP energy -89480.153845 kJ/mol
# GULP energy per Si atom -5592.509615 kJ/mol
# Density = 2.388359 g / cm^3
# Si number density = 23.938072 Si / 1000 Ang^3
#
#
#
# Elastic Constant Matrix: (Units=GPa)
#
#
# Indices 1 2 3 4 5 6 
#
# 1 76.9220 10.7372 17.7892 13.3853 -10.0321 -17.8359
# 2 10.7372 109.6475 7.4017 13.3847 -10.1482 5.7978
# 3 17.7892 7.4017 94.8864 18.8993 -5.0865 -2.1917
# 4 13.3853 13.3847 18.8993 27.2917 2.8064 8.0276
# 5 -10.0321 -10.1482 -5.0865 2.8064 33.0683 9.2762
# 6 -17.8359 5.7978 -2.1917 8.0276 9.2762 42.1824
#
#
#
# Elastic Compliance Matrix: (Units=1/GPa)
#
#
# Indices 1 2 3 4 5 6 
#
# 1 0.017615 -0.000487 -0.000711 -0.010851 0.003548 0.008763
# 2 -0.000487 0.010192 0.000478 -0.005057 0.003897 -0.001477
# 3 -0.000711 0.000478 0.012651 -0.009340 0.002227 0.001579
# 4 -0.010851 -0.005057 -0.009340 0.055587 -0.007250 -0.013363
# 5 0.003548 0.003897 0.002227 -0.007250 0.034935 -0.005223
# 6 0.008763 -0.001477 0.001579 -0.013363 -0.005223 0.031388
#
#
# Mechanical properties :
#
#
# Convention : Reuss Voigt Hill
#
# Bulk Modulus (GPa) = 25.62877 39.25687 32.44282
# Shear Modulus (GPa) = 28.27819 36.87699 32.57759
#
# Velocity S-wave (km/s) = 3.44074 3.92920 3.69306
# Velocity P-wave (km/s) = 5.14922 6.08439 5.63623
#
# Compressibility (1/GPa) = 0.03901865
#
# Stress axis : x y z
#
# Youngs Moduli (GPa) = 56.76863 98.11993 79.04481
#
# Poissons Ratio (x) = 0.04783 0.05617
# Poissons Ratio (y) = 0.02767 -0.03781
# Poissons Ratio (z) = 0.04034 -0.04694
#
# Static dielectric constant tensor:
#      x y z
#    x 1.943520 -0.039830 0.008660 
#    y -0.039830 1.988520 -0.037920 
#    z 0.008660 -0.037920 1.900340 
# 
# From -- ./inp_files/225874.got.cif
#   From: 2010.05.17/outbox.cif.g08.bks.cpg/sg2_113_cif.got.tgz:225874.got - 2010.06.03 11:33:40.
