data_PCOD9013795
_publ_section_title
;
Structure prediction by ZEFSAII (Michael W. Deem and Ramdas Pophale) SiO2 
 PCOD9013795
Probable space group: P -1
;
_chemical_formula_sum "Si O2"
_cell_formula_units_Z 16
_cell_length_a 12.445377
_cell_length_b 14.909814
_cell_length_c 9.206301
_cell_angle_alpha 89.289583
_cell_angle_beta 80.328490
_cell_angle_gamma 26.408815
_cell_volume 710.902862
_symmetry_space_group_name_H-M "P -1"
_symmetry_group_IT_number 2
_symmetry_cell_setting 'triclinic'
loop_
_space_group_symop_operation_xyz
x,y,z
-x,-y,-z
loop_
_atom_site_type_symbol
_atom_site_label
_atom_site_fract_x
_atom_site_fract_y
_atom_site_fract_z
Si Si1 0.029957 0.868684 0.345669
Si Si2 0.409765 0.688997 0.477108
Si Si3 0.302206 0.111123 0.917564
Si Si4 0.659766 0.727854 0.659931
Si Si5 0.385875 0.444605 0.283027
Si Si6 0.629435 0.305766 0.948246
Si Si7 0.243150 0.497962 0.814383
Si Si8 0.211419 0.330944 0.687888
O O1 0.218374 0.773134 0.423868
O O2 0.128141 0.694301 0.302966
O O3 0.099917 0.872885 0.184415
O O4 0.745939 0.101272 0.462812
O O5 0.463212 0.614147 0.625858
O O6 0.687254 0.497268 0.344832
O O7 0.247484 0.224019 0.797916
O O8 0.426009 0.934933 0.808725
O O9 0.035585 0.285820 0.054725
O O10 0.500000 0.000000 0.000000
O O11 0.681051 0.604628 0.648492
O O12 0.648087 0.778629 0.499402
O O13 0.916726 0.564021 0.694212
O O14 0.584032 0.290785 0.109175
O O15 0.459779 0.373342 0.875859
O O16 0.500000 0.500000 0.000000
O O17 0.284083 0.365199 0.760829
#
# Coordination Sequence:
#
# PCOD9013795 Si02
#       8
#     2   2   2   2   2   2   2   2
#     4   9  21  42  65  93 133 178 217 273 334 397
#     4  10  21  41  65  97 131 172 227 266 333 402
#     4  12  26  44  71 100 135 182 228 279 342 401
#     4  11  25  44  68 103 133 179 226 277 345 401
#     4  11  21  39  66  98 133 170 224 275 331 401
#     4   9  21  39  66  95 134 173 214 273 333 388
#     4  11  22  45  67  96 135 176 218 279 331 395
#     4  11  24  47  68  94 142 173 226 287 331 405
#
# _framework density 22.506589999999999
#
# number of rings (size 3 to 8) (size 9 to 14) (size 15 to 20)
#    0.000    1.500    2.500    1.875    1.750    3.500 
#    6.750    3.750    0.000    0.000    0.000    0.000 
#    0.000    0.000    0.000    0.000    0.000    0.000 
#
# Total GULP energy -89276.213011 kJ/mol
# GULP energy per Si atom -5579.763313 kJ/mol
# Density = 2.245536 g / cm^3
# Si number density = 22.506590 Si / 1000 Ang^3
#
#
#
# Elastic Constant Matrix: (Units=GPa)
#
#
# Indices 1 2 3 4 5 6 
#
# 1 81.3429 33.1359 27.1741 4.7911 -0.9148 0.4579
# 2 33.1359 82.7236 46.4124 12.6914 -1.7779 4.8254
# 3 27.1741 46.4124 146.4103 11.6895 4.1735 -8.6753
# 4 4.7911 12.6914 11.6895 40.3807 -6.1455 6.4130
# 5 -0.9148 -1.7779 4.1735 -6.1455 21.2792 8.1343
# 6 0.4579 4.8254 -8.6753 6.4130 8.1343 20.0009
#
#
#
# Elastic Compliance Matrix: (Units=1/GPa)
#
#
# Indices 1 2 3 4 5 6 
#
# 1 0.014832 -0.005395 -0.001057 0.000253 0.000362 0.000275
# 2 -0.005395 0.017958 -0.005184 -0.001490 0.004903 -0.007974
# 3 -0.001057 -0.005184 0.009730 -0.003659 -0.007096 0.009555
# 4 0.000253 -0.001490 -0.003659 0.031695 0.016712 -0.018193
# 5 0.000362 0.004903 -0.007096 0.016712 0.067870 -0.037230
# 6 0.000275 -0.007974 0.009555 -0.018193 -0.037230 0.077035
#
#
# Mechanical properties :
#
#
# Convention : Reuss Voigt Hill
#
# Bulk Modulus (GPa) = 51.95646 58.21352 55.08499
# Shear Modulus (GPa) = 20.09582 29.91578 25.00580
#
# Velocity S-wave (km/s) = 2.99136 3.64978 3.33685
# Velocity P-wave (km/s) = 5.92166 6.60927 6.27489
#
# Compressibility (1/GPa) = 0.01924688
#
# Stress axis : x y z
#
# Youngs Moduli (GPa) = 67.42113 55.68689 102.77124
#
# Poissons Ratio (x) = 0.30046 0.10860
# Poissons Ratio (y) = 0.36377 0.53281
# Poissons Ratio (z) = 0.07125 0.28870
#
# Static dielectric constant tensor:
#      x y z
#    x 0.142510 0.157940 0.346030 
#    y 0.157940 1.832280 -0.055250 
#    z 0.346030 -0.055250 1.830550 
# 
# From -- ./inp_files/273114.got.cif
#   From: 2010.05.17/outbox.cif.g08.bks.cpg/sg2_137_cif.got.tgz:273114.got - 2010.06.03 11:33:40.
