data_PCOD9013404
_publ_section_title
;
Structure prediction by ZEFSAII (Michael W. Deem and Ramdas Pophale) SiO2 
 PCOD9013404
Probable space group: P -1
;
_chemical_formula_sum "Si O2"
_cell_formula_units_Z 12
_cell_length_a 7.063968
_cell_length_b 9.850701
_cell_length_c 7.530056
_cell_angle_alpha 77.660259
_cell_angle_beta 61.546965
_cell_angle_gamma 83.508410
_cell_volume 450.005186
_symmetry_space_group_name_H-M "P -1"
_symmetry_group_IT_number 2
_symmetry_cell_setting 'triclinic'
loop_
_space_group_symop_operation_xyz
x,y,z
-x,-y,-z
loop_
_atom_site_type_symbol
_atom_site_label
_atom_site_fract_x
_atom_site_fract_y
_atom_site_fract_z
Si Si1 0.669552 0.466720 0.589315
Si Si2 0.184725 0.120212 0.712124
Si Si3 0.145833 0.101418 0.144114
Si Si4 0.047445 0.615397 0.798945
Si Si5 0.512308 0.269122 0.269065
Si Si6 0.289076 0.813336 0.162428
O O1 0.500000 0.500000 0.500000
O O2 0.895104 0.462372 0.386768
O O3 0.617664 0.583277 0.725207
O O4 0.634445 0.311978 0.716104
O O5 0.370029 0.173474 0.488005
O O6 0.964046 0.211166 0.763089
O O7 0.232612 0.119121 0.899888
O O8 0.090986 0.969249 0.746880
O O9 0.115022 0.254127 0.192516
O O10 0.276396 0.969504 0.203271
O O11 0.262637 0.689263 0.753531
O O12 0.000000 0.500000 0.000000
O O13 0.574817 0.199175 0.074744
#
# Coordination Sequence:
#
# PCOD9013404 Si02
#       6
#     2   2   2   2   2   2
#     4  10  24  40  60  92 132 171 208 257 326 379
#     4   9  19  38  65 101 118 161 215 263 321 349
#     4   9  19  39  63  98 125 166 208 261 320 370
#     4  11  22  41  64  89 134 174 203 256 325 386
#     4  11  21  40  68  92 125 167 217 263 307 381
#     4  10  21  41  64  94 126 161 221 271 300 372
#
# _framework density 26.666359
#
# number of rings (size 3 to 8) (size 9 to 14) (size 15 to 20)
#    1.000    1.000    1.667    1.500    0.000    4.000 
#    6.000    0.000    0.000   17.000    0.000    0.000 
#    0.000    0.000    0.000    0.000    0.000    0.000 
#
# Total GULP energy -67165.323176 kJ/mol
# GULP energy per Si atom -5597.110265 kJ/mol
# Density = 2.660567 g / cm^3
# Si number density = 26.666359 Si / 1000 Ang^3
#
#
#
# Elastic Constant Matrix: (Units=GPa)
#
#
# Indices 1 2 3 4 5 6 
#
# 1 72.9423 54.7162 39.9473 -4.9045 -16.0815 -3.4761
# 2 54.7162 259.1519 76.0724 -0.7660 8.2586 -6.2300
# 3 39.9473 76.0724 195.6197 -17.3621 -29.2215 6.4938
# 4 -4.9045 -0.7660 -17.3621 52.8827 0.5022 3.0463
# 5 -16.0815 8.2586 -29.2215 0.5022 41.5377 -2.3869
# 6 -3.4761 -6.2300 6.4938 3.0463 -2.3869 38.9127
#
#
#
# Elastic Compliance Matrix: (Units=1/GPa)
#
#
# Indices 1 2 3 4 5 6 
#
# 1 0.019055 -0.003846 -0.001253 0.001135 0.007342 0.001657
# 2 -0.003846 0.005398 -0.002006 -0.000940 -0.003923 0.000688
# 3 -0.001253 -0.002006 0.007114 0.002231 0.004805 -0.001500
# 4 0.001135 -0.000940 0.002231 0.019823 0.001849 -0.001860
# 5 0.007342 -0.003923 0.004805 0.001849 0.031112 0.000990
# 6 0.001657 0.000688 -0.001500 -0.001860 0.000990 0.026413
#
#
# Mechanical properties :
#
#
# Convention : Reuss Voigt Hill
#
# Bulk Modulus (GPa) = 57.61657 96.57620 77.09638
# Shear Modulus (GPa) = 38.78642 50.46517 44.62580
#
# Velocity S-wave (km/s) = 3.81794 4.35497 4.09527
# Velocity P-wave (km/s) = 6.41006 7.84747 7.16490
#
# Compressibility (1/GPa) = 0.01735612
#
# Stress axis : x y z
#
# Youngs Moduli (GPa) = 52.48059 185.23787 140.57647
#
# Poissons Ratio (x) = 0.71244 0.17615
# Poissons Ratio (y) = 0.20184 0.28202
# Poissons Ratio (z) = 0.06576 0.37162
#
# Static dielectric constant tensor:
#      x y z
#    x 2.393800 -0.034380 0.017270 
#    y -0.034380 2.092290 0.026240 
#    z 0.017270 0.026240 2.019800 
# 
# From -- ./inp_files/160894.got.cif
#   From: 2010.05.17/outbox.cif.g08.bks.cpg/sg2_81_cif.got.tgz:160894.got - 2010.06.03 11:33:40.
