data_PCOD9013901
_publ_section_title
;
Structure prediction by ZEFSAII (Michael W. Deem and Ramdas Pophale) SiO2 
 PCOD9013901
Probable space group: P -1
;
_chemical_formula_sum "Si O2"
_cell_formula_units_Z 16
_cell_length_a 6.871310
_cell_length_b 12.252251
_cell_length_c 16.686536
_cell_angle_alpha 54.405666
_cell_angle_beta 64.345541
_cell_angle_gamma 101.571180
_cell_volume 810.013314
_symmetry_space_group_name_H-M "P -1"
_symmetry_group_IT_number 2
_symmetry_cell_setting 'triclinic'
loop_
_space_group_symop_operation_xyz
x,y,z
-x,-y,-z
loop_
_atom_site_type_symbol
_atom_site_label
_atom_site_fract_x
_atom_site_fract_y
_atom_site_fract_z
Si Si1 0.806702 0.557452 0.419239
Si Si2 0.283350 0.530665 0.777030
Si Si3 0.939285 0.773219 0.156402
Si Si4 0.113069 0.186894 0.422902
Si Si5 0.800219 0.668444 0.969805
Si Si6 0.169906 0.428503 0.170971
Si Si7 0.225605 0.990939 0.863940
Si Si8 0.819592 0.254126 0.574508
O O1 0.500000 0.500000 0.500000
O O2 0.980929 0.695737 0.258908
O O3 0.789862 0.390890 0.482964
O O4 0.956614 0.644760 0.438536
O O5 0.286572 0.394474 0.783601
O O6 0.578813 0.710102 0.642819
O O7 0.042001 0.534293 0.789595
O O8 0.217653 0.462410 0.908974
O O9 0.839231 0.879214 0.159148
O O10 0.177065 0.890678 0.998409
O O11 0.133963 0.294670 0.297436
O O12 0.923781 0.187084 0.521137
O O13 0.000000 0.000000 0.500000
O O14 0.882844 0.649143 0.875616
O O15 0.009492 0.851838 0.896184
O O16 0.485996 0.599223 0.047369
O O17 0.530628 0.099975 0.729645
#
# Coordination Sequence:
#
# PCOD9013901 Si02
#       8
#     2   2   2   2   2   2   2   2
#     4  11  22  42  68  94 127 175 216 256 316 395
#     4  10  21  41  66  89 128 167 209 262 318 384
#     4  10  21  42  64  95 128 164 206 259 322 377
#     4  11  26  42  60  94 129 168 220 266 307 380
#     4   9  21  41  65  95 125 158 216 265 315 383
#     4  10  21  43  68  90 120 176 210 261 324 376
#     4  10  22  42  65  96 134 160 206 274 312 381
#     4  11  25  42  66  93 130 173 213 264 325 370
#
# _framework density 19.752761
#
# number of rings (size 3 to 8) (size 9 to 14) (size 15 to 20)
#    0.000    1.750    1.250    1.875    3.500    2.000 
#   15.750    0.000    0.000    0.000    0.000    0.000 
#    0.000    0.000    0.000    0.000    0.000    0.000 
#
# Total GULP energy -89376.512169 kJ/mol
# GULP energy per Si atom -5586.032011 kJ/mol
# Density = 1.970780 g / cm^3
# Si number density = 19.752761 Si / 1000 Ang^3
#
#
#
# Elastic Constant Matrix: (Units=GPa)
#
#
# Indices 1 2 3 4 5 6 
#
# 1 89.9313 44.0308 40.0372 -4.2115 -10.2410 -8.4434
# 2 44.0308 137.6820 69.2871 -2.8022 -21.7503 -3.9141
# 3 40.0372 69.2871 115.8525 -3.3366 -9.1620 -8.3839
# 4 -4.2115 -2.8022 -3.3366 33.7062 8.8352 1.9179
# 5 -10.2410 -21.7503 -9.1620 8.8352 34.5703 3.8364
# 6 -8.4434 -3.9141 -8.3839 1.9179 3.8364 15.6395
#
#
#
# Elastic Compliance Matrix: (Units=1/GPa)
#
#
# Indices 1 2 3 4 5 6 
#
# 1 0.014407 -0.002902 -0.002768 0.000741 0.000937 0.005247
# 2 -0.002902 0.011995 -0.005971 -0.001297 0.005772 -0.003022
# 3 -0.002768 -0.005971 0.013370 0.000671 -0.001706 0.004515
# 4 0.000741 -0.001297 0.000671 0.032013 -0.008443 -0.001420
# 5 0.000937 0.005772 -0.001706 -0.008443 0.035272 -0.006581
# 6 0.005247 -0.003022 0.004515 -0.001420 -0.006581 0.070226
#
#
# Mechanical properties :
#
#
# Convention : Reuss Voigt Hill
#
# Bulk Modulus (GPa) = 60.63975 72.24177 66.44076
# Shear Modulus (GPa) = 24.26462 29.45725 26.86093
#
# Velocity S-wave (km/s) = 3.50868 3.86592 3.69162
# Velocity P-wave (km/s) = 6.86880 7.52194 7.20278
#
# Compressibility (1/GPa) = 0.01649083
#
# Stress axis : x y z
#
# Youngs Moduli (GPa) = 69.41163 83.36547 74.79278
#
# Poissons Ratio (x) = 0.24193 0.20703
# Poissons Ratio (y) = 0.20144 0.44656
# Poissons Ratio (z) = 0.19214 0.49775
#
# Static dielectric constant tensor:
#      x y z
#    x 1.681300 0.015190 0.011430 
#    y 0.015190 1.670640 0.014720 
#    z 0.011430 0.014720 1.694120 
# 
# From -- ./inp_files/549421.got.cif
#   From: 2010.05.17/outbox.cif.g08.bks.cpg/sg2_275_cif.got.tgz:549421.got - 2010.06.03 11:33:40.
