data_PCOD9013596
_publ_section_title
;
Structure prediction by ZEFSAII (Michael W. Deem and Ramdas Pophale) SiO2 
 PCOD9013596
Probable space group: P -1
;
_chemical_formula_sum "Si O2"
_cell_formula_units_Z 16
_cell_length_a 13.886154
_cell_length_b 9.330060
_cell_length_c 19.767274
_cell_angle_alpha 48.460719
_cell_angle_beta 36.188294
_cell_angle_gamma 27.430652
_cell_volume 683.143279
_symmetry_space_group_name_H-M "P -1"
_symmetry_group_IT_number 2
_symmetry_cell_setting 'triclinic'
loop_
_space_group_symop_operation_xyz
x,y,z
-x,-y,-z
loop_
_atom_site_type_symbol
_atom_site_label
_atom_site_fract_x
_atom_site_fract_y
_atom_site_fract_z
Si Si1 0.948275 0.744203 0.494481
Si Si2 0.318344 0.396571 0.669725
Si Si3 0.508875 0.976122 0.123029
Si Si4 0.397314 0.522024 0.715918
Si Si5 0.427458 0.542027 0.225151
Si Si6 0.263386 0.413078 0.005995
Si Si7 0.309273 0.983743 0.862317
Si Si8 0.150264 0.661727 0.538231
O O1 0.000000 0.500000 0.500000
O O2 0.152440 0.715907 0.358767
O O3 0.037525 0.619298 0.560665
O O4 0.641949 0.111822 0.558114
O O5 0.229362 0.599355 0.723185
O O6 0.298113 0.195123 0.763332
O O7 0.154334 0.601360 0.632036
O O8 0.455578 0.820226 0.238898
O O9 0.747162 0.706213 0.018425
O O10 0.586318 0.058547 0.109468
O O11 0.288890 0.270341 0.104916
O O12 0.357966 0.645464 0.774669
O O13 0.549090 0.557035 0.583963
O O14 0.463845 0.717954 0.117440
O O15 0.505836 0.328448 0.187316
O O16 0.000961 0.789642 0.034329
O O17 0.000000 0.000000 0.500000
#
# Coordination Sequence:
#
# PCOD9013596 Si02
#       8
#     2   2   2   2   2   2   2   2
#     4  11  23  44  62  89 136 165 207 260 307 383
#     4  11  23  40  65  95 121 176 209 252 323 364
#     4   9  21  40  64  90 121 165 209 254 312 370
#     4   9  20  40  61  88 127 159 214 253 303 370
#     4  10  22  41  62  95 127 167 205 262 308 368
#     4  10  21  41  65  90 123 161 211 258 311 366
#     4  11  22  39  64  90 129 160 209 255 314 374
#     4  11  23  38  65  92 126 163 214 262 305 374
#
# _framework density 23.421147999999999
#
# number of rings (size 3 to 8) (size 9 to 14) (size 15 to 20)
#    0.000    1.750    2.500    1.125    1.750    1.000 
#    0.000    3.750    0.000    0.000    0.000    0.000 
#    0.000    0.000    0.000    0.000    0.000    0.000 
#
# Total GULP energy -89167.673682 kJ/mol
# GULP energy per Si atom -5572.979605 kJ/mol
# Density = 2.336784 g / cm^3
# Si number density = 23.421148 Si / 1000 Ang^3
#
#
#
# Elastic Constant Matrix: (Units=GPa)
#
#
# Indices 1 2 3 4 5 6 
#
# 1 187.6217 51.7468 40.2143 -18.1536 39.1065 2.1628
# 2 51.7468 30.7271 22.9248 2.3566 15.9133 -11.4280
# 3 40.2143 22.9248 113.2455 -8.3387 8.5774 -21.5003
# 4 -18.1536 2.3566 -8.3387 37.1606 -10.4866 8.7779
# 5 39.1065 15.9133 8.5774 -10.4866 36.6636 -3.9765
# 6 2.1628 -11.4280 -21.5003 8.7779 -3.9765 32.5755
#
#
#
# Elastic Compliance Matrix: (Units=1/GPa)
#
#
# Indices 1 2 3 4 5 6 
#
# 1 0.017202 -0.035930 -0.001258 0.014712 -0.000266 -0.018574
# 2 -0.035930 0.135766 -0.005595 -0.048280 -0.027027 0.056032
# 3 -0.001258 -0.005595 0.011405 0.001615 0.002158 0.005477
# 4 0.014712 -0.048280 0.001615 0.048582 0.015742 -0.028018
# 5 -0.000266 -0.027027 0.002158 0.015742 0.042517 -0.007091
# 6 -0.018574 0.056032 0.005477 -0.028018 -0.007091 0.061887
#
#
# Mechanical properties :
#
#
# Convention : Reuss Voigt Hill
#
# Bulk Modulus (GPa) = 12.68911 62.37400 37.53155
# Shear Modulus (GPa) = 11.64977 35.72718 23.68848
#
# Velocity S-wave (km/s) = 2.23268 3.90990 3.18372
# Velocity P-wave (km/s) = 3.47506 6.86094 5.43822
#
# Compressibility (1/GPa) = 0.07880776
#
# Stress axis : x y z
#
# Youngs Moduli (GPa) = 58.13262 7.36562 87.68147
#
# Poissons Ratio (x) = 0.26464 0.11031
# Poissons Ratio (y) = 2.08868 0.49056
# Poissons Ratio (z) = 0.07314 0.04121
#
# Static dielectric constant tensor:
#      x y z
#    x 1.905290 -0.034380 -0.044370 
#    y -0.034380 1.905100 0.097670 
#    z -0.044370 0.097670 2.029440 
# 
# From -- ./inp_files/566631.got.cif
#   From: 2010.05.17/outbox.cif.g08.bks.cpg/sg2_284_cif.got.tgz:566631.got - 2010.06.03 11:33:40.
