data_PCOD9013145
_publ_section_title
;
Structure prediction by ZEFSAII (Michael W. Deem and Ramdas Pophale) SiO2 
 PCOD9013145
Probable space group: P -1
;
_chemical_formula_sum "Si O2"
_cell_formula_units_Z 15
_cell_length_a 5.404792
_cell_length_b 16.670023
_cell_length_c 9.213698
_cell_angle_alpha 74.246861
_cell_angle_beta 119.637880
_cell_angle_gamma 73.625036
_cell_volume 602.385850
_symmetry_space_group_name_H-M "P -1"
_symmetry_group_IT_number 2
_symmetry_cell_setting 'triclinic'
loop_
_space_group_symop_operation_xyz
x,y,z
-x,-y,-z
loop_
_atom_site_type_symbol
_atom_site_label
_atom_site_fract_x
_atom_site_fract_y
_atom_site_fract_z
Si Si1 0.598836 0.905214 0.664356
Si Si2 0.258003 0.707570 0.238475
Si Si3 0.836832 0.106770 0.956815
Si Si4 0.488084 0.191843 0.081744
Si Si5 0.319912 0.612454 0.605764
Si Si6 0.000000 0.500000 0.000000
Si Si7 0.390421 0.424187 0.846689
Si Si8 0.064941 0.714800 0.756721
O O1 0.366057 0.897970 0.720362
O O2 0.727062 0.806478 0.660492
O O3 0.500000 0.000000 0.500000
O O4 0.898427 0.893674 0.855159
O O5 0.237907 0.808710 0.218911
O O6 0.307067 0.643553 0.422982
O O7 0.529308 0.655110 0.216511
O O8 0.901624 0.736936 0.052817
O O9 0.530334 0.145700 0.957034
O O10 0.000000 0.000000 0.000000
O O11 0.674336 0.249424 0.148195
O O12 0.299767 0.517475 0.678469
O O13 0.058302 0.692712 0.597982
O O14 0.666705 0.585736 0.790132
O O15 0.860821 0.546546 0.108310
O O16 0.754357 0.386901 0.049099
#
# Coordination Sequence:
#
# PCOD9013145 Si02
#       8
#     2   2   2   2   2   1   2   2
#     4  10  22  39  65  94 123 168 214 269 322 382
#     4  11  24  43  65  96 131 169 216 270 324 382
#     4  10  23  42  63  95 128 169 219 259 326 388
#     4  10  21  41  66  85 128 177 202 274 323 370
#     4  11  26  39  64  99 129 171 216 269 313 391
#     4  10  24  40  64  92 132 168 218 262 314 376
#     4  11  22  44  64  94 132 170 220 261 325 378
#     4  10  21  41  63  92 130 167 218 258 327 383
#
# _framework density 24.900984000000001
#
# number of rings (size 3 to 8) (size 9 to 14) (size 15 to 20)
#    0.000    1.600    4.000    2.000    3.733   11.200 
#    0.000    0.000    0.000    0.000    0.000    0.000 
#    0.000    0.000    0.000    0.000    0.000    0.000 
#
# Total GULP energy -83536.537771 kJ/mol
# GULP energy per Si atom -5569.102518 kJ/mol
# Density = 2.484431 g / cm^3
# Si number density = 24.900984 Si / 1000 Ang^3
#
#
#
# Elastic Constant Matrix: (Units=GPa)
#
#
# Indices 1 2 3 4 5 6 
#
# 1 55.5610 33.2345 26.5806 -5.9282 -22.8230 -19.3817
# 2 33.2345 165.0802 21.2109 -7.8833 -26.6275 -24.6149
# 3 26.5806 21.2109 145.2928 -20.5072 -44.8815 5.3776
# 4 -5.9282 -7.8833 -20.5072 31.6553 6.0875 -8.5289
# 5 -22.8230 -26.6275 -44.8815 6.0875 45.3532 8.5230
# 6 -19.3817 -24.6149 5.3776 -8.5289 8.5230 29.8905
#
#
#
# Elastic Compliance Matrix: (Units=1/GPa)
#
#
# Indices 1 2 3 4 5 6 
#
# 1 0.030675 -0.001426 -0.002874 0.007353 0.007143 0.019294
# 2 -0.001426 0.007674 0.000089 0.002686 0.002494 0.005434
# 3 -0.002874 0.000089 0.011298 0.003203 0.010464 -0.005892
# 4 0.007353 0.002686 0.003203 0.040677 -0.000420 0.018130
# 5 0.007143 0.002494 0.010464 -0.000420 0.038714 -0.006356
# 6 0.019294 0.005434 -0.005892 0.018130 -0.006356 0.058487
#
#
# Mechanical properties :
#
#
# Convention : Reuss Voigt Hill
#
# Bulk Modulus (GPa) = 24.25648 58.66512 41.46080
# Shear Modulus (GPa) = 23.84487 40.37367 32.10927
#
# Velocity S-wave (km/s) = 3.09785 4.03099 3.59483
# Velocity P-wave (km/s) = 4.74951 6.72872 5.82381
#
# Compressibility (1/GPa) = 0.04122609
#
# Stress axis : x y z
#
# Youngs Moduli (GPa) = 32.59956 130.30589 88.51179
#
# Poissons Ratio (x) = 0.18584 0.25435
# Poissons Ratio (y) = 0.04649 -0.00789
# Poissons Ratio (z) = 0.09368 -0.01161
#
# Static dielectric constant tensor:
#      x y z
#    x 2.262440 -0.014370 -0.081280 
#    y -0.014370 2.061020 -0.041530 
#    z -0.081280 -0.041530 2.000790 
# 
# From -- ./inp_files/138888.got.cif
#   From: 2010.05.17/outbox.cif.g08.bks.cpg/sg2_70_cif.got.tgz:138888.got - 2010.06.03 11:33:40.
