data_PCOD9013273
_publ_section_title
;
Structure prediction by ZEFSAII (Michael W. Deem and Ramdas Pophale) SiO2 
 PCOD9013273
Probable space group: P -1
;
_chemical_formula_sum "Si O2"
_cell_formula_units_Z 14
_cell_length_a 11.208512
_cell_length_b 23.697103
_cell_length_c 5.240590
_cell_angle_alpha 79.530190
_cell_angle_beta 69.585509
_cell_angle_gamma 27.544063
_cell_volume 576.532273
_symmetry_space_group_name_H-M "P -1"
_symmetry_group_IT_number 2
_symmetry_cell_setting 'triclinic'
loop_
_space_group_symop_operation_xyz
x,y,z
-x,-y,-z
loop_
_atom_site_type_symbol
_atom_site_label
_atom_site_fract_x
_atom_site_fract_y
_atom_site_fract_z
Si Si1 0.668612 0.301896 0.565072
Si Si2 0.130894 0.245997 0.217912
Si Si3 0.448328 0.285815 0.481404
Si Si4 0.828325 0.517254 0.853753
Si Si5 0.438565 0.160175 0.576593
Si Si6 0.257892 0.075969 0.427449
Si Si7 0.619613 0.497288 0.709042
O O1 0.670253 0.239322 0.481460
O O2 0.644038 0.360865 0.323070
O O3 0.926292 0.206246 0.646625
O O4 0.365921 0.426824 0.822535
O O5 0.324796 0.190213 0.355394
O O6 0.226407 0.140872 0.197111
O O7 0.818580 0.384706 0.449073
O O8 0.197624 0.250659 0.900688
O O9 0.333284 0.363020 0.247693
O O10 0.549239 0.180348 0.467159
O O11 0.151950 0.401446 0.765288
O O12 0.809975 0.472962 0.698857
O O13 0.659527 0.022354 0.612694
O O14 0.500000 0.000000 0.500000
O O15 0.500000 0.500000 0.000000
#
# Coordination Sequence:
#
# PCOD9013273 Si02
#       7
#     2   2   2   2   2   2   2
#     4  11  24  42  70 102 141 185 232 293 354 427
#     4  11  24  44  72 101 141 182 241 290 361 422
#     4  10  22  39  68 100 144 180 234 282 358 424
#     4  10  21  41  64 105 142 178 226 288 359 421
#     4  11  24  45  72 101 135 197 236 289 348 425
#     4  10  25  48  69  98 139 188 244 298 347 413
#     4  11  24  39  68 107 141 176 227 296 363 432
#
# _framework density 24.283116
#
# number of rings (size 3 to 8) (size 9 to 14) (size 15 to 20)
#    0.000    1.429    1.429    2.571    4.000    1.714 
#   12.857    0.714    0.000    0.000    0.000    0.000 
#    0.000    0.000    0.000    0.000    0.000    0.000 
#
# Total GULP energy -78209.326689 kJ/mol
# GULP energy per Si atom -5586.380478 kJ/mol
# Density = 2.422785 g / cm^3
# Si number density = 24.283116 Si / 1000 Ang^3
#
#
#
# Elastic Constant Matrix: (Units=GPa)
#
#
# Indices 1 2 3 4 5 6 
#
# 1 135.4326 70.0498 13.6302 -15.9264 -13.0802 20.4086
# 2 70.0498 143.3038 34.5634 -19.5061 -13.6827 17.0016
# 3 13.6302 34.5634 81.5634 -15.6944 -6.2583 10.8894
# 4 -15.9264 -19.5061 -15.6944 27.1780 9.4454 -12.5845
# 5 -13.0802 -13.6827 -6.2583 9.4454 29.5908 -4.3105
# 6 20.4086 17.0016 10.8894 -12.5845 -4.3105 67.2257
#
#
#
# Elastic Compliance Matrix: (Units=1/GPa)
#
#
# Indices 1 2 3 4 5 6 
#
# 1 0.010342 -0.004667 0.000969 0.001891 0.001775 -0.001649
# 2 -0.004667 0.010483 -0.003059 0.002475 0.001319 -0.000191
# 3 0.000969 -0.003059 0.014750 0.006601 -0.000072 -0.000679
# 4 0.001891 0.002475 0.006601 0.050586 -0.011832 0.006442
# 5 0.001775 0.001319 -0.000072 -0.011832 0.038865 -0.000584
# 6 -0.001649 -0.000191 -0.000679 0.006442 -0.000584 0.016702
#
#
# Mechanical properties :
#
#
# Convention : Reuss Voigt Hill
#
# Bulk Modulus (GPa) = 45.32757 66.30963 55.81860
# Shear Modulus (GPa) = 30.75103 40.93599 35.84351
#
# Velocity S-wave (km/s) = 3.56245 4.11028 3.84613
# Velocity P-wave (km/s) = 5.96894 7.06343 6.53912
#
# Compressibility (1/GPa) = 0.02206163
#
# Stress axis : x y z
#
# Youngs Moduli (GPa) = 96.69076 95.39365 67.79645
#
# Poissons Ratio (x) = 0.44519 -0.06572
# Poissons Ratio (y) = 0.45124 0.20741
# Poissons Ratio (z) = -0.09374 0.29184
#
# Static dielectric constant tensor:
#      x y z
#    x 2.009460 0.000900 0.010880 
#    y 0.000900 1.950080 0.040730 
#    z 0.010880 0.040730 1.956980 
# 
# From -- ./inp_files/84266.got.cif
#   From: 2010.05.17/outbox.cif.g08.bks.cpg/sg2_43_cif.got.tgz:84266.got - 2010.06.03 11:33:40.
