data_PCOD9013676
_publ_section_title
;
Structure prediction by ZEFSAII (Michael W. Deem and Ramdas Pophale) SiO2 
 PCOD9013676
Probable space group: P -1
;
_chemical_formula_sum "Si O2"
_cell_formula_units_Z 14
_cell_length_a 30.111776
_cell_length_b 30.663250
_cell_length_c 8.644011
_cell_angle_alpha 31.436450
_cell_angle_beta 32.060079
_cell_angle_gamma 9.276309
_cell_volume 669.597038
_symmetry_space_group_name_H-M "P -1"
_symmetry_group_IT_number 2
_symmetry_cell_setting 'triclinic'
loop_
_space_group_symop_operation_xyz
x,y,z
-x,-y,-z
loop_
_atom_site_type_symbol
_atom_site_label
_atom_site_fract_x
_atom_site_fract_y
_atom_site_fract_z
Si Si1 0.038930 0.395867 0.564440
Si Si2 0.494664 0.939282 0.338157
Si Si3 0.459582 0.605084 0.042560
Si Si4 0.286965 0.960766 0.903285
Si Si5 0.975304 0.931014 0.853553
Si Si6 0.801758 0.270027 0.737992
Si Si7 0.152602 0.596362 0.899727
O O1 0.800864 0.638322 0.408864
O O2 0.000000 0.500000 0.500000
O O3 0.968576 0.371291 0.918685
O O4 0.313646 0.133035 0.441688
O O5 0.395061 0.943099 0.560053
O O6 0.500000 0.000000 0.000000
O O7 0.362190 0.600812 0.325948
O O8 0.707853 0.391970 0.068177
O O9 0.189396 0.908092 0.984746
O O10 0.585642 0.494557 0.833926
O O11 0.520496 0.718884 0.076335
O O12 0.204299 0.959949 0.049299
O O13 0.997519 0.261832 0.921899
O O14 0.000000 0.000000 0.500000
O O15 0.938531 0.228806 0.432021
O O16 0.000000 0.000000 0.000000
#
# Coordination Sequence:
#
# PCOD9013676 Si02
#       7
#     2   2   2   2   2   2   2
#     4  10  21  41  65  96 124 159 210 256 305 375
#     4  10  21  41  65  93 125 166 200 251 323 372
#     4  11  24  37  56  83 114 152 199 243 296 346
#     4  10  22  39  62  86 119 158 200 240 295 376
#     4  12  22  38  57  84 116 150 199 246 290 346
#     4  11  23  41  59  82 121 160 203 244 300 352
#     4  10  22  39  63  85 117 162 200 236 305 360
#
# _framework density 20.908097999999999
#
# number of rings (size 3 to 8) (size 9 to 14) (size 15 to 20)
#    0.000    1.429    1.429    3.857    4.000    0.000 
#    5.143    0.000    0.000    0.000    0.000    0.000 
#    0.000    0.000    0.000    0.000    0.000    0.000 
#
# Total GULP energy -77971.312313 kJ/mol
# GULP energy per Si atom -5569.379451 kJ/mol
# Density = 2.086051 g / cm^3
# Si number density = 20.908098 Si / 1000 Ang^3
#
#
#
# Elastic Constant Matrix: (Units=GPa)
#
#
# Indices 1 2 3 4 5 6 
#
# 1 91.8285 2.3930 38.3445 5.1122 -35.3269 8.7055
# 2 2.3930 96.2325 13.8306 -1.1250 0.9321 4.2018
# 3 38.3445 13.8306 146.6407 -3.4416 -28.3087 -3.1472
# 4 5.1122 -1.1250 -3.4416 18.1848 -0.7773 -1.5973
# 5 -35.3269 0.9321 -28.3087 -0.7773 30.8962 -5.0032
# 6 8.7055 4.2018 -3.1472 -1.5973 -5.0032 25.3230
#
#
#
# Elastic Compliance Matrix: (Units=1/GPa)
#
#
# Indices 1 2 3 4 5 6 
#
# 1 0.020250 -0.000441 -0.001337 -0.005343 0.021293 -0.003185
# 2 -0.000441 0.010733 -0.001423 0.000211 -0.002497 -0.002286
# 3 -0.001337 -0.001423 0.008829 0.002564 0.007216 0.003380
# 4 -0.005343 0.000211 0.002564 0.057409 -0.001438 0.005457
# 5 0.021293 -0.002497 0.007216 -0.001438 0.064437 0.006632
# 6 -0.003185 -0.002286 0.003380 0.005457 0.006632 0.043039
#
#
# Mechanical properties :
#
#
# Convention : Reuss Voigt Hill
#
# Bulk Modulus (GPa) = 29.93060 49.31532 39.62296
# Shear Modulus (GPa) = 22.49852 33.55637 28.02744
#
# Velocity S-wave (km/s) = 3.28391 4.01052 3.66527
# Velocity P-wave (km/s) = 5.35958 6.71444 6.07490
#
# Compressibility (1/GPa) = 0.03341063
#
# Stress axis : x y z
#
# Youngs Moduli (GPa) = 49.38198 93.16637 113.26425
#
# Poissons Ratio (x) = 0.04109 0.15141
# Poissons Ratio (y) = 0.02178 0.16119
# Poissons Ratio (z) = 0.06601 0.13259
#
# Static dielectric constant tensor:
#      x y z
#    x 1.826060 -0.027980 -0.043230 
#    y -0.027980 1.782010 0.014680 
#    z -0.043230 0.014680 1.821820 
# 
# From -- ./inp_files/359094.got.cif
#   From: 2010.05.17/outbox.cif.g08.bks.cpg/sg2_180_cif.got.tgz:359094.got - 2010.06.03 11:33:40.
