data_PCOD9013034
_publ_section_title
;
Structure prediction by ZEFSAII (Michael W. Deem and Ramdas Pophale) SiO2 
 PCOD9013034
Probable space group: P -1
;
_chemical_formula_sum "Si O2"
_cell_formula_units_Z 16
_cell_length_a 8.086849
_cell_length_b 12.561503
_cell_length_c 11.121014
_cell_angle_alpha 90.075617
_cell_angle_beta 67.330925
_cell_angle_gamma 136.146876
_cell_volume 651.107601
_symmetry_space_group_name_H-M "P -1"
_symmetry_group_IT_number 2
_symmetry_cell_setting 'triclinic'
loop_
_space_group_symop_operation_xyz
x,y,z
-x,-y,-z
loop_
_atom_site_type_symbol
_atom_site_label
_atom_site_fract_x
_atom_site_fract_y
_atom_site_fract_z
Si Si1 0.272572 0.953570 0.909351
Si Si2 0.602063 0.593711 0.100278
Si Si3 0.953309 0.551841 0.698277
Si Si4 0.759755 0.106350 0.337316
Si Si5 0.842844 0.551365 0.463144
Si Si6 0.213888 0.229248 0.583761
Si Si7 0.341038 0.276282 0.281519
Si Si8 0.377151 0.096856 0.123043
O O1 0.339545 0.004274 0.751714
O O2 0.435965 0.919102 0.893759
O O3 0.930637 0.777545 0.009872
O O4 0.352426 0.077104 0.986665
O O5 0.378718 0.584139 0.184260
O O6 0.536549 0.472346 0.217819
O O7 0.500000 0.500000 0.000000
O O8 0.001498 0.607825 0.544920
O O9 0.129200 0.721789 0.723966
O O10 0.040256 0.469982 0.675337
O O11 0.033359 0.173635 0.317199
O O12 0.500000 0.000000 0.500000
O O13 0.511207 0.363648 0.571528
O O14 0.853757 0.678804 0.425098
O O15 0.284231 0.211822 0.433092
O O16 0.941764 0.060294 0.730305
O O17 0.480100 0.253211 0.155451
#
# Coordination Sequence:
#
# PCOD9013034 Si02
#       8
#     2   2   2   2   2   2   2   2
#     4  11  25  47  65  92 141 177 221 276 330 393
#     4  11  21  45  67  94 134 171 225 275 322 397
#     4  10  21  41  63 100 125 169 226 268 333 389
#     4  11  23  42  67  95 130 172 221 278 330 392
#     4  10  22  38  65 101 130 170 217 276 332 381
#     4  11  22  43  68  97 140 170 219 277 329 395
#     4  11  24  43  67 101 129 176 225 271 336 389
#     4  11  27  44  65 101 136 180 221 269 338 401
#
# _framework density 24.573509000000001
#
# number of rings (size 3 to 8) (size 9 to 14) (size 15 to 20)
#    0.000    1.250    5.000    1.875    5.250    1.000 
#    4.500    0.000    0.000    0.000    0.000    0.000 
#    0.000    0.000    0.000    0.000    0.000    0.000 
#
# Total GULP energy -89608.284275 kJ/mol
# GULP energy per Si atom -5600.517767 kJ/mol
# Density = 2.451758 g / cm^3
# Si number density = 24.573509 Si / 1000 Ang^3
#
#
#
# Elastic Constant Matrix: (Units=GPa)
#
#
# Indices 1 2 3 4 5 6 
#
# 1 29.5363 21.5392 20.8323 9.1352 -18.7720 -8.8969
# 2 21.5392 65.9025 37.6043 19.8604 -5.2834 -3.4577
# 3 20.8323 37.6043 131.2640 16.9313 -15.6222 -3.0978
# 4 9.1352 19.8604 16.9313 56.1455 2.0688 -0.8057
# 5 -18.7720 -5.2834 -15.6222 2.0688 45.4143 15.4090
# 6 -8.8969 -3.4577 -3.0978 -0.8057 15.4090 26.6169
#
#
#
# Elastic Compliance Matrix: (Units=1/GPa)
#
#
# Indices 1 2 3 4 5 6 
#
# 1 0.064871 -0.016389 -0.002181 -0.004829 0.022248 0.006274
# 2 -0.016389 0.023857 -0.004312 -0.004275 -0.005309 0.000063
# 3 -0.002181 -0.004312 0.009606 -0.001133 0.002517 -0.001663
# 4 -0.004829 -0.004275 -0.001133 0.020609 -0.004048 0.000666
# 5 0.022248 -0.005309 0.002517 -0.004048 0.036464 -0.014192
# 6 0.006274 0.000063 -0.001663 0.000666 -0.014192 0.047718
#
#
# Mechanical properties :
#
#
# Convention : Reuss Voigt Hill
#
# Bulk Modulus (GPa) = 19.02278 42.96160 30.99219
# Shear Modulus (GPa) = 18.76778 35.41713 27.09246
#
# Velocity S-wave (km/s) = 2.76658 3.80053 3.32400
# Velocity P-wave (km/s) = 4.23831 6.06461 5.23177
#
# Compressibility (1/GPa) = 0.05256854
#
# Stress axis : x y z
#
# Youngs Moduli (GPa) = 15.41532 41.91592 104.09813
#
# Poissons Ratio (x) = 0.68696 0.22707
# Poissons Ratio (y) = 0.25264 0.44892
# Poissons Ratio (z) = 0.03363 0.18076
#
# Static dielectric constant tensor:
#      x y z
#    x 1.963180 -0.028680 0.026160 
#    y -0.028680 1.979630 0.046370 
#    z 0.026160 0.046370 1.976390 
# 
# From -- ./inp_files/399181.got.cif
#   From: 2010.05.17/outbox.cif.g08.bks.cpg/sg2_200_cif.got.tgz:399181.got - 2010.06.03 11:33:40.
