data_PCOD9013834
_publ_section_title
;
Structure prediction by ZEFSAII (Michael W. Deem and Ramdas Pophale) SiO2 
 PCOD9013834
Probable space group: P -1
;
_chemical_formula_sum "Si O2"
_cell_formula_units_Z 14
_cell_length_a 7.648646
_cell_length_b 14.416913
_cell_length_c 18.200716
_cell_angle_alpha 24.817694
_cell_angle_beta 120.415695
_cell_angle_gamma 130.847286
_cell_volume 612.635004
_symmetry_space_group_name_H-M "P -1"
_symmetry_group_IT_number 2
_symmetry_cell_setting 'triclinic'
loop_
_space_group_symop_operation_xyz
x,y,z
-x,-y,-z
loop_
_atom_site_type_symbol
_atom_site_label
_atom_site_fract_x
_atom_site_fract_y
_atom_site_fract_z
Si Si1 0.960421 0.409613 0.473120
Si Si2 0.659242 0.633687 0.826799
Si Si3 0.486855 0.138812 0.250160
Si Si4 0.149672 0.039540 0.576995
Si Si5 0.194011 0.965930 0.963140
Si Si6 0.649081 0.417371 0.687691
Si Si7 0.722991 0.680414 0.139495
O O1 0.205664 0.505288 0.412813
O O2 0.000000 0.500000 0.500000
O O3 0.829519 0.535708 0.311430
O O4 0.780038 0.098736 0.655035
O O5 0.535117 0.776415 0.733580
O O6 0.536083 0.517157 0.806245
O O7 0.943316 0.832427 0.737628
O O8 0.589512 0.390421 0.039196
O O9 0.659388 0.033640 0.350865
O O10 0.281758 0.324839 0.437626
O O11 0.000000 0.000000 0.500000
O O12 0.363540 0.204989 0.773508
O O13 0.270739 0.106145 0.959085
O O14 0.256235 0.744343 0.131620
O O15 0.908305 0.826194 0.006446
#
# Coordination Sequence:
#
# PCOD9013834 Si02
#       7
#     2   2   2   2   2   2   2
#     4  11  24  43  68 101 142 183 231 289 347 409
#     4  11  25  47  71 100 139 187 230 289 344 412
#     4  11  26  45  69 103 142 181 235 284 349 407
#     4  12  25  44  73 105 139 180 234 286 345 421
#     4   9  20  38  66 103 131 173 237 277 339 411
#     4  10  21  41  65  99 140 175 230 286 342 404
#     4  10  22  42  73  97 136 185 232 278 350 416
#
# _framework density 22.852104000000001
#
# number of rings (size 3 to 8) (size 9 to 14) (size 15 to 20)
#    0.000    1.429    1.429    3.000   10.000    1.143 
#    0.000    5.714    0.000    0.000    0.000    0.000 
#    0.000    0.000    0.000    0.000    0.000    0.000 
#
# Total GULP energy -78344.733429 kJ/mol
# GULP energy per Si atom -5596.052388 kJ/mol
# Density = 2.280009 g / cm^3
# Si number density = 22.852104 Si / 1000 Ang^3
#
#
#
# Elastic Constant Matrix: (Units=GPa)
#
#
# Indices 1 2 3 4 5 6 
#
# 1 125.7066 0.0316 46.1432 -6.2501 -17.6451 -15.8470
# 2 0.0316 40.4877 13.0329 -5.6855 2.8115 -7.3708
# 3 46.1432 13.0329 138.6404 -18.3727 -25.0710 -0.0756
# 4 -6.2501 -5.6855 -18.3727 35.2235 -3.8047 2.5703
# 5 -17.6451 2.8115 -25.0710 -3.8047 54.9035 -8.1853
# 6 -15.8470 -7.3708 -0.0756 2.5703 -8.1853 25.5539
#
#
#
# Elastic Compliance Matrix: (Units=1/GPa)
#
#
# Indices 1 2 3 4 5 6 
#
# 1 0.010588 0.002324 -0.003130 0.000359 0.003100 0.008184
# 2 0.002324 0.027744 -0.003150 0.002527 -0.000597 0.008989
# 3 -0.003130 -0.003150 0.009819 0.004606 0.003642 -0.002117
# 4 0.000359 0.002527 0.004606 0.031779 0.004157 -0.000900
# 5 0.003100 -0.000597 0.003642 0.004157 0.022465 0.008538
# 6 0.008184 0.008989 -0.002117 -0.000900 0.008538 0.049620
#
#
# Mechanical properties :
#
#
# Convention : Reuss Voigt Hill
#
# Bulk Modulus (GPa) = 24.85115 47.02780 35.93948
# Shear Modulus (GPa) = 28.84540 39.51131 34.17836
#
# Velocity S-wave (km/s) = 3.55669 4.16264 3.87154
# Velocity P-wave (km/s) = 5.26926 6.61266 5.97881
#
# Compressibility (1/GPa) = 0.04023958
#
# Stress axis : x y z
#
# Youngs Moduli (GPa) = 94.44687 36.04414 101.84769
#
# Poissons Ratio (x) = -0.08378 0.31878
# Poissons Ratio (y) = -0.21952 0.32079
# Poissons Ratio (z) = 0.29561 0.11353
#
# Static dielectric constant tensor:
#      x y z
#    x 1.866480 -0.007630 -0.040540 
#    y -0.007630 1.802680 0.026440 
#    z -0.040540 0.026440 1.908640 
# 
# From -- ./inp_files/589843.got.cif
#   From: 2010.05.17/outbox.cif.g08.bks.cpg/sg2_295_cif.got.tgz:589843.got - 2010.06.03 11:33:40.
