data_PCOD9013287
_publ_section_title
;
Structure prediction by ZEFSAII (Michael W. Deem and Ramdas Pophale) SiO2 
 PCOD9013287
Probable space group: P -1
;
_chemical_formula_sum "Si O2"
_cell_formula_units_Z 15
_cell_length_a 11.290927
_cell_length_b 5.337582
_cell_length_c 15.418719
_cell_angle_alpha 99.756706
_cell_angle_beta 141.613926
_cell_angle_gamma 86.915524
_cell_volume 563.904140
_symmetry_space_group_name_H-M "P -1"
_symmetry_group_IT_number 2
_symmetry_cell_setting 'triclinic'
loop_
_space_group_symop_operation_xyz
x,y,z
-x,-y,-z
loop_
_atom_site_type_symbol
_atom_site_label
_atom_site_fract_x
_atom_site_fract_y
_atom_site_fract_z
Si Si1 0.500000 0.000000 0.500000
Si Si2 0.061442 0.555952 0.758692
Si Si3 0.204324 0.670953 0.275511
Si Si4 0.120292 0.686940 0.511840
Si Si5 0.120881 0.190371 0.013809
Si Si6 0.643118 0.730626 0.008946
Si Si7 0.489895 0.389915 0.352014
Si Si8 0.267700 0.916691 0.767308
O O1 0.743007 0.051623 0.638456
O O2 0.491043 0.167253 0.409600
O O3 0.243000 0.509572 0.919934
O O4 0.106530 0.787279 0.732960
O O5 0.880408 0.536274 0.716676
O O6 0.009101 0.313009 0.648183
O O7 0.428981 0.648327 0.378179
O O8 0.047102 0.658973 0.110991
O O9 0.310244 0.574555 0.580313
O O10 0.198776 0.933208 0.630086
O O11 0.000000 0.500000 0.500000
O O12 0.307095 0.321849 0.179956
O O13 0.219596 0.109747 0.975371
O O14 0.000000 0.000000 0.000000
O O15 0.631562 0.847588 0.105627
O O16 0.429717 0.717936 0.848094
#
# Coordination Sequence:
#
# PCOD9013287 Si02
#       8
#     1   2   2   2   2   2   2   2
#     4  12  24  42  66  98 138 168 220 274 324 400
#     4  10  22  39  61  93 126 161 220 263 325 391
#     4  11  25  42  68  99 131 179 211 278 339 392
#     4  10  22  43  64  93 129 170 219 271 316 399
#     4  11  23  43  66  99 135 167 221 276 321 401
#     4  10  22  40  64  90 125 171 212 270 326 376
#     4  12  24  46  68  97 137 174 224 268 341 394
#     4  10  21  41  64  87 123 173 212 268 323 380
#
# _framework density 26.600266000000001
#
# number of rings (size 3 to 8) (size 9 to 14) (size 15 to 20)
#    0.000    1.333    4.000    1.200    1.867    0.533 
#    4.800    5.333    0.000    0.000    0.000    0.000 
#    0.000    0.000    0.000    0.000    0.000    0.000 
#
# Total GULP energy -83537.642780 kJ/mol
# GULP energy per Si atom -5569.176185 kJ/mol
# Density = 2.653972 g / cm^3
# Si number density = 26.600266 Si / 1000 Ang^3
#
#
#
# Elastic Constant Matrix: (Units=GPa)
#
#
# Indices 1 2 3 4 5 6 
#
# 1 174.6776 37.7007 40.9265 -15.4003 21.8772 24.0789
# 2 37.7007 64.5521 13.6473 -21.3913 3.7966 10.2650
# 3 40.9265 13.6473 192.9941 -2.7011 -0.6318 -4.6949
# 4 -15.4003 -21.3913 -2.7011 31.3743 5.8748 -0.6723
# 5 21.8772 3.7966 -0.6318 5.8748 50.5100 8.6932
# 6 24.0789 10.2650 -4.6949 -0.6723 8.6932 37.6736
#
#
#
# Elastic Compliance Matrix: (Units=1/GPa)
#
#
# Indices 1 2 3 4 5 6 
#
# 1 0.007719 -0.002681 -0.001515 0.002273 -0.002787 -0.003708
# 2 -0.002681 0.022716 -0.000940 0.014293 -0.001535 -0.003984
# 3 -0.001515 -0.000940 0.005600 -0.000978 0.000607 0.001765
# 4 0.002273 0.014293 -0.000978 0.043823 -0.006624 -0.003158
# 5 -0.002787 -0.001535 0.000607 -0.006624 0.022418 -0.003016
# 6 -0.003708 -0.003984 0.001765 -0.003158 -0.003016 0.030859
#
#
# Mechanical properties :
#
#
# Convention : Reuss Voigt Hill
#
# Bulk Modulus (GPa) = 38.81349 68.53031 53.67190
# Shear Modulus (GPa) = 32.89606 46.57488 39.73547
#
# Velocity S-wave (km/s) = 3.52046 4.18894 3.86916
# Velocity P-wave (km/s) = 5.58104 7.01535 6.33889
#
# Compressibility (1/GPa) = 0.02576424
#
# Stress axis : x y z
#
# Youngs Moduli (GPa) = 129.55021 44.02166 178.55818
#
# Poissons Ratio (x) = 0.11803 0.27049
# Poissons Ratio (y) = 0.34734 0.16778
# Poissons Ratio (z) = 0.19625 0.04137
#
# Static dielectric constant tensor:
#      x y z
#    x 2.017980 0.100040 0.053320 
#    y 0.100040 1.622790 -0.059350 
#    z 0.053320 -0.059350 2.094960 
# 
# From -- ./inp_files/123390.got.cif
#   From: 2010.05.17/outbox.cif.g08.bks.cpg/sg2_62_cif.got.tgz:123390.got - 2010.06.03 11:33:40.
