data_PCOD9013269
_publ_section_title
;
Structure prediction by ZEFSAII (Michael W. Deem and Ramdas Pophale) SiO2 
 PCOD9013269
Probable space group: P -1
;
_chemical_formula_sum "Si O2"
_cell_formula_units_Z 15
_cell_length_a 9.131837
_cell_length_b 14.042113
_cell_length_c 8.543847
_cell_angle_alpha 52.584829
_cell_angle_beta 64.205369
_cell_angle_gamma 101.062704
_cell_volume 603.269315
_symmetry_space_group_name_H-M "P -1"
_symmetry_group_IT_number 2
_symmetry_cell_setting 'triclinic'
loop_
_space_group_symop_operation_xyz
x,y,z
-x,-y,-z
loop_
_atom_site_type_symbol
_atom_site_label
_atom_site_fract_x
_atom_site_fract_y
_atom_site_fract_z
Si Si1 0.548255 0.799198 0.417497
Si Si2 0.000000 0.000000 0.500000
Si Si3 0.831864 0.282072 0.152714
Si Si4 0.621970 0.176542 0.811806
Si Si5 0.975730 0.723832 0.653783
Si Si6 0.948304 0.107515 0.079332
Si Si7 0.695318 0.628873 0.592245
Si Si8 0.233929 0.603807 0.215998
O O1 0.380779 0.813657 0.552562
O O2 0.491455 0.774688 0.286374
O O3 0.525028 0.653412 0.635631
O O4 0.775494 0.956335 0.206215
O O5 0.952229 0.114535 0.469924
O O6 0.009443 0.055201 0.253284
O O7 0.022412 0.359952 0.109879
O O8 0.847692 0.179287 0.130027
O O9 0.808586 0.387902 0.952060
O O10 0.857552 0.256619 0.563698
O O11 0.629720 0.228451 0.931890
O O12 0.500000 0.000000 0.000000
O O13 0.778313 0.662704 0.697985
O O14 0.131187 0.241708 0.744207
O O15 0.656277 0.471777 0.728330
O O16 0.000000 0.500000 0.500000
#
# Coordination Sequence:
#
# PCOD9013269 Si02
#       8
#     2   1   2   2   2   2   2   2
#     4  11  24  41  64 102 142 173 227 292 349 393
#     4  10  22  34  62 102 136 168 230 278 326 392
#     4  10  23  42  66  98 136 180 229 289 337 405
#     4  11  24  43  71 100 134 178 230 281 345 407
#     4  10  21  41  64 103 130 181 224 275 342 402
#     4  11  21  41  70 101 137 184 230 283 332 416
#     4  12  24  42  71  99 140 185 230 278 344 414
#     4  12  24  46  71  99 134 188 235 276 337 426
#
# _framework density 24.864515999999998
#
# number of rings (size 3 to 8) (size 9 to 14) (size 15 to 20)
#    0.000    1.067    4.000    2.400    1.867    3.733 
#    0.000    0.000    0.000    0.000    0.000    0.000 
#    0.000    0.000    0.000    0.000    0.000    0.000 
#
# Total GULP energy -83614.950264 kJ/mol
# GULP energy per Si atom -5574.330018 kJ/mol
# Density = 2.480792 g / cm^3
# Si number density = 24.864516 Si / 1000 Ang^3
#
#
#
# Elastic Constant Matrix: (Units=GPa)
#
#
# Indices 1 2 3 4 5 6 
#
# 1 146.2664 50.2033 36.5473 3.0350 44.9316 1.0003
# 2 50.2033 141.9327 20.9261 -2.3653 7.6562 -11.5257
# 3 36.5473 20.9261 66.0317 5.8205 26.0436 9.3903
# 4 3.0350 -2.3653 5.8205 30.9538 1.5526 8.0714
# 5 44.9316 7.6562 26.0436 1.5526 45.5461 9.1172
# 6 1.0003 -11.5257 9.3903 8.0714 9.1172 44.0845
#
#
#
# Elastic Compliance Matrix: (Units=1/GPa)
#
#
# Indices 1 2 3 4 5 6 
#
# 1 0.011422 -0.003175 -0.001426 -0.000975 -0.010186 0.001499
# 2 -0.003175 0.008561 -0.002341 0.000717 0.002578 0.002144
# 3 -0.001426 -0.002341 0.021098 -0.002856 -0.009656 -0.002554
# 4 -0.000975 0.000717 -0.002856 0.034434 0.002502 -0.006004
# 5 -0.010186 0.002578 -0.009656 0.002502 0.038082 -0.005372
# 6 0.001499 0.002144 -0.002554 -0.006004 -0.005372 0.025965
#
#
# Mechanical properties :
#
#
# Convention : Reuss Voigt Hill
#
# Bulk Modulus (GPa) = 36.76638 63.28713 50.02675
# Shear Modulus (GPa) = 30.76753 40.55383 35.66068
#
# Velocity S-wave (km/s) = 3.52150 4.04294 3.79119
# Velocity P-wave (km/s) = 5.59941 6.87763 6.27117
#
# Compressibility (1/GPa) = 0.02719876
#
# Stress axis : x y z
#
# Youngs Moduli (GPa) = 87.55315 116.81289 47.39723
#
# Poissons Ratio (x) = 0.37086 0.06757
# Poissons Ratio (y) = 0.27797 0.11094
# Poissons Ratio (z) = 0.12481 0.27341
#
# Static dielectric constant tensor:
#      x y z
#    x 2.009280 0.013800 -0.002830 
#    y 0.013800 1.942910 -0.002330 
#    z -0.002830 -0.002330 2.069940 
# 
# From -- ./inp_files/199471.got.cif
#   From: 2010.05.17/outbox.cif.g08.bks.cpg/sg2_100_cif.got.tgz:199471.got - 2010.06.03 11:33:40.
