data_PCOD9013519
_publ_section_title
;
Structure prediction by ZEFSAII (Michael W. Deem and Ramdas Pophale) SiO2 
 PCOD9013519
Probable space group: P -1
;
_chemical_formula_sum "Si O2"
_cell_formula_units_Z 12
_cell_length_a 19.175627
_cell_length_b 14.495295
_cell_length_c 9.544236
_cell_angle_alpha 142.185667
_cell_angle_beta 132.071235
_cell_angle_gamma 19.694327
_cell_volume 512.039484
_symmetry_space_group_name_H-M "P -1"
_symmetry_group_IT_number 2
_symmetry_cell_setting 'triclinic'
loop_
_space_group_symop_operation_xyz
x,y,z
-x,-y,-z
loop_
_atom_site_type_symbol
_atom_site_label
_atom_site_fract_x
_atom_site_fract_y
_atom_site_fract_z
Si Si1 0.074320 0.753774 0.625889
Si Si2 0.623190 0.679135 0.221733
Si Si3 0.507920 0.642841 0.598467
Si Si4 0.879388 0.296242 0.833774
Si Si5 0.746367 0.701414 0.925535
Si Si6 0.571554 0.425958 0.849292
O O1 0.210611 0.599780 0.762057
O O2 0.190982 0.457307 0.331514
O O3 0.038750 0.949989 0.713848
O O4 0.832945 0.050310 0.710744
O O5 0.500000 0.000000 0.500000
O O6 0.739404 0.560898 0.093707
O O7 0.496715 0.706511 0.051102
O O8 0.500000 0.500000 0.500000
O O9 0.724089 0.413032 0.671608
O O10 0.520573 0.571459 0.370085
O O11 0.296603 0.058156 0.837102
O O12 0.919949 0.377253 0.881744
O O13 0.500000 0.000000 0.000000
O O14 0.500000 0.500000 0.000000
#
# Coordination Sequence:
#
# PCOD9013519 Si02
#       6
#     2   2   2   2   2   2
#     4  11  23  44  69  98 134 175 229 270 329 399
#     4  11  23  42  71  93 135 179 224 271 330 401
#     4  11  21  43  66  96 138 174 215 276 336 386
#     4  10  21  41  65 101 126 176 223 274 322 394
#     4  10  23  39  70  96 128 174 225 269 324 395
#     4  11  26  43  67  96 138 178 216 278 335 386
#
# _framework density 23.435694000000002
#
# number of rings (size 3 to 8) (size 9 to 14) (size 15 to 20)
#    0.000    1.333    3.333    4.500    7.000    0.667 
#    3.000    0.833    0.000    0.000    0.000    0.000 
#    0.000    0.000    0.000    0.000    0.000    0.000 
#
# Total GULP energy -67057.566808 kJ/mol
# GULP energy per Si atom -5588.130567 kJ/mol
# Density = 2.338235 g / cm^3
# Si number density = 23.435694 Si / 1000 Ang^3
#
#
#
# Elastic Constant Matrix: (Units=GPa)
#
#
# Indices 1 2 3 4 5 6 
#
# 1 98.2869 30.1779 49.9918 9.6897 -10.2011 12.0816
# 2 30.1779 95.8158 35.8168 -11.1339 1.6328 15.9418
# 3 49.9918 35.8168 216.3364 -5.4554 -15.3096 3.2399
# 4 9.6897 -11.1339 -5.4554 40.4070 14.9498 -6.3606
# 5 -10.2011 1.6328 -15.3096 14.9498 55.4010 3.3035
# 6 12.0816 15.9418 3.2399 -6.3606 3.3035 39.1388
#
#
#
# Elastic Compliance Matrix: (Units=1/GPa)
#
#
# Indices 1 2 3 4 5 6 
#
# 1 0.014215 -0.003740 -0.002484 -0.006970 0.004169 -0.004144
# 2 -0.003740 0.013240 -0.001341 0.004820 -0.002564 -0.003128
# 3 -0.002484 -0.001341 0.005483 0.000806 0.000825 0.000921
# 4 -0.006970 0.004820 0.000806 0.032699 -0.010403 0.006313
# 5 0.004169 -0.002564 0.000825 -0.010403 0.022159 -0.003872
# 6 -0.004144 -0.003128 0.000921 0.006313 -0.003872 0.029380
#
#
# Mechanical properties :
#
#
# Convention : Reuss Voigt Hill
#
# Bulk Modulus (GPa) = 56.15336 71.37912 63.76624
# Shear Modulus (GPa) = 36.16792 46.61952 41.39372
#
# Velocity S-wave (km/s) = 3.93273 4.46494 4.20726
# Velocity P-wave (km/s) = 6.68090 7.55675 7.13228
#
# Compressibility (1/GPa) = 0.01780837
#
# Stress axis : x y z
#
# Youngs Moduli (GPa) = 70.34602 75.52860 182.36710
#
# Poissons Ratio (x) = 0.28248 0.45308
# Poissons Ratio (y) = 0.26310 0.24452
# Poissons Ratio (z) = 0.17477 0.10127
#
# Static dielectric constant tensor:
#      x y z
#    x 2.013730 0.031140 -0.020450 
#    y 0.031140 2.033120 0.002880 
#    z -0.020450 0.002880 1.989960 
# 
# From -- ./inp_files/173985.got.cif
#   From: 2010.05.17/outbox.cif.g08.bks.cpg/sg2_87_cif.got.tgz:173985.got - 2010.06.03 11:33:40.
