data_PCOD9013688
_publ_section_title
;
Structure prediction by ZEFSAII (Michael W. Deem and Ramdas Pophale) SiO2 
 PCOD9013688
Probable space group: P -1
;
_chemical_formula_sum "Si O2"
_cell_formula_units_Z 15
_cell_length_a 14.028915
_cell_length_b 8.281032
_cell_length_c 8.634357
_cell_angle_alpha 57.316886
_cell_angle_beta 127.300926
_cell_angle_gamma 96.826643
_cell_volume 638.231333
_symmetry_space_group_name_H-M "P -1"
_symmetry_group_IT_number 2
_symmetry_cell_setting 'triclinic'
loop_
_space_group_symop_operation_xyz
x,y,z
-x,-y,-z
loop_
_atom_site_type_symbol
_atom_site_label
_atom_site_fract_x
_atom_site_fract_y
_atom_site_fract_z
Si Si1 0.000000 0.500000 0.500000
Si Si2 0.703074 0.302190 0.638591
Si Si3 0.263875 0.349957 0.010098
Si Si4 0.598790 0.003025 0.870955
Si Si5 0.943279 0.399780 0.856137
Si Si6 0.833161 0.940652 0.723100
Si Si7 0.545036 0.432847 0.904862
Si Si8 0.346457 0.041769 0.723906
O O1 0.149861 0.440741 0.730821
O O2 0.036031 0.526577 0.334337
O O3 0.672046 0.155785 0.810749
O O4 0.797119 0.421548 0.722702
O O5 0.570614 0.450335 0.376184
O O6 0.771645 0.150759 0.642832
O O7 0.212295 0.231811 0.149333
O O8 0.328771 0.513002 0.039800
O O9 0.378852 0.169600 0.145077
O O10 0.449722 0.108554 0.693581
O O11 0.665089 0.884572 0.151141
O O12 0.000000 0.500000 0.000000
O O13 0.017107 0.157353 0.068998
O O14 0.779565 0.946951 0.495187
O O15 0.500000 0.500000 0.000000
O O16 0.579833 0.194713 0.056080
#
# Coordination Sequence:
#
# PCOD9013688 Si02
#       8
#     1   2   2   2   2   2   2   2
#     4  10  24  42  68  98 132 174 220 272 326 396
#     4  11  23  44  66  93 134 174 220 273 333 400
#     4  10  21  41  65  93 129 177 217 267 332 391
#     4  10  23  39  61  94 134 171 213 270 335 385
#     4  11  26  44  70  99 133 177 224 279 335 395
#     4  10  22  42  64  91 132 172 219 267 329 401
#     4  12  21  36  66  96 123 169 220 265 325 390
#     4  11  23  38  62  99 131 171 216 273 325 394
#
# _framework density 23.50245
#
# number of rings (size 3 to 8) (size 9 to 14) (size 15 to 20)
#    0.000    1.333    2.667    2.000    1.867    5.867 
#    0.000    0.667    0.000    0.000    0.000    0.000 
#    0.000    0.000    0.000    0.000    0.000    0.000 
#
# Total GULP energy -83610.208395 kJ/mol
# GULP energy per Si atom -5574.013893 kJ/mol
# Density = 2.344896 g / cm^3
# Si number density = 23.502450 Si / 1000 Ang^3
#
#
#
# Elastic Constant Matrix: (Units=GPa)
#
#
# Indices 1 2 3 4 5 6 
#
# 1 69.4162 10.5072 18.9560 7.2849 2.4065 15.4974
# 2 10.5072 67.6166 11.6447 8.7981 1.2193 15.6511
# 3 18.9560 11.6447 142.3598 19.2149 16.4072 9.2468
# 4 7.2849 8.7981 19.2149 26.9033 -0.4425 9.8596
# 5 2.4065 1.2193 16.4072 -0.4425 37.6994 3.4127
# 6 15.4974 15.6511 9.2468 9.8596 3.4127 35.2125
#
#
#
# Elastic Compliance Matrix: (Units=1/GPa)
#
#
# Indices 1 2 3 4 5 6 
#
# 1 0.016441 -0.000722 -0.001653 -0.000721 0.000255 -0.006304
# 2 -0.000722 0.016786 -0.000551 -0.002586 0.000283 -0.006302
# 3 -0.001653 -0.000551 0.008440 -0.005723 -0.003682 0.000715
# 4 -0.000721 -0.002586 -0.005723 0.046160 0.004099 -0.010353
# 5 0.000255 0.000283 -0.003682 0.004099 0.028438 -0.003175
# 6 -0.006304 -0.006302 0.000715 -0.010353 -0.003175 0.036993
#
#
# Mechanical properties :
#
#
# Convention : Reuss Voigt Hill
#
# Bulk Modulus (GPa) = 27.92100 40.17874 34.04987
# Shear Modulus (GPa) = 29.23153 35.84869 32.54011
#
# Velocity S-wave (km/s) = 3.53053 3.90977 3.72498
# Velocity P-wave (km/s) = 5.34091 6.12490 5.74629
#
# Compressibility (1/GPa) = 0.03581533
#
# Stress axis : x y z
#
# Youngs Moduli (GPa) = 60.82513 59.57172 118.48444
#
# Poissons Ratio (x) = 0.04300 0.19583
# Poissons Ratio (y) = 0.04391 0.06531
# Poissons Ratio (z) = 0.10053 0.03284
#
# Static dielectric constant tensor:
#      x y z
#    x 1.967130 -0.020120 -0.015630 
#    y -0.020120 1.930840 0.011500 
#    z -0.015630 0.011500 1.883020 
# 
# From -- ./inp_files/291960.got.cif
#   From: 2010.05.17/outbox.cif.g08.bks.cpg/sg2_146_cif.got.tgz:291960.got - 2010.06.03 11:33:40.
