data_PCOD9013408
_publ_section_title
;
Structure prediction by ZEFSAII (Michael W. Deem and Ramdas Pophale) SiO2 
 PCOD9013408
Probable space group: P -1
;
_chemical_formula_sum "Si O2"
_cell_formula_units_Z 16
_cell_length_a 12.724885
_cell_length_b 12.006874
_cell_length_c 8.468936
_cell_angle_alpha 115.765491
_cell_angle_beta 61.212697
_cell_angle_gamma 65.802005
_cell_volume 633.277603
_symmetry_space_group_name_H-M "P -1"
_symmetry_group_IT_number 2
_symmetry_cell_setting 'triclinic'
loop_
_space_group_symop_operation_xyz
x,y,z
-x,-y,-z
loop_
_atom_site_type_symbol
_atom_site_label
_atom_site_fract_x
_atom_site_fract_y
_atom_site_fract_z
Si Si1 0.729396 0.343414 0.432355
Si Si2 0.640771 0.849017 0.159572
Si Si3 0.511444 0.821838 0.750063
Si Si4 0.838082 0.110669 0.479984
Si Si5 0.047988 0.449816 0.746197
Si Si6 0.528138 0.689810 0.979973
Si Si7 0.983263 0.223100 0.633820
Si Si8 0.356444 0.507342 0.737450
O O1 0.825987 0.149662 0.327993
O O2 0.501869 0.497964 0.668875
O O3 0.779578 0.342782 0.219563
O O4 0.717952 0.464628 0.639757
O O5 0.582418 0.759138 0.093969
O O6 0.500000 0.000000 0.500000
O O7 0.596962 0.975587 0.123182
O O8 0.866835 0.664093 0.927410
O O9 0.739186 0.669045 0.510969
O O10 0.515300 0.709597 0.549394
O O11 0.437088 0.826764 0.971772
O O12 0.618749 0.283641 0.810986
O O13 0.964798 0.121177 0.466741
O O14 0.907911 0.924746 0.385669
O O15 0.057364 0.299281 0.590389
O O16 0.000000 0.500000 0.000000
O O17 0.769124 0.422084 0.978375
#
# Coordination Sequence:
#
# PCOD9013408 Si02
#       8
#     2   2   2   2   2   2   2   2
#     4  10  22  39  67  94 123 172 210 264 321 388
#     4  12  25  41  69  98 125 180 222 259 330 395
#     4  11  25  45  66  96 136 175 215 273 324 381
#     4  11  24  39  68  94 127 171 214 266 326 387
#     4  12  24  42  68  95 136 170 218 275 317 388
#     4  11  24  43  67  95 132 171 219 271 321 389
#     4  11  23  41  61  97 131 164 214 272 322 381
#     4  10  21  41  64  94 131 162 214 264 324 382
#
# _framework density 25.265381999999999
#
# number of rings (size 3 to 8) (size 9 to 14) (size 15 to 20)
#    0.000    1.000    3.750    2.250    3.500    1.000 
#    0.000    5.000    0.000    0.000    0.000    0.000 
#    0.000    0.000    0.000    0.000    0.000    0.000 
#
# Total GULP energy -89528.620753 kJ/mol
# GULP energy per Si atom -5595.538797 kJ/mol
# Density = 2.520788 g / cm^3
# Si number density = 25.265382 Si / 1000 Ang^3
#
#
#
# Elastic Constant Matrix: (Units=GPa)
#
#
# Indices 1 2 3 4 5 6 
#
# 1 93.7912 19.9396 20.8182 4.4873 0.8854 8.7374
# 2 19.9396 163.4451 19.9497 25.8643 -22.6221 -10.3387
# 3 20.8182 19.9497 69.0377 -4.8782 -6.2859 -2.3030
# 4 4.4873 25.8643 -4.8782 39.8244 -0.7004 -8.5595
# 5 0.8854 -22.6221 -6.2859 -0.7004 18.5805 3.0379
# 6 8.7374 -10.3387 -2.3030 -8.5595 3.0379 36.0729
#
#
#
# Elastic Compliance Matrix: (Units=1/GPa)
#
#
# Indices 1 2 3 4 5 6 
#
# 1 0.012279 -0.001405 -0.003828 -0.001809 -0.003039 -0.003795
# 2 -0.001405 0.008742 -0.001564 -0.005401 0.009874 0.000633
# 3 -0.003828 -0.001564 0.016791 0.004041 0.003753 0.002194
# 4 -0.001809 -0.005401 0.004041 0.030702 -0.005087 0.006862
# 5 -0.003039 0.009874 0.003753 -0.005087 0.067570 -0.003092
# 6 -0.003795 0.000633 0.002194 0.006862 -0.003092 0.030851
#
#
# Mechanical properties :
#
#
# Convention : Reuss Voigt Hill
#
# Bulk Modulus (GPa) = 41.29010 49.74323 45.51666
# Shear Modulus (GPa) = 26.51079 36.59998 31.55539
#
# Velocity S-wave (km/s) = 3.24279 3.81021 3.53789
# Velocity P-wave (km/s) = 5.51353 6.25203 5.89436
#
# Compressibility (1/GPa) = 0.02421888
#
# Stress axis : x y z
#
# Youngs Moduli (GPa) = 81.43945 114.39032 59.55415
#
# Poissons Ratio (x) = 0.16073 0.22796
# Poissons Ratio (y) = 0.11443 0.09314
# Poissons Ratio (z) = 0.31173 0.17890
#
# Static dielectric constant tensor:
#      x y z
#    x 1.987270 -0.044460 0.040390 
#    y -0.044460 2.032880 0.033010 
#    z 0.040390 0.033010 2.085690 
# 
# From -- ./inp_files/259960.got.cif
#   From: 2010.05.17/outbox.cif.g08.bks.cpg/sg2_130_cif.got.tgz:259960.got - 2010.06.03 11:33:40.
