data_PCOD9013237
_publ_section_title
;
Structure prediction by ZEFSAII (Michael W. Deem and Ramdas Pophale) SiO2 
 PCOD9013237
Probable space group: P -1
;
_chemical_formula_sum "Si O2"
_cell_formula_units_Z 14
_cell_length_a 9.749543
_cell_length_b 8.360511
_cell_length_c 12.549046
_cell_angle_alpha 37.371675
_cell_angle_beta 117.035836
_cell_angle_gamma 113.890237
_cell_volume 551.213862
_symmetry_space_group_name_H-M "P -1"
_symmetry_group_IT_number 2
_symmetry_cell_setting 'triclinic'
loop_
_space_group_symop_operation_xyz
x,y,z
-x,-y,-z
loop_
_atom_site_type_symbol
_atom_site_label
_atom_site_fract_x
_atom_site_fract_y
_atom_site_fract_z
Si Si1 0.536417 0.597203 0.306293
Si Si2 0.124265 0.984427 0.457098
Si Si3 0.049298 0.735347 0.209163
Si Si4 0.120469 0.547537 0.112783
Si Si5 0.861028 0.860428 0.258349
Si Si6 0.554750 0.236753 0.312267
Si Si7 0.599225 0.114141 0.718340
O O1 0.709576 0.716332 0.330395
O O2 0.532293 0.505647 0.229189
O O3 0.509648 0.329097 0.507335
O O4 0.433366 0.813835 0.208026
O O5 0.203079 0.275801 0.293939
O O6 0.264947 0.805590 0.623874
O O7 0.000000 0.000000 0.500000
O O8 0.008498 0.897698 0.366570
O O9 0.920567 0.679901 0.281190
O O10 0.219564 0.811109 0.275324
O O11 0.053621 0.550272 0.207292
O O12 0.000000 0.000000 0.000000
O O13 0.817742 0.150634 0.050449
O O14 0.000000 0.500000 0.000000
O O15 0.500000 0.000000 0.500000
O O16 0.458790 0.165926 0.206878
#
# Coordination Sequence:
#
# PCOD9013237 Si02
#       7
#     2   2   2   2   2   2   2
#     4  10  22  38  65  99 131 172 215 267 333 391
#     4  11  23  37  66  99 129 171 221 274 322 386
#     4  10  22  41  66  90 126 175 219 268 329 390
#     4   9  22  41  61  89 132 169 210 268 331 387
#     4  10  21  41  63  98 130 171 222 269 326 387
#     4  10  22  38  58  96 132 167 211 270 329 384
#     4  10  22  40  63  94 136 172 215 271 332 391
#
# _framework density 25.398489000000001
#
# number of rings (size 3 to 8) (size 9 to 14) (size 15 to 20)
#    0.000    2.000    0.000    2.571   10.000    1.143 
#    0.000    2.857    0.000    3.429    0.000    3.000 
#    0.000    0.000    0.000    0.000    0.000    0.000 
#
# Total GULP energy -78127.075278 kJ/mol
# GULP energy per Si atom -5580.505377 kJ/mol
# Density = 2.534068 g / cm^3
# Si number density = 25.398489 Si / 1000 Ang^3
#
#
#
# Elastic Constant Matrix: (Units=GPa)
#
#
# Indices 1 2 3 4 5 6 
#
# 1 116.3330 29.9665 5.8471 10.0434 4.9912 6.7569
# 2 29.9665 158.1982 46.4473 1.1283 2.5023 -19.8565
# 3 5.8471 46.4473 70.4584 3.7608 6.4875 5.9801
# 4 10.0434 1.1283 3.7608 39.2964 3.1817 -7.4337
# 5 4.9912 2.5023 6.4875 3.1817 20.2729 7.7487
# 6 6.7569 -19.8565 5.9801 -7.4337 7.7487 32.3399
#
#
#
# Elastic Compliance Matrix: (Units=1/GPa)
#
#
# Indices 1 2 3 4 5 6 
#
# 1 0.009882 -0.002997 0.001785 -0.003545 -0.000163 -0.005011
# 2 -0.002997 0.010232 -0.007259 0.003161 -0.002344 0.009539
# 3 0.001785 -0.007259 0.019962 -0.003684 -0.001951 -0.008900
# 4 -0.003545 0.003161 -0.003684 0.029485 -0.007532 0.011945
# 5 -0.000163 -0.002344 -0.001951 -0.007532 0.057819 -0.016629
# 6 -0.005011 0.009539 -0.008900 0.011945 -0.016629 0.046202
#
#
# Mechanical properties :
#
#
# Convention : Reuss Voigt Hill
#
# Bulk Modulus (GPa) = 43.22601 56.61237 49.91919
# Shear Modulus (GPa) = 25.22259 35.89707 30.55983
#
# Velocity S-wave (km/s) = 3.15473 3.76354 3.47250
# Velocity P-wave (km/s) = 5.50689 6.42057 5.98120
#
# Compressibility (1/GPa) = 0.02313422
#
# Stress axis : x y z
#
# Youngs Moduli (GPa) = 101.18923 97.73201 50.09630
#
# Poissons Ratio (x) = 0.29293 -0.08944
# Poissons Ratio (y) = 0.30329 0.36365
# Poissons Ratio (z) = -0.18065 0.70943
#
# Static dielectric constant tensor:
#      x y z
#    x 2.072650 -0.127960 -0.046830 
#    y -0.127960 2.190140 0.062340 
#    z -0.046830 0.062340 2.001850 
# 
# From -- ./inp_files/381135.got.cif
#   From: 2010.05.17/outbox.cif.g08.bks.cpg/sg2_191_cif.got.tgz:381135.got - 2010.06.03 11:33:40.
