data_PCOD9013823
_publ_section_title
;
Structure prediction by ZEFSAII (Michael W. Deem and Ramdas Pophale) SiO2 
 PCOD9013823
Probable space group: P -1
;
_chemical_formula_sum "Si O2"
_cell_formula_units_Z 14
_cell_length_a 12.207887
_cell_length_b 19.523659
_cell_length_c 17.057343
_cell_angle_alpha 157.638484
_cell_angle_beta 153.641810
_cell_angle_gamma 40.207715
_cell_volume 633.921554
_symmetry_space_group_name_H-M "P -1"
_symmetry_group_IT_number 2
_symmetry_cell_setting 'triclinic'
loop_
_space_group_symop_operation_xyz
x,y,z
-x,-y,-z
loop_
_atom_site_type_symbol
_atom_site_label
_atom_site_fract_x
_atom_site_fract_y
_atom_site_fract_z
Si Si1 0.694190 0.504042 0.363893
Si Si2 0.449987 0.148063 0.712154
Si Si3 0.488191 0.625486 0.507242
Si Si4 0.854026 0.060551 0.175645
Si Si5 0.954491 0.721334 0.617340
Si Si6 0.580381 0.258067 0.741568
Si Si7 0.866897 0.461609 0.673882
O O1 0.501286 0.549084 0.347683
O O2 0.880843 0.690372 0.629514
O O3 0.894006 0.424053 0.451997
O O4 0.532381 0.325259 0.013200
O O5 0.620361 0.222032 0.820328
O O6 0.139205 0.075662 0.410218
O O7 0.498341 0.959362 0.574763
O O8 0.686130 0.554895 0.610473
O O9 0.212586 0.549858 0.297896
O O10 0.624019 0.858517 0.836767
O O11 0.804706 0.244140 0.373338
O O12 0.882062 0.090621 0.130961
O O13 0.660661 0.668558 0.337911
O O14 0.830234 0.407162 0.014364
#
# Coordination Sequence:
#
# PCOD9013823 Si02
#       7
#     2   2   2   2   2   2   2
#     4  11  23  41  58 104 133 166 203 282 320 384
#     4  10  22  37  69  97 133 159 220 263 329 376
#     4  11  25  41  66  94 131 170 222 259 318 377
#     4  11  21  43  68  97 121 178 213 264 311 402
#     4  10  23  37  66  93 136 160 208 264 338 366
#     4  10  21  41  65  99 125 177 210 264 313 398
#     4  11  22  43  67  91 127 176 222 260 301 395
#
# _framework density 22.084752000000002
#
# number of rings (size 3 to 8) (size 9 to 14) (size 15 to 20)
#    0.000    1.429    2.857    2.143    2.000    4.571 
#    0.000    3.571    0.000    0.000    0.000    3.000 
#    0.000    0.000    0.000    0.000    0.000    0.000 
#
# Total GULP energy -78227.622666 kJ/mol
# GULP energy per Si atom -5587.687333 kJ/mol
# Density = 2.203449 g / cm^3
# Si number density = 22.084752 Si / 1000 Ang^3
#
#
#
# Elastic Constant Matrix: (Units=GPa)
#
#
# Indices 1 2 3 4 5 6 
#
# 1 169.6542 14.3085 58.5168 18.1877 18.6209 -7.6080
# 2 14.3085 81.1317 27.3603 16.5719 5.5117 10.4961
# 3 58.5168 27.3603 92.8967 29.4965 13.2390 0.5950
# 4 18.1877 16.5719 29.4965 33.6101 -7.9178 -1.6748
# 5 18.6209 5.5117 13.2390 -7.9178 31.8251 -2.9318
# 6 -7.6080 10.4961 0.5950 -1.6748 -2.9318 16.1082
#
#
#
# Elastic Compliance Matrix: (Units=1/GPa)
#
#
# Indices 1 2 3 4 5 6 
#
# 1 0.007943 0.000031 -0.004301 -0.001041 -0.002822 0.003268
# 2 0.000031 0.016653 -0.000996 -0.009412 -0.006015 -0.012873
# 3 -0.004301 -0.000996 0.021535 -0.019128 -0.011607 -0.006279
# 4 -0.001041 -0.009412 -0.019128 0.058830 0.026424 0.017274
# 5 -0.002822 -0.006015 -0.011607 0.026424 0.046833 0.014287
# 6 0.003268 -0.012873 -0.006279 0.017274 0.014287 0.076640
#
#
# Mechanical properties :
#
#
# Convention : Reuss Voigt Hill
#
# Bulk Modulus (GPa) = 28.09051 60.45042 44.27046
# Shear Modulus (GPa) = 19.93375 32.54181 26.23778
#
# Velocity S-wave (km/s) = 3.00759 3.84278 3.45055
# Velocity P-wave (km/s) = 4.98075 6.86445 5.99702
#
# Compressibility (1/GPa) = 0.03559921
#
# Stress axis : x y z
#
# Youngs Moduli (GPa) = 125.89667 60.05096 46.43605
#
# Poissons Ratio (x) = -0.00186 0.19971
# Poissons Ratio (y) = -0.00390 0.04624
# Poissons Ratio (z) = 0.54146 0.05980
#
# Static dielectric constant tensor:
#      x y z
#    x 1.832380 0.030650 -0.035410 
#    y 0.030650 1.843440 -0.002720 
#    z -0.035410 -0.002720 1.829640 
# 
# From -- ./inp_files/570828.got.cif
#   From: 2010.05.17/outbox.cif.g08.bks.cpg/sg2_286_cif.got.tgz:570828.got - 2010.06.03 11:33:40.
