data_PCOD9013964
_publ_section_title
;
Structure prediction by ZEFSAII (Michael W. Deem and Ramdas Pophale) SiO2 
 PCOD9013964
Probable space group: P -1
;
_chemical_formula_sum "Si O2"
_cell_formula_units_Z 14
_cell_length_a 8.089151
_cell_length_b 7.529228
_cell_length_c 15.189384
_cell_angle_alpha 81.555203
_cell_angle_beta 58.003532
_cell_angle_gamma 51.611084
_cell_volume 591.407369
_symmetry_space_group_name_H-M "P -1"
_symmetry_group_IT_number 2
_symmetry_cell_setting 'triclinic'
loop_
_space_group_symop_operation_xyz
x,y,z
-x,-y,-z
loop_
_atom_site_type_symbol
_atom_site_label
_atom_site_fract_x
_atom_site_fract_y
_atom_site_fract_z
Si Si1 0.632273 0.107764 0.598424
Si Si2 0.323614 0.341442 0.007073
Si Si3 0.726160 0.707235 0.519513
Si Si4 0.761220 0.568566 0.174876
Si Si5 0.256488 0.800681 0.729492
Si Si6 0.833202 0.154663 0.951721
Si Si7 0.861597 0.293688 0.418686
O O1 0.376955 0.255604 0.717049
O O2 0.710690 0.260775 0.534972
O O3 0.682031 0.946777 0.512480
O O4 0.847097 0.904498 0.620189
O O5 0.326165 0.302552 0.904267
O O6 0.595375 0.164620 0.993139
O O7 0.261553 0.589404 0.019157
O O8 0.068597 0.394824 0.109564
O O9 0.503853 0.770551 0.641859
O O10 0.747694 0.562432 0.440189
O O11 0.000000 0.500000 0.500000
O O12 0.679969 0.408571 0.212653
O O13 0.171613 0.767103 0.663224
O O14 0.024826 0.042275 0.822938
O O15 0.000000 0.000000 0.000000
#
# Coordination Sequence:
#
# PCOD9013964 Si02
#       7
#     2   2   2   2   2   2   2
#     4  10  21  41  66  92 132 177 217 274 330 406
#     4  10  24  45  67  97 137 171 227 283 333 407
#     4  10  22  41  62  94 130 171 220 270 327 398
#     4  11  22  42  67  99 132 177 222 276 340 394
#     4  12  23  41  65  95 132 174 221 280 331 403
#     4  11  23  46  67  96 129 177 226 282 337 397
#     4  10  22  41  62  93 133 173 223 270 332 398
#
# _framework density 23.672345
#
# number of rings (size 3 to 8) (size 9 to 14) (size 15 to 20)
#    0.000    1.429    2.857    2.143    0.000    1.143 
#   10.286    0.000    0.000    0.000    0.000    0.000 
#    0.000    0.000    0.000    0.000    0.000    0.000 
#
# Total GULP energy -78288.916255 kJ/mol
# GULP energy per Si atom -5592.065447 kJ/mol
# Density = 2.361847 g / cm^3
# Si number density = 23.672345 Si / 1000 Ang^3
#
#
#
# Elastic Constant Matrix: (Units=GPa)
#
#
# Indices 1 2 3 4 5 6 
#
# 1 102.4949 19.8320 49.9291 13.1319 -8.0051 -21.1149
# 2 19.8320 83.1397 32.7034 10.9904 12.7610 2.4122
# 3 49.9291 32.7034 157.8904 18.8546 5.0515 -11.4948
# 4 13.1319 10.9904 18.8546 25.2904 11.0123 -2.2296
# 5 -8.0051 12.7610 5.0515 11.0123 38.4064 9.3648
# 6 -21.1149 2.4122 -11.4948 -2.2296 9.3648 43.1087
#
#
#
# Elastic Compliance Matrix: (Units=1/GPa)
#
#
# Indices 1 2 3 4 5 6 
#
# 1 0.013659 -0.002165 -0.003020 -0.005365 0.004335 0.004787
# 2 -0.002165 0.014258 -0.002024 -0.001986 -0.003952 -0.001642
# 3 -0.003020 -0.002024 0.008182 -0.003509 -0.000192 0.000676
# 4 -0.005365 -0.001986 -0.003509 0.052945 -0.015843 0.002728
# 5 0.004335 -0.003952 -0.000192 -0.015843 0.034278 -0.005973
# 6 0.004787 -0.001642 0.000676 0.002728 -0.005973 0.027252
#
#
# Mechanical properties :
#
#
# Convention : Reuss Voigt Hill
#
# Bulk Modulus (GPa) = 46.12741 60.93934 53.53338
# Shear Modulus (GPa) = 29.03257 37.43178 33.23217
#
# Velocity S-wave (km/s) = 3.50585 3.98080 3.75085
# Velocity P-wave (km/s) = 5.99300 6.85038 6.43598
#
# Compressibility (1/GPa) = 0.02167908
#
# Stress axis : x y z
#
# Youngs Moduli (GPa) = 73.21215 70.13827 122.21503
#
# Poissons Ratio (x) = 0.15186 0.36913
# Poissons Ratio (y) = 0.15851 0.24741
# Poissons Ratio (z) = 0.22113 0.14199
#
# Static dielectric constant tensor:
#      x y z
#    x 1.997390 -0.013300 0.012060 
#    y -0.013300 1.943380 0.006630 
#    z 0.012060 0.006630 1.842810 
# 
# From -- ./inp_files/492908.got.cif
#   From: 2010.05.17/outbox.cif.g08.bks.cpg/sg2_247_cif.got.tgz:492908.got - 2010.06.03 11:33:40.
