data_PCOD9013895
_publ_section_title
;
Structure prediction by ZEFSAII (Michael W. Deem and Ramdas Pophale) SiO2 
 PCOD9013895
Probable space group: P -1
;
_chemical_formula_sum "Si O2"
_cell_formula_units_Z 14
_cell_length_a 8.585347
_cell_length_b 14.210405
_cell_length_c 22.679153
_cell_angle_alpha 161.263617
_cell_angle_beta 43.569466
_cell_angle_gamma 130.286534
_cell_volume 602.720406
_symmetry_space_group_name_H-M "P -1"
_symmetry_group_IT_number 2
_symmetry_cell_setting 'triclinic'
loop_
_space_group_symop_operation_xyz
x,y,z
-x,-y,-z
loop_
_atom_site_type_symbol
_atom_site_label
_atom_site_fract_x
_atom_site_fract_y
_atom_site_fract_z
Si Si1 0.927270 0.670681 0.816333
Si Si2 0.566794 0.536115 0.435231
Si Si3 0.803803 0.471023 0.153693
Si Si4 0.570627 0.407754 0.057054
Si Si5 0.697262 0.033678 0.009733
Si Si6 0.736747 0.269768 0.814464
Si Si7 0.530004 0.967177 0.601590
O O1 0.701102 0.605829 0.872451
O O2 0.160690 0.447579 0.629233
O O3 0.835847 0.715387 0.801475
O O4 0.000000 0.000000 0.000000
O O5 0.500000 0.500000 0.500000
O O6 0.573224 0.230134 0.214817
O O7 0.437080 0.802158 0.586237
O O8 0.701985 0.367360 0.059355
O O9 0.855108 0.221300 0.042100
O O10 0.609399 0.721497 0.384840
O O11 0.034173 0.601942 0.162342
O O12 0.599790 0.736519 0.219643
O O13 0.675489 0.170112 0.837656
O O14 0.500000 0.000000 0.000000
O O15 0.746807 0.069187 0.634907
O O16 0.500000 0.500000 0.000000
#
# Coordination Sequence:
#
# PCOD9013895 Si02
#       7
#     2   2   2   2   2   2   2
#     4  10  23  38  65  89 123 165 212 246 310 367
#     4  10  24  41  64  90 122 162 209 257 307 365
#     4  11  22  41  64  92 128 163 203 256 316 359
#     4  11  23  41  64  93 125 163 208 255 309 368
#     4  10  21  41  66  89 121 165 205 253 309 370
#     4  10  24  37  63  92 122 162 208 251 301 366
#     4  10  24  39  63  91 125 160 205 256 311 363
#
# _framework density 23.228019
#
# number of rings (size 3 to 8) (size 9 to 14) (size 15 to 20)
#    0.000    1.714    1.429    1.286   18.000    1.143 
#    0.000    0.714    3.143    0.000    0.000    0.000 
#    0.000    0.000    0.000    0.000    0.000    0.000 
#
# Total GULP energy -77950.601932 kJ/mol
# GULP energy per Si atom -5567.900138 kJ/mol
# Density = 2.317515 g / cm^3
# Si number density = 23.228019 Si / 1000 Ang^3
#
#
#
# Elastic Constant Matrix: (Units=GPa)
#
#
# Indices 1 2 3 4 5 6 
#
# 1 89.0686 15.7377 14.2235 -8.9163 23.6007 -15.5544
# 2 15.7377 90.3114 -2.4869 -3.4830 6.1064 -19.8202
# 3 14.2235 -2.4869 38.8016 3.4839 5.3291 -19.4300
# 4 -8.9163 -3.4830 3.4839 24.9506 -18.2050 0.8486
# 5 23.6007 6.1064 5.3291 -18.2050 45.4081 4.9545
# 6 -15.5544 -19.8202 -19.4300 0.8486 4.9545 46.3685
#
#
#
# Elastic Compliance Matrix: (Units=1/GPa)
#
#
# Indices 1 2 3 4 5 6 
#
# 1 0.014552 -0.001121 -0.002082 -0.000556 -0.007870 0.004381
# 2 -0.001121 0.013468 0.006285 -0.002539 -0.003909 0.008479
# 3 -0.002082 0.006285 0.040489 -0.015774 -0.013091 0.020642
# 4 -0.000556 -0.002539 -0.015774 0.063497 0.029267 -0.012171
# 5 -0.007870 -0.003909 -0.013091 0.029267 0.041520 -0.014769
# 6 0.004381 0.008479 0.020642 -0.012171 -0.014769 0.037111
#
#
# Mechanical properties :
#
#
# Convention : Reuss Voigt Hill
#
# Bulk Modulus (GPa) = 13.39163 30.34779 21.86971
# Shear Modulus (GPa) = 21.79939 36.05925 28.92932
#
# Velocity S-wave (km/s) = 3.06681 3.94433 3.53292
# Velocity P-wave (km/s) = 4.27998 5.81697 5.10663
#
# Compressibility (1/GPa) = 0.07467349
#
# Stress axis : x y z
#
# Youngs Moduli (GPa) = 68.71687 74.24796 24.69825
#
# Poissons Ratio (x) = 0.08324 0.05141
# Poissons Ratio (y) = 0.07704 -0.15522
# Poissons Ratio (z) = 0.14304 -0.46662
#
# Static dielectric constant tensor:
#      x y z
#    x 2.001250 -0.046400 -0.037850 
#    y -0.046400 2.012860 0.063080 
#    z -0.037850 0.063080 2.011750 
# 
# From -- ./inp_files/608085.got.cif
#   From: 2010.05.17/outbox.cif.g08.bks.cpg/sg2_305_cif.got.tgz:608085.got - 2010.06.03 11:33:40.
