data_PCOD9013574
_publ_section_title
;
Structure prediction by ZEFSAII (Michael W. Deem and Ramdas Pophale) SiO2 
 PCOD9013574
Probable space group: P -1
;
_chemical_formula_sum "Si O2"
_cell_formula_units_Z 12
_cell_length_a 6.497304
_cell_length_b 7.015800
_cell_length_c 13.014188
_cell_angle_alpha 66.977825
_cell_angle_beta 108.934238
_cell_angle_gamma 76.737715
_cell_volume 471.205862
_symmetry_space_group_name_H-M "P -1"
_symmetry_group_IT_number 2
_symmetry_cell_setting 'triclinic'
loop_
_space_group_symop_operation_xyz
x,y,z
-x,-y,-z
loop_
_atom_site_type_symbol
_atom_site_label
_atom_site_fract_x
_atom_site_fract_y
_atom_site_fract_z
Si Si1 0.267515 0.864257 0.365170
Si Si2 0.190938 0.703188 0.103220
Si Si3 0.487206 0.944496 0.194637
Si Si4 0.124986 0.441992 0.777655
Si Si5 0.235604 0.770172 0.860050
Si Si6 0.377649 0.387110 0.366221
O O1 0.417598 0.966346 0.297952
O O2 0.320330 0.621275 0.371209
O O3 0.387301 0.802314 0.508984
O O4 0.992794 0.024558 0.270315
O O5 0.278849 0.893655 0.115884
O O6 0.378036 0.464268 0.232908
O O7 0.961518 0.707687 0.127750
O O8 0.174949 0.717362 0.976217
O O9 0.718963 0.714981 0.253971
O O10 0.551673 0.146455 0.123000
O O11 0.264268 0.553409 0.843771
O O12 0.872737 0.636937 0.658069
#
# Coordination Sequence:
#
# PCOD9013574 Si02
#       6
#     2   2   2   2   2   2
#     4  10  21  41  65  89 124 166 206 249 311 367
#     4   9  22  42  63  89 128 164 202 255 309 365
#     4  11  22  40  62  98 124 160 203 262 308 363
#     4  10  23  41  63  94 125 162 206 255 309 365
#     4  12  23  40  67  96 120 162 212 255 305 368
#     4   8  19  42  62  87 122 172 197 249 311 369
#
# _framework density 25.466577999999998
#
# number of rings (size 3 to 8) (size 9 to 14) (size 15 to 20)
#    1.000    1.000    1.667    1.000    0.000   10.667 
#    3.000    0.833    0.000    0.000    0.000    0.000 
#    0.000    0.000    0.000    0.000    0.000    0.000 
#
# Total GULP energy -67073.996035 kJ/mol
# GULP energy per Si atom -5589.499670 kJ/mol
# Density = 2.540861 g / cm^3
# Si number density = 25.466578 Si / 1000 Ang^3
#
#
#
# Elastic Constant Matrix: (Units=GPa)
#
#
# Indices 1 2 3 4 5 6 
#
# 1 118.3328 38.1952 -9.4660 -4.4507 7.4608 10.1645
# 2 38.1952 71.7245 37.6320 -6.7208 10.5573 23.5338
# 3 -9.4660 37.6320 113.7499 -18.3381 14.8751 -13.3505
# 4 -4.4507 -6.7208 -18.3381 26.4409 -1.5934 3.0149
# 5 7.4608 10.5573 14.8751 -1.5934 20.8004 2.1397
# 6 10.1645 23.5338 -13.3505 3.0149 2.1397 30.5872
#
#
#
# Elastic Compliance Matrix: (Units=1/GPa)
#
#
# Indices 1 2 3 4 5 6 
#
# 1 0.012644 -0.012386 0.007097 0.002700 -0.003985 0.008438
# 2 -0.012386 0.043329 -0.019988 -0.000573 0.000603 -0.037931
# 3 0.007097 -0.019988 0.021004 0.007615 -0.009109 0.022075
# 4 0.002700 -0.000573 0.007615 0.043389 -0.002674 -0.001222
# 5 -0.003985 0.000603 -0.009109 -0.002674 0.056206 -0.006784
# 6 0.008438 -0.037931 0.022075 -0.001222 -0.006784 0.069304
#
#
# Mechanical properties :
#
#
# Convention : Reuss Voigt Hill
#
# Bulk Modulus (GPa) = 37.84747 48.50328 43.17538
# Shear Modulus (GPa) = 16.38062 31.39544 23.88803
#
# Velocity S-wave (km/s) = 2.53893 3.51495 3.06603
# Velocity P-wave (km/s) = 4.84652 5.96325 5.43365
#
# Compressibility (1/GPa) = 0.02642184
#
# Stress axis : x y z
#
# Youngs Moduli (GPa) = 79.08694 23.07937 47.60931
#
# Poissons Ratio (x) = 0.28586 -0.33786
# Poissons Ratio (y) = 0.97956 0.95163
# Poissons Ratio (z) = -0.56125 0.46132
#
# Static dielectric constant tensor:
#      x y z
#    x 2.021810 0.020970 0.050330 
#    y 0.020970 2.051100 -0.012950 
#    z 0.050330 -0.012950 2.047830 
# 
# From -- ./inp_files/256147.got.cif
#   From: 2010.05.17/outbox.cif.g08.bks.cpg/sg2_129_cif.got.tgz:256147.got - 2010.06.03 11:33:40.
