data_PCOD9013229
_publ_section_title
;
Structure prediction by ZEFSAII (Michael W. Deem and Ramdas Pophale) SiO2 
 PCOD9013229
Probable space group: P -1
;
_chemical_formula_sum "Si O2"
_cell_formula_units_Z 16
_cell_length_a 8.700666
_cell_length_b 15.052892
_cell_length_c 13.158201
_cell_angle_alpha 28.382119
_cell_angle_beta 99.081043
_cell_angle_gamma 106.171899
_cell_volume 772.282503
_symmetry_space_group_name_H-M "P -1"
_symmetry_group_IT_number 2
_symmetry_cell_setting 'triclinic'
loop_
_space_group_symop_operation_xyz
x,y,z
-x,-y,-z
loop_
_atom_site_type_symbol
_atom_site_label
_atom_site_fract_x
_atom_site_fract_y
_atom_site_fract_z
Si Si1 0.816060 0.710771 0.663873
Si Si2 0.198007 0.894994 0.838663
Si Si3 0.862664 0.391860 0.514423
Si Si4 0.935580 0.476834 0.208635
Si Si5 0.693856 0.026197 0.997423
Si Si6 0.454297 0.696729 0.014383
Si Si7 0.332921 0.375177 0.056376
Si Si8 0.621699 0.630986 0.299366
O O1 0.779466 0.740821 0.747737
O O2 0.976903 0.643044 0.732936
O O3 0.823635 0.904013 0.406890
O O4 0.669269 0.521450 0.800278
O O5 0.349605 0.847521 0.846412
O O6 0.237249 0.908845 0.949001
O O7 0.045003 0.704166 0.996058
O O8 0.927392 0.393476 0.405732
O O9 0.777330 0.181298 0.764489
O O10 0.731041 0.511373 0.381090
O O11 0.000000 0.500000 0.500000
O O12 0.761064 0.482627 0.145112
O O13 0.500000 0.000000 0.000000
O O14 0.723817 0.822145 0.177417
O O15 0.605926 0.740377 0.909254
O O16 0.521018 0.695468 0.135731
O O17 0.500000 0.500000 0.000000
O O18 0.500000 0.500000 0.500000
#
# Coordination Sequence:
#
# PCOD9013229 Si02
#       8
#     2   2   2   2   2   2   2   2
#     4  10  24  41  70  91 129 175 216 272 342 391
#     4  11  23  41  64  98 134 172 221 267 331 403
#     4  12  26  43  64  99 138 179 216 273 333 395
#     4  11  24  45  66  95 137 170 218 274 335 397
#     4  12  24  39  66  99 133 178 226 259 321 404
#     4  10  21  41  63  97 132 170 218 279 325 390
#     4  10  22  45  70  94 124 170 225 280 335 390
#     4  12  23  39  67  94 138 179 218 272 328 388
#
# _framework density 20.717807000000001
#
# number of rings (size 3 to 8) (size 9 to 14) (size 15 to 20)
#    0.000    1.000    5.000    1.125    3.500    2.500 
#    0.000    0.000    0.000    0.000    0.000    0.000 
#    0.000    0.000    0.000    0.000    0.000    0.000 
#
# Total GULP energy -89458.984331 kJ/mol
# GULP energy per Si atom -5591.186521 kJ/mol
# Density = 2.067065 g / cm^3
# Si number density = 20.717807 Si / 1000 Ang^3
#
#
#
# Elastic Constant Matrix: (Units=GPa)
#
#
# Indices 1 2 3 4 5 6 
#
# 1 91.9412 33.9435 26.2544 5.3046 1.3659 -9.1488
# 2 33.9435 66.5924 30.2587 13.2945 1.7930 -10.0296
# 3 26.2544 30.2587 91.4095 -3.7749 3.3705 -7.5579
# 4 5.3046 13.2945 -3.7749 38.3114 -7.3037 5.0255
# 5 1.3659 1.7930 3.3705 -7.3037 30.2350 6.7887
# 6 -9.1488 -10.0296 -7.5579 5.0255 6.7887 38.4096
#
#
#
# Elastic Compliance Matrix: (Units=1/GPa)
#
#
# Indices 1 2 3 4 5 6 
#
# 1 0.013749 -0.005839 -0.001888 -0.000355 -0.000490 0.001512
# 2 -0.005839 0.023480 -0.005881 -0.009402 -0.003983 0.005518
# 3 -0.001888 -0.005881 0.013609 0.003552 -0.000288 0.000279
# 4 -0.000355 -0.009402 0.003552 0.032668 0.009832 -0.007853
# 5 -0.000490 -0.003983 -0.000288 0.009832 0.037801 -0.009181
# 6 0.001512 0.005518 0.000279 -0.007853 -0.009181 0.030541
#
#
# Mechanical properties :
#
#
# Convention : Reuss Voigt Hill
#
# Bulk Modulus (GPa) = 42.32988 47.87292 45.10140
# Shear Modulus (GPa) = 26.74677 32.02363 29.38520
#
# Velocity S-wave (km/s) = 3.59695 3.93581 3.77019
# Velocity P-wave (km/s) = 6.14221 6.61902 6.38507
#
# Compressibility (1/GPa) = 0.02362397
#
# Stress axis : x y z
#
# Youngs Moduli (GPa) = 72.73036 42.58901 73.48058
#
# Poissons Ratio (x) = 0.24866 0.13873
# Poissons Ratio (y) = 0.42465 0.43212
# Poissons Ratio (z) = 0.13731 0.25046
#
# Static dielectric constant tensor:
#      x y z
#    x 1.765610 0.001620 -0.015790 
#    y 0.001620 1.733950 0.008120 
#    z -0.015790 0.008120 1.711660 
# 
# From -- ./inp_files/221642.got.cif
#   From: 2010.05.17/outbox.cif.g08.bks.cpg/sg2_111_cif.got.tgz:221642.got - 2010.06.03 11:33:40.
