data_PCOD9013821
_publ_section_title
;
Structure prediction by ZEFSAII (Michael W. Deem and Ramdas Pophale) SiO2 
 PCOD9013821
Probable space group: P -1
;
_chemical_formula_sum "Si O2"
_cell_formula_units_Z 12
_cell_length_a 12.378762
_cell_length_b 5.073959
_cell_length_c 9.261868
_cell_angle_alpha 96.291272
_cell_angle_beta 75.239150
_cell_angle_gamma 118.457951
_cell_volume 494.512856
_symmetry_space_group_name_H-M "P -1"
_symmetry_group_IT_number 2
_symmetry_cell_setting 'triclinic'
loop_
_space_group_symop_operation_xyz
x,y,z
-x,-y,-z
loop_
_atom_site_type_symbol
_atom_site_label
_atom_site_fract_x
_atom_site_fract_y
_atom_site_fract_z
Si Si1 0.079224 0.826402 0.927196
Si Si2 0.016440 0.293772 0.600441
Si Si3 0.644138 0.714496 0.132940
Si Si4 0.251131 0.065135 0.287008
Si Si5 0.385856 0.693517 0.138783
Si Si6 0.211292 0.154640 0.632661
O O1 0.223305 0.007432 0.945089
O O2 0.107095 0.875538 0.746876
O O3 0.000000 0.500000 0.000000
O O4 0.000000 0.000000 0.000000
O O5 0.889856 0.165177 0.730239
O O6 0.000000 0.500000 0.500000
O O7 0.146668 0.369426 0.640074
O O8 0.000000 0.000000 0.500000
O O9 0.524283 0.766393 0.151282
O O10 0.671175 0.687162 0.289735
O O11 0.625962 0.430778 0.026995
O O12 0.348431 0.953927 0.191333
O O13 0.289502 0.399592 0.243158
O O14 0.248654 0.067214 0.463040
#
# Coordination Sequence:
#
# PCOD9013821 Si02
#       6
#     2   2   2   2   2   2
#     4  10  24  44  71 105 141 188 239 300 361 422
#     4  10  21  41  65  98 143 177 224 296 358 416
#     4   9  25  49  69 107 143 193 247 294 353 442
#     4  11  24  43  71 102 142 190 240 297 371 418
#     4  11  25  47  70 102 148 195 235 297 359 436
#     4   9  23  47  70 112 138 189 245 307 348 440
#
# _framework density 24.266304999999999
#
# number of rings (size 3 to 8) (size 9 to 14) (size 15 to 20)
#    1.000    1.000    0.000    2.000    2.333   10.667 
#    0.000    0.833    0.000    0.000    0.000    0.000 
#    0.000    0.000    0.000    0.000    0.000    0.000 
#
# Total GULP energy -67120.313911 kJ/mol
# GULP energy per Si atom -5593.359493 kJ/mol
# Density = 2.421107 g / cm^3
# Si number density = 24.266305 Si / 1000 Ang^3
#
#
#
# Elastic Constant Matrix: (Units=GPa)
#
#
# Indices 1 2 3 4 5 6 
#
# 1 135.9031 27.4480 20.2995 21.6434 9.0488 8.3672
# 2 27.4480 88.6070 17.5160 -24.8205 7.7634 -19.4298
# 3 20.2995 17.5160 108.7625 14.8939 9.9770 -3.5268
# 4 21.6434 -24.8205 14.8939 42.7449 6.2621 -3.1324
# 5 9.0488 7.7634 9.9770 6.2621 42.3631 4.4363
# 6 8.3672 -19.4298 -3.5268 -3.1324 4.4363 48.6807
#
#
#
# Elastic Compliance Matrix: (Units=1/GPa)
#
#
# Indices 1 2 3 4 5 6 
#
# 1 0.010882 -0.007861 0.000417 -0.010823 0.001224 -0.005786
# 2 -0.007861 0.023712 -0.004273 0.021037 -0.006069 0.012413
# 3 0.000417 -0.004273 0.010707 -0.006414 -0.000739 -0.001347
# 4 -0.010823 0.021037 -0.006414 0.045509 -0.008170 0.013465
# 5 0.001224 -0.006069 -0.000739 -0.008170 0.026427 -0.005620
# 6 -0.005786 0.012413 -0.001347 0.013465 -0.005620 0.027772
#
#
# Mechanical properties :
#
#
# Convention : Reuss Voigt Hill
#
# Bulk Modulus (GPa) = 45.73076 51.53330 48.63203
# Shear Modulus (GPa) = 28.45253 44.62500 36.53877
#
# Velocity S-wave (km/s) = 3.42791 4.29297 3.88460
# Velocity P-wave (km/s) = 5.87824 6.77167 6.34071
#
# Compressibility (1/GPa) = 0.02186712
#
# Stress axis : x y z
#
# Youngs Moduli (GPa) = 91.89500 42.17246 93.39676
#
# Poissons Ratio (x) = 0.33153 -0.03897
# Poissons Ratio (y) = 0.72240 0.39910
# Poissons Ratio (z) = -0.03835 0.18021
#
# Static dielectric constant tensor:
#      x y z
#    x 2.179480 -0.034760 -0.037550 
#    y -0.034760 2.082020 0.033740 
#    z -0.037550 0.033740 2.036600 
# 
# From -- ./inp_files/229125.got.cif
#   From: 2010.05.17/outbox.cif.g08.bks.cpg/sg2_115_cif.got.tgz:229125.got - 2010.06.03 11:33:40.
