data_PCOD9013444
_publ_section_title
;
Structure prediction by ZEFSAII (Michael W. Deem and Ramdas Pophale) SiO2 
 PCOD9013444
Probable space group: P -1
;
_chemical_formula_sum "Si O2"
_cell_formula_units_Z 15
_cell_length_a 7.249513
_cell_length_b 9.600774
_cell_length_c 19.808710
_cell_angle_alpha 40.081580
_cell_angle_beta 133.032388
_cell_angle_gamma 127.934230
_cell_volume 636.203183
_symmetry_space_group_name_H-M "P -1"
_symmetry_group_IT_number 2
_symmetry_cell_setting 'triclinic'
loop_
_space_group_symop_operation_xyz
x,y,z
-x,-y,-z
loop_
_atom_site_type_symbol
_atom_site_label
_atom_site_fract_x
_atom_site_fract_y
_atom_site_fract_z
Si Si1 0.768702 0.620932 0.881623
Si Si2 0.700895 0.425127 0.287181
Si Si3 0.774358 0.009226 0.387874
Si Si4 0.071341 0.686540 0.183140
Si Si5 0.500000 0.500000 0.500000
Si Si6 0.318865 0.199704 0.061218
Si Si7 0.610165 0.564866 0.351010
Si Si8 0.147466 0.927414 0.769422
O O1 0.534158 0.470287 0.838264
O O2 0.675932 0.696498 0.902250
O O3 0.905730 0.815444 0.793942
O O4 0.000000 0.500000 0.000000
O O5 0.965878 0.558490 0.272696
O O6 0.699934 0.418961 0.369137
O O7 0.641375 0.189700 0.323363
O O8 0.599914 0.771279 0.420646
O O9 0.887196 0.096245 0.311153
O O10 0.000000 0.000000 0.500000
O O11 0.312812 0.586568 0.256920
O O12 0.844625 0.676414 0.075832
O O13 0.171433 0.945324 0.125573
O O14 0.615210 0.479580 0.459486
O O15 0.601943 0.181415 0.113182
O O16 0.773159 0.812503 0.292113
#
# Coordination Sequence:
#
# PCOD9013444 Si02
#       8
#     2   2   2   2   1   2   2   2
#     4  12  25  37  64 102 142 179 221 273 333 414
#     4  12  25  40  69 104 131 176 230 281 343 409
#     4  11  25  47  71  99 134 181 231 297 346 407
#     4  10  22  40  68  95 137 178 230 278 337 409
#     4  10  24  48  70  94 134 176 228 290 356 402
#     4  10  21  41  64  95 135 189 223 276 340 400
#     4  10  23  45  69  97 131 177 227 291 341 407
#     4  10  23  45  64  94 140 178 227 277 340 410
#
# _framework density 23.577376000000001
#
# number of rings (size 3 to 8) (size 9 to 14) (size 15 to 20)
#    0.000    1.333    1.333    3.200    5.600    1.600 
#    2.400    8.667    0.000    0.000    0.000    0.000 
#    0.000    0.000    0.000    0.000    0.000    0.000 
#
# Total GULP energy -83733.783160 kJ/mol
# GULP energy per Si atom -5582.252211 kJ/mol
# Density = 2.352371 g / cm^3
# Si number density = 23.577376 Si / 1000 Ang^3
#
#
#
# Elastic Constant Matrix: (Units=GPa)
#
#
# Indices 1 2 3 4 5 6 
#
# 1 67.1941 27.1261 -4.2158 -1.6604 -27.5778 5.6275
# 2 27.1261 79.4107 2.6767 -6.4248 -20.7208 -9.8100
# 3 -4.2158 2.6767 48.7536 3.6586 -16.6247 3.9171
# 4 -1.6604 -6.4248 3.6586 34.8679 5.3301 -9.2216
# 5 -27.5778 -20.7208 -16.6247 5.3301 43.0619 6.5288
# 6 5.6275 -9.8100 3.9171 -9.2216 6.5288 40.7232
#
#
#
# Elastic Compliance Matrix: (Units=1/GPa)
#
#
# Indices 1 2 3 4 5 6 
#
# 1 0.028132 -0.006261 0.011919 -0.007614 0.022344 -0.011849
# 2 -0.006261 0.016290 -0.001540 0.004043 0.001893 0.005550
# 3 0.011919 -0.001540 0.030391 -0.008904 0.021300 -0.010372
# 4 -0.007614 0.004043 -0.008904 0.035357 -0.012704 0.012926
# 5 0.022344 0.001893 0.021300 -0.012704 0.050614 -0.015672
# 6 -0.011849 0.005550 -0.010372 0.012926 -0.015672 0.033968
#
#
# Mechanical properties :
#
#
# Convention : Reuss Voigt Hill
#
# Bulk Modulus (GPa) = 12.04095 27.39249 19.71672
# Shear Modulus (GPa) = 23.34275 35.04870 29.19573
#
# Velocity S-wave (km/s) = 3.14992 3.85975 3.52276
# Velocity P-wave (km/s) = 4.28338 5.61310 4.99271
#
# Compressibility (1/GPa) = 0.08304991
#
# Stress axis : x y z
#
# Youngs Moduli (GPa) = 35.54642 61.38777 32.90421
#
# Poissons Ratio (x) = 0.38434 -0.39218
# Poissons Ratio (y) = 0.22255 0.05066
# Poissons Ratio (z) = -0.42368 0.09452
#
# Static dielectric constant tensor:
#      x y z
#    x 1.895930 0.010730 0.153380 
#    y 0.010730 1.885230 0.020220 
#    z 0.153380 0.020220 2.162020 
# 
# From -- ./inp_files/46878.got.cif
#   From: 2010.05.17/outbox.cif.g08.bks.cpg/sg2_24_cif.got.tgz:46878.got - 2010.06.03 11:33:40.
