data_PCOD9013789
_publ_section_title
;
Structure prediction by ZEFSAII (Michael W. Deem and Ramdas Pophale) SiO2 
 PCOD9013789
Probable space group: P -1
;
_chemical_formula_sum "Si O2"
_cell_formula_units_Z 16
_cell_length_a 19.979689
_cell_length_b 5.489925
_cell_length_c 15.345964
_cell_angle_alpha 64.455987
_cell_angle_beta 31.570245
_cell_angle_gamma 74.370893
_cell_volume 777.825652
_symmetry_space_group_name_H-M "P -1"
_symmetry_group_IT_number 2
_symmetry_cell_setting 'triclinic'
loop_
_space_group_symop_operation_xyz
x,y,z
-x,-y,-z
loop_
_atom_site_type_symbol
_atom_site_label
_atom_site_fract_x
_atom_site_fract_y
_atom_site_fract_z
Si Si1 0.384237 0.736265 0.651669
Si Si2 0.520809 0.256277 0.630295
Si Si3 0.020400 0.749924 0.315263
Si Si4 0.744809 0.819188 0.616877
Si Si5 0.103764 0.807075 0.406348
Si Si6 0.717601 0.238139 0.053777
Si Si7 0.616581 0.355067 0.699483
Si Si8 0.331331 0.296477 0.094925
O O1 0.433318 0.455707 0.656899
O O2 0.366083 0.757051 0.564353
O O3 0.287887 0.737038 0.839345
O O4 0.500000 0.000000 0.500000
O O5 0.575676 0.389898 0.639358
O O6 0.415654 0.967694 0.799533
O O7 0.087211 0.718168 0.338679
O O8 0.902658 0.910618 0.425732
O O9 0.938167 0.438681 0.441163
O O10 0.146028 0.853869 0.101546
O O11 0.680775 0.085586 0.659863
O O12 0.702003 0.630688 0.780143
O O13 0.697178 0.630703 0.614266
O O14 0.246195 0.989486 0.229178
O O15 0.000000 0.000000 0.500000
O O16 0.716018 0.516248 0.956767
O O17 0.481632 0.295399 0.912607
#
# Coordination Sequence:
#
# PCOD9013789 Si02
#       8
#     2   2   2   2   2   2   2   2
#     4   9  20  39  67  98 120 146 193 281 352 377
#     4  10  21  41  65  97 124 150 205 272 342 375
#     4  11  23  37  58  88 128 172 222 256 319 370
#     4  12  27  42  58  90 138 189 216 249 299 377
#     4  11  20  38  59  84 122 172 213 281 309 349
#     4  11  21  37  66  99 123 159 209 279 326 377
#     4  12  26  42  64  90 130 180 221 257 303 389
#     4  12  22  41  64  92 132 169 227 261 313 364
#
# _framework density 20.570160999999999
#
# number of rings (size 3 to 8) (size 9 to 14) (size 15 to 20)
#    0.000    1.000    3.750    3.750    1.750    2.000 
#    0.000    0.000    0.000    1.500    0.000    0.000 
#    0.000    0.000    0.000    0.000    0.000    0.000 
#
# Total GULP energy -89193.417291 kJ/mol
# GULP energy per Si atom -5574.588581 kJ/mol
# Density = 2.052334 g / cm^3
# Si number density = 20.570161 Si / 1000 Ang^3
#
#
#
# Elastic Constant Matrix: (Units=GPa)
#
#
# Indices 1 2 3 4 5 6 
#
# 1 77.9672 12.1031 49.1807 7.3625 2.8931 32.6586
# 2 12.1031 67.1200 18.4044 5.0589 -3.6487 9.7010
# 3 49.1807 18.4044 105.7784 34.5570 18.7001 6.7775
# 4 7.3625 5.0589 34.5570 39.4031 0.4899 -1.9938
# 5 2.8931 -3.6487 18.7001 0.4899 35.1568 12.2052
# 6 32.6586 9.7010 6.7775 -1.9938 12.2052 39.5169
#
#
#
# Elastic Compliance Matrix: (Units=1/GPa)
#
#
# Indices 1 2 3 4 5 6 
#
# 1 0.044159 0.005896 -0.027713 0.012932 0.025576 -0.040437
# 2 0.005896 0.017745 -0.007616 0.002651 0.009044 -0.010582
# 3 -0.027713 -0.007616 0.033484 -0.021603 -0.024919 0.025636
# 4 0.012932 0.002651 -0.021603 0.040907 0.013514 -0.009744
# 5 0.025576 0.009044 -0.024919 0.013514 0.052345 -0.034569
# 6 -0.040437 -0.010582 0.025636 -0.009744 -0.034569 0.067111
#
#
# Mechanical properties :
#
#
# Convention : Reuss Voigt Hill
#
# Bulk Modulus (GPa) = 27.37993 45.58243 36.48118
# Shear Modulus (GPa) = 15.30035 34.22721 24.76378
#
# Velocity S-wave (km/s) = 2.73025 4.08355 3.47345
# Velocity P-wave (km/s) = 4.82477 6.66644 5.81893
#
# Compressibility (1/GPa) = 0.03652311
#
# Stress axis : x y z
#
# Youngs Moduli (GPa) = 22.64536 56.35368 29.86526
#
# Poissons Ratio (x) = -0.33227 0.82765
# Poissons Ratio (y) = -0.13352 0.22745
# Poissons Ratio (z) = 0.62756 0.42918
#
# Static dielectric constant tensor:
#      x y z
#    x 1.813710 0.024620 0.015150 
#    y 0.024620 1.856290 -0.014480 
#    z 0.015150 -0.014480 1.820920 
# 
# From -- ./inp_files/81728.got.cif
#   From: 2010.05.17/outbox.cif.g08.bks.cpg/sg2_41_cif.got.tgz:81728.got - 2010.06.03 11:33:40.
