data_PCOD9013484
_publ_section_title
;
Structure prediction by ZEFSAII (Michael W. Deem and Ramdas Pophale) SiO2 
 PCOD9013484
Probable space group: P -1
;
_chemical_formula_sum "Si O2"
_cell_formula_units_Z 14
_cell_length_a 6.662267
_cell_length_b 13.554452
_cell_length_c 15.421004
_cell_angle_alpha 151.625473
_cell_angle_beta 70.978608
_cell_angle_gamma 93.446337
_cell_volume 540.211179
_symmetry_space_group_name_H-M "P -1"
_symmetry_group_IT_number 2
_symmetry_cell_setting 'triclinic'
loop_
_space_group_symop_operation_xyz
x,y,z
-x,-y,-z
loop_
_atom_site_type_symbol
_atom_site_label
_atom_site_fract_x
_atom_site_fract_y
_atom_site_fract_z
Si Si1 0.485075 0.133877 0.695137
Si Si2 0.001572 0.769249 0.204799
Si Si3 0.825719 0.290051 0.685959
Si Si4 0.485370 0.211791 0.437586
Si Si5 0.037397 0.015320 0.139388
Si Si6 0.582479 0.369930 0.096360
Si Si7 0.778927 0.408232 0.356960
O O1 0.191585 0.284967 0.857506
O O2 0.632563 0.267263 0.759632
O O3 0.500000 0.000000 0.500000
O O4 0.564893 0.968818 0.640358
O O5 0.987191 0.741769 0.289845
O O6 0.919691 0.054032 0.431023
O O7 0.242269 0.637920 0.011115
O O8 0.683210 0.529118 0.833853
O O9 0.460398 0.420868 0.668058
O O10 0.275816 0.355002 0.505248
O O11 0.768913 0.072135 0.256071
O O12 0.968874 0.270706 0.302386
O O13 0.262317 0.886035 0.075693
O O14 0.130283 0.808006 0.892493
O O15 0.500000 0.500000 0.500000
#
# Coordination Sequence:
#
# PCOD9013484 Si02
#       7
#     2   2   2   2   2   2   2
#     4  10  18  35  49  71 104 139 171 208 250 298
#     4  10  20  34  49  68 101 138 177 213 250 290
#     4  10  21  34  47  71 103 136 175 215 246 299
#     4  10  17  30  46  72 103 132 171 211 250 306
#     4   9  16  28  45  73  99 132 166 210 262 299
#     4  11  17  29  48  68  98 132 170 208 252 300
#     4   8  16  27  46  70 105 128 162 217 256 300
#
# _framework density 25.915790000000001
#
# number of rings (size 3 to 8) (size 9 to 14) (size 15 to 20)
#    0.000    2.286    4.286    0.429    0.000    0.571 
#    0.000    0.000    0.000    0.000    0.000    1.000 
#    0.000   28.571    0.000    1.286    0.000    0.000 
#
# Total GULP energy -78130.696531 kJ/mol
# GULP energy per Si atom -5580.764038 kJ/mol
# Density = 2.585680 g / cm^3
# Si number density = 25.915790 Si / 1000 Ang^3
#
#
#
# Elastic Constant Matrix: (Units=GPa)
#
#
# Indices 1 2 3 4 5 6 
#
# 1 41.8657 20.2771 21.2677 7.0530 -6.3051 -13.3249
# 2 20.2771 166.4333 37.6660 43.0340 -18.0477 -36.8615
# 3 21.2677 37.6660 177.6862 -5.3723 -13.4376 5.7751
# 4 7.0530 43.0340 -5.3723 57.7507 -6.8786 -23.2895
# 5 -6.3051 -18.0477 -13.4376 -6.8786 33.3745 10.3549
# 6 -13.3249 -36.8615 5.7751 -23.2895 10.3549 32.1861
#
#
#
# Elastic Compliance Matrix: (Units=1/GPa)
#
#
# Indices 1 2 3 4 5 6 
#
# 1 0.030270 -0.000023 -0.004042 0.001808 -0.000066 0.014560
# 2 -0.000023 0.009425 -0.002313 -0.003852 0.000841 0.008141
# 3 -0.004042 -0.002313 0.007031 0.000832 0.002815 -0.005887
# 4 0.001808 -0.003852 0.000832 0.026142 -0.000783 0.015356
# 5 -0.000066 0.000841 0.002815 -0.000783 0.034903 -0.011364
# 6 0.014560 0.008141 -0.005887 0.015356 -0.011364 0.062245
#
#
# Mechanical properties :
#
#
# Convention : Reuss Voigt Hill
#
# Bulk Modulus (GPa) = 29.43684 60.48964 44.96324
# Shear Modulus (GPa) = 25.76059 45.11389 35.43724
#
# Velocity S-wave (km/s) = 3.15621 4.17680 3.70185
# Velocity P-wave (km/s) = 4.96644 6.83026 5.97151
#
# Compressibility (1/GPa) = 0.03397104
#
# Stress axis : x y z
#
# Youngs Moduli (GPa) = 33.03629 106.10070 142.22210
#
# Poissons Ratio (x) = 0.00246 0.57482
# Poissons Ratio (y) = 0.00077 0.32890
# Poissons Ratio (z) = 0.13352 0.24537
#
# Static dielectric constant tensor:
#      x y z
#    x 2.074930 -0.097730 -0.131070 
#    y -0.097730 2.183520 0.156760 
#    z -0.131070 0.156760 2.200710 
# 
# From -- ./inp_files/407399.got.cif
#   From: 2010.05.17/outbox.cif.g08.bks.cpg/sg2_204_cif.got.tgz:407399.got - 2010.06.03 11:33:40.
