data_PCOD9013679
_publ_section_title
;
Structure prediction by ZEFSAII (Michael W. Deem and Ramdas Pophale) SiO2 
 PCOD9013679
Probable space group: P -1
;
_chemical_formula_sum "Si O2"
_cell_formula_units_Z 15
_cell_length_a 8.991745
_cell_length_b 9.849698
_cell_length_c 11.814788
_cell_angle_alpha 61.745282
_cell_angle_beta 55.423852
_cell_angle_gamma 52.474428
_cell_volume 670.096400
_symmetry_space_group_name_H-M "P -1"
_symmetry_group_IT_number 2
_symmetry_cell_setting 'triclinic'
loop_
_space_group_symop_operation_xyz
x,y,z
-x,-y,-z
loop_
_atom_site_type_symbol
_atom_site_label
_atom_site_fract_x
_atom_site_fract_y
_atom_site_fract_z
Si Si1 0.040392 0.388520 0.412905
Si Si2 0.191410 0.829780 0.133526
Si Si3 0.221420 0.097899 0.843758
Si Si4 0.984216 0.950161 0.397779
Si Si5 0.614365 0.303087 0.389163
Si Si6 0.500000 0.500000 0.000000
Si Si7 0.333052 0.395959 0.677093
Si Si8 0.528623 0.755237 0.741196
O O1 0.091573 0.194382 0.503715
O O2 0.241437 0.358406 0.266928
O O3 0.000000 0.500000 0.500000
O O4 0.844127 0.474187 0.383759
O O5 0.981962 0.834776 0.172883
O O6 0.170785 0.866844 0.262120
O O7 0.379333 0.643371 0.097021
O O8 0.204731 0.987007 0.999609
O O9 0.264433 0.254988 0.800473
O O10 0.414290 0.956506 0.743745
O O11 0.823459 0.131947 0.341165
O O12 0.000000 0.000000 0.500000
O O13 0.537565 0.303915 0.549301
O O14 0.635966 0.477475 0.299239
O O15 0.456719 0.284019 0.381469
O O16 0.405195 0.664603 0.885883
#
# Coordination Sequence:
#
# PCOD9013679 Si02
#       8
#     2   2   2   2   2   1   2   2
#     4  12  23  37  64  98 129 171 221 277 319 384
#     4  10  22  39  69  95 129 173 222 269 334 380
#     4  10  21  41  65  93 125 168 226 274 316 395
#     4  12  24  43  64  95 138 172 212 274 331 393
#     4  11  24  40  62  93 133 178 214 265 335 395
#     4  10  22  40  64  98 130 166 218 282 316 384
#     4  11  23  40  61  97 134 172 217 267 332 390
#     4  11  22  39  65  94 125 171 222 270 327 381
#
# _framework density 22.384837999999998
#
# number of rings (size 3 to 8) (size 9 to 14) (size 15 to 20)
#    0.000    1.067    4.000    3.200    0.000    1.067 
#    0.000    2.000    0.000    4.000    0.000    0.000 
#    0.000    0.000    0.000    0.000    0.000    0.000 
#
# Total GULP energy -83540.415937 kJ/mol
# GULP energy per Si atom -5569.361062 kJ/mol
# Density = 2.233389 g / cm^3
# Si number density = 22.384838 Si / 1000 Ang^3
#
#
#
# Elastic Constant Matrix: (Units=GPa)
#
#
# Indices 1 2 3 4 5 6 
#
# 1 50.4298 28.1644 16.5514 12.2417 -2.2251 7.4321
# 2 28.1644 146.4383 29.9450 4.6175 -4.6755 15.2453
# 3 16.5514 29.9450 50.3597 7.3562 10.4019 16.0979
# 4 12.2417 4.6175 7.3562 48.8048 8.1721 -9.9316
# 5 -2.2251 -4.6755 10.4019 8.1721 22.8619 -2.3865
# 6 7.4321 15.2453 16.0979 -9.9316 -2.3865 37.0531
#
#
#
# Elastic Compliance Matrix: (Units=1/GPa)
#
#
# Indices 1 2 3 4 5 6 
#
# 1 0.025974 -0.002976 -0.006352 -0.006992 0.007033 -0.002647
# 2 -0.002976 0.008525 -0.004563 -0.000106 0.003491 -0.000732
# 3 -0.006352 -0.004563 0.032612 -0.002692 -0.016765 -0.012818
# 4 -0.006992 -0.000106 -0.002692 0.025796 -0.007756 0.009030
# 5 0.007033 0.003491 -0.016765 -0.007756 0.056164 0.005975
# 6 -0.002647 -0.000732 -0.012818 0.009030 0.005975 0.036194
#
#
# Mechanical properties :
#
#
# Convention : Reuss Voigt Hill
#
# Bulk Modulus (GPa) = 25.42685 44.06105 34.74395
# Shear Modulus (GPa) = 22.10856 33.24842 27.67849
#
# Velocity S-wave (km/s) = 3.14611 3.85815 3.52018
# Velocity P-wave (km/s) = 4.95792 6.29073 5.66367
#
# Compressibility (1/GPa) = 0.03932850
#
# Stress axis : x y z
#
# Youngs Moduli (GPa) = 38.49964 117.29827 30.66397
#
# Poissons Ratio (x) = 0.34909 0.19479
# Poissons Ratio (y) = 0.11458 0.13992
# Poissons Ratio (z) = 0.24456 0.53523
#
# Static dielectric constant tensor:
#      x y z
#    x 1.948340 -0.025710 -0.062060 
#    y -0.025710 1.830320 0.003940 
#    z -0.062060 0.003940 1.917600 
# 
# From -- ./inp_files/182856.got.cif
#   From: 2010.05.17/outbox.cif.g08.bks.cpg/sg2_92_cif.got.tgz:182856.got - 2010.06.03 11:33:40.
