data_PCOD9013730
_publ_section_title
;
Structure prediction by ZEFSAII (Michael W. Deem and Ramdas Pophale) SiO2 
 PCOD9013730
Probable space group: P -1
;
_chemical_formula_sum "Si O2"
_cell_formula_units_Z 16
_cell_length_a 9.524690
_cell_length_b 9.505402
_cell_length_c 27.008245
_cell_angle_alpha 38.006142
_cell_angle_beta 28.462690
_cell_angle_gamma 40.045900
_cell_volume 695.117600
_symmetry_space_group_name_H-M "P -1"
_symmetry_group_IT_number 2
_symmetry_cell_setting 'triclinic'
loop_
_space_group_symop_operation_xyz
x,y,z
-x,-y,-z
loop_
_atom_site_type_symbol
_atom_site_label
_atom_site_fract_x
_atom_site_fract_y
_atom_site_fract_z
Si Si1 0.113355 0.630778 0.267433
Si Si2 0.109953 0.864235 0.952577
Si Si3 0.761199 0.706250 0.830497
Si Si4 0.699183 0.619290 0.627006
Si Si5 0.860754 0.187324 0.622603
Si Si6 0.229949 0.307265 0.741316
Si Si7 0.701551 0.751033 0.028880
Si Si8 0.986235 0.182229 0.180834
O O1 0.127677 0.440747 0.358178
O O2 0.894412 0.610805 0.296400
O O3 0.455480 0.598158 0.149694
O O4 0.026753 0.901522 0.239022
O O5 0.183567 0.049610 0.839031
O O6 0.432263 0.691847 0.916214
O O7 0.844157 0.778318 0.030908
O O8 0.000000 0.000000 0.000000
O O9 0.021751 0.478548 0.798244
O O10 0.774350 0.765300 0.868033
O O11 0.843282 0.930524 0.716332
O O12 0.782613 0.370155 0.641490
O O13 0.344883 0.710151 0.723435
O O14 0.827988 0.797159 0.503874
O O15 0.582531 0.289592 0.643409
O O16 0.959561 0.700751 0.920693
O O17 0.500000 0.000000 0.000000
#
# Coordination Sequence:
#
# PCOD9013730 Si02
#       8
#     2   2   2   2   2   2   2   2
#     4  11  24  43  66  94 136 170 213 267 326 386
#     4  11  23  40  65  95 137 173 216 267 318 384
#     4  11  24  41  67  95 131 174 215 267 327 386
#     4  11  24  42  71  96 123 175 224 268 330 384
#     4  10  24  45  65  98 131 164 223 281 319 384
#     4  11  24  43  64  97 134 170 212 268 330 388
#     4  10  21  41  65  94 134 171 207 269 311 384
#     4  11  22  42  66  96 129 170 219 262 322 392
#
# _framework density 23.017688
#
# number of rings (size 3 to 8) (size 9 to 14) (size 15 to 20)
#    0.000    1.250    5.000    1.500    3.500    3.000 
#    0.000    1.250    0.000    0.000    0.000    0.000 
#    0.000    0.000    0.000    0.000    0.000    0.000 
#
# Total GULP energy -89540.484407 kJ/mol
# GULP energy per Si atom -5596.280275 kJ/mol
# Density = 2.296530 g / cm^3
# Si number density = 23.017688 Si / 1000 Ang^3
#
#
#
# Elastic Constant Matrix: (Units=GPa)
#
#
# Indices 1 2 3 4 5 6 
#
# 1 144.7948 -2.7903 9.3565 10.3281 3.8366 6.6021
# 2 -2.7903 48.6309 12.7768 11.2636 1.8039 1.6189
# 3 9.3565 12.7768 100.0503 19.6875 5.4807 -5.4030
# 4 10.3281 11.2636 19.6875 30.0556 -2.5441 -1.7208
# 5 3.8366 1.8039 5.4807 -2.5441 25.7529 1.4054
# 6 6.6021 1.6189 -5.4030 -1.7208 1.4054 24.9397
#
#
#
# Elastic Compliance Matrix: (Units=1/GPa)
#
#
# Indices 1 2 3 4 5 6 
#
# 1 0.007304 0.001326 -0.000302 -0.003046 -0.001296 -0.002222
# 2 0.001326 0.023161 -0.001421 -0.008543 -0.002218 -0.002627
# 3 -0.000302 -0.001421 0.011958 -0.007332 -0.003258 0.002440
# 4 -0.003046 -0.008543 -0.007332 0.043028 0.006734 0.002362
# 5 -0.001296 -0.002218 -0.003258 0.006734 0.040649 -0.002045
# 6 -0.002222 -0.002627 0.002440 0.002362 -0.002045 0.041662
#
#
# Mechanical properties :
#
#
# Convention : Reuss Voigt Hill
#
# Bulk Modulus (GPa) = 24.02182 36.90688 30.46435
# Shear Modulus (GPa) = 27.40730 34.42518 30.91624
#
# Velocity S-wave (km/s) = 3.45440 3.87149 3.66888
# Velocity P-wave (km/s) = 5.13512 6.00446 5.58672
#
# Compressibility (1/GPa) = 0.04162883
#
# Stress axis : x y z
#
# Youngs Moduli (GPa) = 136.90470 43.17633 83.62740
#
# Poissons Ratio (x) = -0.05725 0.02526
# Poissons Ratio (y) = -0.18154 0.11884
# Poissons Ratio (z) = 0.04135 0.06136
#
# Static dielectric constant tensor:
#      x y z
#    x 1.872980 -0.016880 0.008530 
#    y -0.016880 1.913060 0.033390 
#    z 0.008530 0.033390 1.846080 
# 
# From -- ./inp_files/203347.got.cif
#   From: 2010.05.17/outbox.cif.g08.bks.cpg/sg2_102_cif.got.tgz:203347.got - 2010.06.03 11:33:40.
