data_PCOD9013255
_publ_section_title
;
Structure prediction by ZEFSAII (Michael W. Deem and Ramdas Pophale) SiO2 
 PCOD9013255
Probable space group: P -1
;
_chemical_formula_sum "Si O2"
_cell_formula_units_Z 14
_cell_length_a 13.780440
_cell_length_b 19.194108
_cell_length_c 11.093584
_cell_angle_alpha 29.950011
_cell_angle_beta 41.679103
_cell_angle_gamma 22.019698
_cell_volume 523.733843
_symmetry_space_group_name_H-M "P -1"
_symmetry_group_IT_number 2
_symmetry_cell_setting 'triclinic'
loop_
_space_group_symop_operation_xyz
x,y,z
-x,-y,-z
loop_
_atom_site_type_symbol
_atom_site_label
_atom_site_fract_x
_atom_site_fract_y
_atom_site_fract_z
Si Si1 0.863780 0.786856 0.476817
Si Si2 0.364413 0.200115 0.146062
Si Si3 0.345459 0.597709 0.296666
Si Si4 0.894120 0.772467 0.056104
Si Si5 0.495780 0.864909 0.340554
Si Si6 0.689575 0.174908 0.800063
Si Si7 0.490871 0.698899 0.822884
O O1 0.866227 0.654011 0.763922
O O2 0.148330 0.625092 0.421346
O O3 0.650461 0.932460 0.349956
O O4 0.706285 0.031561 0.334425
O O5 0.356981 0.102700 0.187554
O O6 0.412598 0.319548 0.883155
O O7 0.608691 0.338643 0.518506
O O8 0.215072 0.815092 0.187205
O O9 0.414505 0.615312 0.080958
O O10 0.675789 0.008902 0.809931
O O11 0.877557 0.898730 0.990836
O O12 0.788423 0.701089 0.290227
O O13 0.196456 0.526598 0.096266
O O14 0.481255 0.743491 0.623180
#
# Coordination Sequence:
#
# PCOD9013255 Si02
#       7
#     2   2   2   2   2   2   2
#     4  10  21  41  64 100 131 168 221 279 330 388
#     4   9  19  41  65  95 125 168 228 270 324 384
#     4  11  24  42  67  97 138 173 220 277 337 391
#     4  10  22  46  67  99 137 175 225 271 334 397
#     4   9  21  43  70  99 133 176 221 278 329 394
#     4  10  23  44  66  97 130 180 220 277 329 400
#     4  11  22  41  69  99 133 176 217 277 332 401
#
# _framework density 26.731134999999998
#
# number of rings (size 3 to 8) (size 9 to 14) (size 15 to 20)
#    0.000    2.000    1.429    0.857    0.000    5.714 
#   28.286    1.429    0.000    0.000    0.000    0.000 
#    0.000    0.000    0.000    0.000    0.000    0.000 
#
# Total GULP energy -78412.784054 kJ/mol
# GULP energy per Si atom -5600.913147 kJ/mol
# Density = 2.667029 g / cm^3
# Si number density = 26.731135 Si / 1000 Ang^3
#
#
#
# Elastic Constant Matrix: (Units=GPa)
#
#
# Indices 1 2 3 4 5 6 
#
# 1 121.1457 22.0082 29.5191 1.0589 -18.8361 4.4481
# 2 22.0082 118.0956 56.7666 24.3547 5.1111 -22.6784
# 3 29.5191 56.7666 133.3649 42.8834 2.1096 -2.8739
# 4 1.0589 24.3547 42.8834 47.6226 4.5437 -0.5182
# 5 -18.8361 5.1111 2.1096 4.5437 35.8558 -6.7182
# 6 4.4481 -22.6784 -2.8739 -0.5182 -6.7182 25.7653
#
#
#
# Elastic Compliance Matrix: (Units=1/GPa)
#
#
# Indices 1 2 3 4 5 6 
#
# 1 0.009983 -0.001904 -0.002266 0.002297 0.004923 -0.002322
# 2 -0.001904 0.013756 -0.004184 -0.003087 -0.000097 0.011883
# 3 -0.002266 -0.004184 0.012707 -0.009220 -0.000588 -0.002213
# 4 0.002297 -0.003087 -0.009220 0.031024 -0.002525 -0.004176
# 5 0.004923 -0.000097 -0.000588 -0.002525 0.032221 0.007350
# 6 -0.002322 0.011883 -0.002213 -0.004176 0.007350 0.051258
#
#
# Mechanical properties :
#
#
# Convention : Reuss Voigt Hill
#
# Bulk Modulus (GPa) = 50.66044 65.46600 58.06322
# Shear Modulus (GPa) = 28.69666 39.46957 34.08312
#
# Velocity S-wave (km/s) = 3.28003 3.84674 3.57464
# Velocity P-wave (km/s) = 5.77389 6.65384 6.22942
#
# Compressibility (1/GPa) = 0.01973927
#
# Stress axis : x y z
#
# Youngs Moduli (GPa) = 100.16881 72.69386 78.69695
#
# Poissons Ratio (x) = 0.13842 0.17831
# Poissons Ratio (y) = 0.19073 0.32925
# Poissons Ratio (z) = 0.22696 0.30413
#
# Static dielectric constant tensor:
#      x y z
#    x 2.066220 0.024610 -0.003730 
#    y 0.024610 2.076900 0.035180 
#    z -0.003730 0.035180 2.121280 
# 
# From -- ./inp_files/457612.got.cif
#   From: 2010.05.17/outbox.cif.g08.bks.cpg/sg2_229_cif.got.tgz:457612.got - 2010.06.03 11:33:40.
