data_PCOD9013728
_publ_section_title
;
Structure prediction by ZEFSAII (Michael W. Deem and Ramdas Pophale) SiO2 
 PCOD9013728
Probable space group: P -1
;
_chemical_formula_sum "Si O2"
_cell_formula_units_Z 16
_cell_length_a 17.830176
_cell_length_b 8.917803
_cell_length_c 6.882856
_cell_angle_alpha 125.980566
_cell_angle_beta 119.018766
_cell_angle_gamma 60.011308
_cell_volume 737.887210
_symmetry_space_group_name_H-M "P -1"
_symmetry_group_IT_number 2
_symmetry_cell_setting 'triclinic'
loop_
_space_group_symop_operation_xyz
x,y,z
-x,-y,-z
loop_
_atom_site_type_symbol
_atom_site_label
_atom_site_fract_x
_atom_site_fract_y
_atom_site_fract_z
Si Si1 0.240228 0.953782 0.061015
Si Si2 0.952483 0.457964 0.220372
Si Si3 0.502995 0.599610 0.871547
Si Si4 0.899415 0.110150 0.875414
Si Si5 0.815656 0.289869 0.533938
Si Si6 0.576981 0.995808 0.750051
Si Si7 0.117302 0.351966 0.085667
Si Si8 0.369696 0.435214 0.325829
O O1 0.219307 0.806713 0.764918
O O2 0.179631 0.952277 0.171196
O O3 0.344374 0.934619 0.201988
O O4 0.200245 0.170222 0.093477
O O5 0.000000 0.500000 0.500000
O O6 0.030492 0.335508 0.078795
O O7 0.887922 0.331866 0.091375
O O8 0.901073 0.636290 0.157872
O O9 0.436909 0.521392 0.597627
O O10 0.599018 0.557545 0.852371
O O11 0.500000 0.500000 0.000000
O O12 0.464827 0.832129 0.019500
O O13 0.880490 0.127443 0.633767
O O14 0.000000 0.000000 0.000000
O O15 0.867762 0.446715 0.670803
O O16 0.729630 0.423286 0.647261
O O17 0.613198 0.784875 0.739087
O O18 0.500000 0.000000 0.500000
#
# Coordination Sequence:
#
# PCOD9013728 Si02
#       8
#     2   2   2   2   2   2   2   2
#     4  12  25  43  70  95 142 179 228 281 342 397
#     4  10  21  41  65  94 133 172 226 276 342 394
#     4  11  24  44  72  99 135 178 223 289 350 404
#     4  11  25  43  65 103 137 175 230 278 332 408
#     4  11  25  43  66 100 137 182 225 278 342 400
#     4  12  25  46  71 104 137 184 232 283 350 410
#     4  10  22  41  64  96 131 177 223 278 329 413
#     4  11  24  44  69  98 138 176 231 280 341 417
#
# _framework density 21.683529
#
# number of rings (size 3 to 8) (size 9 to 14) (size 15 to 20)
#    0.000    1.000    5.000    1.125    3.500    0.500 
#    2.250    1.250    0.000    0.000    0.000    0.000 
#    0.000    0.000    0.000    0.000    0.000    0.000 
#
# Total GULP energy -89323.246906 kJ/mol
# GULP energy per Si atom -5582.702932 kJ/mol
# Density = 2.163418 g / cm^3
# Si number density = 21.683529 Si / 1000 Ang^3
#
#
#
# Elastic Constant Matrix: (Units=GPa)
#
#
# Indices 1 2 3 4 5 6 
#
# 1 109.9806 22.3768 18.0782 -6.5843 11.1246 6.4902
# 2 22.3768 87.4176 25.3033 1.0015 -2.7773 11.7092
# 3 18.0782 25.3033 67.7525 2.3169 17.8367 20.9001
# 4 -6.5843 1.0015 2.3169 31.0771 1.0950 -0.1839
# 5 11.1246 -2.7773 17.8367 1.0950 34.3213 2.3210
# 6 6.4902 11.7092 20.9001 -0.1839 2.3210 31.3539
#
#
#
# Elastic Compliance Matrix: (Units=1/GPa)
#
#
# Indices 1 2 3 4 5 6 
#
# 1 0.010219 -0.002405 -0.001021 0.002424 -0.003033 -0.000298
# 2 -0.002405 0.013968 -0.005351 -0.000739 0.004816 -0.001513
# 3 -0.001021 -0.005351 0.024206 -0.001512 -0.011750 -0.013064
# 4 0.002424 -0.000739 -0.001512 0.032876 -0.001181 0.001062
# 5 -0.003033 0.004816 -0.011750 -0.001181 0.036386 0.003961
# 6 -0.000298 -0.001513 -0.013064 0.001062 0.003961 0.040942
#
#
# Mechanical properties :
#
#
# Convention : Reuss Voigt Hill
#
# Bulk Modulus (GPa) = 32.42638 44.07415 38.25026
# Shear Modulus (GPa) = 26.81982 32.64327 29.73155
#
# Velocity S-wave (km/s) = 3.52074 3.88421 3.70693
# Velocity P-wave (km/s) = 5.61376 6.36289 6.00003
#
# Compressibility (1/GPa) = 0.03083909
#
# Stress axis : x y z
#
# Youngs Moduli (GPa) = 97.85592 71.59321 41.31281
#
# Poissons Ratio (x) = 0.17215 0.04219
# Poissons Ratio (y) = 0.23530 0.22107
# Poissons Ratio (z) = 0.09992 0.38310
#
# Static dielectric constant tensor:
#      x y z
#    x 1.818600 -0.043680 0.001910 
#    y -0.043680 1.723870 0.038460 
#    z 0.001910 0.038460 1.757960 
# 
# From -- ./inp_files/55474.got.cif
#   From: 2010.05.17/outbox.cif.g08.bks.cpg/sg2_28_cif.got.tgz:55474.got - 2010.06.03 11:33:40.
