data_PCOD9013687
_publ_section_title
;
Structure prediction by ZEFSAII (Michael W. Deem and Ramdas Pophale) SiO2 
 PCOD9013687
Probable space group: P -1
;
_chemical_formula_sum "Si O2"
_cell_formula_units_Z 16
_cell_length_a 8.746904
_cell_length_b 10.042655
_cell_length_c 12.076184
_cell_angle_alpha 97.324152
_cell_angle_beta 51.891578
_cell_angle_gamma 117.529638
_cell_volume 721.003823
_symmetry_space_group_name_H-M "P -1"
_symmetry_group_IT_number 2
_symmetry_cell_setting 'triclinic'
loop_
_space_group_symop_operation_xyz
x,y,z
-x,-y,-z
loop_
_atom_site_type_symbol
_atom_site_label
_atom_site_fract_x
_atom_site_fract_y
_atom_site_fract_z
Si Si1 0.899989 0.848987 0.107590
Si Si2 0.395741 0.032166 0.708615
Si Si3 0.092372 0.475835 0.701065
Si Si4 0.854230 0.588164 0.557741
Si Si5 0.414161 0.620491 0.019394
Si Si6 0.356681 0.032954 0.983086
Si Si7 0.347604 0.483122 0.811968
Si Si8 0.823629 0.209703 0.393804
O O1 0.681359 0.840420 0.255354
O O2 0.823051 0.682763 0.075095
O O3 0.000000 0.000000 0.000000
O O4 0.102501 0.904344 0.106508
O O5 0.409651 0.009340 0.830252
O O6 0.627843 0.093992 0.550184
O O7 0.203445 0.885183 0.715276
O O8 0.105850 0.370063 0.585769
O O9 0.223773 0.481975 0.754137
O O10 0.208690 0.648836 0.617815
O O11 0.833406 0.428688 0.830111
O O12 0.589824 0.499374 0.685014
O O13 0.000000 0.500000 0.500000
O O14 0.956431 0.718372 0.621131
O O15 0.582497 0.790129 0.008489
O O16 0.500000 0.500000 0.000000
O O17 0.388163 0.613111 0.897071
O O18 0.500000 0.000000 0.000000
#
# Coordination Sequence:
#
# PCOD9013687 Si02
#       8
#     2   2   2   2   2   2   2   2
#     4  10  22  39  63  86 130 172 214 258 330 394
#     4  10  22  41  63  92 130 171 222 255 334 399
#     4  11  24  40  68  95 138 168 221 283 347 385
#     4  10  21  41  65  93 129 172 226 264 337 399
#     4  12  25  41  68 103 133 177 234 277 328 414
#     4  11  25  42  67  96 139 175 215 279 343 392
#     4  12  25  41  67 101 134 170 225 286 339 396
#     4  10  22  39  67  92 125 174 219 272 313 413
#
# _framework density 22.191284
#
# number of rings (size 3 to 8) (size 9 to 14) (size 15 to 20)
#    0.000    1.250    0.000    6.750    8.750    0.000 
#    0.000    0.000    0.000    3.750    0.000    0.000 
#    0.000    0.000    0.000    0.000    0.000    0.000 
#
# Total GULP energy -89275.621977 kJ/mol
# GULP energy per Si atom -5579.726374 kJ/mol
# Density = 2.214078 g / cm^3
# Si number density = 22.191284 Si / 1000 Ang^3
#
#
#
# Elastic Constant Matrix: (Units=GPa)
#
#
# Indices 1 2 3 4 5 6 
#
# 1 126.0853 31.0002 41.8089 0.3509 16.5004 34.1241
# 2 31.0002 99.9536 33.1415 14.6897 17.7698 31.6264
# 3 41.8089 33.1415 102.4153 6.0285 10.2625 20.1181
# 4 0.3509 14.6897 6.0285 24.0436 12.5693 6.0888
# 5 16.5004 17.7698 10.2625 12.5693 42.1043 5.9109
# 6 34.1241 31.6264 20.1181 6.0888 5.9109 34.8235
#
#
#
# Elastic Compliance Matrix: (Units=1/GPa)
#
#
# Indices 1 2 3 4 5 6 
#
# 1 0.012321 0.000700 -0.002926 0.005266 -0.004412 -0.011191
# 2 0.000700 0.015647 -0.002366 -0.004125 -0.003352 -0.012239
# 3 -0.002926 -0.002366 0.012161 -0.000960 -0.000281 -0.001794
# 4 0.005266 -0.004125 -0.000960 0.054170 -0.015172 -0.007756
# 5 -0.004412 -0.003352 -0.000281 -0.015172 0.030796 0.004955
# 6 -0.011191 -0.012239 -0.001794 -0.007756 0.004955 0.052349
#
#
# Mechanical properties :
#
#
# Convention : Reuss Voigt Hill
#
# Bulk Modulus (GPa) = 32.31558 60.03948 46.17753
# Shear Modulus (GPa) = 25.38804 35.02786 30.20795
#
# Velocity S-wave (km/s) = 3.38606 3.97728 3.69352
# Velocity P-wave (km/s) = 5.46636 6.94304 6.24848
#
# Compressibility (1/GPa) = 0.03094482
#
# Stress axis : x y z
#
# Youngs Moduli (GPa) = 81.16515 63.91113 82.22766
#
# Poissons Ratio (x) = -0.04475 0.24059
# Poissons Ratio (y) = -0.05683 0.19457
# Poissons Ratio (z) = 0.23748 0.15123
#
# Static dielectric constant tensor:
#      x y z
#    x 4.884130 3.006120 -3.347150 
#    y 3.006120 4.862120 -3.306920 
#    z -3.347150 -3.306920 5.594210 
# 
# From -- ./inp_files/392669.got.cif
#   From: 2010.05.17/outbox.cif.g08.bks.cpg/sg2_197_cif.got.tgz:392669.got - 2010.06.03 11:33:40.
