data_PCOD9013599
_publ_section_title
;
Structure prediction by ZEFSAII (Michael W. Deem and Ramdas Pophale) SiO2 
 PCOD9013599
Probable space group: P -1
;
_chemical_formula_sum "Si O2"
_cell_formula_units_Z 13
_cell_length_a 9.272841
_cell_length_b 10.108822
_cell_length_c 7.717042
_cell_angle_alpha 134.263294
_cell_angle_beta 69.197622
_cell_angle_gamma 97.665081
_cell_volume 477.133267
_symmetry_space_group_name_H-M "P -1"
_symmetry_group_IT_number 2
_symmetry_cell_setting 'triclinic'
loop_
_space_group_symop_operation_xyz
x,y,z
-x,-y,-z
loop_
_atom_site_type_symbol
_atom_site_label
_atom_site_fract_x
_atom_site_fract_y
_atom_site_fract_z
Si Si1 0.998590 0.883449 0.618434
Si Si2 0.339904 0.794177 0.364129
Si Si3 0.510109 0.624289 0.440755
Si Si4 0.500000 0.000000 0.000000
Si Si5 0.343613 0.184406 0.920186
Si Si6 0.993749 0.278726 0.146477
Si Si7 0.148280 0.412230 0.743289
O O1 0.164580 0.813929 0.389019
O O2 0.021529 0.787047 0.710485
O O3 0.870787 0.799680 0.486697
O O4 0.966007 0.103426 0.877208
O O5 0.380931 0.644429 0.364605
O O6 0.487458 0.759065 0.140640
O O7 0.337323 0.001370 0.636808
O O8 0.500000 0.500000 0.500000
O O9 0.498130 0.832141 0.710462
O O10 0.683246 0.575018 0.240613
O O11 0.359324 0.129948 0.064257
O O12 0.173825 0.306890 0.072464
O O13 0.876165 0.461040 0.304130
O O14 0.000000 0.500000 0.000000
#
# Coordination Sequence:
#
# PCOD9013599 Si02
#       7
#     2   2   2   1   2   2   2
#     4  10  22  41  65  89 121 170 214 259 314 375
#     4   9  19  38  62  89 122 161 209 255 310 372
#     4  11  24  42  64  94 128 166 213 263 312 375
#     4  10  22  40  66  92 122 160 214 268 314 364
#     4   9  18  36  63  90 119 162 207 258 311 371
#     4  10  21  41  65  90 125 168 214 257 315 382
#     4  12  26  41  62  97 135 167 207 262 321 381
#
# _framework density 27.246055999999999
#
# number of rings (size 3 to 8) (size 9 to 14) (size 15 to 20)
#    0.000    1.846    0.000    3.231    0.000    8.000 
#    0.000    2.308    0.000    0.000    0.000    0.000 
#    0.000    0.000    0.000    0.000    0.000    0.000 
#
# Total GULP energy -72614.663747 kJ/mol
# GULP energy per Si atom -5585.743365 kJ/mol
# Density = 2.718404 g / cm^3
# Si number density = 27.246056 Si / 1000 Ang^3
#
#
#
# Elastic Constant Matrix: (Units=GPa)
#
#
# Indices 1 2 3 4 5 6 
#
# 1 111.4581 23.4859 5.5661 7.1887 -7.9271 12.9125
# 2 23.4859 66.1057 14.6270 -4.4877 -15.6060 6.5949
# 3 5.5661 14.6270 89.2708 12.2420 -0.0992 19.4526
# 4 7.1887 -4.4877 12.2420 36.6644 7.5809 -5.8542
# 5 -7.9271 -15.6060 -0.0992 7.5809 34.5669 0.3283
# 6 12.9125 6.5949 19.4526 -5.8542 0.3283 41.3984
#
#
#
# Elastic Compliance Matrix: (Units=1/GPa)
#
#
# Indices 1 2 3 4 5 6 
#
# 1 0.010462 -0.003474 0.001298 -0.003886 0.001724 -0.003883
# 2 -0.003474 0.018955 -0.003206 0.002565 0.007190 -0.000124
# 3 0.001298 -0.003206 0.014199 -0.006676 0.000426 -0.007514
# 4 -0.003886 0.002565 -0.006676 0.033456 -0.007173 0.008728
# 5 0.001724 0.007190 0.000426 -0.007173 0.034175 -0.003169
# 6 -0.003883 -0.000124 -0.007514 0.008728 -0.003169 0.030176
#
#
# Mechanical properties :
#
#
# Convention : Reuss Voigt Hill
#
# Bulk Modulus (GPa) = 30.43869 39.35474 34.89671
# Shear Modulus (GPa) = 30.64879 37.40297 34.02588
#
# Velocity S-wave (km/s) = 3.35758 3.70913 3.53772
# Velocity P-wave (km/s) = 5.12124 5.72879 5.43352
#
# Compressibility (1/GPa) = 0.03285293
#
# Stress axis : x y z
#
# Youngs Moduli (GPa) = 95.58203 52.75731 70.42529
#
# Poissons Ratio (x) = 0.18326 -0.09140
# Poissons Ratio (y) = 0.33202 0.22578
# Poissons Ratio (z) = -0.12404 0.16913
#
# Static dielectric constant tensor:
#      x y z
#    x 2.056010 0.057850 0.001160 
#    y 0.057850 2.241980 -0.024770 
#    z 0.001160 -0.024770 2.075810 
# 
# From -- ./inp_files/173738.got.cif
#   From: 2010.05.17/outbox.cif.g08.bks.cpg/sg2_87_cif.got.tgz:173738.got - 2010.06.03 11:33:40.
