data_PCOD9013068
_publ_section_title
;
Structure prediction by ZEFSAII (Michael W. Deem and Ramdas Pophale) SiO2 
 PCOD9013068
Probable space group: P -1
;
_chemical_formula_sum "Si O2"
_cell_formula_units_Z 14
_cell_length_a 8.112794
_cell_length_b 6.986537
_cell_length_c 12.572585
_cell_angle_alpha 96.869189
_cell_angle_beta 91.787829
_cell_angle_gamma 123.357430
_cell_volume 586.892969
_symmetry_space_group_name_H-M "P -1"
_symmetry_group_IT_number 2
_symmetry_cell_setting 'triclinic'
loop_
_space_group_symop_operation_xyz
x,y,z
-x,-y,-z
loop_
_atom_site_type_symbol
_atom_site_label
_atom_site_fract_x
_atom_site_fract_y
_atom_site_fract_z
Si Si1 0.498119 0.228311 0.031757
Si Si2 0.430948 0.544864 0.328180
Si Si3 0.682325 0.812428 0.538343
Si Si4 0.214007 0.369797 0.780819
Si Si5 0.787285 0.483754 0.877869
Si Si6 0.910789 0.140304 0.928284
Si Si7 0.021001 0.324030 0.558439
O O1 0.658484 0.396089 0.133085
O O2 0.274464 0.113680 0.060907
O O3 0.584435 0.381420 0.936675
O O4 0.500000 0.000000 0.000000
O O5 0.495535 0.696684 0.446973
O O6 0.386960 0.300517 0.354316
O O7 0.632236 0.675506 0.272850
O O8 0.258170 0.500383 0.244124
O O9 0.833367 0.739131 0.498740
O O10 0.807956 0.085812 0.553351
O O11 0.063050 0.165320 0.843908
O O12 0.107313 0.406700 0.683666
O O13 0.834426 0.289067 0.883137
O O14 0.967545 0.711986 0.955092
O O15 0.000000 0.500000 0.500000
#
# Coordination Sequence:
#
# PCOD9013068 Si02
#       7
#     2   2   2   2   2   2   2
#     4   9  19  37  57  87 126 158 205 270 314 374
#     4  10  21  41  63  87 133 174 207 270 334 381
#     4   9  22  44  62  94 136 167 214 276 321 387
#     4  10  22  37  60  91 125 162 217 264 315 395
#     4   9  19  37  59  85 120 166 204 258 327 377
#     4   9  19  36  57  90 123 152 217 269 299 391
#     4  10  22  41  66  97 128 168 221 270 324 389
#
# _framework density 23.854434000000001
#
# number of rings (size 3 to 8) (size 9 to 14) (size 15 to 20)
#    0.000    2.571    0.000    0.857    4.000    4.571 
#    7.714    7.857    0.000    0.000    0.000    0.000 
#    0.000    0.000    0.000    0.000    0.000    0.000 
#
# Total GULP energy -78295.207289 kJ/mol
# GULP energy per Si atom -5592.514806 kJ/mol
# Density = 2.380014 g / cm^3
# Si number density = 23.854434 Si / 1000 Ang^3
#
#
#
# Elastic Constant Matrix: (Units=GPa)
#
#
# Indices 1 2 3 4 5 6 
#
# 1 63.6185 23.9640 32.3111 -12.6069 11.4485 3.3843
# 2 23.9640 162.9878 60.3911 -10.3721 24.8171 26.2270
# 3 32.3111 60.3911 153.6068 -11.3133 58.8692 -2.4865
# 4 -12.6069 -10.3721 -11.3133 25.5373 7.1785 -5.0185
# 5 11.4485 24.8171 58.8692 7.1785 48.4920 -11.8116
# 6 3.3843 26.2270 -2.4865 -5.0185 -11.8116 40.4707
#
#
#
# Elastic Compliance Matrix: (Units=1/GPa)
#
#
# Indices 1 2 3 4 5 6 
#
# 1 0.019489 -0.000913 -0.001574 0.009429 -0.003886 -0.001099
# 2 -0.000913 0.008711 -0.001464 0.002378 -0.004439 -0.006660
# 3 -0.001574 -0.001464 0.016152 0.011108 -0.020768 -0.002611
# 4 0.009429 0.002378 0.011108 0.056532 -0.025827 -0.002174
# 5 -0.003886 -0.004439 -0.020768 -0.025827 0.056556 0.015230
# 6 -0.001099 -0.006660 -0.002611 -0.002174 0.015230 0.033132
#
#
# Mechanical properties :
#
#
# Convention : Reuss Voigt Hill
#
# Bulk Modulus (GPa) = 27.43648 68.17172 47.80410
# Shear Modulus (GPa) = 23.73886 40.46979 32.10432
#
# Velocity S-wave (km/s) = 3.15803 4.12337 3.67255
# Velocity P-wave (km/s) = 4.98238 7.16308 6.16984
#
# Compressibility (1/GPa) = 0.03644782
#
# Stress axis : x y z
#
# Youngs Moduli (GPa) = 51.31208 114.79678 61.91186
#
# Poissons Ratio (x) = 0.10486 0.09748
# Poissons Ratio (y) = 0.04687 0.09064
# Poissons Ratio (z) = 0.08079 0.16806
#
# Static dielectric constant tensor:
#      x y z
#    x 2.039570 0.038670 -0.047630 
#    y 0.038670 1.885550 -0.011180 
#    z -0.047630 -0.011180 1.905530 
# 
# From -- ./inp_files/382382.got.cif
#   From: 2010.05.17/outbox.cif.g08.bks.cpg/sg2_192_cif.got.tgz:382382.got - 2010.06.03 11:33:40.
