data_PCOD9013968
_publ_section_title
;
Structure prediction by ZEFSAII (Michael W. Deem and Ramdas Pophale) SiO2 
 PCOD9013968
Probable space group: P -1
;
_chemical_formula_sum "Si O2"
_cell_formula_units_Z 16
_cell_length_a 8.164013
_cell_length_b 11.298532
_cell_length_c 16.139672
_cell_angle_alpha 48.757382
_cell_angle_beta 48.919190
_cell_angle_gamma 85.872898
_cell_volume 650.218956
_symmetry_space_group_name_H-M "P -1"
_symmetry_group_IT_number 2
_symmetry_cell_setting 'triclinic'
loop_
_space_group_symop_operation_xyz
x,y,z
-x,-y,-z
loop_
_atom_site_type_symbol
_atom_site_label
_atom_site_fract_x
_atom_site_fract_y
_atom_site_fract_z
Si Si1 0.920970 0.256531 0.103656
Si Si2 0.487985 0.691561 0.731717
Si Si3 0.758444 0.393473 0.512717
Si Si4 0.972137 0.583956 0.193439
Si Si5 0.259282 0.018620 0.941499
Si Si6 0.133359 0.318593 0.507806
Si Si7 0.675691 0.535611 0.846327
Si Si8 0.754828 0.889766 0.910529
O O1 0.624384 0.185319 0.270416
O O2 0.972475 0.097876 0.175257
O O3 0.991106 0.328604 0.950891
O O4 0.194003 0.467539 0.956588
O O5 0.614626 0.679005 0.610164
O O6 0.720099 0.723615 0.700401
O O7 0.500070 0.165200 0.728365
O O8 0.774871 0.538352 0.509012
O O9 0.729258 0.453924 0.403309
O O10 0.026662 0.400385 0.438242
O O11 0.061738 0.444296 0.220935
O O12 0.176038 0.798625 0.075642
O O13 0.336856 0.109316 0.966286
O O14 0.000000 0.000000 0.000000
O O15 0.868309 0.089609 0.728895
O O16 0.483181 0.324054 0.955732
O O17 0.500000 0.500000 0.000000
#
# Coordination Sequence:
#
# PCOD9013968 Si02
#       8
#     2   2   2   2   2   2   2   2
#     4  10  22  40  65  97 130 181 223 274 335 411
#     4  10  21  41  66  92 133 176 231 269 338 400
#     4  11  25  41  68 103 135 178 232 279 342 408
#     4  12  23  42  69 102 136 177 230 277 340 404
#     4  12  26  44  66 103 145 180 222 284 346 410
#     4  11  23  42  67 101 134 179 229 286 337 405
#     4  11  22  41  69  96 132 184 230 276 340 407
#     4  11  24  43  67  98 140 181 226 283 345 404
#
# _framework density 24.607095000000001
#
# number of rings (size 3 to 8) (size 9 to 14) (size 15 to 20)
#    0.000    1.000    5.000    2.250    1.750    3.000 
#    0.000    1.875    0.000    0.000    0.000    0.000 
#    0.000    0.000    0.000    0.000    0.000    0.000 
#
# Total GULP energy -89261.147214 kJ/mol
# GULP energy per Si atom -5578.821701 kJ/mol
# Density = 2.455109 g / cm^3
# Si number density = 24.607095 Si / 1000 Ang^3
#
#
#
# Elastic Constant Matrix: (Units=GPa)
#
#
# Indices 1 2 3 4 5 6 
#
# 1 85.6148 33.6317 15.1808 11.4346 13.5446 -12.6016
# 2 33.6317 62.8463 20.9351 27.8317 12.5348 -11.0856
# 3 15.1808 20.9351 96.2080 15.2256 13.3683 -14.2696
# 4 11.4346 27.8317 15.2256 37.1658 -3.3934 1.6994
# 5 13.5446 12.5348 13.3683 -3.3934 26.5284 5.8691
# 6 -12.6016 -11.0856 -14.2696 1.6994 5.8691 43.2732
#
#
#
# Elastic Compliance Matrix: (Units=1/GPa)
#
#
# Indices 1 2 3 4 5 6 
#
# 1 0.015774 -0.005898 0.000588 -0.001482 -0.006691 0.004242
# 2 -0.005898 0.039414 0.002762 -0.031664 -0.024108 0.013804
# 3 0.000588 0.002762 0.013847 -0.009300 -0.011400 0.007357
# 4 -0.001482 -0.031664 -0.009300 0.058635 0.031941 -0.018245
# 5 -0.006691 -0.024108 -0.011400 0.031941 0.067259 -0.022260
# 6 0.004242 0.013804 0.007357 -0.018245 -0.022260 0.034042
#
#
# Mechanical properties :
#
#
# Convention : Reuss Voigt Hill
#
# Bulk Modulus (GPa) = 15.63965 42.68493 29.16229
# Shear Modulus (GPa) = 19.57884 33.05494 26.31689
#
# Velocity S-wave (km/s) = 2.82380 3.66909 3.27384
# Velocity P-wave (km/s) = 4.12327 5.94423 5.11543
#
# Compressibility (1/GPa) = 0.06394006
#
# Stress axis : x y z
#
# Youngs Moduli (GPa) = 63.39659 25.37194 72.21668
#
# Poissons Ratio (x) = 0.14964 -0.04246
# Poissons Ratio (y) = 0.37389 -0.19949
# Poissons Ratio (z) = -0.03728 -0.07009
#
# Static dielectric constant tensor:
#      x y z
#    x 2.265810 0.028330 -0.018890 
#    y 0.028330 2.010010 0.066030 
#    z -0.018890 0.066030 1.951510 
# 
# From -- ./inp_files/388788.got.cif
#   From: 2010.05.17/outbox.cif.g08.bks.cpg/sg2_195_cif.got.tgz:388788.got - 2010.06.03 11:33:40.
