data_PCOD9013035
_publ_section_title
;
Structure prediction by ZEFSAII (Michael W. Deem and Ramdas Pophale) SiO2 
 PCOD9013035
Probable space group: P -1
;
_chemical_formula_sum "Si O2"
_cell_formula_units_Z 15
_cell_length_a 11.978683
_cell_length_b 19.608533
_cell_length_c 6.860187
_cell_angle_alpha 70.633779
_cell_angle_beta 74.778717
_cell_angle_gamma 27.509807
_cell_volume 700.326503
_symmetry_space_group_name_H-M "P -1"
_symmetry_group_IT_number 2
_symmetry_cell_setting 'triclinic'
loop_
_space_group_symop_operation_xyz
x,y,z
-x,-y,-z
loop_
_atom_site_type_symbol
_atom_site_label
_atom_site_fract_x
_atom_site_fract_y
_atom_site_fract_z
Si Si1 0.347775 0.808049 0.397996
Si Si2 0.767131 0.896426 0.295887
Si Si3 0.549615 0.368739 0.175256
Si Si4 0.085266 0.711827 0.951630
Si Si5 0.497766 0.280800 0.005511
Si Si6 0.857662 0.991101 0.370855
Si Si7 0.195318 0.233386 0.276895
Si Si8 0.000000 0.500000 0.000000
O O1 0.463209 0.689697 0.611843
O O2 0.268517 0.922546 0.444875
O O3 0.514097 0.728194 0.210683
O O4 0.105864 0.900196 0.346401
O O5 0.822897 0.788985 0.474720
O O6 0.871420 0.901008 0.387769
O O7 0.478771 0.066621 0.252828
O O8 0.889476 0.836788 0.087349
O O9 0.783176 0.288957 0.190017
O O10 0.581881 0.314198 0.999607
O O11 0.307996 0.548111 0.110111
O O12 0.966900 0.727332 0.826993
O O13 0.685621 0.122820 0.164204
O O14 0.226566 0.419550 0.071582
O O15 0.115878 0.359091 0.163897
#
# Coordination Sequence:
#
# PCOD9013035 Si02
#       8
#     2   2   2   2   2   2   2   1
#     4  10  22  39  66  97 127 172 213 266 327 376
#     4  11  24  43  69  95 130 174 215 263 327 378
#     4  10  23  40  64  99 130 164 221 266 316 391
#     4  11  23  42  66  95 132 171 210 269 328 378
#     4  11  22  42  66  91 133 172 212 265 325 371
#     4  10  21  41  63 100 128 162 219 268 314 394
#     4  11  25  46  65  95 130 170 223 265 312 394
#     4  12  24  46  66  94 132 170 218 270 310 390
#
# _framework density 21.418579999999999
#
# number of rings (size 3 to 8) (size 9 to 14) (size 15 to 20)
#    0.000    1.333    2.667    2.400    1.867    3.200 
#    4.800    6.667    0.000    0.000    0.000    0.000 
#    0.000    0.000    0.000    0.000    0.000    0.000 
#
# Total GULP energy -83564.789594 kJ/mol
# GULP energy per Si atom -5570.985973 kJ/mol
# Density = 2.136983 g / cm^3
# Si number density = 21.418580 Si / 1000 Ang^3
#
#
#
# Elastic Constant Matrix: (Units=GPa)
#
#
# Indices 1 2 3 4 5 6 
#
# 1 87.1174 2.3254 10.1288 -4.6558 0.7709 1.4894
# 2 2.3254 40.9358 13.6426 -24.4304 -10.7476 1.8474
# 3 10.1288 13.6426 49.3634 -15.6092 1.7870 6.3713
# 4 -4.6558 -24.4304 -15.6092 30.1533 7.7178 -0.6540
# 5 0.7709 -10.7476 1.7870 7.7178 19.5980 -10.4633
# 6 1.4894 1.8474 6.3713 -0.6540 -10.4633 36.7356
#
#
#
# Elastic Compliance Matrix: (Units=1/GPa)
#
#
# Indices 1 2 3 4 5 6 
#
# 1 0.011793 0.000798 -0.002098 0.001527 -0.000595 -0.000297
# 2 0.000798 0.050779 -0.004132 0.035056 0.016184 0.003364
# 3 -0.002098 -0.004132 0.028083 0.014535 -0.015065 -0.008610
# 4 0.001527 0.035056 0.014535 0.072947 -0.014758 -0.007251
# 5 -0.000595 0.016184 -0.015065 -0.014758 0.080128 0.024383
# 6 -0.000297 0.003364 -0.008610 -0.007251 0.024383 0.035374
#
#
# Mechanical properties :
#
#
# Convention : Reuss Voigt Hill
#
# Bulk Modulus (GPa) = 12.53274 25.51224 19.02249
# Shear Modulus (GPa) = 15.79456 27.38536 21.58996
#
# Velocity S-wave (km/s) = 2.71850 3.57960 3.17835
# Velocity P-wave (km/s) = 3.96456 5.38719 4.72967
#
# Compressibility (1/GPa) = 0.07979100
#
# Stress axis : x y z
#
# Youngs Moduli (GPa) = 84.79385 19.69322 35.60866
#
# Poissons Ratio (x) = -0.01571 0.07469
# Poissons Ratio (y) = -0.06765 0.14715
# Poissons Ratio (z) = 0.17786 0.08138
#
# Static dielectric constant tensor:
#      x y z
#    x 1.757810 0.002450 -0.019830 
#    y 0.002450 1.782580 0.016770 
#    z -0.019830 0.016770 1.800420 
# 
# From -- ./inp_files/82531.got.cif
#   From: 2010.05.17/outbox.cif.g08.bks.cpg/sg2_42_cif.got.tgz:82531.got - 2010.06.03 11:33:40.
