data_PCOD9013340
_publ_section_title
;
Structure prediction by ZEFSAII (Michael W. Deem and Ramdas Pophale) SiO2 
 PCOD9013340
Probable space group: P -1
;
_chemical_formula_sum "Si O2"
_cell_formula_units_Z 12
_cell_length_a 10.195969
_cell_length_b 9.822175
_cell_length_c 16.714677
_cell_angle_alpha 43.121549
_cell_angle_beta 31.487554
_cell_angle_gamma 40.356901
_cell_volume 550.056526
_symmetry_space_group_name_H-M "P -1"
_symmetry_group_IT_number 2
_symmetry_cell_setting 'triclinic'
loop_
_space_group_symop_operation_xyz
x,y,z
-x,-y,-z
loop_
_atom_site_type_symbol
_atom_site_label
_atom_site_fract_x
_atom_site_fract_y
_atom_site_fract_z
Si Si1 0.174333 0.875315 0.244836
Si Si2 0.127128 0.437290 0.209685
Si Si3 0.189823 0.347070 0.035128
Si Si4 0.799458 0.223084 0.549177
Si Si5 0.990666 0.873900 0.172827
Si Si6 0.392640 0.025529 0.813248
O O1 0.123968 0.786253 0.393621
O O2 0.982599 0.871088 0.273208
O O3 0.142935 0.123576 0.165328
O O4 0.488472 0.734297 0.117302
O O5 0.128304 0.463565 0.102906
O O6 0.158605 0.632959 0.155770
O O7 0.369168 0.209487 0.200503
O O8 0.854703 0.411237 0.394711
O O9 0.000000 0.500000 0.000000
O O10 0.508781 0.203653 0.701724
O O11 0.000000 0.000000 0.500000
O O12 0.153058 0.021081 0.997594
O O13 0.716953 0.946112 0.232266
#
# Coordination Sequence:
#
# PCOD9013340 Si02
#       6
#     2   2   2   2   2   2
#     4  11  22  43  62  95 132 162 215 268 308 375
#     4  11  23  42  65  95 130 164 215 260 317 379
#     4  11  24  38  67  97 125 171 219 257 308 384
#     4  10  21  44  67  87 130 178 204 259 322 378
#     4  11  24  36  67  98 127 164 211 266 317 370
#     4  10  21  41  64  91 129 172 204 255 323 375
#
# _framework density 21.815940000000001
#
# number of rings (size 3 to 8) (size 9 to 14) (size 15 to 20)
#    0.000    1.333    5.000    1.500    7.000    1.333 
#    0.000    3.333    0.000    0.000    0.000    0.000 
#    0.000    0.000    0.000    0.000    0.000    0.000 
#
# Total GULP energy -67105.577618 kJ/mol
# GULP energy per Si atom -5592.131468 kJ/mol
# Density = 2.176629 g / cm^3
# Si number density = 21.815940 Si / 1000 Ang^3
#
#
#
# Elastic Constant Matrix: (Units=GPa)
#
#
# Indices 1 2 3 4 5 6 
#
# 1 149.2665 10.9461 28.5549 8.0681 28.5172 -1.2886
# 2 10.9461 51.8845 8.7676 -7.9127 12.7607 -6.2642
# 3 28.5549 8.7676 78.2772 -8.1155 13.8516 11.7217
# 4 8.0681 -7.9127 -8.1155 14.4324 8.0387 7.5034
# 5 28.5172 12.7607 13.8516 8.0387 37.8585 4.4716
# 6 -1.2886 -6.2642 11.7217 7.5034 4.4716 45.3348
#
#
#
# Elastic Compliance Matrix: (Units=1/GPa)
#
#
# Indices 1 2 3 4 5 6 
#
# 1 0.008492 -0.000960 -0.003320 -0.006254 -0.003811 0.002378
# 2 -0.000960 0.026235 0.002305 0.023824 -0.014075 0.000447
# 3 -0.003320 0.002305 0.018804 0.022646 -0.009080 -0.007490
# 4 -0.006254 0.023824 0.022646 0.129740 -0.036721 -0.020592
# 5 -0.003811 -0.014075 -0.009080 -0.036721 0.044919 0.001942
# 6 0.002378 0.000447 -0.007490 -0.020592 0.001942 0.027341
#
#
# Mechanical properties :
#
#
# Convention : Reuss Voigt Hill
#
# Bulk Modulus (GPa) = 20.16879 41.77395 30.97137
# Shear Modulus (GPa) = 18.11544 34.93577 26.52561
#
# Velocity S-wave (km/s) = 2.88475 4.00607 3.49073
# Velocity P-wave (km/s) = 4.51229 6.37088 5.52037
#
# Compressibility (1/GPa) = 0.04958157
#
# Stress axis : x y z
#
# Youngs Moduli (GPa) = 117.76256 38.11643 53.17928
#
# Poissons Ratio (x) = 0.03658 0.17657
# Poissons Ratio (y) = 0.11303 -0.12259
# Poissons Ratio (z) = 0.39101 -0.08787
#
# Static dielectric constant tensor:
#      x y z
#    x 1.813320 -0.024860 -0.021050 
#    y -0.024860 1.779620 0.013320 
#    z -0.021050 0.013320 1.860580 
# 
# From -- ./inp_files/151848.got.cif
#   From: 2010.05.17/outbox.cif.g08.bks.cpg/sg2_76_cif.got.tgz:151848.got - 2010.06.03 11:33:40.
