data_PCOD9013735
_publ_section_title
;
Structure prediction by ZEFSAII (Michael W. Deem and Ramdas Pophale) SiO2 
 PCOD9013735
Probable space group: P -1
;
_chemical_formula_sum "Si O2"
_cell_formula_units_Z 14
_cell_length_a 19.538456
_cell_length_b 15.364590
_cell_length_c 9.178649
_cell_angle_alpha 40.439445
_cell_angle_beta 138.981967
_cell_angle_gamma 159.843057
_cell_volume 605.933795
_symmetry_space_group_name_H-M "P -1"
_symmetry_group_IT_number 2
_symmetry_cell_setting 'triclinic'
loop_
_space_group_symop_operation_xyz
x,y,z
-x,-y,-z
loop_
_atom_site_type_symbol
_atom_site_label
_atom_site_fract_x
_atom_site_fract_y
_atom_site_fract_z
Si Si1 0.874571 0.991676 0.648238
Si Si2 0.178326 0.769906 0.855793
Si Si3 0.489236 0.370800 0.272506
Si Si4 0.372959 0.088855 0.016837
Si Si5 0.718741 0.460756 0.317226
Si Si6 0.050649 0.562347 0.333671
Si Si7 0.770418 0.772077 0.468007
O O1 0.874437 0.132519 0.380879
O O2 0.105214 0.234906 0.761439
O O3 0.732751 0.862723 0.721434
O O4 0.783149 0.783913 0.650773
O O5 0.159632 0.676240 0.790686
O O6 0.000000 0.500000 0.000000
O O7 0.363578 0.985109 0.989977
O O8 0.558539 0.312538 0.376580
O O9 0.629758 0.531691 0.439254
O O10 0.500000 0.500000 0.000000
O O11 0.589322 0.330330 0.130261
O O12 0.198312 0.842976 0.159630
O O13 0.310449 0.170105 0.775058
O O14 0.823018 0.431600 0.514869
O O15 0.000000 0.500000 0.500000
O O16 0.000000 0.000000 0.500000
#
# Coordination Sequence:
#
# PCOD9013735 Si02
#       7
#     2   2   2   2   2   2   2
#     4  10  23  42  68  94 135 177 222 274 338 393
#     4   8  18  39  66  89 128 169 209 270 329 391
#     4  12  25  44  66  99 136 178 230 279 327 405
#     4  10  21  41  65  94 138 171 219 277 330 402
#     4  11  23  41  69  98 133 176 220 280 341 390
#     4  10  22  41  68  98 130 174 223 277 339 398
#     4  11  22  44  68  97 134 181 222 279 333 398
#
# _framework density 23.104834
#
# number of rings (size 3 to 8) (size 9 to 14) (size 15 to 20)
#    0.000    1.714    2.857    0.857    4.000    0.571 
#    2.571    0.714    0.000    0.000    0.000    0.000 
#    0.000    0.000    0.000    0.000    0.000    0.000 
#
# Total GULP energy -78060.291399 kJ/mol
# GULP energy per Si atom -5575.735100 kJ/mol
# Density = 2.305225 g / cm^3
# Si number density = 23.104834 Si / 1000 Ang^3
#
#
#
# Elastic Constant Matrix: (Units=GPa)
#
#
# Indices 1 2 3 4 5 6 
#
# 1 107.2571 23.3837 27.4534 3.9413 -33.7083 -2.0232
# 2 23.3837 85.6069 46.7369 36.7954 -25.9544 -16.6376
# 3 27.4534 46.7369 47.9413 15.6964 -18.1875 -11.6455
# 4 3.9413 36.7954 15.6964 28.1795 -12.0012 -9.2152
# 5 -33.7083 -25.9544 -18.1875 -12.0012 40.4161 15.9114
# 6 -2.0232 -16.6376 -11.6455 -9.2152 15.9114 41.8638
#
#
#
# Elastic Compliance Matrix: (Units=1/GPa)
#
#
# Indices 1 2 3 4 5 6 
#
# 1 0.014756 0.000633 -0.006932 0.004913 0.012944 -0.004802
# 2 0.000633 0.050595 -0.033011 -0.046014 0.004910 -0.001040
# 3 -0.006932 -0.033011 0.052784 0.016120 -0.000378 0.004921
# 4 0.004913 -0.046014 0.016120 0.090115 0.007164 0.003548
# 5 0.012944 0.004910 -0.000378 0.007164 0.045927 -0.013407
# 6 -0.004802 -0.001040 0.004921 0.003548 -0.013407 0.030487
#
#
# Mechanical properties :
#
#
# Convention : Reuss Voigt Hill
#
# Bulk Modulus (GPa) = 25.30603 48.43924 36.87263
# Shear Modulus (GPa) = 13.28181 31.64062 22.46122
#
# Velocity S-wave (km/s) = 2.40020 3.70461 3.12130
# Velocity P-wave (km/s) = 4.31947 6.26971 5.38364
#
# Compressibility (1/GPa) = 0.03951627
#
# Stress axis : x y z
#
# Youngs Moduli (GPa) = 67.76705 19.76496 18.94517
#
# Poissons Ratio (x) = -0.01251 0.13133
# Poissons Ratio (y) = -0.04291 0.62539
# Poissons Ratio (z) = 0.46975 0.65245
#
# Static dielectric constant tensor:
#      x y z
#    x 1.894740 -0.063270 -0.045800 
#    y -0.063270 1.935390 0.032400 
#    z -0.045800 0.032400 1.917590 
# 
# From -- ./inp_files/222933.got.cif
#   From: 2010.05.17/outbox.cif.g08.bks.cpg/sg2_112_cif.got.tgz:222933.got - 2010.06.03 11:33:40.
