data_PCOD9013838
_publ_section_title
;
Structure prediction by ZEFSAII (Michael W. Deem and Ramdas Pophale) SiO2 
 PCOD9013838
Probable space group: P -1
;
_chemical_formula_sum "Si O2"
_cell_formula_units_Z 13
_cell_length_a 9.878814
_cell_length_b 12.414031
_cell_length_c 9.696276
_cell_angle_alpha 49.473221
_cell_angle_beta 43.736091
_cell_angle_gamma 80.644292
_cell_volume 507.187252
_symmetry_space_group_name_H-M "P -1"
_symmetry_group_IT_number 2
_symmetry_cell_setting 'triclinic'
loop_
_space_group_symop_operation_xyz
x,y,z
-x,-y,-z
loop_
_atom_site_type_symbol
_atom_site_label
_atom_site_fract_x
_atom_site_fract_y
_atom_site_fract_z
Si Si1 0.242234 0.957120 0.686247
Si Si2 0.781406 0.347536 0.696389
Si Si3 0.054019 0.474186 0.134932
Si Si4 0.166157 0.876680 0.493118
Si Si5 0.687895 0.979401 0.005871
Si Si6 0.000000 0.000000 0.000000
Si Si7 0.505380 0.669903 0.830550
O O1 0.258675 0.139530 0.551528
O O2 0.500000 0.000000 0.500000
O O3 0.159180 0.900887 0.640008
O O4 0.056323 0.852554 0.029714
O O5 0.843565 0.435242 0.426928
O O6 0.771575 0.176499 0.812982
O O7 0.000000 0.500000 0.500000
O O8 0.556220 0.287962 0.010093
O O9 0.056653 0.304959 0.252408
O O10 0.000000 0.500000 0.000000
O O11 0.300295 0.619178 0.910650
O O12 0.226352 0.019884 0.214333
O O13 0.400479 0.872528 0.311821
O O14 0.793404 0.925705 0.087958
O O15 0.500000 0.500000 0.000000
#
# Coordination Sequence:
#
# PCOD9013838 Si02
#       7
#     2   2   2   2   2   1   2
#     4  12  24  45  71 100 138 179 226 283 339 401
#     4   9  19  39  67  87 128 176 216 257 341 395
#     4  10  22  40  66  97 130 176 218 272 345 400
#     4  10  21  42  67  92 137 176 218 274 351 388
#     4  10  21  41  66 100 126 175 224 279 331 405
#     4  12  26  38  70 104 130 166 236 274 330 400
#     4  11  24  43  66  95 132 178 229 271 331 410
#
# _framework density 25.631561000000001
#
# number of rings (size 3 to 8) (size 9 to 14) (size 15 to 20)
#    0.000    1.538    3.077    0.923    6.462    1.846 
#    0.000    0.769    0.000    0.000    0.000    0.000 
#    0.000    0.000    0.000    0.000    0.000    0.000 
#
# Total GULP energy -72398.335403 kJ/mol
# GULP energy per Si atom -5569.102723 kJ/mol
# Density = 2.557322 g / cm^3
# Si number density = 25.631561 Si / 1000 Ang^3
#
#
#
# Elastic Constant Matrix: (Units=GPa)
#
#
# Indices 1 2 3 4 5 6 
#
# 1 139.1339 28.4645 19.9051 27.1034 17.2763 30.1890
# 2 28.4645 132.2030 32.1093 18.1854 13.2298 39.8290
# 3 19.9051 32.1093 69.1281 10.2092 13.2380 20.1916
# 4 27.1034 18.1854 10.2092 62.0377 19.5899 14.9332
# 5 17.2763 13.2298 13.2380 19.5899 43.4359 13.3505
# 6 30.1890 39.8290 20.1916 14.9332 13.3505 56.3230
#
#
#
# Elastic Compliance Matrix: (Units=1/GPa)
#
#
# Indices 1 2 3 4 5 6 
#
# 1 0.008677 -0.000225 -0.000879 -0.002478 -0.000987 -0.003286
# 2 -0.000225 0.010186 -0.002834 -0.001058 0.000115 -0.005813
# 3 -0.000879 -0.002834 0.017537 0.000087 -0.003228 -0.003069
# 4 -0.002478 -0.001058 0.000087 0.020194 -0.007345 -0.001568
# 5 -0.000987 0.000115 -0.003228 -0.007345 0.028673 -0.003244
# 6 -0.003286 -0.005813 -0.003069 -0.001568 -0.003244 0.025912
#
#
# Mechanical properties :
#
#
# Convention : Reuss Voigt Hill
#
# Bulk Modulus (GPa) = 35.05900 55.71362 45.38631
# Shear Modulus (GPa) = 38.89044 49.69173 44.29108
#
# Velocity S-wave (km/s) = 3.89946 4.40784 4.16142
# Velocity P-wave (km/s) = 5.82942 6.90571 6.39027
#
# Compressibility (1/GPa) = 0.02852334
#
# Stress axis : x y z
#
# Youngs Moduli (GPa) = 115.24260 98.16965 57.02089
#
# Poissons Ratio (x) = 0.02212 0.05014
# Poissons Ratio (y) = 0.02596 0.16162
# Poissons Ratio (z) = 0.10133 0.27825
#
# Static dielectric constant tensor:
#      x y z
#    x 2.134740 0.213530 0.733890 
#    y 0.213530 3.179880 2.448990 
#    z 0.733890 2.448990 8.327700 
# 
# From -- ./inp_files/174707.got.cif
#   From: 2010.05.17/outbox.cif.g08.bks.cpg/sg2_88_cif.got.tgz:174707.got - 2010.06.03 11:33:40.
