data_PCOD9013588
_publ_section_title
;
Structure prediction by ZEFSAII (Michael W. Deem and Ramdas Pophale) SiO2 
 PCOD9013588
Probable space group: P -1
;
_chemical_formula_sum "Si O2"
_cell_formula_units_Z 11
_cell_length_a 5.489390
_cell_length_b 12.341248
_cell_length_c 15.177426
_cell_angle_alpha 29.689808
_cell_angle_beta 115.524795
_cell_angle_gamma 124.439022
_cell_volume 415.400152
_symmetry_space_group_name_H-M "P -1"
_symmetry_group_IT_number 2
_symmetry_cell_setting 'triclinic'
loop_
_space_group_symop_operation_xyz
x,y,z
-x,-y,-z
loop_
_atom_site_type_symbol
_atom_site_label
_atom_site_fract_x
_atom_site_fract_y
_atom_site_fract_z
Si Si1 0.243371 0.090913 0.715740
Si Si2 0.631663 0.054190 0.353036
Si Si3 0.329473 0.389993 0.250118
Si Si4 0.236390 0.760394 0.090852
Si Si5 0.112314 0.516448 0.406845
Si Si6 0.500000 0.500000 0.000000
O O1 0.057596 0.246605 0.563700
O O2 0.540207 0.292382 0.666181
O O3 0.343923 0.024244 0.687430
O O4 0.103318 0.853043 0.923218
O O5 0.460758 0.222716 0.211241
O O6 0.970155 0.237066 0.302114
O O7 0.546711 0.809501 0.568487
O O8 0.369805 0.582609 0.198198
O O9 0.419319 0.520645 0.077964
O O10 0.014107 0.632370 0.227274
O O11 0.500000 0.000000 0.000000
O O12 0.000000 0.500000 0.500000
#
# Coordination Sequence:
#
# PCOD9013588 Si02
#       6
#     2   2   2   2   2   1
#     4  10  21  41  65  89 133 168 210 275 323 376
#     4  11  24  44  67  96 134 174 216 272 330 384
#     4  11  24  45  66  97 134 175 215 271 331 384
#     4  10  21  42  66  91 132 169 208 271 327 377
#     4  10  22  41  64  94 124 172 220 262 321 390
#     4  12  24  42  68 100 126 174 230 260 322 394
#
# _framework density 26.480494
#
# number of rings (size 3 to 8) (size 9 to 14) (size 15 to 20)
#    0.000    1.455    3.636    1.091    0.000    2.182 
#    3.273    0.000    0.000    0.000    0.000    0.000 
#    0.000    0.000    0.000    0.000    0.000    0.000 
#
# Total GULP energy -61356.830380 kJ/mol
# GULP energy per Si atom -5577.893671 kJ/mol
# Density = 2.642022 g / cm^3
# Si number density = 26.480494 Si / 1000 Ang^3
#
#
#
# Elastic Constant Matrix: (Units=GPa)
#
#
# Indices 1 2 3 4 5 6 
#
# 1 45.6700 33.6972 48.6771 -3.2128 -5.1736 -7.2151
# 2 33.6972 104.2185 56.1478 -14.7258 6.1891 -31.9682
# 3 48.6771 56.1478 243.9774 22.2088 -13.6162 -26.0526
# 4 -3.2128 -14.7258 22.2088 70.5823 -22.0079 -6.1147
# 5 -5.1736 6.1891 -13.6162 -22.0079 52.8688 1.4023
# 6 -7.2151 -31.9682 -26.0526 -6.1147 1.4023 50.5190
#
#
#
# Elastic Compliance Matrix: (Units=1/GPa)
#
#
# Indices 1 2 3 4 5 6 
#
# 1 0.034225 -0.009375 -0.005008 0.002171 0.004153 -0.003480
# 2 -0.009375 0.016853 -0.001489 0.003732 -0.001961 0.009063
# 3 -0.005008 -0.001489 0.005764 -0.002191 0.000229 0.001043
# 4 0.002171 0.003732 -0.002191 0.018118 0.006660 0.003550
# 5 0.004153 -0.001961 0.000229 0.006660 0.022391 -0.000345
# 6 -0.003480 0.009063 0.001043 0.003550 -0.000345 0.026010
#
#
# Mechanical properties :
#
#
# Convention : Reuss Voigt Hill
#
# Bulk Modulus (GPa) = 39.84563 74.54559 57.19561
# Shear Modulus (GPa) = 30.58614 51.81695 41.20154
#
# Velocity S-wave (km/s) = 3.40228 4.42837 3.94880
# Velocity P-wave (km/s) = 5.52393 7.37289 6.51434
#
# Compressibility (1/GPa) = 0.02509686
#
# Stress axis : x y z
#
# Youngs Moduli (GPa) = 29.21832 59.33783 173.48083
#
# Poissons Ratio (x) = 0.55629 0.86885
# Poissons Ratio (y) = 0.27392 0.25835
# Poissons Ratio (z) = 0.14634 0.08837
#
# Static dielectric constant tensor:
#      x y z
#    x 2.098240 0.151340 0.026530 
#    y 0.151340 2.412220 0.093750 
#    z 0.026530 0.093750 2.075380 
# 
# From -- ./inp_files/21839.got.cif
#   From: 2010.05.17/outbox.cif.g08.bks.cpg/sg2_11_cif.got.tgz:21839.got - 2010.06.03 11:33:40.
