data_PCOD9013463
_publ_section_title
;
Structure prediction by ZEFSAII (Michael W. Deem and Ramdas Pophale) SiO2 
 PCOD9013463
Probable space group: P -1
;
_chemical_formula_sum "Si O2"
_cell_formula_units_Z 14
_cell_length_a 9.344932
_cell_length_b 11.375065
_cell_length_c 6.079351
_cell_angle_alpha 104.330755
_cell_angle_beta 87.742191
_cell_angle_gamma 91.880587
_cell_volume 625.457806
_symmetry_space_group_name_H-M "P -1"
_symmetry_group_IT_number 2
_symmetry_cell_setting 'triclinic'
loop_
_space_group_symop_operation_xyz
x,y,z
-x,-y,-z
loop_
_atom_site_type_symbol
_atom_site_label
_atom_site_fract_x
_atom_site_fract_y
_atom_site_fract_z
Si Si1 0.354746 0.472169 0.120530
Si Si2 0.719596 0.730999 0.659497
Si Si3 0.899998 0.113428 0.622771
Si Si4 0.658153 0.951205 0.477436
Si Si5 0.161449 0.640282 0.455201
Si Si6 0.110837 0.101264 0.938979
Si Si7 0.127644 0.460772 0.741452
O O1 0.374892 0.352470 0.211830
O O2 0.307481 0.586422 0.324799
O O3 0.500000 0.500000 0.000000
O O4 0.227230 0.448138 0.941108
O O5 0.649865 0.819964 0.530381
O O6 0.810549 0.634400 0.479931
O O7 0.822909 0.816189 0.838432
O O8 0.859529 0.216572 0.500793
O O9 0.002802 0.175560 0.825615
O O10 0.752634 0.045575 0.664907
O O11 0.000000 0.000000 0.500000
O O12 0.755050 0.942442 0.242861
O O13 0.500000 0.000000 0.500000
O O14 0.144266 0.591314 0.681260
O O15 0.039393 0.575280 0.277861
O O16 0.000000 0.000000 0.000000
#
# Coordination Sequence:
#
# PCOD9013463 Si02
#       7
#     2   2   2   2   2   2   2
#     4  11  25  44  66  98 133 179 229 279 343 409
#     4  11  23  43  72  92 135 180 223 284 345 399
#     4  10  21  41  64  96 135 174 222 276 338 407
#     4  11  25  42  64  99 142 179 220 279 350 409
#     4  10  22  39  66  96 129 170 222 283 340 394
#     4  11  23  43  70 100 133 178 236 277 334 412
#     4  10  22  42  68  95 128 170 226 283 338 392
#
# _framework density 22.383603000000001
#
# number of rings (size 3 to 8) (size 9 to 14) (size 15 to 20)
#    0.000    1.429    1.429    3.857    2.000    8.571 
#    2.571    0.000    0.000    0.000    0.000    0.000 
#    0.000    0.000    0.000    0.000    0.000    0.000 
#
# Total GULP energy -78142.536731 kJ/mol
# GULP energy per Si atom -5581.609766 kJ/mol
# Density = 2.233266 g / cm^3
# Si number density = 22.383603 Si / 1000 Ang^3
#
#
#
# Elastic Constant Matrix: (Units=GPa)
#
#
# Indices 1 2 3 4 5 6 
#
# 1 111.1927 38.2211 26.3581 -11.6990 -32.1371 -9.1541
# 2 38.2211 172.7980 38.8794 -35.0360 -26.2647 -9.5644
# 3 26.3581 38.8794 70.7353 -6.5966 -19.3328 1.0733
# 4 -11.6990 -35.0360 -6.5966 34.2418 11.5758 5.1286
# 5 -32.1371 -26.2647 -19.3328 11.5758 34.3504 -7.8307
# 6 -9.1541 -9.5644 1.0733 5.1286 -7.8307 25.3234
#
#
#
# Elastic Compliance Matrix: (Units=1/GPa)
#
#
# Indices 1 2 3 4 5 6 
#
# 1 0.014676 -0.000501 -0.001235 -0.002748 0.016012 0.010677
# 2 -0.000501 0.008504 -0.003199 0.006645 0.002592 0.002622
# 3 -0.001235 -0.003199 0.018193 -0.002889 0.007736 0.000551
# 4 -0.002748 0.006645 -0.002889 0.041595 -0.015793 -0.011669
# 5 0.016012 0.002592 0.007736 -0.015793 0.062342 0.028916
# 6 0.010677 0.002622 0.000551 -0.011669 0.028916 0.055621
#
#
# Mechanical properties :
#
#
# Convention : Reuss Voigt Hill
#
# Bulk Modulus (GPa) = 31.74433 62.40480 47.07456
# Shear Modulus (GPa) = 22.59357 35.53428 29.06393
#
# Velocity S-wave (km/s) = 3.18052 3.98868 3.60731
# Velocity P-wave (km/s) = 5.26311 7.01092 6.19893
#
# Compressibility (1/GPa) = 0.03150169
#
# Stress axis : x y z
#
# Youngs Moduli (GPa) = 68.13807 117.59010 54.96706
#
# Poissons Ratio (x) = 0.05888 0.06791
# Poissons Ratio (y) = 0.03412 0.17586
# Poissons Ratio (z) = 0.08418 0.37622
#
# Static dielectric constant tensor:
#      x y z
#    x 1.809400 0.025140 0.018870 
#    y 0.025140 1.879850 -0.031370 
#    z 0.018870 -0.031370 1.977240 
# 
# From -- ./inp_files/27470.got.cif
#   From: 2010.05.17/outbox.cif.g08.bks.cpg/sg2_14_cif.got.tgz:27470.got - 2010.06.03 11:33:40.
