data_PCOD9013566
_publ_section_title
;
Structure prediction by ZEFSAII (Michael W. Deem and Ramdas Pophale) SiO2 
 PCOD9013566
Probable space group: P -1
;
_chemical_formula_sum "Si O2"
_cell_formula_units_Z 14
_cell_length_a 5.753585
_cell_length_b 14.978679
_cell_length_c 10.685131
_cell_angle_alpha 124.200074
_cell_angle_beta 56.563167
_cell_angle_gamma 104.952482
_cell_volume 633.783014
_symmetry_space_group_name_H-M "P -1"
_symmetry_group_IT_number 2
_symmetry_cell_setting 'triclinic'
loop_
_space_group_symop_operation_xyz
x,y,z
-x,-y,-z
loop_
_atom_site_type_symbol
_atom_site_label
_atom_site_fract_x
_atom_site_fract_y
_atom_site_fract_z
Si Si1 0.837617 0.990816 0.906728
Si Si2 0.412614 0.944113 0.351851
Si Si3 0.099029 0.251486 0.382571
Si Si4 0.381995 0.636123 0.769855
Si Si5 0.092928 0.192562 0.870446
Si Si6 0.176115 0.158242 0.534900
Si Si7 0.724226 0.433363 0.537261
O O1 0.943410 0.871406 0.735384
O O2 0.927873 0.086232 0.863924
O O3 0.500000 0.000000 0.000000
O O4 0.000000 0.000000 0.000000
O O5 0.625741 0.845530 0.167492
O O6 0.124227 0.891725 0.417552
O O7 0.500000 0.000000 0.500000
O O8 0.382736 0.051945 0.361650
O O9 0.349549 0.292211 0.256236
O O10 0.194690 0.247718 0.495210
O O11 0.821122 0.329909 0.509738
O O12 0.476430 0.522123 0.718682
O O13 0.332308 0.606912 0.617079
O O14 0.107802 0.704520 0.952645
O O15 0.193107 0.200607 0.704166
O O16 0.000000 0.500000 0.500000
#
# Coordination Sequence:
#
# PCOD9013566 Si02
#       7
#     2   2   2   2   2   2   2
#     4  12  26  39  62 102 137 171 219 274 323 385
#     4   9  19  35  53  79 122 169 204 242 304 379
#     4  11  22  39  63  91 127 170 212 265 326 392
#     4  10  21  41  65  89 120 156 219 273 329 380
#     4  11  23  38  63  92 129 168 210 268 321 387
#     4  10  22  38  57  87 127 170 211 251 324 394
#     4   9  21  40  63  88 116 163 210 272 330 386
#
# _framework density 22.089580999999999
#
# number of rings (size 3 to 8) (size 9 to 14) (size 15 to 20)
#    0.000    1.714    1.429    3.429    4.000    4.571 
#    0.000    0.714    0.000    8.571    0.000    0.000 
#    0.000    0.000    0.000    0.000    0.000    0.000 
#
# Total GULP energy -78124.004758 kJ/mol
# GULP energy per Si atom -5580.286054 kJ/mol
# Density = 2.203930 g / cm^3
# Si number density = 22.089581 Si / 1000 Ang^3
#
#
#
# Elastic Constant Matrix: (Units=GPa)
#
#
# Indices 1 2 3 4 5 6 
#
# 1 71.1141 21.8799 34.7832 12.1380 -23.0853 -17.5699
# 2 21.8799 72.0602 52.6201 18.8121 -14.7096 -37.8157
# 3 34.7832 52.6201 149.9230 36.3131 -40.0125 -33.1534
# 4 12.1380 18.8121 36.3131 38.8063 -14.3976 -11.5560
# 5 -23.0853 -14.7096 -40.0125 -14.3976 48.0304 13.3674
# 6 -17.5699 -37.8157 -33.1534 -11.5560 13.3674 45.9578
#
#
#
# Elastic Compliance Matrix: (Units=1/GPa)
#
#
# Indices 1 2 3 4 5 6 
#
# 1 0.017940 -0.001847 -0.001152 -0.000571 0.006215 0.002557
# 2 -0.001847 0.028635 -0.005300 -0.003797 -0.002941 0.018933
# 3 -0.001152 -0.005300 0.011908 -0.005873 0.005810 0.000622
# 4 -0.000571 -0.003797 -0.005873 0.034801 0.004109 -0.000024
# 5 0.006215 -0.002941 0.005810 0.004109 0.029962 -0.003534
# 6 0.002557 0.018933 0.000622 -0.000024 -0.003534 0.039786
#
#
# Mechanical properties :
#
#
# Convention : Reuss Voigt Hill
#
# Bulk Modulus (GPa) = 23.87416 56.85152 40.36284
# Shear Modulus (GPa) = 25.82754 38.81319 32.32036
#
# Velocity S-wave (km/s) = 3.42309 4.19630 3.82926
# Velocity P-wave (km/s) = 5.14342 7.01935 6.15329
#
# Compressibility (1/GPa) = 0.04188628
#
# Stress axis : x y z
#
# Youngs Moduli (GPa) = 55.74104 34.92237 83.97557
#
# Poissons Ratio (x) = 0.06449 0.09671
# Poissons Ratio (y) = 0.10293 0.44510
# Poissons Ratio (z) = 0.06419 0.18510
#
# Static dielectric constant tensor:
#      x y z
#    x 1.961670 -0.048310 -0.028190 
#    y -0.048310 1.828420 -0.002640 
#    z -0.028190 -0.002640 1.829490 
# 
# From -- ./inp_files/28335.got.cif
#   From: 2010.05.17/outbox.cif.g08.bks.cpg/sg2_15_cif.got.tgz:28335.got - 2010.06.03 11:33:40.
