data_PCOD9013945
_publ_section_title
;
Structure prediction by ZEFSAII (Michael W. Deem and Ramdas Pophale) SiO2 
 PCOD9013945
Probable space group: P -1
;
_chemical_formula_sum "Si O2"
_cell_formula_units_Z 16
_cell_length_a 5.535935
_cell_length_b 17.456142
_cell_length_c 9.026531
_cell_angle_alpha 130.011508
_cell_angle_beta 73.822485
_cell_angle_gamma 96.756548
_cell_volume 639.399274
_symmetry_space_group_name_H-M "P -1"
_symmetry_group_IT_number 2
_symmetry_cell_setting 'triclinic'
loop_
_space_group_symop_operation_xyz
x,y,z
-x,-y,-z
loop_
_atom_site_type_symbol
_atom_site_label
_atom_site_fract_x
_atom_site_fract_y
_atom_site_fract_z
Si Si1 0.440959 0.947502 0.290528
Si Si2 0.679254 0.685139 0.532650
Si Si3 0.138448 0.595259 0.150777
Si Si4 0.738080 0.840957 0.543195
Si Si5 0.674355 0.464931 0.655217
Si Si6 0.889817 0.661931 0.763902
Si Si7 0.108638 0.758963 0.130421
Si Si8 0.757050 0.940027 0.950780
O O1 0.284077 0.850976 0.215374
O O2 0.675403 0.917536 0.104865
O O3 0.500000 0.000000 0.500000
O O4 0.298957 0.043021 0.352475
O O5 0.528662 0.767636 0.551185
O O6 0.574792 0.575083 0.419707
O O7 0.703265 0.712490 0.734341
O O8 0.932004 0.664561 0.366884
O O9 0.334097 0.561023 0.202441
O O10 0.223499 0.661368 0.081730
O O11 0.000000 0.500000 0.000000
O O12 0.865758 0.794635 0.316286
O O13 0.848233 0.855558 0.708778
O O14 0.742159 0.577584 0.765021
O O15 0.893043 0.397116 0.446341
O O16 0.019915 0.727510 0.944669
O O17 0.500000 0.000000 0.000000
O O18 0.000000 0.000000 0.000000
#
# Coordination Sequence:
#
# PCOD9013945 Si02
#       8
#     2   2   2   2   2   2   2   2
#     4  11  25  43  70 106 139 185 236 301 360 426
#     4  10  23  39  65  95 133 185 232 282 356 430
#     4  10  21  42  64  96 135 182 227 290 356 426
#     4  10  24  44  63 100 141 184 238 291 363 433
#     4  10  21  41  66  91 139 177 232 287 357 421
#     4  10  22  41  64  99 133 179 229 298 348 425
#     4  11  23  43  68 100 142 183 238 295 361 426
#     4  10  23  46  74 100 138 193 241 297 369 438
#
# _framework density 25.023486999999999
#
# number of rings (size 3 to 8) (size 9 to 14) (size 15 to 20)
#    0.000    1.750    1.250    1.500    3.500    4.500 
#    4.500    0.000    0.000    0.000    0.000    0.000 
#    0.000    0.000    0.000    0.000    0.000    0.000 
#
# Total GULP energy -89201.802744 kJ/mol
# GULP energy per Si atom -5575.112671 kJ/mol
# Density = 2.496653 g / cm^3
# Si number density = 25.023487 Si / 1000 Ang^3
#
#
#
# Elastic Constant Matrix: (Units=GPa)
#
#
# Indices 1 2 3 4 5 6 
#
# 1 57.9517 39.9990 46.4477 -9.1223 19.9423 14.3369
# 2 39.9990 192.3991 54.7256 5.9413 40.9430 7.5784
# 3 46.4477 54.7256 202.5768 -1.9322 34.2237 6.7027
# 4 -9.1223 5.9413 -1.9322 35.7298 -2.9172 10.7641
# 5 19.9423 40.9430 34.2237 -2.9172 50.7017 4.4354
# 6 14.3369 7.5784 6.7027 10.7641 4.4354 22.1133
#
#
#
# Elastic Compliance Matrix: (Units=1/GPa)
#
#
# Indices 1 2 3 4 5 6 
#
# 1 0.035369 -0.004636 -0.005232 0.017595 -0.003202 -0.027678
# 2 -0.004636 0.007132 -0.000292 -0.003732 -0.004243 0.003318
# 3 -0.005232 -0.000292 0.006516 -0.002045 -0.002485 0.003012
# 4 0.017595 -0.003732 -0.002045 0.042449 0.002601 -0.030694
# 5 -0.003202 -0.004243 -0.002485 0.002601 0.026436 -0.002285
# 6 -0.027678 0.003318 0.003012 -0.030694 -0.002285 0.076516
#
#
# Mechanical properties :
#
#
# Convention : Reuss Voigt Hill
#
# Bulk Modulus (GPa) = 34.84997 81.69690 58.27343
# Shear Modulus (GPa) = 22.29114 42.49266 32.39190
#
# Velocity S-wave (km/s) = 2.98788 4.12528 3.60176
# Velocity P-wave (km/s) = 5.08531 7.44376 6.37456
#
# Compressibility (1/GPa) = 0.02869443
#
# Stress axis : x y z
#
# Youngs Moduli (GPa) = 28.27371 140.21152 153.47442
#
# Poissons Ratio (x) = 0.65009 0.80304
# Poissons Ratio (y) = 0.13109 0.04483
# Poissons Ratio (z) = 0.14794 0.04096
#
# Static dielectric constant tensor:
#      x y z
#    x 2.498350 -0.096840 -0.112590 
#    y -0.096840 2.287500 0.250470 
#    z -0.112590 0.250470 2.166140 
# 
# From -- ./inp_files/139525.got.cif
#   From: 2010.05.17/outbox.cif.g08.bks.cpg/sg2_70_cif.got.tgz:139525.got - 2010.06.03 11:33:40.
