data_PCOD9013908
_publ_section_title
;
Structure prediction by ZEFSAII (Michael W. Deem and Ramdas Pophale) SiO2 
 PCOD9013908
Probable space group: P -1
;
_chemical_formula_sum "Si O2"
_cell_formula_units_Z 12
_cell_length_a 24.853907
_cell_length_b 30.327696
_cell_length_c 30.697523
_cell_angle_alpha 9.743402
_cell_angle_beta 9.298378
_cell_angle_gamma 10.540717
_cell_volume 584.209591
_symmetry_space_group_name_H-M "P -1"
_symmetry_group_IT_number 2
_symmetry_cell_setting 'triclinic'
loop_
_space_group_symop_operation_xyz
x,y,z
-x,-y,-z
loop_
_atom_site_type_symbol
_atom_site_label
_atom_site_fract_x
_atom_site_fract_y
_atom_site_fract_z
Si Si1 0.845533 0.096395 0.843549
Si Si2 0.725699 0.800878 0.874381
Si Si3 0.688842 0.211615 0.950495
Si Si4 0.778410 0.857973 0.876443
Si Si5 0.145690 0.594414 0.221283
Si Si6 0.307527 0.442236 0.111806
O O1 0.608008 0.212288 0.963508
O O2 0.127552 0.246675 0.467801
O O3 0.611372 0.149771 0.935386
O O4 0.064202 0.766503 0.997659
O O5 0.616889 0.875664 0.939192
O O6 0.937926 0.990789 0.502630
O O7 0.998169 0.474685 0.970728
O O8 0.972752 0.362082 0.583004
O O9 0.352534 0.379258 0.086103
O O10 0.864177 0.893361 0.138381
O O11 0.500000 0.000000 0.000000
O O12 0.500000 0.500000 0.000000
O O13 0.301144 0.621758 0.117710
#
# Coordination Sequence:
#
# PCOD9013908 Si02
#       6
#     2   2   2   2   2   2
#     4  12  24  41  59  89 125 152 192 245 296 352
#     4  10  23  39  62  93 121 152 194 238 285 351
#     4  12  24  40  60  86 116 157 202 249 297 343
#     4  10  21  41  66  90 118 156 194 233 285 347
#     4  12  21  41  63  80 116 158 204 252 291 341
#     4  12  25  39  61  86 117 160 200 244 299 346
#
# _framework density 20.540572999999998
#
# number of rings (size 3 to 8) (size 9 to 14) (size 15 to 20)
#    0.000    0.667    3.333    5.000    0.000    2.667 
#    0.000    0.000    0.000    0.000    0.000    0.000 
#    0.000    0.000    0.000    0.000    0.000    0.000 
#
# Total GULP energy -67118.518394 kJ/mol
# GULP energy per Si atom -5593.209866 kJ/mol
# Density = 2.049382 g / cm^3
# Si number density = 20.540573 Si / 1000 Ang^3
#
#
#
# Elastic Constant Matrix: (Units=GPa)
#
#
# Indices 1 2 3 4 5 6 
#
# 1 134.9908 21.4781 18.0562 12.2049 -1.5526 17.5900
# 2 21.4781 14.3621 14.3936 -6.7138 -6.6353 18.9655
# 3 18.0562 14.3936 20.7713 -6.8527 -1.4238 14.8197
# 4 12.2049 -6.7138 -6.8527 17.9776 4.8870 -7.2323
# 5 -1.5526 -6.6353 -1.4238 4.8870 33.9195 15.8908
# 6 17.5900 18.9655 14.8197 -7.2323 15.8908 43.4666
#
#
#
# Elastic Compliance Matrix: (Units=1/GPa)
#
#
# Indices 1 2 3 4 5 6 
#
# 1 0.009345 0.024663 -0.017401 -0.014077 0.014095 -0.016105
# 2 0.024663 -0.424227 0.120816 -0.005740 -0.166829 0.193964
# 3 -0.017401 0.120816 0.049052 0.028224 0.057753 -0.078814
# 4 -0.014077 -0.005740 0.028224 0.089157 -0.023785 0.022108
# 5 0.014095 -0.166829 0.057753 -0.023785 -0.020523 0.050942
# 6 -0.016105 0.193964 -0.078814 0.022108 0.050942 -0.043181
#
#
# Mechanical properties :
#
#
# Convention : Reuss Voigt Hill
#
# Bulk Modulus (GPa) = -9.11777 30.88668 10.88446
# Shear Modulus (GPa) = -7.89776 26.81916 9.46070
#
# Velocity S-wave (km/s) = -1.96298 3.61732 2.14846
# Velocity P-wave (km/s) = 3.09617 5.70230 3.38600
#
# Compressibility (1/GPa) = -0.10967593
#
# Stress axis : x y z
#
# Youngs Moduli (GPa) = 107.01045 -2.35723 20.38661
#
# Poissons Ratio (x) = 0.05814 0.35476
# Poissons Ratio (y) = -2.63923 -2.46302
# Poissons Ratio (z) = 1.86214 0.28479
#
# Static dielectric constant tensor:
#      x y z
#    x 1.791170 0.012870 -0.001110 
#    y 0.012870 1.681380 -0.004300 
#    z -0.001110 -0.004300 1.704490 
# 
# From -- ./inp_files/98097.got.cif
#   From: 2010.05.17/outbox.cif.g08.bks.cpg/sg2_50_cif.got.tgz:98097.got - 2010.06.03 11:33:40.
