data_PCOD9013569
_publ_section_title
;
Structure prediction by ZEFSAII (Michael W. Deem and Ramdas Pophale) SiO2 
 PCOD9013569
Probable space group: P -1
;
_chemical_formula_sum "Si O2"
_cell_formula_units_Z 16
_cell_length_a 17.393211
_cell_length_b 21.139726
_cell_length_c 11.862849
_cell_angle_alpha 21.963754
_cell_angle_beta 44.224871
_cell_angle_gamma 32.334051
_cell_volume 822.155630
_symmetry_space_group_name_H-M "P -1"
_symmetry_group_IT_number 2
_symmetry_cell_setting 'triclinic'
loop_
_space_group_symop_operation_xyz
x,y,z
-x,-y,-z
loop_
_atom_site_type_symbol
_atom_site_label
_atom_site_fract_x
_atom_site_fract_y
_atom_site_fract_z
Si Si1 0.905763 0.486685 0.461420
Si Si2 0.806916 0.232546 0.070923
Si Si3 0.768661 0.790079 0.308959
Si Si4 0.661837 0.242197 0.770019
Si Si5 0.931297 0.560816 0.848477
Si Si6 0.337635 0.464355 0.073652
Si Si7 0.878417 0.224959 0.413796
Si Si8 0.314206 0.894389 0.777632
O O1 0.792439 0.727590 0.254306
O O2 0.067123 0.330040 0.615869
O O3 0.947421 0.498237 0.272977
O O4 0.847397 0.357819 0.749942
O O5 0.764305 0.128740 0.201909
O O6 0.673444 0.423165 0.982996
O O7 0.952928 0.031941 0.327008
O O8 0.720907 0.663505 0.625231
O O9 0.662271 0.057946 0.013521
O O10 0.500000 0.500000 0.500000
O O11 0.784792 0.228901 0.602023
O O12 0.698676 0.183266 0.960133
O O13 0.777770 0.834573 0.556086
O O14 0.895064 0.406166 0.116388
O O15 0.000000 0.500000 0.000000
O O16 0.507648 0.274434 0.160022
O O17 0.222899 0.676482 0.755676
#
# Coordination Sequence:
#
# PCOD9013569 Si02
#       8
#     2   2   2   2   2   2   2   2
#     4  10  21  41  65  89 122 165 213 263 318 375
#     4  11  24  42  66  95 130 174 217 267 321 382
#     4  10  21  41  65  89 122 165 213 263 318 375
#     4  12  25  41  64  98 129 169 210 268 326 381
#     4  12  25  41  64  98 129 169 210 268 326 381
#     4  11  24  42  66  95 130 174 217 267 321 382
#     4  12  23  40  66  96 127 166 226 270 311 380
#     4  12  25  44  63  92 142 172 208 266 333 390
#
# _framework density 19.461034000000001
#
# number of rings (size 3 to 8) (size 9 to 14) (size 15 to 20)
#    0.000    0.750    6.250    0.750    3.500    3.000 
#    0.000    0.000    0.000    3.000    0.000    0.000 
#    0.000    0.000    0.000    0.000    0.000    0.000 
#
# Total GULP energy -89380.128900 kJ/mol
# GULP energy per Si atom -5586.258056 kJ/mol
# Density = 1.941674 g / cm^3
# Si number density = 19.461034 Si / 1000 Ang^3
#
#
#
# Elastic Constant Matrix: (Units=GPa)
#
#
# Indices 1 2 3 4 5 6 
#
# 1 47.0470 -2.6121 13.9948 -15.8612 -6.9858 15.6318
# 2 -2.6121 217.2042 22.5466 70.4256 57.6546 7.3157
# 3 13.9948 22.5466 85.2944 -17.3981 -3.9851 19.8723
# 4 -15.8612 70.4256 -17.3981 83.0540 35.6190 -7.8757
# 5 -6.9858 57.6546 -3.9851 35.6190 60.7666 -7.3805
# 6 15.6318 7.3157 19.8723 -7.8757 -7.3805 32.0125
#
#
#
# Elastic Compliance Matrix: (Units=1/GPa)
#
#
# Indices 1 2 3 4 5 6 
#
# 1 0.026704 -0.000576 -0.000639 0.004581 -0.000508 -0.011501
# 2 -0.000576 0.008139 -0.002919 -0.005743 -0.004894 -0.002308
# 3 -0.000639 -0.002919 0.015303 0.004888 -0.000055 -0.007331
# 4 0.004581 -0.005743 0.004888 0.021511 -0.006328 -0.000126
# 5 -0.000508 -0.004894 -0.000055 -0.006328 0.025440 0.005709
# 6 -0.011501 -0.002308 -0.007331 -0.000126 0.005709 0.043217
#
#
# Mechanical properties :
#
#
# Convention : Reuss Voigt Hill
#
# Bulk Modulus (GPa) = 23.87899 46.37825 35.12862
# Shear Modulus (GPa) = 30.76138 56.20770 43.48454
#
# Velocity S-wave (km/s) = 3.98007 5.38004 4.73212
# Velocity P-wave (km/s) = 5.78084 7.90419 6.92439
#
# Compressibility (1/GPa) = 0.04187782
#
# Stress axis : x y z
#
# Youngs Moduli (GPa) = 37.44758 122.86744 65.34675
#
# Poissons Ratio (x) = 0.07074 0.04175
# Poissons Ratio (y) = 0.02156 0.19077
# Poissons Ratio (z) = 0.02392 0.35870
#
# Static dielectric constant tensor:
#      x y z
#    x 1.680630 0.013560 0.006760 
#    y 0.013560 1.685370 -0.012430 
#    z 0.006760 -0.012430 1.668200 
# 
# From -- ./inp_files/256840.got.cif
#   From: 2010.05.17/outbox.cif.g08.bks.cpg/sg2_129_cif.got.tgz:256840.got - 2010.06.03 11:33:40.
