data_PCOD9013011
_publ_section_title
;
Structure prediction by ZEFSAII (Michael W. Deem and Ramdas Pophale) SiO2 
 PCOD9013011
Probable space group: P -1
;
_chemical_formula_sum "Si O2"
_cell_formula_units_Z 16
_cell_length_a 9.550712
_cell_length_b 6.336970
_cell_length_c 19.286074
_cell_angle_alpha 102.785974
_cell_angle_beta 140.228352
_cell_angle_gamma 89.945278
_cell_volume 700.928859
_symmetry_space_group_name_H-M "P -1"
_symmetry_group_IT_number 2
_symmetry_cell_setting 'triclinic'
loop_
_space_group_symop_operation_xyz
x,y,z
-x,-y,-z
loop_
_atom_site_type_symbol
_atom_site_label
_atom_site_fract_x
_atom_site_fract_y
_atom_site_fract_z
Si Si1 0.116931 0.767214 0.450326
Si Si2 0.692113 0.782918 0.363615
Si Si3 0.463725 0.410005 0.351853
Si Si4 0.321461 0.641949 0.933028
Si Si5 0.336425 0.992330 0.181946
Si Si6 0.702651 0.211092 0.619449
Si Si7 0.010373 0.729947 0.137848
Si Si8 0.418607 0.122321 0.066317
O O1 0.308365 0.648152 0.538502
O O2 0.103974 0.752121 0.362192
O O3 0.878658 0.683814 0.391442
O O4 0.197684 0.029198 0.523267
O O5 0.520425 0.582842 0.322435
O O6 0.565879 0.914092 0.274146
O O7 0.317665 0.181809 0.244463
O O8 0.369906 0.557302 0.382306
O O9 0.351366 0.712348 0.867537
O O10 0.095414 0.508095 0.879381
O O11 0.500000 0.500000 0.000000
O O12 0.417431 0.873374 0.026546
O O13 0.359179 0.105973 0.123784
O O14 0.138054 0.772862 0.114900
O O15 0.801252 0.152616 0.724948
O O16 0.500000 0.000000 0.500000
O O17 0.795580 0.826434 0.050573
#
# Coordination Sequence:
#
# PCOD9013011 Si02
#       8
#     2   2   2   2   2   2   2   2
#     4  10  22  38  64  92 126 182 231 278 346 399
#     4  10  21  41  62  95 137 172 231 284 332 417
#     4  11  22  42  65  95 136 176 236 283 338 416
#     4   9  22  45  67  98 137 177 227 282 336 412
#     4  11  24  41  68 101 138 181 226 285 342 408
#     4  12  23  44  66  95 141 183 226 290 346 399
#     4  11  24  42  66 103 135 175 235 277 338 411
#     4  10  23  44  71  97 142 178 226 282 345 411
#
# _framework density 22.826853
#
# number of rings (size 3 to 8) (size 9 to 14) (size 15 to 20)
#    0.000    1.500    2.500    1.875    1.750    6.500 
#    0.000    0.000    0.000    0.000    0.000    0.000 
#    0.000    0.000    0.000    0.000    0.000    0.000 
#
# Total GULP energy -89205.462123 kJ/mol
# GULP energy per Si atom -5575.341383 kJ/mol
# Density = 2.277490 g / cm^3
# Si number density = 22.826853 Si / 1000 Ang^3
#
#
#
# Elastic Constant Matrix: (Units=GPa)
#
#
# Indices 1 2 3 4 5 6 
#
# 1 149.0927 46.0128 25.2950 4.7103 -20.1186 11.6882
# 2 46.0128 90.4772 26.0255 -0.6448 -19.6022 14.5839
# 3 25.2950 26.0255 37.5674 -2.7689 -14.5362 13.7892
# 4 4.7103 -0.6448 -2.7689 23.2877 9.7495 2.6223
# 5 -20.1186 -19.6022 -14.5362 9.7495 24.6510 -2.1516
# 6 11.6882 14.5839 13.7892 2.6223 -2.1516 52.8156
#
#
#
# Elastic Compliance Matrix: (Units=1/GPa)
#
#
# Indices 1 2 3 4 5 6 
#
# 1 0.008794 -0.002646 -0.002218 -0.004390 0.005484 -0.000195
# 2 -0.002646 0.016120 -0.005695 -0.002960 0.008306 -0.001893
# 3 -0.002218 -0.005695 0.041998 -0.001467 0.018301 -0.008083
# 4 -0.004390 -0.002960 -0.001467 0.055952 -0.029087 -0.001791
# 5 0.005484 0.008306 0.018301 -0.029087 0.073608 -0.003843
# 6 -0.000195 -0.001893 -0.008083 -0.001791 -0.003843 0.021543
#
#
# Mechanical properties :
#
#
# Convention : Reuss Voigt Hill
#
# Bulk Modulus (GPa) = 21.83707 52.42266 37.12986
# Shear Modulus (GPa) = 19.65433 32.13778 25.89605
#
# Velocity S-wave (km/s) = 2.93749 3.75626 3.37182
# Velocity P-wave (km/s) = 4.59264 6.46745 5.60893
#
# Compressibility (1/GPa) = 0.04579369
#
# Stress axis : x y z
#
# Youngs Moduli (GPa) = 113.71124 62.03502 23.81074
#
# Poissons Ratio (x) = 0.16414 0.05282
# Poissons Ratio (y) = 0.30087 0.13560
# Poissons Ratio (z) = 0.25223 0.35329
#
# Static dielectric constant tensor:
#      x y z
#    x 1.929900 0.055730 0.003650 
#    y 0.055730 1.854720 0.032140 
#    z 0.003650 0.032140 1.904340 
# 
# From -- ./inp_files/488527.got.cif
#   From: 2010.05.17/outbox.cif.g08.bks.cpg/sg2_245_cif.got.tgz:488527.got - 2010.06.03 11:33:40.
