data_PCOD9013843
_publ_section_title
;
Structure prediction by ZEFSAII (Michael W. Deem and Ramdas Pophale) SiO2 
 PCOD9013843
Probable space group: P -1
;
_chemical_formula_sum "Si O2"
_cell_formula_units_Z 16
_cell_length_a 20.211578
_cell_length_b 16.825112
_cell_length_c 11.732418
_cell_angle_alpha 21.642292
_cell_angle_beta 31.008890
_cell_angle_gamma 31.925058
_cell_volume 729.028435
_symmetry_space_group_name_H-M "P -1"
_symmetry_group_IT_number 2
_symmetry_cell_setting 'triclinic'
loop_
_space_group_symop_operation_xyz
x,y,z
-x,-y,-z
loop_
_atom_site_type_symbol
_atom_site_label
_atom_site_fract_x
_atom_site_fract_y
_atom_site_fract_z
Si Si1 0.107842 0.787332 0.734682
Si Si2 0.856331 0.607872 0.624770
Si Si3 0.832212 0.782031 0.810681
Si Si4 0.138401 0.587596 0.559781
Si Si5 0.812968 0.067401 0.805208
Si Si6 0.709626 0.481460 0.802178
Si Si7 0.456872 0.070913 0.597796
Si Si8 0.709222 0.975436 0.503669
O O1 0.162951 0.773486 0.544281
O O2 0.148308 0.993862 0.458359
O O3 0.161910 0.565047 0.021957
O O4 0.946195 0.860191 0.876826
O O5 0.754081 0.607024 0.675526
O O6 0.826675 0.844490 0.417692
O O7 0.000000 0.500000 0.500000
O O8 0.735816 0.857240 0.744997
O O9 0.978578 0.648572 0.725569
O O10 0.799314 0.626795 0.165595
O O11 0.183721 0.796622 0.265577
O O12 0.182803 0.552599 0.411824
O O13 0.677724 0.999038 0.083051
O O14 0.579681 0.659386 0.707345
O O15 0.703342 0.236417 0.174800
O O16 0.500000 0.000000 0.500000
O O17 0.573015 0.967038 0.654243
#
# Coordination Sequence:
#
# PCOD9013843 Si02
#       8
#     2   2   2   2   2   2   2   2
#     4  10  21  42  69 100 138 175 231 292 350 406
#     4  12  25  40  69 104 140 176 230 295 348 403
#     4  10  21  41  66 100 140 177 226 288 347 411
#     4  10  22  40  68 100 137 177 228 288 351 405
#     4  10  22  42  70  99 135 187 229 283 352 409
#     4  12  25  44  67  99 137 183 234 283 345 407
#     4  12  25  46  69  99 140 189 234 279 345 418
#     4  12  26  44  69  99 140 183 235 281 340 417
#
# _framework density 21.947016999999999
#
# number of rings (size 3 to 8) (size 9 to 14) (size 15 to 20)
#    0.000    1.000    2.500    4.125    3.500    5.000 
#    0.000    5.000    0.000    0.000    0.000    0.000 
#    0.000    0.000    0.000    0.000    0.000    0.000 
#
# Total GULP energy -89561.246241 kJ/mol
# GULP energy per Si atom -5597.577890 kJ/mol
# Density = 2.189706 g / cm^3
# Si number density = 21.947017 Si / 1000 Ang^3
#
#
#
# Elastic Constant Matrix: (Units=GPa)
#
#
# Indices 1 2 3 4 5 6 
#
# 1 110.1562 2.8584 23.5156 1.3267 15.2891 -20.0683
# 2 2.8584 49.0066 10.1275 -9.3663 -2.9446 -4.3048
# 3 23.5156 10.1275 79.0266 -12.2671 11.2296 -8.7667
# 4 1.3267 -9.3663 -12.2671 24.1684 -5.9009 1.0498
# 5 15.2891 -2.9446 11.2296 -5.9009 41.3745 -4.0556
# 6 -20.0683 -4.3048 -8.7667 1.0498 -4.0556 39.3014
#
#
#
# Elastic Compliance Matrix: (Units=1/GPa)
#
#
# Indices 1 2 3 4 5 6 
#
# 1 0.011035 -0.000482 -0.002717 -0.003199 -0.003369 0.004714
# 2 -0.000482 0.022882 -0.001722 0.008844 0.003734 0.002025
# 3 -0.002717 -0.001722 0.015169 0.006593 -0.002157 0.001409
# 4 -0.003199 0.008844 0.006593 0.050071 0.007184 0.000210
# 5 -0.003369 0.003734 -0.002157 0.007184 0.027373 0.000840
# 6 0.004714 0.002025 0.001409 0.000210 0.000840 0.028469
#
#
# Mechanical properties :
#
#
# Convention : Reuss Voigt Hill
#
# Bulk Modulus (GPa) = 25.48100 34.57695 30.02897
# Shear Modulus (GPa) = 28.10216 34.41473 31.25844
#
# Velocity S-wave (km/s) = 3.58223 3.96420 3.77804
# Velocity P-wave (km/s) = 5.36146 6.06153 5.72221
#
# Compressibility (1/GPa) = 0.03924493
#
# Stress axis : x y z
#
# Youngs Moduli (GPa) = 90.61728 43.70266 65.92195
#
# Poissons Ratio (x) = 0.02106 0.17910
# Poissons Ratio (y) = 0.04367 0.11352
# Poissons Ratio (z) = 0.24620 0.07526
#
# Static dielectric constant tensor:
#      x y z
#    x 1.808870 0.008280 -0.012680 
#    y 0.008280 1.819720 -0.021420 
#    z -0.012680 -0.021420 1.795830 
# 
# From -- ./inp_files/472301.got.cif
#   From: 2010.05.17/outbox.cif.g08.bks.cpg/sg2_237_cif.got.tgz:472301.got - 2010.06.03 11:33:40.
