data_PCOD9013212
_publ_section_title
;
Structure prediction by ZEFSAII (Michael W. Deem and Ramdas Pophale) SiO2 
 PCOD9013212
Probable space group: P -1
;
_chemical_formula_sum "Si O2"
_cell_formula_units_Z 16
_cell_length_a 12.001723
_cell_length_b 9.388418
_cell_length_c 15.206690
_cell_angle_alpha 139.918195
_cell_angle_beta 58.873534
_cell_angle_gamma 100.590631
_cell_volume 871.961249
_symmetry_space_group_name_H-M "P -1"
_symmetry_group_IT_number 2
_symmetry_cell_setting 'triclinic'
loop_
_space_group_symop_operation_xyz
x,y,z
-x,-y,-z
loop_
_atom_site_type_symbol
_atom_site_label
_atom_site_fract_x
_atom_site_fract_y
_atom_site_fract_z
Si Si1 0.408435 0.502250 0.952427
Si Si2 0.432941 0.568965 0.465192
Si Si3 0.417290 0.821925 0.933206
Si Si4 0.464408 0.025385 0.425501
Si Si5 0.163036 0.467027 0.509599
Si Si6 0.162765 0.283138 0.225740
Si Si7 0.845516 0.368112 0.761856
Si Si8 0.171712 0.138070 0.511520
O O1 0.411908 0.687072 0.962677
O O2 0.477171 0.236435 0.762373
O O3 0.500000 0.500000 0.000000
O O4 0.252112 0.554538 0.076522
O O5 0.500000 0.500000 0.500000
O O6 0.511250 0.376277 0.265169
O O7 0.275210 0.581718 0.537564
O O8 0.450155 0.816720 0.563458
O O9 0.500000 0.000000 0.000000
O O10 0.262947 0.005016 0.052119
O O11 0.500000 0.000000 0.500000
O O12 0.298982 0.143299 0.522291
O O13 0.181600 0.383858 0.361396
O O14 0.189556 0.240748 0.456724
O O15 0.004266 0.651369 0.678767
O O16 0.197424 0.431376 0.202692
O O17 0.011233 0.295388 0.679585
O O18 0.823779 0.131102 0.623978
#
# Coordination Sequence:
#
# PCOD9013212 Si02
#       8
#     2   2   2   2   2   2   2   2
#     4  12  25  42  66  96 128 170 220 264 313 377
#     4  12  26  43  67  92 131 174 209 260 331 379
#     4  12  25  42  65  99 128 165 221 269 311 379
#     4  12  26  45  63  92 133 173 210 262 321 388
#     4  10  21  41  63  96 127 170 211 265 319 377
#     4  10  22  38  66  96 129 161 218 268 314 370
#     4  10  22  38  66  97 125 168 214 267 313 375
#     4  10  21  41  64  93 130 168 215 261 320 376
#
# _framework density 18.349439
#
# number of rings (size 3 to 8) (size 9 to 14) (size 15 to 20)
#    0.000    1.000    5.000    1.500    5.250    1.000 
#    0.000    2.500    0.000    0.000    0.000    0.000 
#    0.000    0.000    0.000    0.000    0.000    0.000 
#
# Total GULP energy -89297.550912 kJ/mol
# GULP energy per Si atom -5581.096932 kJ/mol
# Density = 1.830767 g / cm^3
# Si number density = 18.349439 Si / 1000 Ang^3
#
#
#
# Elastic Constant Matrix: (Units=GPa)
#
#
# Indices 1 2 3 4 5 6 
#
# 1 135.5652 67.2743 41.3154 -2.6919 -3.5798 5.7685
# 2 67.2743 179.3802 53.6607 3.4458 -3.1005 -3.5657
# 3 41.3154 53.6607 87.6251 2.2154 0.9700 -5.0060
# 4 -2.6919 3.4458 2.2154 33.7602 -0.5950 2.4050
# 5 -3.5798 -3.1005 0.9700 -0.5950 27.3820 -1.7528
# 6 5.7685 -3.5657 -5.0060 2.4050 -1.7528 34.0095
#
#
#
# Elastic Compliance Matrix: (Units=1/GPa)
#
#
# Indices 1 2 3 4 5 6 
#
# 1 0.009897 -0.002841 -0.003117 0.001478 0.000955 -0.002490
# 2 -0.002841 0.007670 -0.003293 -0.000846 0.000653 0.000895
# 3 -0.003117 -0.003293 0.015077 -0.001095 -0.001183 0.002419
# 4 0.001478 -0.000846 -0.001095 0.030093 0.000624 -0.002596
# 5 0.000955 0.000653 -0.001183 0.000624 0.036876 0.001589
# 6 -0.002490 0.000895 0.002419 -0.002596 0.001589 0.030541
#
#
# Mechanical properties :
#
#
# Convention : Reuss Voigt Hill
#
# Bulk Modulus (GPa) = 70.70176 80.78570 75.74373
# Shear Modulus (GPa) = 32.60098 35.05167 33.82633
#
# Velocity S-wave (km/s) = 4.21963 4.37536 4.29820
# Velocity P-wave (km/s) = 7.89651 8.34547 8.12409
#
# Compressibility (1/GPa) = 0.01414392
#
# Stress axis : x y z
#
# Youngs Moduli (GPa) = 101.04432 130.37201 66.32493
#
# Poissons Ratio (x) = 0.37033 0.20673
# Poissons Ratio (y) = 0.28702 0.21838
# Poissons Ratio (z) = 0.31495 0.42927
#
# Static dielectric constant tensor:
#      x y z
#    x 1.600600 0.011210 -0.050910 
#    y 0.011210 1.672920 -0.000480 
#    z -0.050910 -0.000480 1.618430 
# 
# From -- ./inp_files/177966.got.cif
#   From: 2010.05.17/outbox.cif.g08.bks.cpg/sg2_89_cif.got.tgz:177966.got - 2010.06.03 11:33:40.
