data_PCOD9013881
_publ_section_title
;
Structure prediction by ZEFSAII (Michael W. Deem and Ramdas Pophale) SiO2 
 PCOD9013881
Probable space group: P -1
;
_chemical_formula_sum "Si O2"
_cell_formula_units_Z 14
_cell_length_a 14.471057
_cell_length_b 11.904583
_cell_length_c 11.706242
_cell_angle_alpha 37.640091
_cell_angle_beta 36.687933
_cell_angle_gamma 65.219078
_cell_volume 593.246275
_symmetry_space_group_name_H-M "P -1"
_symmetry_group_IT_number 2
_symmetry_cell_setting 'triclinic'
loop_
_space_group_symop_operation_xyz
x,y,z
-x,-y,-z
loop_
_atom_site_type_symbol
_atom_site_label
_atom_site_fract_x
_atom_site_fract_y
_atom_site_fract_z
Si Si1 0.083681 0.207899 0.468274
Si Si2 0.032050 0.245632 0.162518
Si Si3 0.886737 0.350208 0.006306
Si Si4 0.657658 0.978729 0.909222
Si Si5 0.612910 0.571617 0.181511
Si Si6 0.434936 0.084397 0.697338
Si Si7 0.070030 0.751926 0.192087
O O1 0.044239 0.192171 0.654703
O O2 0.959538 0.955724 0.737311
O O3 0.072155 0.412884 0.270228
O O4 0.290927 0.298814 0.138456
O O5 0.994881 0.362801 0.003466
O O6 0.849664 0.121664 0.528232
O O7 0.219393 0.404904 0.926116
O O8 0.654996 0.172499 0.396741
O O9 0.949162 0.257408 0.917093
O O10 0.566537 0.714411 0.187683
O O11 0.667212 0.042042 0.981169
O O12 0.500000 0.000000 0.000000
O O13 0.454189 0.317280 0.506557
O O14 0.293741 0.929869 0.860918
O O15 0.000000 0.500000 0.500000
#
# Coordination Sequence:
#
# PCOD9013881 Si02
#       7
#     2   2   2   2   2   2   2
#     4   9  20  38  62  86 124 164 202 255 300 365
#     4  11  21  41  62  95 129 164 205 247 319 376
#     4  10  22  38  62  92 122 168 210 254 303 369
#     4  11  21  39  63  94 129 164 204 252 314 374
#     4  10  22  38  64  92 128 165 197 258 315 369
#     4  11  21  39  63  89 128 161 207 260 308 365
#     4  10  21  41  66  87 120 168 211 255 312 360
#
# _framework density 23.598967999999999
#
# number of rings (size 3 to 8) (size 9 to 14) (size 15 to 20)
#    0.000    1.714    1.429    4.286    0.000    2.857 
#    7.714    0.000    6.286    6.000    0.000    0.000 
#    0.000    0.000    0.000    0.000    0.000    0.000 
#
# Total GULP energy -78189.405612 kJ/mol
# GULP energy per Si atom -5584.957544 kJ/mol
# Density = 2.354526 g / cm^3
# Si number density = 23.598968 Si / 1000 Ang^3
#
#
#
# Elastic Constant Matrix: (Units=GPa)
#
#
# Indices 1 2 3 4 5 6 
#
# 1 60.3750 34.0190 12.3711 -1.8546 7.5640 4.8957
# 2 34.0190 108.4101 30.4172 12.8845 8.9768 27.3098
# 3 12.3711 30.4172 111.5712 6.4713 -10.6261 6.6101
# 4 -1.8546 12.8845 6.4713 54.9768 12.6017 7.0046
# 5 7.5640 8.9768 -10.6261 12.6017 30.5019 2.8618
# 6 4.8957 27.3098 6.6101 7.0046 2.8618 46.3203
#
#
#
# Elastic Compliance Matrix: (Units=1/GPa)
#
#
# Indices 1 2 3 4 5 6 
#
# 1 0.021244 -0.006683 -0.001344 0.003453 -0.005355 0.001696
# 2 -0.006683 0.014243 -0.002826 -0.001874 -0.002100 -0.006875
# 3 -0.001344 -0.002826 0.010513 -0.001938 0.005604 0.000255
# 4 0.003453 -0.001874 -0.001938 0.021396 -0.009667 -0.001622
# 5 -0.005355 -0.002100 0.005604 -0.009667 0.040681 -0.000047
# 6 0.001696 -0.006875 0.000255 -0.001622 -0.000047 0.025675
#
#
# Mechanical properties :
#
#
# Convention : Reuss Voigt Hill
#
# Bulk Modulus (GPa) = 41.16389 48.21900 44.69145
# Shear Modulus (GPa) = 30.57061 39.92975 35.25018
#
# Velocity S-wave (km/s) = 3.60310 4.11787 3.86906
# Velocity P-wave (km/s) = 5.89837 6.56401 6.24007
#
# Compressibility (1/GPa) = 0.02429313
#
# Stress axis : x y z
#
# Youngs Moduli (GPa) = 47.07265 70.21191 95.11677
#
# Poissons Ratio (x) = 0.46924 0.12786
# Poissons Ratio (y) = 0.31459 0.26879
# Poissons Ratio (z) = 0.06328 0.19841
#
# Static dielectric constant tensor:
#      x y z
#    x 1.934750 -0.031980 -0.010940 
#    y -0.031980 1.935130 0.013100 
#    z -0.010940 0.013100 2.009870 
# 
# From -- ./inp_files/450964.got.cif
#   From: 2010.05.17/outbox.cif.g08.bks.cpg/sg2_226_cif.got.tgz:450964.got - 2010.06.03 11:33:40.
