data_PCOD9013973
_publ_section_title
;
Structure prediction by ZEFSAII (Michael W. Deem and Ramdas Pophale) SiO2 
 PCOD9013973
Probable space group: P -1
;
_chemical_formula_sum "Si O2"
_cell_formula_units_Z 14
_cell_length_a 13.684740
_cell_length_b 15.149777
_cell_length_c 8.783523
_cell_angle_alpha 57.328229
_cell_angle_beta 102.972074
_cell_angle_gamma 151.077342
_cell_volume 587.886284
_symmetry_space_group_name_H-M "P -1"
_symmetry_group_IT_number 2
_symmetry_cell_setting 'triclinic'
loop_
_space_group_symop_operation_xyz
x,y,z
-x,-y,-z
loop_
_atom_site_type_symbol
_atom_site_label
_atom_site_fract_x
_atom_site_fract_y
_atom_site_fract_z
Si Si1 0.372226 0.302557 0.306701
Si Si2 0.215772 0.760970 0.725650
Si Si3 0.912196 0.304615 0.595906
Si Si4 0.890149 0.148027 0.235221
Si Si5 0.078170 0.274678 0.851996
Si Si6 0.677674 0.783235 0.961779
Si Si7 0.421561 0.751619 0.890678
O O1 0.649903 0.512944 0.212628
O O2 0.256495 0.206738 0.186053
O O3 0.193140 0.048259 0.565138
O O4 0.447527 0.490487 0.218680
O O5 0.111346 0.705820 0.583465
O O6 0.299840 0.942418 0.688351
O O7 0.369755 0.799213 0.714518
O O8 0.000000 0.500000 0.000000
O O9 0.000000 0.500000 0.500000
O O10 0.093512 0.385793 0.636556
O O11 0.625878 0.002607 0.840412
O O12 0.951557 0.200134 0.029403
O O13 0.157174 0.443388 0.128416
O O14 0.893452 0.013405 0.946700
O O15 0.585254 0.808278 0.847497
#
# Coordination Sequence:
#
# PCOD9013973 Si02
#       7
#     2   2   2   2   2   2   2
#     4  11  24  45  73  95 140 177 227 284 338 399
#     4  10  22  40  65  99 134 175 223 271 335 406
#     4  11  23  39  67 101 135 183 221 276 345 396
#     4  11  23  42  68 100 132 183 222 275 344 395
#     4  11  24  45  66 102 142 168 231 283 330 411
#     4  10  23  46  69 102 129 186 227 275 348 392
#     4  10  21  41  66  92 139 172 219 276 328 402
#
# _framework density 23.814131
#
# number of rings (size 3 to 8) (size 9 to 14) (size 15 to 20)
#    0.000    1.429    1.429    4.286    2.000    1.143 
#   15.429    5.714    0.000    0.000    0.000    0.000 
#    0.000    0.000    0.000    0.000    0.000    0.000 
#
# Total GULP energy -77997.747346 kJ/mol
# GULP energy per Si atom -5571.267668 kJ/mol
# Density = 2.375993 g / cm^3
# Si number density = 23.814131 Si / 1000 Ang^3
#
#
#
# Elastic Constant Matrix: (Units=GPa)
#
#
# Indices 1 2 3 4 5 6 
#
# 1 98.2380 40.6892 36.4873 5.6925 31.1050 -5.4219
# 2 40.6892 136.4430 47.4991 -19.7897 -5.1330 -15.6225
# 3 36.4873 47.4991 103.1209 -9.9193 38.5444 -0.4462
# 4 5.6925 -19.7897 -9.9193 49.8158 -11.9013 18.2183
# 5 31.1050 -5.1330 38.5444 -11.9013 46.7481 -1.6104
# 6 -5.4219 -15.6225 -0.4462 18.2183 -1.6104 33.1135
#
#
#
# Elastic Compliance Matrix: (Units=1/GPa)
#
#
# Indices 1 2 3 4 5 6 
#
# 1 0.019807 -0.009020 0.003459 -0.011495 -0.019797 0.004396
# 2 -0.009020 0.015706 -0.010026 0.009027 0.018351 0.001724
# 3 0.003459 -0.010026 0.020785 -0.004552 -0.021783 -0.002439
# 4 -0.011495 0.009027 -0.004552 0.034802 0.020708 -0.015825
# 5 -0.019797 0.018351 -0.021783 0.020708 0.059695 -0.003367
# 6 0.004396 0.001724 -0.002439 -0.015825 -0.003367 0.040242
#
#
# Mechanical properties :
#
#
# Convention : Reuss Voigt Hill
#
# Bulk Modulus (GPa) = 39.80066 65.23924 52.51995
# Shear Modulus (GPa) = 21.68379 40.14390 30.91384
#
# Velocity S-wave (km/s) = 3.02079 4.11020 3.60687
# Velocity P-wave (km/s) = 5.37738 7.06963 6.28076
#
# Compressibility (1/GPa) = 0.02512521
#
# Stress axis : x y z
#
# Youngs Moduli (GPa) = 50.48601 63.66848 48.11066
#
# Poissons Ratio (x) = 0.57427 -0.16642
# Poissons Ratio (y) = 0.45537 0.48238
# Poissons Ratio (z) = -0.17464 0.63836
#
# Static dielectric constant tensor:
#      x y z
#    x 2.086390 0.042750 -0.086570 
#    y 0.042750 1.923840 -0.079430 
#    z -0.086570 -0.079430 2.010460 
# 
# From -- ./inp_files/312804.got.cif
#   From: 2010.05.17/outbox.cif.g08.bks.cpg/sg2_157_cif.got.tgz:312804.got - 2010.06.03 11:33:40.
