data_PCOD9013848
_publ_section_title
;
Structure prediction by ZEFSAII (Michael W. Deem and Ramdas Pophale) SiO2 
 PCOD9013848
Probable space group: P -1
;
_chemical_formula_sum "Si O2"
_cell_formula_units_Z 12
_cell_length_a 12.098202
_cell_length_b 14.273200
_cell_length_c 9.890501
_cell_angle_alpha 77.338958
_cell_angle_beta 74.617011
_cell_angle_gamma 20.586589
_cell_volume 576.874942
_symmetry_space_group_name_H-M "P -1"
_symmetry_group_IT_number 2
_symmetry_cell_setting 'triclinic'
loop_
_space_group_symop_operation_xyz
x,y,z
-x,-y,-z
loop_
_atom_site_type_symbol
_atom_site_label
_atom_site_fract_x
_atom_site_fract_y
_atom_site_fract_z
Si Si1 0.843561 0.905852 0.335656
Si Si2 0.610166 0.889090 0.650885
Si Si3 0.729202 0.566343 0.467472
Si Si4 0.761732 0.243113 0.904116
Si Si5 0.395035 0.988887 0.120860
Si Si6 0.340161 0.425806 0.816571
O O1 0.090072 0.647162 0.421440
O O2 0.038467 0.835546 0.220330
O O3 0.625446 0.014004 0.268233
O O4 0.580273 0.152606 0.446485
O O5 0.575166 0.001074 0.735232
O O6 0.991493 0.574449 0.616525
O O7 0.500000 0.000000 0.500000
O O8 0.635700 0.590956 0.348793
O O9 0.584540 0.306538 0.844150
O O10 0.500000 0.500000 0.000000
O O11 0.000000 0.000000 0.000000
O O12 0.021427 0.263615 0.128142
O O13 0.589771 0.739468 0.112232
O O14 0.500000 0.000000 0.000000
#
# Coordination Sequence:
#
# PCOD9013848 Si02
#       6
#     2   2   2   2   2   2
#     4  11  23  40  67  97 130 175 217 267 331 395
#     4   9  20  38  65  97 133 163 215 277 327 390
#     4  10  21  41  66 101 128 164 219 277 339 379
#     4  12  28  46  65  94 136 182 225 269 319 395
#     4  11  24  41  66  99 130 180 219 270 340 394
#     4  11  24  44  67  92 138 167 220 282 320 394
#
# _framework density 20.801735000000001
#
# number of rings (size 3 to 8) (size 9 to 14) (size 15 to 20)
#    0.000    1.333    0.000    6.000    4.667    5.333 
#    0.000    0.000    0.000    0.000    0.000    0.000 
#    0.000    0.000    0.000    0.000    0.000    0.000 
#
# Total GULP energy -67093.613770 kJ/mol
# GULP energy per Si atom -5591.134481 kJ/mol
# Density = 2.075439 g / cm^3
# Si number density = 20.801735 Si / 1000 Ang^3
#
#
#
# Elastic Constant Matrix: (Units=GPa)
#
#
# Indices 1 2 3 4 5 6 
#
# 1 133.2313 37.7499 52.6360 -9.9111 1.3439 -37.0499
# 2 37.7499 115.8258 41.2920 -11.2647 1.9754 -2.5132
# 3 52.6360 41.2920 72.0292 -9.3277 -12.7956 -15.7825
# 4 -9.9111 -11.2647 -9.3277 28.5439 1.6396 1.3626
# 5 1.3439 1.9754 -12.7956 1.6396 38.2409 -5.0649
# 6 -37.0499 -2.5132 -15.7825 1.3626 -5.0649 47.1221
#
#
#
# Elastic Compliance Matrix: (Units=1/GPa)
#
#
# Indices 1 2 3 4 5 6 
#
# 1 0.012912 -0.001311 -0.007214 0.001362 -0.001875 0.007425
# 2 -0.001311 0.011657 -0.006686 0.002296 -0.003298 -0.003069
# 3 -0.007214 -0.006686 0.025808 0.002569 0.009597 0.003573
# 4 0.001362 0.002296 0.002569 0.037255 -0.000786 0.000892
# 5 -0.001875 -0.003298 0.009597 -0.000786 0.030272 0.004841
# 6 0.007425 -0.003069 0.003573 0.000892 0.004841 0.028587
#
#
# Mechanical properties :
#
#
# Convention : Reuss Voigt Hill
#
# Bulk Modulus (GPa) = 50.10961 64.93802 57.52382
# Shear Modulus (GPa) = 27.23816 35.40861 31.32338
#
# Velocity S-wave (km/s) = 3.62251 4.13024 3.88468
# Velocity P-wave (km/s) = 6.45277 7.35055 6.91624
#
# Compressibility (1/GPa) = 0.01995625
#
# Stress axis : x y z
#
# Youngs Moduli (GPa) = 77.44499 85.78204 38.74770
#
# Poissons Ratio (x) = 0.11247 0.27952
# Poissons Ratio (y) = 0.10154 0.25906
# Poissons Ratio (z) = 0.55868 0.57352
#
# Static dielectric constant tensor:
#      x y z
#    x 1.770260 0.006560 -0.017430 
#    y 0.006560 1.726630 -0.002790 
#    z -0.017430 -0.002790 1.753690 
# 
# From -- ./inp_files/26525.got.cif
#   From: 2010.05.17/outbox.cif.g08.bks.cpg/sg2_14_cif.got.tgz:26525.got - 2010.06.03 11:33:40.
