data_PCOD9013896
_publ_section_title
;
Structure prediction by ZEFSAII (Michael W. Deem and Ramdas Pophale) SiO2 
 PCOD9013896
Probable space group: P -1
;
_chemical_formula_sum "Si O2"
_cell_formula_units_Z 16
_cell_length_a 17.332415
_cell_length_b 9.051445
_cell_length_c 9.738973
_cell_angle_alpha 133.968665
_cell_angle_beta 44.358712
_cell_angle_gamma 111.003493
_cell_volume 739.357222
_symmetry_space_group_name_H-M "P -1"
_symmetry_group_IT_number 2
_symmetry_cell_setting 'triclinic'
loop_
_space_group_symop_operation_xyz
x,y,z
-x,-y,-z
loop_
_atom_site_type_symbol
_atom_site_label
_atom_site_fract_x
_atom_site_fract_y
_atom_site_fract_z
Si Si1 0.794639 0.680819 0.220283
Si Si2 0.066862 0.143375 0.624665
Si Si3 0.595283 0.055343 0.614214
Si Si4 0.268339 0.758781 0.994241
Si Si5 0.171967 0.421470 0.189880
Si Si6 0.031180 0.209781 0.408920
Si Si7 0.595741 0.443478 0.053905
Si Si8 0.397107 0.866850 0.645936
O O1 0.879100 0.726730 0.255272
O O2 0.767882 0.455736 0.129463
O O3 0.675990 0.870701 0.486012
O O4 0.843318 0.676133 0.001722
O O5 0.021975 0.263790 0.618144
O O6 0.975998 0.034216 0.739733
O O7 0.169334 0.940426 0.311191
O O8 0.579791 0.280202 0.853093
O O9 0.651305 0.048363 0.386728
O O10 0.474906 0.007849 0.702582
O O11 0.309837 0.841035 0.855611
O O12 0.368535 0.685297 0.932639
O O13 0.139361 0.277111 0.255203
O O14 0.296588 0.463691 0.062476
O O15 0.076278 0.650610 0.452192
O O16 0.485992 0.638235 0.349402
#
# Coordination Sequence:
#
# PCOD9013896 Si02
#       8
#     2   2   2   2   2   2   2   2
#     4  11  22  41  63  87 125 161 196 249 304 352
#     4  11  23  42  62  91 124 158 200 250 297 360
#     4  11  23  39  62  90 122 160 204 245 297 357
#     4  11  23  41  61  89 125 159 198 249 297 356
#     4  10  21  41  66  89 122 159 197 254 300 353
#     4  10  22  41  65  91 120 158 203 247 304 355
#     4  11  21  42  63  86 128 157 197 252 299 353
#     4  11  25  39  62  92 121 160 205 245 297 359
#
# _framework density 21.640418
#
# number of rings (size 3 to 8) (size 9 to 14) (size 15 to 20)
#    0.000    1.250    6.250    0.750    1.750    3.500 
#    0.000    0.000    0.000    0.000    0.000    0.000 
#    0.000    0.000    0.000    0.000    0.000    0.000 
#
# Total GULP energy -89458.150076 kJ/mol
# GULP energy per Si atom -5591.134380 kJ/mol
# Density = 2.159116 g / cm^3
# Si number density = 21.640418 Si / 1000 Ang^3
#
#
#
# Elastic Constant Matrix: (Units=GPa)
#
#
# Indices 1 2 3 4 5 6 
#
# 1 94.0631 40.4074 23.0818 11.1895 34.0557 2.8098
# 2 40.4074 134.2003 46.5371 -22.3016 19.9817 -8.1366
# 3 23.0818 46.5371 66.7784 6.0204 13.8319 14.7448
# 4 11.1895 -22.3016 6.0204 36.4787 -1.0515 1.3972
# 5 34.0557 19.9817 13.8319 -1.0515 45.9381 18.5086
# 6 2.8098 -8.1366 14.7448 1.3972 18.5086 27.5116
#
#
#
# Elastic Compliance Matrix: (Units=1/GPa)
#
#
# Indices 1 2 3 4 5 6 
#
# 1 0.019198 -0.003447 -0.002232 -0.008453 -0.016063 0.009451
# 2 -0.003447 0.018537 -0.015473 0.013985 -0.008141 0.018894
# 3 -0.002232 -0.015473 0.031688 -0.012697 0.009449 -0.027043
# 4 -0.008453 0.013985 -0.012697 0.040353 0.001371 0.008832
# 5 -0.016063 -0.008141 0.009449 0.001371 0.050458 -0.039847
# 6 0.009451 0.018894 -0.027043 0.008832 -0.039847 0.081823
#
#
# Mechanical properties :
#
#
# Convention : Reuss Voigt Hill
#
# Bulk Modulus (GPa) = 36.87295 57.23272 47.05284
# Shear Modulus (GPa) = 17.04160 34.32007 25.68083
#
# Velocity S-wave (km/s) = 2.80927 3.98669 3.44860
# Velocity P-wave (km/s) = 5.25343 6.90624 6.13574
#
# Compressibility (1/GPa) = 0.02712015
#
# Stress axis : x y z
#
# Youngs Moduli (GPa) = 52.08874 53.94678 31.55760
#
# Poissons Ratio (x) = 0.18593 0.07043
# Poissons Ratio (y) = 0.17953 0.48829
# Poissons Ratio (z) = 0.11624 0.83472
#
# Static dielectric constant tensor:
#      x y z
#    x 1.800360 -0.039520 -0.057480 
#    y -0.039520 1.800490 0.021310 
#    z -0.057480 0.021310 1.795840 
# 
# From -- ./inp_files/188916.got.cif
#   From: 2010.05.17/outbox.cif.g08.bks.cpg/sg2_95_cif.got.tgz:188916.got - 2010.06.03 11:33:40.
