data_PCOD9013421
_publ_section_title
;
Structure prediction by ZEFSAII (Michael W. Deem and Ramdas Pophale) SiO2 
 PCOD9013421
Probable space group: P -1
;
_chemical_formula_sum "Si O2"
_cell_formula_units_Z 16
_cell_length_a 5.281033
_cell_length_b 20.319906
_cell_length_c 10.222417
_cell_angle_alpha 140.024317
_cell_angle_beta 105.927342
_cell_angle_gamma 60.717950
_cell_volume 604.762736
_symmetry_space_group_name_H-M "P -1"
_symmetry_group_IT_number 2
_symmetry_cell_setting 'triclinic'
loop_
_space_group_symop_operation_xyz
x,y,z
-x,-y,-z
loop_
_atom_site_type_symbol
_atom_site_label
_atom_site_fract_x
_atom_site_fract_y
_atom_site_fract_z
Si Si1 0.938978 0.803484 0.427909
Si Si2 0.703031 0.113572 0.215886
Si Si3 0.415684 0.657133 0.059232
Si Si4 0.155247 0.582864 0.274961
Si Si5 0.506599 0.852208 0.235979
Si Si6 0.040226 0.900149 0.051599
Si Si7 0.696078 0.636606 0.500381
Si Si8 0.947518 0.710110 0.870516
O O1 0.038946 0.866684 0.645449
O O2 0.940472 0.691377 0.323869
O O3 0.646305 0.885287 0.429889
O O4 0.206887 0.742732 0.269737
O O5 0.414543 0.232266 0.368010
O O6 0.777658 0.100763 0.053600
O O7 0.723084 0.003378 0.128479
O O8 0.664922 0.535964 0.957930
O O9 0.204855 0.634952 0.892042
O O10 0.535856 0.729778 0.102437
O O11 0.411477 0.614547 0.412502
O O12 0.971534 0.563017 0.334854
O O13 0.180582 0.920510 0.235933
O O14 0.721618 0.816424 0.087884
O O15 0.057594 0.775270 0.881086
O O16 0.801416 0.641986 0.670427
#
# Coordination Sequence:
#
# PCOD9013421 Si02
#       8
#     2   2   2   2   2   2   2   2
#     4  10  23  42  65  97 134 175 218 277 329 394
#     4  10  22  43  69  99 130 171 223 278 335 397
#     4  10  24  42  65  92 134 182 221 269 331 399
#     4  11  26  42  68 101 132 177 229 276 332 392
#     4  10  22  41  65  94 132 180 215 275 330 395
#     4  10  21  44  69  98 130 173 221 274 340 400
#     4  11  24  43  67 102 137 170 224 285 329 394
#     4  10  21  41  64  94 137 173 218 275 337 391
#
# _framework density 26.456658000000001
#
# number of rings (size 3 to 8) (size 9 to 14) (size 15 to 20)
#    0.000    1.750    1.250    1.875    8.750    2.500 
#    4.500    5.625    0.000    0.000    0.000    0.000 
#    0.000    0.000    0.000    0.000    0.000    0.000 
#
# Total GULP energy -89535.166214 kJ/mol
# GULP energy per Si atom -5595.947888 kJ/mol
# Density = 2.639644 g / cm^3
# Si number density = 26.456658 Si / 1000 Ang^3
#
#
#
# Elastic Constant Matrix: (Units=GPa)
#
#
# Indices 1 2 3 4 5 6 
#
# 1 83.8508 15.0173 28.6574 -22.6635 5.9506 -4.9724
# 2 15.0173 109.2520 29.2691 -13.0511 11.7977 -6.9020
# 3 28.6574 29.2691 81.1552 -19.8369 13.3032 -8.8345
# 4 -22.6635 -13.0511 -19.8369 43.9073 -15.9605 10.4829
# 5 5.9506 11.7977 13.3032 -15.9605 39.4639 -17.2764
# 6 -4.9724 -6.9020 -8.8345 10.4829 -17.2764 37.7590
#
#
#
# Elastic Compliance Matrix: (Units=1/GPa)
#
#
# Indices 1 2 3 4 5 6 
#
# 1 0.014943 -0.000448 -0.003819 0.006508 0.001805 0.000012
# 2 -0.000448 0.010321 -0.003086 0.000834 -0.001573 0.000154
# 3 -0.003819 -0.003086 0.016054 0.003381 -0.002226 0.000732
# 4 0.006508 0.000834 0.003381 0.031972 0.009332 -0.002806
# 5 0.001805 -0.001573 -0.002226 0.009332 0.035861 0.013247
# 6 0.000012 0.000154 0.000732 -0.002806 0.013247 0.033525
#
#
# Mechanical properties :
#
#
# Convention : Reuss Voigt Hill
#
# Bulk Modulus (GPa) = 37.57511 46.68281 42.12896
# Shear Modulus (GPa) = 30.07490 37.64698 33.86094
#
# Velocity S-wave (km/s) = 3.37525 3.77632 3.58140
# Velocity P-wave (km/s) = 5.42430 6.05784 5.74980
#
# Compressibility (1/GPa) = 0.02661336
#
# Stress axis : x y z
#
# Youngs Moduli (GPa) = 66.92128 96.89404 62.28801
#
# Poissons Ratio (x) = 0.04337 0.23788
# Poissons Ratio (y) = 0.02995 0.19220
# Poissons Ratio (z) = 0.25558 0.29898
#
# Static dielectric constant tensor:
#      x y z
#    x 2.086330 -0.011470 0.069250 
#    y -0.011470 2.091340 0.035540 
#    z 0.069250 0.035540 2.094800 
# 
# From -- ./inp_files/118902.got.cif
#   From: 2010.05.17/outbox.cif.g08.bks.cpg/sg2_60_cif.got.tgz:118902.got - 2010.06.03 11:33:40.
