data_PCOD9013743
_publ_section_title
;
Structure prediction by ZEFSAII (Michael W. Deem and Ramdas Pophale) SiO2 
 PCOD9013743
Probable space group: P -1
;
_chemical_formula_sum "Si O2"
_cell_formula_units_Z 16
_cell_length_a 9.773661
_cell_length_b 9.077536
_cell_length_c 17.707620
_cell_angle_alpha 112.633594
_cell_angle_beta 33.337789
_cell_angle_gamma 92.638359
_cell_volume 669.143651
_symmetry_space_group_name_H-M "P -1"
_symmetry_group_IT_number 2
_symmetry_cell_setting 'triclinic'
loop_
_space_group_symop_operation_xyz
x,y,z
-x,-y,-z
loop_
_atom_site_type_symbol
_atom_site_label
_atom_site_fract_x
_atom_site_fract_y
_atom_site_fract_z
Si Si1 0.558518 0.154919 0.576226
Si Si2 0.769483 0.779661 0.487990
Si Si3 0.189547 0.341295 0.014622
Si Si4 0.616026 0.073880 0.892753
Si Si5 0.961349 0.160575 0.489539
Si Si6 0.871255 0.933121 0.109638
Si Si7 0.876645 0.275909 0.906416
Si Si8 0.361626 0.416655 0.598842
O O1 0.230089 0.197262 0.726217
O O2 0.607912 0.217936 0.484695
O O3 0.634206 0.262615 0.625054
O O4 0.761149 0.940935 0.471370
O O5 0.948173 0.730302 0.473546
O O6 0.857755 0.609447 0.357791
O O7 0.421647 0.878391 0.686514
O O8 0.267575 0.498446 0.992235
O O9 0.838316 0.451526 0.214705
O O10 0.347662 0.224403 0.993462
O O11 0.251885 0.191909 0.891066
O O12 0.758912 0.183383 0.885542
O O13 0.833048 0.922393 0.697280
O O14 0.500000 0.000000 0.000000
O O15 0.000000 0.000000 0.500000
O O16 0.128080 0.803155 0.024835
O O17 0.000000 0.000000 0.000000
O O18 0.500000 0.500000 0.500000
#
# Coordination Sequence:
#
# PCOD9013743 Si02
#       8
#     2   2   2   2   2   2   2   2
#     4   9  22  40  67  96 122 180 233 273 319 413
#     4  10  21  41  65  95 128 177 235 271 331 409
#     4  11  24  44  62  98 143 177 225 286 361 410
#     4  12  26  44  71 104 138 182 234 290 351 415
#     4  10  23  41  72  97 133 174 242 277 328 411
#     4  11  21  40  67  97 133 178 231 282 337 413
#     4  10  24  41  66  98 135 182 225 287 347 413
#     4  11  24  40  65  98 138 177 221 286 348 401
#
# _framework density 23.911158
#
# number of rings (size 3 to 8) (size 9 to 14) (size 15 to 20)
#    0.000    1.500    1.250    2.625   12.250    0.000 
#    0.000    0.625    0.000    0.000    0.000    0.000 
#    0.000    0.000    0.000    0.000    0.000    0.000 
#
# Total GULP energy -89296.786291 kJ/mol
# GULP energy per Si atom -5581.049143 kJ/mol
# Density = 2.385673 g / cm^3
# Si number density = 23.911158 Si / 1000 Ang^3
#
#
#
# Elastic Constant Matrix: (Units=GPa)
#
#
# Indices 1 2 3 4 5 6 
#
# 1 183.1324 27.3233 8.3920 7.1994 8.2687 -1.2860
# 2 27.3233 86.4381 16.1884 -18.4207 9.2917 -16.9528
# 3 8.3920 16.1884 61.9805 -9.9449 12.2752 -8.1636
# 4 7.1994 -18.4207 -9.9449 32.3920 -3.8492 14.4499
# 5 8.2687 9.2917 12.2752 -3.8492 30.8513 -4.8789
# 6 -1.2860 -16.9528 -8.1636 14.4499 -4.8789 34.5535
#
#
#
# Elastic Compliance Matrix: (Units=1/GPa)
#
#
# Indices 1 2 3 4 5 6 
#
# 1 0.005991 -0.002306 -0.000457 -0.002939 -0.001086 0.000059
# 2 -0.002306 0.014962 -0.001678 0.006572 -0.001790 0.003857
# 3 -0.000457 -0.001678 0.018581 0.003597 -0.006130 0.001180
# 4 -0.002939 0.006572 0.003597 0.042568 0.000511 -0.013764
# 5 -0.001086 -0.001790 -0.006130 0.000511 0.036146 0.002523
# 6 0.000059 0.003857 0.001180 -0.013764 0.002523 0.037226
#
#
# Mechanical properties :
#
#
# Convention : Reuss Voigt Hill
#
# Bulk Modulus (GPa) = 32.62662 48.37313 40.49988
# Shear Modulus (GPa) = 28.64139 38.20251 33.42195
#
# Velocity S-wave (km/s) = 3.46472 4.00144 3.74271
# Velocity P-wave (km/s) = 5.44796 6.45159 5.97090
#
# Compressibility (1/GPa) = 0.03064982
#
# Stress axis : x y z
#
# Youngs Moduli (GPa) = 166.93063 66.83718 53.81857
#
# Poissons Ratio (x) = 0.15411 0.02462
# Poissons Ratio (y) = 0.38491 0.09033
# Poissons Ratio (z) = 0.07636 0.11218
#
# Static dielectric constant tensor:
#      x y z
#    x 1.948520 0.036760 -0.005120 
#    y 0.036760 1.947030 -0.003550 
#    z -0.005120 -0.003550 2.022420 
# 
# From -- ./inp_files/416711.got.cif
#   From: 2010.05.17/outbox.cif.g08.bks.cpg/sg2_209_cif.got.tgz:416711.got - 2010.06.03 11:33:40.
