data_PCOD9013962
_publ_section_title
;
Structure prediction by ZEFSAII (Michael W. Deem and Ramdas Pophale) SiO2 
 PCOD9013962
Probable space group: P -1
;
_chemical_formula_sum "Si O2"
_cell_formula_units_Z 16
_cell_length_a 15.201137
_cell_length_b 13.332634
_cell_length_c 9.737316
_cell_angle_alpha 148.025825
_cell_angle_beta 132.499076
_cell_angle_gamma 49.831236
_cell_volume 757.286970
_symmetry_space_group_name_H-M "P -1"
_symmetry_group_IT_number 2
_symmetry_cell_setting 'triclinic'
loop_
_space_group_symop_operation_xyz
x,y,z
-x,-y,-z
loop_
_atom_site_type_symbol
_atom_site_label
_atom_site_fract_x
_atom_site_fract_y
_atom_site_fract_z
Si Si1 0.478136 0.678897 0.080647
Si Si2 0.069538 0.099405 0.304883
Si Si3 0.084725 0.441814 0.888182
Si Si4 0.656994 0.675143 0.856037
Si Si5 0.260644 0.130830 0.095528
Si Si6 0.672309 0.904652 0.558363
Si Si7 0.399282 0.721500 0.744597
Si Si8 0.982002 0.143425 0.777851
O O1 0.605094 0.738063 0.241113
O O2 0.404637 0.880648 0.299521
O O3 0.500000 0.500000 0.000000
O O4 0.411731 0.654264 0.838861
O O5 0.023414 0.314770 0.567585
O O6 0.198800 0.105165 0.383633
O O7 0.070428 0.965703 0.282427
O O8 0.000000 0.000000 0.000000
O O9 0.216083 0.320310 0.928373
O O10 0.000000 0.500000 0.000000
O O11 0.099882 0.648726 0.088686
O O12 0.679418 0.748071 0.811344
O O13 0.527152 0.778867 0.899402
O O14 0.636282 0.455365 0.579645
O O15 0.312571 0.133773 0.307061
O O16 0.115545 0.185549 0.004857
O O17 0.296029 0.906837 0.832243
O O18 0.000000 0.000000 0.500000
#
# Coordination Sequence:
#
# PCOD9013962 Si02
#       8
#     2   2   2   2   2   2   2   2
#     4  10  21  41  66  92 131 175 220 276 346 410
#     4  12  26  45  67 101 141 177 233 291 337 405
#     4  12  25  43  70  98 135 184 229 282 342 414
#     4  11  22  40  62  97 129 166 226 277 330 407
#     4  11  21  40  63  89 129 173 220 273 337 400
#     4  10  23  41  63  96 131 174 224 280 341 407
#     4  10  23  37  64  94 126 168 218 280 336 398
#     4  12  24  43  69  99 133 187 229 279 346 407
#
# _framework density 21.128053000000001
#
# number of rings (size 3 to 8) (size 9 to 14) (size 15 to 20)
#    0.000    1.000    3.750    2.625    0.000    2.500 
#    2.250    5.000    0.000    0.000    0.000    0.000 
#    0.000    0.000    0.000    0.000    0.000    0.000 
#
# Total GULP energy -89349.079863 kJ/mol
# GULP energy per Si atom -5584.317491 kJ/mol
# Density = 2.107996 g / cm^3
# Si number density = 21.128053 Si / 1000 Ang^3
#
#
#
# Elastic Constant Matrix: (Units=GPa)
#
#
# Indices 1 2 3 4 5 6 
#
# 1 95.7449 35.2102 11.5100 1.9491 4.0760 15.6886
# 2 35.2102 95.8940 18.5220 7.1126 1.9284 16.5692
# 3 11.5100 18.5220 100.3673 2.3189 -0.5498 6.8133
# 4 1.9491 7.1126 2.3189 24.6656 -1.1196 6.4098
# 5 4.0760 1.9284 -0.5498 -1.1196 26.4107 -1.1074
# 6 15.6886 16.5692 6.8133 6.4098 -1.1074 34.0727
#
#
#
# Elastic Compliance Matrix: (Units=1/GPa)
#
#
# Indices 1 2 3 4 5 6 
#
# 1 0.012663 -0.003893 -0.000491 0.001156 -0.001804 -0.004115
# 2 -0.003893 0.013017 -0.001648 -0.002335 -0.000642 -0.003789
# 3 -0.000491 -0.001648 0.010398 -0.000186 0.000363 -0.001005
# 4 0.001156 -0.002335 -0.000186 0.043140 0.001506 -0.007426
# 5 -0.001804 -0.000642 0.000363 0.001506 0.038345 0.002033
# 6 -0.004115 -0.003789 -0.001005 -0.007426 0.002033 0.034751
#
#
# Mechanical properties :
#
#
# Convention : Reuss Voigt Hill
#
# Bulk Modulus (GPa) = 41.64264 46.94339 44.29301
# Shear Modulus (GPa) = 29.00528 32.14739 30.57634
#
# Velocity S-wave (km/s) = 3.70920 3.90494 3.80832
# Velocity P-wave (km/s) = 6.17224 6.52672 6.35196
#
# Compressibility (1/GPa) = 0.02401385
#
# Stress axis : x y z
#
# Youngs Moduli (GPa) = 78.97226 76.82363 96.16920
#
# Poissons Ratio (x) = 0.29908 0.04721
# Poissons Ratio (y) = 0.30744 0.15849
# Poissons Ratio (z) = 0.03877 0.12661
#
# Static dielectric constant tensor:
#      x y z
#    x 1.750560 -0.014350 -0.022490 
#    y -0.014350 1.756520 -0.011040 
#    z -0.022490 -0.011040 1.811210 
# 
# From -- ./inp_files/308884.got.cif
#   From: 2010.05.17/outbox.cif.g08.bks.cpg/sg2_155_cif.got.tgz:308884.got - 2010.06.03 11:33:40.
