data_PCOD9013157
_publ_section_title
;
Structure prediction by ZEFSAII (Michael W. Deem and Ramdas Pophale) SiO2 
 PCOD9013157
Probable space group: P -1
;
_chemical_formula_sum "Si O2"
_cell_formula_units_Z 16
_cell_length_a 5.123802
_cell_length_b 14.064397
_cell_length_c 15.845493
_cell_angle_alpha 136.736798
_cell_angle_beta 90.949667
_cell_angle_gamma 111.882215
_cell_volume 647.484723
_symmetry_space_group_name_H-M "P -1"
_symmetry_group_IT_number 2
_symmetry_cell_setting 'triclinic'
loop_
_space_group_symop_operation_xyz
x,y,z
-x,-y,-z
loop_
_atom_site_type_symbol
_atom_site_label
_atom_site_fract_x
_atom_site_fract_y
_atom_site_fract_z
Si Si1 0.301952 0.027723 0.630114
Si Si2 0.710508 0.266937 0.309594
Si Si3 0.991933 0.198960 0.680640
Si Si4 0.712371 0.417113 0.568724
Si Si5 0.970984 0.504571 0.207859
Si Si6 0.390267 0.313031 0.207063
Si Si7 0.934167 0.194363 0.987274
Si Si8 0.206746 0.987593 0.795321
O O1 0.665697 0.095483 0.663969
O O2 0.187112 0.956415 0.675693
O O3 0.250136 0.176192 0.708402
O O4 0.094440 0.889569 0.468964
O O5 0.577644 0.274077 0.404995
O O6 0.435125 0.195887 0.193081
O O7 0.949941 0.446468 0.383443
O O8 0.906746 0.185597 0.270810
O O9 0.070769 0.381717 0.782096
O O10 0.550907 0.518768 0.641266
O O11 0.776353 0.386106 0.644727
O O12 0.644002 0.380756 0.176129
O O13 0.063299 0.386704 0.089048
O O14 0.047318 0.217970 0.100454
O O15 0.569450 0.091139 0.895330
O O16 0.073024 0.098822 0.884072
#
# Coordination Sequence:
#
# PCOD9013157 Si02
#       8
#     2   2   2   2   2   2   2   2
#     4  10  23  43  64 103 127 156 206 265 312 394
#     4  10  22  38  63  95 128 169 204 265 325 371
#     4  10  22  42  72  95 127 159 205 259 332 372
#     4   9  20  39  62  99 129 154 218 261 316 389
#     4  10  21  42  67  92 124 174 207 265 313 368
#     4  10  21  41  63  93 127 166 219 261 300 379
#     4  11  25  43  63  90 130 170 224 253 297 378
#     4  12  25  44  64  90 134 171 207 262 315 364
#
# _framework density 24.711008
#
# number of rings (size 3 to 8) (size 9 to 14) (size 15 to 20)
#    0.000    1.750    1.250    1.875    5.250    1.000 
#    4.500    3.750    0.000    0.000    0.000    0.000 
#    0.000    0.000    0.000    0.000    0.000    0.000 
#
# Total GULP energy -89466.117452 kJ/mol
# GULP energy per Si atom -5591.632341 kJ/mol
# Density = 2.465476 g / cm^3
# Si number density = 24.711008 Si / 1000 Ang^3
#
#
#
# Elastic Constant Matrix: (Units=GPa)
#
#
# Indices 1 2 3 4 5 6 
#
# 1 111.6989 4.8137 14.7773 3.6775 -21.1492 -26.9937
# 2 4.8137 72.0979 -2.4302 5.4655 -8.0540 -23.5319
# 3 14.7773 -2.4302 17.5180 13.9878 -17.9253 0.0296
# 4 3.6775 5.4655 13.9878 13.1879 -1.8546 -14.2973
# 5 -21.1492 -8.0540 -17.9253 -1.8546 33.6172 8.9372
# 6 -26.9937 -23.5319 0.0296 -14.2973 8.9372 31.8051
#
#
#
# Elastic Compliance Matrix: (Units=1/GPa)
#
#
# Indices 1 2 3 4 5 6 
#
# 1 0.010912 0.002919 0.010346 -0.009248 0.011502 0.004023
# 2 0.002919 0.019545 0.008346 -0.001114 0.007068 0.014444
# 3 0.010346 0.008346 -0.024255 0.074037 -0.014234 0.052260
# 4 -0.009248 -0.001114 0.074037 -0.030858 0.040746 -0.034062
# 5 0.011502 0.007068 -0.014234 0.040746 0.026452 0.025888
# 6 0.004023 0.014444 0.052260 -0.034062 0.025888 0.022907
#
#
# Mechanical properties :
#
#
# Convention : Reuss Voigt Hill
#
# Bulk Modulus (GPa) = 20.23320 26.18182 23.20751
# Shear Modulus (GPa) = -2445.79080 27.99898 -1208.89591
#
# Velocity S-wave (km/s) = -31.49454 3.36974 -22.14217
# Velocity P-wave (km/s) = 36.25377 5.07528 25.38284
#
# Compressibility (1/GPa) = 0.04942373
#
# Stress axis : x y z
#
# Youngs Moduli (GPa) = 91.63826 51.16494 -41.22807
#
# Poissons Ratio (x) = -0.14935 0.42654
# Poissons Ratio (y) = -0.26749 0.34409
# Poissons Ratio (z) = -0.94808 -0.42703
#
# Static dielectric constant tensor:
#      x y z
#    x 2.033010 0.014430 0.056120 
#    y 0.014430 1.963400 0.045680 
#    z 0.056120 0.045680 2.067410 
# 
# From -- ./inp_files/442184.got.cif
#   From: 2010.05.17/outbox.cif.g08.bks.cpg/sg2_222_cif.got.tgz:442184.got - 2010.06.03 11:33:40.
