data_PCOD9013031
_publ_section_title
;
Structure prediction by ZEFSAII (Michael W. Deem and Ramdas Pophale) SiO2 
 PCOD9013031
Probable space group: P -1
;
_chemical_formula_sum "Si O2"
_cell_formula_units_Z 16
_cell_length_a 12.053783
_cell_length_b 9.291915
_cell_length_c 15.121840
_cell_angle_alpha 111.593994
_cell_angle_beta 37.541368
_cell_angle_gamma 132.902457
_cell_volume 697.762329
_symmetry_space_group_name_H-M "P -1"
_symmetry_group_IT_number 2
_symmetry_cell_setting 'triclinic'
loop_
_space_group_symop_operation_xyz
x,y,z
-x,-y,-z
loop_
_atom_site_type_symbol
_atom_site_label
_atom_site_fract_x
_atom_site_fract_y
_atom_site_fract_z
Si Si1 0.709131 0.930932 0.324061
Si Si2 0.409949 0.503836 0.321673
Si Si3 0.477438 0.576516 0.938543
Si Si4 0.015286 0.933441 0.265062
Si Si5 0.753776 0.239703 0.865426
Si Si6 0.512305 0.640966 0.599062
Si Si7 0.875507 0.291801 0.592739
Si Si8 0.557909 0.083896 0.341416
O O1 0.479235 0.700060 0.375384
O O2 0.619878 0.975724 0.475826
O O3 0.911223 0.929241 0.234149
O O4 0.764161 0.085735 0.247677
O O5 0.532301 0.558711 0.161503
O O6 0.519947 0.437888 0.300791
O O7 0.112816 0.316690 0.457112
O O8 0.734660 0.824362 0.822226
O O9 0.500000 0.500000 0.000000
O O10 0.274508 0.594903 0.057006
O O11 0.052162 0.770548 0.217140
O O12 0.802970 0.857777 0.452178
O O13 0.799487 0.276680 0.739050
O O14 0.500000 0.000000 0.000000
O O15 0.500000 0.500000 0.500000
O O16 0.346541 0.693349 0.697476
O O17 0.000000 0.500000 0.500000
O O18 0.624827 0.091792 0.656605
#
# Coordination Sequence:
#
# PCOD9013031 Si02
#       8
#     2   2   2   2   2   2   2   2
#     4  10  21  41  62  99 139 166 218 285 344 393
#     4  12  22  39  70 100 132 171 228 283 334 396
#     4  11  26  46  64  96 138 181 228 281 340 406
#     4  10  21  44  68  91 132 180 220 273 344 398
#     4  10  24  43  64  93 140 181 216 276 346 405
#     4  11  21  38  65 106 137 165 215 290 337 397
#     4  12  23  39  72 106 127 173 241 285 331 399
#     4  10  22  36  62  99 138 167 210 284 346 385
#
# _framework density 22.930444999999999
#
# number of rings (size 3 to 8) (size 9 to 14) (size 15 to 20)
#    0.000    1.250    5.000    2.250    3.500    1.000 
#    2.250    1.250    0.000    0.000    0.000    0.000 
#    0.000    0.000    0.000    0.000    0.000    0.000 
#
# Total GULP energy -89185.359391 kJ/mol
# GULP energy per Si atom -5574.084962 kJ/mol
# Density = 2.287825 g / cm^3
# Si number density = 22.930445 Si / 1000 Ang^3
#
#
#
# Elastic Constant Matrix: (Units=GPa)
#
#
# Indices 1 2 3 4 5 6 
#
# 1 149.2211 23.5134 17.6706 9.6456 6.2475 -20.2961
# 2 23.5134 67.1902 7.9770 -8.9445 1.0909 2.7691
# 3 17.6706 7.9770 58.5826 5.1897 13.5704 3.9091
# 4 9.6456 -8.9445 5.1897 23.2639 -5.0065 6.0749
# 5 6.2475 1.0909 13.5704 -5.0065 33.7928 0.0357
# 6 -20.2961 2.7691 3.9091 6.0749 0.0357 42.4261
#
#
#
# Elastic Compliance Matrix: (Units=1/GPa)
#
#
# Indices 1 2 3 4 5 6 
#
# 1 0.008769 -0.003990 -0.001433 -0.006712 -0.001917 0.005550
# 2 -0.003990 0.018189 -0.002608 0.010996 0.002831 -0.004432
# 3 -0.001433 -0.002608 0.020592 -0.006530 -0.008886 -0.001470
# 4 -0.006712 0.010996 -0.006530 0.057032 0.011970 -0.011503
# 5 -0.001917 0.002831 -0.008886 0.011970 0.035199 -0.002027
# 6 0.005550 -0.004432 -0.001470 -0.011503 -0.002027 0.028299
#
#
# Mechanical properties :
#
#
# Convention : Reuss Voigt Hill
#
# Bulk Modulus (GPa) = 31.75672 41.47955 36.61813
# Shear Modulus (GPa) = 25.68864 34.95209 30.32036
#
# Velocity S-wave (km/s) = 3.35070 3.90842 3.64026
# Velocity P-wave (km/s) = 5.37111 6.20453 5.80280
#
# Compressibility (1/GPa) = 0.03148940
#
# Stress axis : x y z
#
# Youngs Moduli (GPa) = 114.04006 54.97716 48.56150
#
# Poissons Ratio (x) = 0.21934 0.06961
# Poissons Ratio (y) = 0.45497 0.12663
# Poissons Ratio (z) = 0.16347 0.14336
#
# Static dielectric constant tensor:
#      x y z
#    x 1.965830 -0.032330 -0.047810 
#    y -0.032330 1.938160 -0.007010 
#    z -0.047810 -0.007010 1.855990 
# 
# From -- ./inp_files/515862.got.cif
#   From: 2010.05.17/outbox.cif.g08.bks.cpg/sg2_258_cif.got.tgz:515862.got - 2010.06.03 11:33:40.
