data_PCOD9013851
_publ_section_title
;
Structure prediction by ZEFSAII (Michael W. Deem and Ramdas Pophale) SiO2 
 PCOD9013851
Probable space group: P -1
;
_chemical_formula_sum "Si O2"
_cell_formula_units_Z 12
_cell_length_a 9.439186
_cell_length_b 9.049394
_cell_length_c 10.610864
_cell_angle_alpha 87.374652
_cell_angle_beta 140.460394
_cell_angle_gamma 83.155330
_cell_volume 559.129395
_symmetry_space_group_name_H-M "P -1"
_symmetry_group_IT_number 2
_symmetry_cell_setting 'triclinic'
loop_
_space_group_symop_operation_xyz
x,y,z
-x,-y,-z
loop_
_atom_site_type_symbol
_atom_site_label
_atom_site_fract_x
_atom_site_fract_y
_atom_site_fract_z
Si Si1 0.710542 0.641666 0.774252
Si Si2 0.627842 0.129786 0.621885
Si Si3 0.838127 0.406383 0.067696
Si Si4 0.884102 0.840011 0.103598
Si Si5 0.592515 0.160106 0.892066
Si Si6 0.155627 0.384623 0.709541
O O1 0.480049 0.728936 0.547514
O O2 0.903405 0.601593 0.799545
O O3 0.693762 0.493435 0.846971
O O4 0.801813 0.748459 0.934868
O O5 0.570518 0.163729 0.726421
O O6 0.900959 0.095530 0.794162
O O7 0.500000 0.000000 0.500000
O O8 0.794277 0.241978 0.062131
O O9 0.231647 0.493368 0.860606
O O10 0.955077 0.724546 0.273537
O O11 0.675142 0.982428 0.990967
O O12 0.365423 0.266950 0.791423
O O13 0.000000 0.500000 0.500000
#
# Coordination Sequence:
#
# PCOD9013851 Si02
#       6
#     2   2   2   2   2   2
#     4  10  21  41  66 101 131 172 218 276 325 390
#     4  12  23  39  72 101 130 167 228 270 328 392
#     4  10  22  41  66  95 139 171 217 272 333 386
#     4  11  24  45  68  98 136 172 221 277 333 383
#     4  12  23  43  69  97 136 175 216 277 333 388
#     4  11  26  45  65  97 135 180 225 264 329 405
#
# _framework density 21.461933999999999
#
# number of rings (size 3 to 8) (size 9 to 14) (size 15 to 20)
#    0.000    1.000    3.333    3.500    2.333    0.667 
#    0.000    1.667    0.000    0.000    0.000    0.000 
#    0.000    0.000    0.000    0.000    0.000    0.000 
#
# Total GULP energy -67062.218119 kJ/mol
# GULP energy per Si atom -5588.518177 kJ/mol
# Density = 2.141309 g / cm^3
# Si number density = 21.461934 Si / 1000 Ang^3
#
#
#
# Elastic Constant Matrix: (Units=GPa)
#
#
# Indices 1 2 3 4 5 6 
#
# 1 123.0698 38.8458 37.3443 1.1486 -1.0017 -24.7373
# 2 38.8458 105.4043 16.2388 -8.8310 2.1455 -15.5372
# 3 37.3443 16.2388 75.4236 -28.6271 -6.9056 -2.8889
# 4 1.1486 -8.8310 -28.6271 41.9539 0.2208 -1.0838
# 5 -1.0017 2.1455 -6.9056 0.2208 17.2796 -9.5316
# 6 -24.7373 -15.5372 -2.8889 -1.0838 -9.5316 37.4194
#
#
#
# Elastic Compliance Matrix: (Units=1/GPa)
#
#
# Indices 1 2 3 4 5 6 
#
# 1 0.012855 -0.003092 -0.007502 -0.005952 0.002062 0.006988
# 2 -0.003092 0.011214 0.000233 0.002674 -0.000022 0.002702
# 3 -0.007502 0.000233 0.024006 0.016581 0.008753 -0.000299
# 4 -0.005952 0.002674 0.016581 0.035870 0.006064 0.001039
# 5 0.002062 -0.000022 0.008753 0.006064 0.072869 0.020767
# 6 0.006988 0.002702 -0.000299 0.001039 0.020767 0.037762
#
#
# Mechanical properties :
#
#
# Convention : Reuss Voigt Hill
#
# Bulk Modulus (GPa) = 36.55961 54.30617 45.43289
# Shear Modulus (GPa) = 22.28016 33.42849 27.85433
#
# Velocity S-wave (km/s) = 3.22549 3.95089 3.60647
# Velocity P-wave (km/s) = 5.56267 6.79493 6.20945
#
# Compressibility (1/GPa) = 0.02735259
#
# Stress axis : x y z
#
# Youngs Moduli (GPa) = 77.79272 89.17623 41.65689
#
# Poissons Ratio (x) = 0.27577 0.31249
# Poissons Ratio (y) = 0.24056 -0.00971
# Poissons Ratio (z) = 0.58356 -0.02079
#
# Static dielectric constant tensor:
#      x y z
#    x 1.764930 0.010410 0.014700 
#    y 0.010410 1.807250 -0.019290 
#    z 0.014700 -0.019290 1.786280 
# 
# From -- ./inp_files/374164.got.cif
#   From: 2010.05.17/outbox.cif.g08.bks.cpg/sg2_188_cif.got.tgz:374164.got - 2010.06.03 11:33:40.
