data_PCOD9013005
_publ_section_title
;
Structure prediction by ZEFSAII (Michael W. Deem and Ramdas Pophale) SiO2 
 PCOD9013005
Probable space group: P -1
;
_chemical_formula_sum "Si O2"
_cell_formula_units_Z 16
_cell_length_a 5.781765
_cell_length_b 8.179666
_cell_length_c 13.806622
_cell_angle_alpha 101.526777
_cell_angle_beta 87.185707
_cell_angle_gamma 72.707156
_cell_volume 606.744488
_symmetry_space_group_name_H-M "P -1"
_symmetry_group_IT_number 2
_symmetry_cell_setting 'triclinic'
loop_
_space_group_symop_operation_xyz
x,y,z
-x,-y,-z
loop_
_atom_site_type_symbol
_atom_site_label
_atom_site_fract_x
_atom_site_fract_y
_atom_site_fract_z
Si Si1 0.978608 0.095555 0.358224
Si Si2 0.417912 0.729978 0.130220
Si Si3 0.632599 0.138331 0.550748
Si Si4 0.217105 0.053138 0.054908
Si Si5 0.861615 0.566734 0.610442
Si Si6 0.392363 0.720392 0.737305
Si Si7 0.243469 0.389006 0.714008
Si Si8 0.689525 0.620044 0.907937
O O1 0.810842 0.155950 0.464628
O O2 0.092410 0.248017 0.351006
O O3 0.787469 0.098816 0.277999
O O4 0.193910 0.929491 0.368043
O O5 0.629023 0.710333 0.204229
O O6 0.271130 0.587789 0.135370
O O7 0.262751 0.932955 0.137407
O O8 0.549447 0.662478 0.017296
O O9 0.419034 0.302065 0.611204
O O10 0.500000 0.000000 0.500000
O O11 0.122508 0.267394 0.077149
O O12 0.500000 0.000000 0.000000
O O13 0.000000 0.000000 0.000000
O O14 0.978234 0.425268 0.675822
O O15 0.000000 0.500000 0.500000
O O16 0.573201 0.625226 0.635238
O O17 0.255063 0.583358 0.751257
O O18 0.540512 0.722561 0.830380
#
# Coordination Sequence:
#
# PCOD9013005 Si02
#       8
#     2   2   2   2   2   2   2   2
#     4  10  22  37  59  88 123 164 212 268 332 395
#     4   9  20  43  66  97 134 177 229 286 348 415
#     4  11  22  38  59  90 128 170 214 271 342 403
#     4  10  22  44  67 102 135 182 235 287 356 421
#     4  11  21  38  62  88 124 165 212 273 328 401
#     4  10  21  41  62  95 121 169 226 269 338 405
#     4  10  22  40  61  92 128 166 225 270 336 408
#     4   9  20  43  68  95 134 176 226 286 346 417
#
# _framework density 26.370244
#
# number of rings (size 3 to 8) (size 9 to 14) (size 15 to 20)
#    0.000    2.000    0.000    3.000    0.000    5.500 
#   29.250    0.000    0.000    0.000    0.000    0.000 
#    0.000    0.000    0.000    0.000    0.000    0.000 
#
# Total GULP energy -89274.015704 kJ/mol
# GULP energy per Si atom -5579.625981 kJ/mol
# Density = 2.631022 g / cm^3
# Si number density = 26.370244 Si / 1000 Ang^3
#
#
#
# Elastic Constant Matrix: (Units=GPa)
#
#
# Indices 1 2 3 4 5 6 
#
# 1 103.9128 58.5837 35.6405 -4.8687 -6.9912 -9.4378
# 2 58.5837 118.8709 20.0022 -22.6802 4.9692 21.6978
# 3 35.6405 20.0022 95.5287 -23.7891 -10.7097 -5.4881
# 4 -4.8687 -22.6802 -23.7891 55.1165 -15.9792 12.8344
# 5 -6.9912 4.9692 -10.7097 -15.9792 49.7664 7.2870
# 6 -9.4378 21.6978 -5.4881 12.8344 7.2870 57.3721
#
#
#
# Elastic Compliance Matrix: (Units=1/GPa)
#
#
# Indices 1 2 3 4 5 6 
#
# 1 0.018214 -0.010954 -0.006164 -0.007972 -0.001482 0.008521
# 2 -0.010954 0.017191 0.002717 0.010407 0.002231 -0.010655
# 3 -0.006164 0.002717 0.014994 0.009482 0.005638 -0.003444
# 4 -0.007972 0.010407 0.009482 0.032416 0.012214 -0.013143
# 5 -0.001482 0.002231 0.005638 0.012214 0.025757 -0.006552
# 6 0.008521 -0.010655 -0.003444 -0.013143 -0.006552 0.026304
#
#
# Mechanical properties :
#
#
# Convention : Reuss Voigt Hill
#
# Bulk Modulus (GPa) = 46.30138 60.75168 53.52653
# Shear Modulus (GPa) = 29.26088 46.05672 37.65880
#
# Velocity S-wave (km/s) = 3.33471 4.18370 3.78309
# Velocity P-wave (km/s) = 5.69415 6.81364 6.27890
#
# Compressibility (1/GPa) = 0.02159763
#
# Stress axis : x y z
#
# Youngs Moduli (GPa) = 54.90401 58.17031 66.69195
#
# Poissons Ratio (x) = 0.63718 0.41107
# Poissons Ratio (y) = 0.60140 -0.18118
# Poissons Ratio (z) = 0.33841 -0.15803
#
# Static dielectric constant tensor:
#      x y z
#    x 2.152680 -0.041960 0.087890 
#    y -0.041960 2.134550 -0.024050 
#    z 0.087890 -0.024050 2.169120 
# 
# From -- ./inp_files/480652.got.cif
#   From: 2010.05.17/outbox.cif.g08.bks.cpg/sg2_241_cif.got.tgz:480652.got - 2010.06.03 11:33:40.
