data_PCOD9013202
_publ_section_title
;
Structure prediction by ZEFSAII (Michael W. Deem and Ramdas Pophale) SiO2 
 PCOD9013202
Probable space group: P -1
;
_chemical_formula_sum "Si O2"
_cell_formula_units_Z 16
_cell_length_a 8.218421
_cell_length_b 17.101016
_cell_length_c 10.684104
_cell_angle_alpha 56.422575
_cell_angle_beta 41.520123
_cell_angle_gamma 84.080014
_cell_volume 685.344853
_symmetry_space_group_name_H-M "P -1"
_symmetry_group_IT_number 2
_symmetry_cell_setting 'triclinic'
loop_
_space_group_symop_operation_xyz
x,y,z
-x,-y,-z
loop_
_atom_site_type_symbol
_atom_site_label
_atom_site_fract_x
_atom_site_fract_y
_atom_site_fract_z
Si Si1 0.133148 0.910243 0.602900
Si Si2 0.496887 0.144483 0.056931
Si Si3 0.721981 0.246594 0.472611
Si Si4 0.308964 0.439388 0.039730
Si Si5 0.753042 0.381953 0.809842
Si Si6 0.016096 0.879119 0.238089
Si Si7 0.365941 0.654706 0.803810
Si Si8 0.035857 0.101695 0.040675
O O1 0.224835 0.850745 0.504024
O O2 0.789074 0.866369 0.827155
O O3 0.148891 0.882530 0.762855
O O4 0.337680 0.043417 0.339228
O O5 0.712827 0.270035 0.877142
O O6 0.705516 0.121519 0.873740
O O7 0.764006 0.305198 0.261239
O O8 0.964493 0.342707 0.339834
O O9 0.388605 0.194984 0.752360
O O10 0.500000 0.500000 0.000000
O O11 0.452575 0.376133 0.959475
O O12 0.352990 0.547029 0.848817
O O13 0.000000 0.500000 0.500000
O O14 0.792643 0.382099 0.937132
O O15 0.704401 0.759795 0.544019
O O16 0.997249 0.982624 0.199218
O O17 0.061451 0.898470 0.044490
#
# Coordination Sequence:
#
# PCOD9013202 Si02
#       8
#     2   2   2   2   2   2   2   2
#     4  11  24  40  64  98 135 175 212 271 329 385
#     4  11  23  41  62  96 135 170 220 268 317 395
#     4  11  22  45  65  98 137 163 225 270 329 400
#     4  10  22  43  65  88 127 172 218 270 326 387
#     4  11  23  40  62  95 129 167 223 268 323 389
#     4  10  21  41  63  95 131 168 223 257 323 399
#     4  10  23  40  68  94 124 179 212 275 332 379
#     4  10  23  40  65  96 132 175 206 269 328 382
#
# _framework density 23.345911999999998
#
# number of rings (size 3 to 8) (size 9 to 14) (size 15 to 20)
#    0.000    1.500    2.500    1.875    1.750    5.000 
#    0.000    0.625    0.000    0.000    0.000    0.000 
#    0.000    0.000    0.000    0.000    0.000    0.000 
#
# Total GULP energy -89437.549832 kJ/mol
# GULP energy per Si atom -5589.846864 kJ/mol
# Density = 2.329278 g / cm^3
# Si number density = 23.345912 Si / 1000 Ang^3
#
#
#
# Elastic Constant Matrix: (Units=GPa)
#
#
# Indices 1 2 3 4 5 6 
#
# 1 56.5970 15.1573 31.0126 -0.3065 -1.8273 0.8587
# 2 15.1573 80.6719 27.6829 -21.4544 12.0118 3.4649
# 3 31.0126 27.6829 75.6140 -21.9826 17.3612 19.6590
# 4 -0.3065 -21.4544 -21.9826 38.9894 3.7262 3.6444
# 5 -1.8273 12.0118 17.3612 3.7262 42.2452 1.6372
# 6 0.8587 3.4649 19.6590 3.6444 1.6372 32.4121
#
#
#
# Elastic Compliance Matrix: (Units=1/GPa)
#
#
# Indices 1 2 3 4 5 6 
#
# 1 0.032687 -0.005761 -0.024392 -0.019518 0.014177 0.016023
# 2 -0.005761 0.017006 0.002022 0.011459 -0.006778 -0.003838
# 3 -0.024392 0.002022 0.043366 0.030014 -0.021007 -0.028187
# 4 -0.019518 0.011459 0.030014 0.052879 -0.020177 -0.023839
# 5 0.014177 -0.006778 -0.021007 -0.020177 0.036100 0.013536
# 6 0.016023 -0.003838 -0.028187 -0.023839 0.013536 0.049931
#
#
# Mechanical properties :
#
#
# Convention : Reuss Voigt Hill
#
# Bulk Modulus (GPa) = 27.17659 40.06541 33.62100
# Shear Modulus (GPa) = 16.63915 31.99799 24.31857
#
# Velocity S-wave (km/s) = 2.67258 3.70618 3.23098
# Velocity P-wave (km/s) = 4.60323 5.95930 5.32461
#
# Compressibility (1/GPa) = 0.03679638
#
# Stress axis : x y z
#
# Youngs Moduli (GPa) = 30.59367 58.80314 23.05945
#
# Poissons Ratio (x) = 0.33877 0.56247
# Poissons Ratio (y) = 0.17625 -0.04663
# Poissons Ratio (z) = 0.74625 -0.11892
#
# Static dielectric constant tensor:
#      x y z
#    x 1.964420 -0.013950 -0.000030 
#    y -0.013950 1.917970 0.006600 
#    z -0.000030 0.006600 1.860770 
# 
# From -- ./inp_files/272261.got.cif
#   From: 2010.05.17/outbox.cif.g08.bks.cpg/sg2_137_cif.got.tgz:272261.got - 2010.06.03 11:33:40.
