data_PCOD9013371
_publ_section_title
;
Structure prediction by ZEFSAII (Michael W. Deem and Ramdas Pophale) SiO2 
 PCOD9013371
Probable space group: P -1
;
_chemical_formula_sum "Si O2"
_cell_formula_units_Z 14
_cell_length_a 18.819046
_cell_length_b 13.460494
_cell_length_c 8.446783
_cell_angle_alpha 49.252077
_cell_angle_beta 40.434017
_cell_angle_gamma 27.334251
_cell_volume 635.247737
_symmetry_space_group_name_H-M "P -1"
_symmetry_group_IT_number 2
_symmetry_cell_setting 'triclinic'
loop_
_space_group_symop_operation_xyz
x,y,z
-x,-y,-z
loop_
_atom_site_type_symbol
_atom_site_label
_atom_site_fract_x
_atom_site_fract_y
_atom_site_fract_z
Si Si1 0.154073 0.391734 0.168417
Si Si2 0.222027 0.138457 0.572164
Si Si3 0.165755 0.908716 0.903148
Si Si4 0.146598 0.970987 0.244253
Si Si5 0.972838 0.389978 0.254601
Si Si6 0.612581 0.690430 0.414193
Si Si7 0.467775 0.527724 0.336689
O O1 0.247501 0.249075 0.316091
O O2 0.976212 0.650955 0.230651
O O3 0.066781 0.338207 0.311056
O O4 0.294739 0.320711 0.880243
O O5 0.209492 0.007279 0.644906
O O6 0.416136 0.933320 0.543298
O O7 0.330904 0.650038 0.886629
O O8 0.154123 0.959369 0.053941
O O9 0.000000 0.000000 0.000000
O O10 0.328005 0.760692 0.251536
O O11 0.000000 0.000000 0.500000
O O12 0.073591 0.178113 0.215020
O O13 0.760648 0.560727 0.436462
O O14 0.000000 0.500000 0.000000
O O15 0.595957 0.556168 0.524687
O O16 0.500000 0.500000 0.500000
#
# Coordination Sequence:
#
# PCOD9013371 Si02
#       7
#     2   2   2   2   2   2   2
#     4  10  22  41  64  96 130 179 221 278 336 409
#     4  10  23  40  65  93 134 171 227 275 339 400
#     4  11  25  42  66  98 137 175 228 287 337 407
#     4  12  24  43  70  95 136 182 222 288 339 403
#     4  10  22  40  67  94 131 171 221 269 347 393
#     4  10  21  41  64  92 133 168 221 282 328 407
#     4  11  25  42  68 101 131 181 230 276 349 408
#
# _framework density 22.038646
#
# number of rings (size 3 to 8) (size 9 to 14) (size 15 to 20)
#    0.000    1.429    1.429    3.429    8.000    0.571 
#    0.000    1.429    0.000    0.000    0.000    0.000 
#    0.000    0.000    0.000    0.000    0.000    0.000 
#
# Total GULP energy -78062.632985 kJ/mol
# GULP energy per Si atom -5575.902356 kJ/mol
# Density = 2.198849 g / cm^3
# Si number density = 22.038646 Si / 1000 Ang^3
#
#
#
# Elastic Constant Matrix: (Units=GPa)
#
#
# Indices 1 2 3 4 5 6 
#
# 1 85.4197 52.2136 -5.6421 -1.5893 -21.3506 -11.9840
# 2 52.2136 183.2698 25.3690 0.6377 -11.6508 -16.5368
# 3 -5.6421 25.3690 41.9509 -4.2855 -11.0853 -14.6051
# 4 -1.5893 0.6377 -4.2855 32.8256 -7.9724 -2.7361
# 5 -21.3506 -11.6508 -11.0853 -7.9724 32.5333 5.4635
# 6 -11.9840 -16.5368 -14.6051 -2.7361 5.4635 36.7055
#
#
#
# Elastic Compliance Matrix: (Units=1/GPa)
#
#
# Indices 1 2 3 4 5 6 
#
# 1 0.023043 -0.006846 0.016125 0.008651 0.018824 0.008698
# 2 -0.006846 0.008082 -0.007743 -0.002742 -0.004710 -0.001178
# 3 0.016125 -0.007743 0.044161 0.013787 0.023398 0.016893
# 4 0.008651 -0.002742 0.013787 0.037563 0.017374 0.007289
# 5 0.018824 -0.004710 0.023398 0.017374 0.052490 0.006816
# 6 0.008698 -0.001178 0.016893 0.007289 0.006816 0.035804
#
#
# Mechanical properties :
#
#
# Convention : Reuss Voigt Hill
#
# Bulk Modulus (GPa) = 12.76180 50.50237 31.63209
# Shear Modulus (GPa) = 22.30246 36.32623 29.31434
#
# Velocity S-wave (km/s) = 3.18460 4.06433 3.65106
# Velocity P-wave (km/s) = 4.39607 6.70747 5.67078
#
# Compressibility (1/GPa) = 0.07835884
#
# Stress axis : x y z
#
# Youngs Moduli (GPa) = 43.39762 123.72604 22.64429
#
# Poissons Ratio (x) = 0.84697 -0.36514
# Poissons Ratio (y) = 0.29708 0.17534
# Poissons Ratio (z) = -0.69979 0.95804
#
# Static dielectric constant tensor:
#      x y z
#    x 2.049280 -0.117130 0.204130 
#    y -0.117130 1.880560 -0.078050 
#    z 0.204130 -0.078050 1.991690 
# 
# From -- ./inp_files/160242.got.cif
#   From: 2010.05.17/outbox.cif.g08.bks.cpg/sg2_81_cif.got.tgz:160242.got - 2010.06.03 11:33:40.
