data_PCOD9013937
_publ_section_title
;
Structure prediction by ZEFSAII (Michael W. Deem and Ramdas Pophale) SiO2 
 PCOD9013937
Probable space group: P -1
;
_chemical_formula_sum "Si O2"
_cell_formula_units_Z 16
_cell_length_a 16.602595
_cell_length_b 12.152858
_cell_length_c 9.621863
_cell_angle_alpha 142.995998
_cell_angle_beta 141.173081
_cell_angle_gamma 39.684420
_cell_volume 674.364939
_symmetry_space_group_name_H-M "P -1"
_symmetry_group_IT_number 2
_symmetry_cell_setting 'triclinic'
loop_
_space_group_symop_operation_xyz
x,y,z
-x,-y,-z
loop_
_atom_site_type_symbol
_atom_site_label
_atom_site_fract_x
_atom_site_fract_y
_atom_site_fract_z
Si Si1 0.322794 0.468017 0.996139
Si Si2 0.446511 0.798389 0.162007
Si Si3 0.295594 0.213797 0.256036
Si Si4 0.043964 0.262965 0.807044
Si Si5 0.209003 0.680168 0.623102
Si Si6 0.205679 0.188630 0.663008
Si Si7 0.945015 0.222417 0.202603
Si Si8 0.438875 0.778019 0.463601
O O1 0.405056 0.320358 0.831846
O O2 0.286792 0.334115 0.923699
O O3 0.176276 0.629467 0.906507
O O4 0.412510 0.589420 0.293181
O O5 0.438599 0.752435 0.267804
O O6 0.380893 0.036359 0.295198
O O7 0.347249 0.721239 0.858869
O O8 0.243318 0.445969 0.456190
O O9 0.415165 0.199532 0.288597
O O10 0.158597 0.175199 0.991459
O O11 0.131614 0.188820 0.708965
O O12 0.896525 0.241796 0.570436
O O13 0.000000 0.500000 0.000000
O O14 0.124453 0.781101 0.746973
O O15 0.080373 0.270992 0.464500
O O16 0.312575 0.974467 0.541473
O O17 0.000000 0.000000 0.000000
#
# Coordination Sequence:
#
# PCOD9013937 Si02
#       8
#     2   2   2   2   2   2   2   2
#     4  12  23  39  62  97 134 167 204 258 321 383
#     4  12  23  38  67 102 128 169 209 251 330 385
#     4  11  23  41  67  91 127 174 213 259 311 376
#     4   9  23  48  66  88 124 171 222 263 310 372
#     4  10  21  41  66  91 127 165 212 264 304 377
#     4  11  24  42  65  94 126 170 215 261 320 374
#     4  11  21  40  60  92 134 167 201 261 323 377
#     4  12  23  39  64 100 136 162 208 258 324 385
#
# _framework density 23.726026999999998
#
# number of rings (size 3 to 8) (size 9 to 14) (size 15 to 20)
#    0.000    1.000    5.000    1.875    1.750    1.000 
#    9.000    3.125    0.000    0.000    0.000    0.000 
#    0.000    0.000    0.000    0.000    0.000    0.000 
#
# Total GULP energy -89401.502794 kJ/mol
# GULP energy per Si atom -5587.593925 kJ/mol
# Density = 2.367203 g / cm^3
# Si number density = 23.726027 Si / 1000 Ang^3
#
#
#
# Elastic Constant Matrix: (Units=GPa)
#
#
# Indices 1 2 3 4 5 6 
#
# 1 37.3540 24.5567 2.2274 6.8991 7.7425 -20.3057
# 2 24.5567 129.2981 31.4773 1.2212 -14.2626 -26.2071
# 3 2.2274 31.4773 71.2689 -9.6119 22.4199 -0.1881
# 4 6.8991 1.2212 -9.6119 36.1739 -0.4021 0.1635
# 5 7.7425 -14.2626 22.4199 -0.4021 33.4923 9.0119
# 6 -20.3057 -26.2071 -0.1881 0.1635 9.0119 41.1041
#
#
#
# Elastic Compliance Matrix: (Units=1/GPa)
#
#
# Indices 1 2 3 4 5 6 
#
# 1 0.059290 -0.012835 0.014452 -0.007576 -0.036814 0.029274
# 2 -0.012835 0.014782 -0.011696 -0.000964 0.017283 -0.000755
# 3 0.014452 -0.011696 0.028553 0.004875 -0.029034 0.006159
# 4 -0.007576 -0.000964 0.004875 0.030432 -0.000380 -0.004372
# 5 -0.036814 0.017283 -0.029034 -0.000380 0.071331 -0.022938
# 6 0.029274 -0.000755 0.006159 -0.004372 -0.022938 0.043384
#
#
# Mechanical properties :
#
#
# Convention : Reuss Voigt Hill
#
# Bulk Modulus (GPa) = 12.12602 39.38265 25.75434
# Shear Modulus (GPa) = 16.92515 34.13136 25.52825
#
# Velocity S-wave (km/s) = 2.67377 3.79695 3.28374
# Velocity P-wave (km/s) = 3.82806 5.98811 5.02551
#
# Compressibility (1/GPa) = 0.08246727
#
# Stress axis : x y z
#
# Youngs Moduli (GPa) = 16.86617 67.65138 35.02273
#
# Poissons Ratio (x) = 0.86829 -0.50616
# Poissons Ratio (y) = 0.21647 0.40964
# Poissons Ratio (z) = -0.24376 0.79127
#
# Static dielectric constant tensor:
#      x y z
#    x 1.856290 0.004570 0.049580 
#    y 0.004570 1.928910 -0.075190 
#    z 0.049580 -0.075190 2.041860 
# 
# From -- ./inp_files/433480.got.cif
#   From: 2010.05.17/outbox.cif.g08.bks.cpg/sg2_217_cif.got.tgz:433480.got - 2010.06.03 11:33:40.
