data_PCOD9013685
_publ_section_title
;
Structure prediction by ZEFSAII (Michael W. Deem and Ramdas Pophale) SiO2 
 PCOD9013685
Probable space group: P -1
;
_chemical_formula_sum "Si O2"
_cell_formula_units_Z 16
_cell_length_a 15.841937
_cell_length_b 19.538763
_cell_length_c 8.248273
_cell_angle_alpha 123.895956
_cell_angle_beta 66.090930
_cell_angle_gamma 159.356635
_cell_volume 685.265435
_symmetry_space_group_name_H-M "P -1"
_symmetry_group_IT_number 2
_symmetry_cell_setting 'triclinic'
loop_
_space_group_symop_operation_xyz
x,y,z
-x,-y,-z
loop_
_atom_site_type_symbol
_atom_site_label
_atom_site_fract_x
_atom_site_fract_y
_atom_site_fract_z
Si Si1 0.781953 0.471054 0.903766
Si Si2 0.593222 0.400515 0.474498
Si Si3 0.458128 0.578754 0.823986
Si Si4 0.723833 0.244120 0.571512
Si Si5 0.971039 0.071585 0.659157
Si Si6 0.737313 0.680828 0.927194
Si Si7 0.205686 0.583340 0.824923
Si Si8 0.318016 0.901442 0.891903
O O1 0.659351 0.287054 0.674422
O O2 0.052784 0.717666 0.928650
O O3 0.578865 0.375327 0.963415
O O4 0.865656 0.518098 0.084409
O O5 0.533621 0.386629 0.322556
O O6 0.323255 0.148135 0.434169
O O7 0.711594 0.572650 0.714633
O O8 0.764634 0.463627 0.393259
O O9 0.694579 0.717597 0.878709
O O10 0.190100 0.303731 0.697464
O O11 0.769592 0.238113 0.357895
O O12 0.978813 0.451613 0.760763
O O13 0.500000 0.000000 0.500000
O O14 0.000000 0.000000 0.500000
O O15 0.022088 0.121546 0.877899
O O16 0.500000 0.500000 0.000000
O O17 0.480956 0.859462 0.003781
O O18 0.500000 0.000000 0.000000
#
# Coordination Sequence:
#
# PCOD9013685 Si02
#       8
#     2   2   2   2   2   2   2   2
#     4  11  23  44  66  97 133 171 219 273 323 389
#     4  11  23  43  67  93 131 171 212 270 323 379
#     4  10  23  42  65  96 130 167 220 265 318 395
#     4  12  24  44  71  94 135 174 216 270 328 387
#     4  11  22  42  67  92 129 174 209 267 330 372
#     4  10  21  41  65  93 129 165 212 263 318 387
#     4  11  25  44  67  97 134 171 218 273 325 388
#     4  12  24  43  69  95 128 178 218 267 331 383
#
# _framework density 23.348614999999999
#
# number of rings (size 3 to 8) (size 9 to 14) (size 15 to 20)
#    0.000    1.000    5.000    2.625    0.000    3.500 
#    0.000    1.250    0.000    0.000    0.000    0.000 
#    0.000    0.000    0.000    0.000    0.000    0.000 
#
# Total GULP energy -89523.334065 kJ/mol
# GULP energy per Si atom -5595.208379 kJ/mol
# Density = 2.329547 g / cm^3
# Si number density = 23.348615 Si / 1000 Ang^3
#
#
#
# Elastic Constant Matrix: (Units=GPa)
#
#
# Indices 1 2 3 4 5 6 
#
# 1 37.9436 -5.7147 16.2743 8.8194 -14.8842 3.0903
# 2 -5.7147 86.9566 30.2877 14.6818 -7.3783 -6.5044
# 3 16.2743 30.2877 140.6652 -0.0136 -28.7539 16.5032
# 4 8.8194 14.6818 -0.0136 31.7185 0.5445 -6.9884
# 5 -14.8842 -7.3783 -28.7539 0.5445 43.9165 -9.0501
# 6 3.0903 -6.5044 16.5032 -6.9884 -9.0501 26.5999
#
#
#
# Elastic Compliance Matrix: (Units=1/GPa)
#
#
# Indices 1 2 3 4 5 6 
#
# 1 0.036450 0.006793 -0.003320 -0.013514 0.011454 -0.000167
# 2 0.006793 0.015278 -0.003914 -0.008053 0.003310 0.004386
# 3 -0.003320 -0.003914 0.009628 0.001590 0.003483 -0.004942
# 4 -0.013514 -0.008053 0.001590 0.040857 -0.003734 0.008078
# 5 0.011454 0.003310 0.003483 -0.003734 0.030950 0.006867
# 6 -0.000167 0.004386 -0.004942 0.008078 0.006867 0.046211
#
#
# Mechanical properties :
#
#
# Convention : Reuss Voigt Hill
#
# Bulk Modulus (GPa) = 16.53618 38.58445 27.56031
# Shear Modulus (GPa) = 24.94822 35.42820 30.18821
#
# Velocity S-wave (km/s) = 3.27235 3.89955 3.59964
# Velocity P-wave (km/s) = 4.62335 6.06932 5.39500
#
# Compressibility (1/GPa) = 0.06047346
#
# Stress axis : x y z
#
# Youngs Moduli (GPa) = 27.43490 65.45185 103.86466
#
# Poissons Ratio (x) = -0.44461 0.34483
# Poissons Ratio (y) = -0.18637 0.40656
# Poissons Ratio (z) = 0.09108 0.25620
#
# Static dielectric constant tensor:
#      x y z
#    x 1.910140 0.006210 -0.028220 
#    y 0.006210 1.944230 -0.034000 
#    z -0.028220 -0.034000 1.880410 
# 
# From -- ./inp_files/337800.got.cif
#   From: 2010.05.17/outbox.cif.g08.bks.cpg/sg2_169_cif.got.tgz:337800.got - 2010.06.03 11:33:40.
