data_PCOD9013397
_publ_section_title
;
Structure prediction by ZEFSAII (Michael W. Deem and Ramdas Pophale) SiO2 
 PCOD9013397
Probable space group: P -1
;
_chemical_formula_sum "Si O2"
_cell_formula_units_Z 16
_cell_length_a 7.106943
_cell_length_b 15.976966
_cell_length_c 17.726967
_cell_angle_alpha 147.456409
_cell_angle_beta 137.221873
_cell_angle_gamma 50.097300
_cell_volume 733.965835
_symmetry_space_group_name_H-M "P -1"
_symmetry_group_IT_number 2
_symmetry_cell_setting 'triclinic'
loop_
_space_group_symop_operation_xyz
x,y,z
-x,-y,-z
loop_
_atom_site_type_symbol
_atom_site_label
_atom_site_fract_x
_atom_site_fract_y
_atom_site_fract_z
Si Si1 0.644737 0.626800 0.302452
Si Si2 0.400790 0.881491 0.319074
Si Si3 0.992618 0.369931 0.123226
Si Si4 0.424347 0.321579 0.335904
Si Si5 0.018452 0.868316 0.674313
Si Si6 0.871047 0.894442 0.816940
Si Si7 0.519300 0.849174 0.168740
Si Si8 0.800777 0.597264 0.959072
O O1 0.440707 0.718841 0.251925
O O2 0.787029 0.747796 0.490891
O O3 0.474029 0.501707 0.201957
O O4 0.883082 0.532974 0.252773
O O5 0.601124 0.872372 0.297482
O O6 0.500000 0.000000 0.500000
O O7 0.109045 0.964337 0.266534
O O8 0.264012 0.304725 0.197400
O O9 0.063306 0.386856 0.069874
O O10 0.742462 0.258815 0.979662
O O11 0.500000 0.500000 0.500000
O O12 0.209463 0.267946 0.294833
O O13 0.694543 0.203587 0.329021
O O14 0.050495 0.875439 0.779540
O O15 0.595118 0.989654 0.777938
O O16 0.000000 0.000000 0.000000
O O17 0.722708 0.757687 0.101857
O O18 0.000000 0.500000 0.000000
#
# Coordination Sequence:
#
# PCOD9013397 Si02
#       8
#     2   2   2   2   2   2   2   2
#     4  10  21  41  64  93 132 168 214 270 324 379
#     4   9  19  40  65  87 123 170 212 263 321 374
#     4  11  23  40  65  95 131 170 211 265 324 382
#     4  12  26  43  67  97 131 170 219 265 321 393
#     4  10  24  41  66  94 127 173 215 267 324 382
#     4  11  25  44  64  93 130 173 215 265 320 378
#     4  10  22  43  63  95 130 164 216 266 321 381
#     4  11  24  38  66  99 127 171 215 266 324 388
#
# _framework density 21.799381
#
# number of rings (size 3 to 8) (size 9 to 14) (size 15 to 20)
#    0.000    1.500    2.500    1.500    3.500    6.000 
#    0.000    0.000    0.000   10.500    0.000    0.000 
#    0.000    0.000    0.000    0.000    0.000    0.000 
#
# Total GULP energy -89378.428918 kJ/mol
# GULP energy per Si atom -5586.151807 kJ/mol
# Density = 2.174976 g / cm^3
# Si number density = 21.799381 Si / 1000 Ang^3
#
#
#
# Elastic Constant Matrix: (Units=GPa)
#
#
# Indices 1 2 3 4 5 6 
#
# 1 94.1398 23.3241 30.1295 -0.9543 -6.4574 15.9898
# 2 23.3241 70.3100 2.3460 -0.6337 -0.0378 11.8897
# 3 30.1295 2.3460 85.7999 -5.1311 -16.4610 17.3074
# 4 -0.9543 -0.6337 -5.1311 40.1719 0.8689 -7.2506
# 5 -6.4574 -0.0378 -16.4610 0.8689 21.2500 2.4287
# 6 15.9898 11.8897 17.3074 -7.2506 2.4287 42.7907
#
#
#
# Elastic Compliance Matrix: (Units=1/GPa)
#
#
# Indices 1 2 3 4 5 6 
#
# 1 0.013331 -0.003868 -0.003835 -0.000726 0.001395 -0.002558
# 2 -0.003868 0.016095 0.001813 -0.000317 0.000711 -0.003854
# 3 -0.003835 0.001813 0.016675 0.000640 0.012462 -0.006414
# 4 -0.000726 -0.000317 0.000640 0.025801 -0.001300 0.004546
# 5 0.001395 0.000711 0.012462 -0.001300 0.058252 -0.009286
# 6 -0.002558 -0.003854 -0.006414 0.004546 -0.009286 0.029288
#
#
# Mechanical properties :
#
#
# Convention : Reuss Voigt Hill
#
# Bulk Modulus (GPa) = 29.13684 40.20543 34.67113
# Shear Modulus (GPa) = 27.37297 33.80587 30.58942
#
# Velocity S-wave (km/s) = 3.54740 3.94226 3.75003
# Velocity P-wave (km/s) = 5.49305 6.26141 5.88977
#
# Compressibility (1/GPa) = 0.03432081
#
# Stress axis : x y z
#
# Youngs Moduli (GPa) = 75.01297 62.13293 59.96918
#
# Poissons Ratio (x) = 0.24031 0.23001
# Poissons Ratio (y) = 0.29012 -0.10873
# Poissons Ratio (z) = 0.28770 -0.11265
#
# Static dielectric constant tensor:
#      x y z
#    x 1.815530 0.009630 0.044920 
#    y 0.009630 1.707540 -0.135110 
#    z 0.044920 -0.135110 1.622430 
# 
# From -- ./inp_files/101250.got.cif
#   From: 2010.05.17/outbox.cif.g08.bks.cpg/sg2_51_cif.got.tgz:101250.got - 2010.06.03 11:33:40.
