data_PCOD9013917
_publ_section_title
;
Structure prediction by ZEFSAII (Michael W. Deem and Ramdas Pophale) SiO2 
 PCOD9013917
Probable space group: P -1
;
_chemical_formula_sum "Si O2"
_cell_formula_units_Z 15
_cell_length_a 8.816549
_cell_length_b 10.610434
_cell_length_c 11.763716
_cell_angle_alpha 143.953433
_cell_angle_beta 103.769759
_cell_angle_gamma 94.720885
_cell_volume 551.506933
_symmetry_space_group_name_H-M "P -1"
_symmetry_group_IT_number 2
_symmetry_cell_setting 'triclinic'
loop_
_space_group_symop_operation_xyz
x,y,z
-x,-y,-z
loop_
_atom_site_type_symbol
_atom_site_label
_atom_site_fract_x
_atom_site_fract_y
_atom_site_fract_z
Si Si1 0.657257 0.329973 0.749281
Si Si2 0.317522 0.124561 0.667024
Si Si3 0.000000 0.500000 0.000000
Si Si4 0.314422 0.978567 0.978567
Si Si5 0.142493 0.080569 0.190744
Si Si6 0.538629 0.496083 0.319814
Si Si7 0.198232 0.488392 0.808988
Si Si8 0.101385 0.860879 0.648265
O O1 0.527947 0.295533 0.807694
O O2 0.536127 0.336423 0.629109
O O3 0.852214 0.553620 0.947591
O O4 0.711151 0.115549 0.583478
O O5 0.206305 0.246440 0.685044
O O6 0.255970 0.040602 0.722507
O O7 0.139707 0.588945 0.980239
O O8 0.245011 0.934028 0.061870
O O9 0.366152 0.259625 0.163483
O O10 0.180161 0.805400 0.734473
O O11 0.500000 0.000000 0.000000
O O12 0.308557 0.350417 0.448811
O O13 0.026544 0.040916 0.252376
O O14 0.000000 0.000000 0.000000
O O15 0.633893 0.419917 0.180831
O O16 0.023372 0.377357 0.617932
#
# Coordination Sequence:
#
# PCOD9013917 Si02
#       8
#     2   2   1   2   2   2   2   2
#     4  10  24  38  65  97 132 173 215 266 323 406
#     4  10  21  42  64  93 131 178 211 257 329 405
#     4  12  24  38  56 100 144 164 218 262 318 380
#     4  11  25  42  67  95 125 173 229 285 331 388
#     4   9  21  45  67  93 127 169 219 278 338 380
#     4  10  23  45  68  94 134 173 221 273 337 397
#     4  10  23  41  63  97 136 173 210 270 325 406
#     4  10  21  41  66  90 130 176 217 265 336 389
#
# _framework density 27.19821
#
# number of rings (size 3 to 8) (size 9 to 14) (size 15 to 20)
#    0.000    1.867    1.333    0.800    5.600    1.067 
#    2.400    7.333    0.000    0.000    0.000    0.000 
#    0.000    0.000    0.000    0.000    0.000    0.000 
#
# Total GULP energy -83507.279984 kJ/mol
# GULP energy per Si atom -5567.151999 kJ/mol
# Density = 2.713631 g / cm^3
# Si number density = 27.198210 Si / 1000 Ang^3
#
#
#
# Elastic Constant Matrix: (Units=GPa)
#
#
# Indices 1 2 3 4 5 6 
#
# 1 139.1227 19.0767 37.4334 -25.9261 -16.9586 32.5666
# 2 19.0767 64.5515 23.9782 -8.1808 -8.0232 34.8443
# 3 37.4334 23.9782 109.9837 -24.8391 -0.5687 8.6136
# 4 -25.9261 -8.1808 -24.8391 33.5464 13.2770 -14.0121
# 5 -16.9586 -8.0232 -0.5687 13.2770 56.1808 -2.8438
# 6 32.5666 34.8443 8.6136 -14.0121 -2.8438 37.4886
#
#
#
# Elastic Compliance Matrix: (Units=1/GPa)
#
#
# Indices 1 2 3 4 5 6 
#
# 1 0.011256 0.006691 -0.004208 -0.000472 0.003667 -0.014929
# 2 0.006691 0.043511 -0.011777 -0.017384 0.009727 -0.049308
# 3 -0.004208 -0.011777 0.014892 0.013592 -0.005210 0.015866
# 4 -0.000472 -0.017384 0.013592 0.054349 -0.013675 0.032721
# 5 0.003667 0.009727 -0.005210 -0.013675 0.022745 -0.014415
# 6 -0.014929 -0.049308 0.015866 0.032721 -0.014415 0.092965
#
#
# Mechanical properties :
#
#
# Convention : Reuss Voigt Hill
#
# Bulk Modulus (GPa) = 19.58097 52.73716 36.15907
# Shear Modulus (GPa) = 18.15998 40.98779 29.57388
#
# Velocity S-wave (km/s) = 2.58677 3.88623 3.30107
# Velocity P-wave (km/s) = 4.01707 6.29039 5.27759
#
# Compressibility (1/GPa) = 0.05106998
#
# Stress axis : x y z
#
# Youngs Moduli (GPa) = 88.83842 22.98287 67.14873
#
# Poissons Ratio (x) = -0.15378 0.28258
# Poissons Ratio (y) = -0.59442 0.79084
# Poissons Ratio (z) = 0.37386 0.27068
#
# Static dielectric constant tensor:
#      x y z
#    x 2.181400 -0.044480 0.368180 
#    y -0.044480 2.389360 0.006540 
#    z 0.368180 0.006540 4.569770 
# 
# From -- ./inp_files/391687.got.cif
#   From: 2010.05.17/outbox.cif.g08.bks.cpg/sg2_196_cif.got.tgz:391687.got - 2010.06.03 11:33:40.
