data_PCOD9013887
_publ_section_title
;
Structure prediction by ZEFSAII (Michael W. Deem and Ramdas Pophale) SiO2 
 PCOD9013887
Probable space group: P -1
;
_chemical_formula_sum "Si O2"
_cell_formula_units_Z 16
_cell_length_a 11.607848
_cell_length_b 9.302153
_cell_length_c 18.666641
_cell_angle_alpha 83.130596
_cell_angle_beta 159.675088
_cell_angle_gamma 98.276801
_cell_volume 692.114010
_symmetry_space_group_name_H-M "P -1"
_symmetry_group_IT_number 2
_symmetry_cell_setting 'triclinic'
loop_
_space_group_symop_operation_xyz
x,y,z
-x,-y,-z
loop_
_atom_site_type_symbol
_atom_site_label
_atom_site_fract_x
_atom_site_fract_y
_atom_site_fract_z
Si Si1 0.754149 0.868199 0.336283
Si Si2 0.872778 0.564925 0.996252
Si Si3 0.697579 0.175087 0.797153
Si Si4 0.221344 0.660029 0.544364
Si Si5 0.531507 0.757891 0.998915
Si Si6 0.598865 0.496489 0.162781
Si Si7 0.833884 0.064043 0.120116
Si Si8 0.691437 0.880635 0.733638
O O1 0.579134 0.794112 0.308491
O O2 0.476762 0.919951 0.116952
O O3 0.977254 0.764673 0.430977
O O4 0.000000 0.000000 0.500000
O O5 0.529955 0.634163 0.775783
O O6 0.717959 0.463711 0.975642
O O7 0.000000 0.500000 0.000000
O O8 0.162488 0.688845 0.177355
O O9 0.585999 0.033154 0.693911
O O10 0.010143 0.147883 0.034092
O O11 0.408049 0.747363 0.582579
O O12 0.987051 0.511828 0.410048
O O13 0.473210 0.667631 0.897567
O O14 0.796230 0.897188 0.134211
O O15 0.622934 0.626869 0.110711
O O16 0.225339 0.830659 0.853979
O O17 0.155479 0.101758 0.256824
#
# Coordination Sequence:
#
# PCOD9013887 Si02
#       8
#     2   2   2   2   2   2   2   2
#     4  11  20  34  64  99 130 151 202 270 324 367
#     4  11  24  39  63  91 128 164 200 258 330 378
#     4   9  18  33  54  90 121 159 191 237 327 372
#     4  11  22  38  60  97 127 157 200 268 323 372
#     4  10  23  41  67  84 120 179 219 250 294 373
#     4  11  23  42  63  90 128 167 216 251 310 374
#     4  10  21  41  66  88 119 166 223 253 308 368
#     4   9  18  33  59  85 122 153 193 259 306 366
#
# _framework density 23.117576
#
# number of rings (size 3 to 8) (size 9 to 14) (size 15 to 20)
#    0.000    1.750    2.500    1.875    7.000    0.000 
#    0.000    1.250    0.000    0.000    0.000    0.000 
#    0.000    0.000    0.000    0.000    0.000    0.000 
#
# Total GULP energy -89281.998726 kJ/mol
# GULP energy per Si atom -5580.124920 kJ/mol
# Density = 2.306496 g / cm^3
# Si number density = 23.117576 Si / 1000 Ang^3
#
#
#
# Elastic Constant Matrix: (Units=GPa)
#
#
# Indices 1 2 3 4 5 6 
#
# 1 122.9337 22.7622 26.6694 14.8169 38.8396 2.1097
# 2 22.7622 77.4839 11.3912 13.7405 7.4224 -2.8776
# 3 26.6694 11.3912 44.8634 5.6909 24.7421 5.9939
# 4 14.8169 13.7405 5.6909 31.7077 10.6217 3.6284
# 5 38.8396 7.4224 24.7421 10.6217 33.3877 7.5753
# 6 2.1097 -2.8776 5.9939 3.6284 7.5753 43.6191
#
#
#
# Elastic Compliance Matrix: (Units=1/GPa)
#
#
# Indices 1 2 3 4 5 6 
#
# 1 0.013527 -0.002513 0.001598 -0.000124 -0.016749 0.001879
# 2 -0.002513 0.014983 -0.004056 -0.006175 0.004234 0.001446
# 3 0.001598 -0.004056 0.039106 0.004529 -0.031225 -0.000672
# 4 -0.000124 -0.006175 0.004529 0.038219 -0.013580 -0.001844
# 5 -0.016749 0.004234 -0.031225 -0.013580 0.077532 -0.006955
# 6 0.001879 0.001446 -0.000672 -0.001844 -0.006955 0.024384
#
#
# Mechanical properties :
#
#
# Convention : Reuss Voigt Hill
#
# Bulk Modulus (GPa) = 17.33812 40.76963 29.05388
# Shear Modulus (GPa) = 21.10445 34.04011 27.57228
#
# Velocity S-wave (km/s) = 3.02473 3.84145 3.45729
# Velocity P-wave (km/s) = 4.44015 6.11144 5.34156
#
# Compressibility (1/GPa) = 0.05767639
#
# Stress axis : x y z
#
# Youngs Moduli (GPa) = 73.92425 66.74057 25.57178
#
# Poissons Ratio (x) = 0.16770 -0.04087
# Poissons Ratio (y) = 0.18575 0.10371
# Poissons Ratio (z) = -0.11816 0.27067
#
# Static dielectric constant tensor:
#      x y z
#    x 2.111420 -0.082000 -0.217050 
#    y -0.082000 2.185960 0.230760 
#    z -0.217050 0.230760 2.123980 
# 
# From -- ./inp_files/434337.got.cif
#   From: 2010.05.17/outbox.cif.g08.bks.cpg/sg2_218_cif.got.tgz:434337.got - 2010.06.03 11:33:40.
