data_PCOD9013065
_publ_section_title
;
Structure prediction by ZEFSAII (Michael W. Deem and Ramdas Pophale) SiO2 
 PCOD9013065
Probable space group: P -1
;
_chemical_formula_sum "Si O2"
_cell_formula_units_Z 12
_cell_length_a 5.258053
_cell_length_b 12.349790
_cell_length_c 13.935965
_cell_angle_alpha 60.478575
_cell_angle_beta 57.824547
_cell_angle_gamma 50.469738
_cell_volume 574.147859
_symmetry_space_group_name_H-M "P -1"
_symmetry_group_IT_number 2
_symmetry_cell_setting 'triclinic'
loop_
_space_group_symop_operation_xyz
x,y,z
-x,-y,-z
loop_
_atom_site_type_symbol
_atom_site_label
_atom_site_fract_x
_atom_site_fract_y
_atom_site_fract_z
Si Si1 0.030820 0.127913 0.391765
Si Si2 0.751393 0.116849 0.247861
Si Si3 0.582225 0.593416 0.147610
Si Si4 0.253519 0.932075 0.069093
Si Si5 0.677407 0.446740 0.385262
Si Si6 0.709526 0.566308 0.835513
O O1 0.413867 0.103767 0.343737
O O2 0.948979 0.127951 0.295910
O O3 0.753513 0.286340 0.417948
O O4 0.000000 0.000000 0.500000
O O5 0.594577 0.270702 0.157844
O O6 0.012250 0.983822 0.188849
O O7 0.464268 0.759790 0.093116
O O8 0.475426 0.555201 0.289768
O O9 0.424113 0.539928 0.120862
O O10 0.999346 0.505052 0.886316
O O11 0.500000 0.000000 0.000000
O O12 0.000000 0.000000 0.000000
O O13 0.500000 0.500000 0.500000
O O14 0.059956 0.430481 0.302991
#
# Coordination Sequence:
#
# PCOD9013065 Si02
#       6
#     2   2   2   2   2   2
#     4  11  23  39  64 100 131 176 209 250 325 391
#     4  11  22  45  64  89 137 164 213 276 310 383
#     4  10  21  41  63  87 128 157 212 261 314 373
#     4  12  27  45  67  96 123 169 223 275 332 371
#     4   9  21  36  62  92 128 165 211 247 313 381
#     4   9  19  40  62  88 123 165 201 253 318 373
#
# _framework density 20.900538999999998
#
# number of rings (size 3 to 8) (size 9 to 14) (size 15 to 20)
#    1.000    0.667    1.667    2.500    2.333    2.000 
#    0.000    5.000    0.000    0.000    0.000    0.000 
#    0.000    0.000    0.000    0.000    0.000    0.000 
#
# Total GULP energy -67013.310178 kJ/mol
# GULP energy per Si atom -5584.442515 kJ/mol
# Density = 2.085297 g / cm^3
# Si number density = 20.900539 Si / 1000 Ang^3
#
#
#
# Elastic Constant Matrix: (Units=GPa)
#
#
# Indices 1 2 3 4 5 6 
#
# 1 83.8718 6.4520 -6.0553 -10.1360 -0.2837 19.5029
# 2 6.4520 89.5606 -3.1006 -38.1462 -14.2170 19.9400
# 3 -6.0553 -3.1006 52.3816 -2.8550 -4.6813 5.9295
# 4 -10.1360 -38.1462 -2.8550 37.8360 2.6814 -0.2396
# 5 -0.2837 -14.2170 -4.6813 2.6814 29.1574 -5.3140
# 6 19.5029 19.9400 5.9295 -0.2396 -5.3140 35.8745
#
#
#
# Elastic Compliance Matrix: (Units=1/GPa)
#
#
# Indices 1 2 3 4 5 6 
#
# 1 0.016192 0.007007 0.004490 0.011599 0.000815 -0.013241
# 2 0.007007 0.031157 0.007668 0.033051 0.009672 -0.020741
# 3 0.004490 0.007668 0.022122 0.010213 0.004645 -0.009603
# 4 0.011599 0.033051 0.010213 0.062937 0.007556 -0.024825
# 5 0.000815 0.009672 0.004645 0.007556 0.038931 -0.000769
# 6 -0.013241 -0.020741 -0.009603 -0.024825 -0.000769 0.047909
#
#
# Mechanical properties :
#
#
# Convention : Reuss Voigt Hill
#
# Bulk Modulus (GPa) = 9.27642 24.48959 16.88300
# Shear Modulus (GPa) = 23.05725 35.80811 29.43268
#
# Velocity S-wave (km/s) = 3.32503 4.14365 3.75670
# Velocity P-wave (km/s) = 4.38054 5.88521 5.18772
#
# Compressibility (1/GPa) = 0.10780020
#
# Stress axis : x y z
#
# Youngs Moduli (GPa) = 61.76041 32.09593 45.20295
#
# Poissons Ratio (x) = -0.22489 -0.20298
# Poissons Ratio (y) = -0.43274 -0.34660
# Poissons Ratio (z) = -0.27733 -0.24610
#
# Static dielectric constant tensor:
#      x y z
#    x 1.741200 -0.013900 -0.009840 
#    y -0.013900 1.704110 -0.018890 
#    z -0.009840 -0.018890 1.805330 
# 
# From -- ./inp_files/76620.got.cif
#   From: 2010.05.17/outbox.cif.g08.bks.cpg/sg2_39_cif.got.tgz:76620.got - 2010.06.03 11:33:40.
