data_PCOD9013372
_publ_section_title
;
Structure prediction by ZEFSAII (Michael W. Deem and Ramdas Pophale) SiO2 
 PCOD9013372
Probable space group: P -1
;
_chemical_formula_sum "Si O2"
_cell_formula_units_Z 10
_cell_length_a 8.891894
_cell_length_b 9.311202
_cell_length_c 9.473378
_cell_angle_alpha 72.073994
_cell_angle_beta 61.882628
_cell_angle_gamma 114.845734
_cell_volume 486.491757
_symmetry_space_group_name_H-M "P -1"
_symmetry_group_IT_number 2
_symmetry_cell_setting 'triclinic'
loop_
_space_group_symop_operation_xyz
x,y,z
-x,-y,-z
loop_
_atom_site_type_symbol
_atom_site_label
_atom_site_fract_x
_atom_site_fract_y
_atom_site_fract_z
Si Si1 0.397326 0.622259 0.647019
Si Si2 0.693659 0.991129 0.930221
Si Si3 0.979095 0.444515 0.690755
Si Si4 0.544457 0.349552 0.058102
Si Si5 0.263001 0.195207 0.790581
O O1 0.415111 0.664903 0.791436
O O2 0.330914 0.405935 0.731502
O O3 0.642311 0.787172 0.410656
O O4 0.203616 0.592632 0.647750
O O5 0.917546 0.227580 0.783887
O O6 0.675478 0.873444 0.838392
O O7 0.500000 0.000000 0.000000
O O8 0.616776 0.842623 0.139369
O O9 0.000000 0.500000 0.500000
O O10 0.771470 0.420235 0.856124
O O11 0.500000 0.500000 0.000000
O O12 0.000000 0.000000 0.000000
#
# Coordination Sequence:
#
# PCOD9013372 Si02
#       5
#     2   2   2   2   2
#     4  11  23  41  68  98 134 172 221 276 327 387
#     4  10  21  41  64  92 133 174 213 263 331 395
#     4  11  24  44  68  94 136 182 219 266 335 400
#     4  11  23  41  66 103 134 166 224 280 323 388
#     4  11  22  41  68  97 132 177 219 268 335 396
#
# _framework density 20.555332
#
# number of rings (size 3 to 8) (size 9 to 14) (size 15 to 20)
#    0.000    1.200    4.000    3.000    2.800    0.000 
#    3.600    7.000    0.000    0.000    0.000    0.000 
#    0.000    0.000    0.000    0.000    0.000    0.000 
#
# Total GULP energy -55767.546006 kJ/mol
# GULP energy per Si atom -5576.754601 kJ/mol
# Density = 2.050855 g / cm^3
# Si number density = 20.555332 Si / 1000 Ang^3
#
#
#
# Elastic Constant Matrix: (Units=GPa)
#
#
# Indices 1 2 3 4 5 6 
#
# 1 98.4316 29.9190 56.5774 9.7917 17.8484 -9.3182
# 2 29.9190 93.7764 48.3135 18.0811 2.7958 4.0694
# 3 56.5774 48.3135 160.8638 31.4086 9.9704 15.0535
# 4 9.7917 18.0811 31.4086 38.1520 8.5134 7.9633
# 5 17.8484 2.7958 9.9704 8.5134 40.2813 1.8842
# 6 -9.3182 4.0694 15.0535 7.9633 1.8842 31.7502
#
#
#
# Elastic Compliance Matrix: (Units=1/GPa)
#
#
# Indices 1 2 3 4 5 6 
#
# 1 0.015706 -0.002689 -0.005315 0.001421 -0.006107 0.007480
# 2 -0.002689 0.013495 -0.002383 -0.004027 0.001718 -0.000481
# 3 -0.005315 -0.002383 0.010184 -0.005170 0.001320 -0.004865
# 4 0.001421 -0.004027 -0.005170 0.034393 -0.006111 -0.004879
# 5 -0.006107 0.001718 0.001320 -0.006111 0.028508 -0.002798
# 6 0.007480 -0.000481 -0.004865 -0.004879 -0.002798 0.037449
#
#
# Mechanical properties :
#
#
# Convention : Reuss Voigt Hill
#
# Bulk Modulus (GPa) = 53.72878 69.18797 61.45837
# Shear Modulus (GPa) = 29.99164 36.58751 33.28957
#
# Velocity S-wave (km/s) = 3.82392 4.22353 4.02868
# Velocity P-wave (km/s) = 6.75957 7.58397 7.18361
#
# Compressibility (1/GPa) = 0.01861200
#
# Stress axis : x y z
#
# Youngs Moduli (GPa) = 63.66986 74.10051 98.19040
#
# Poissons Ratio (x) = 0.19926 0.52190
# Poissons Ratio (y) = 0.17121 0.23394
# Poissons Ratio (z) = 0.33842 0.17655
#
# Static dielectric constant tensor:
#      x y z
#    x 1.817940 0.005460 0.009230 
#    y 0.005460 1.672420 0.015680 
#    z 0.009230 0.015680 1.726030 
# 
# From -- ./inp_files/29762.got.cif
#   From: 2010.05.17/outbox.cif.g08.bks.cpg/sg2_15_cif.got.tgz:29762.got - 2010.06.03 11:33:40.
