data_PCOD9013215
_publ_section_title
;
Structure prediction by ZEFSAII (Michael W. Deem and Ramdas Pophale) SiO2 
 PCOD9013215
Probable space group: P -1
;
_chemical_formula_sum "Si O2"
_cell_formula_units_Z 12
_cell_length_a 11.930971
_cell_length_b 15.483468
_cell_length_c 8.995949
_cell_angle_alpha 109.217463
_cell_angle_beta 87.392558
_cell_angle_gamma 153.542422
_cell_volume 563.316797
_symmetry_space_group_name_H-M "P -1"
_symmetry_group_IT_number 2
_symmetry_cell_setting 'triclinic'
loop_
_space_group_symop_operation_xyz
x,y,z
-x,-y,-z
loop_
_atom_site_type_symbol
_atom_site_label
_atom_site_fract_x
_atom_site_fract_y
_atom_site_fract_z
Si Si1 0.901376 0.194250 0.848370
Si Si2 0.309657 0.600756 0.798705
Si Si3 0.295679 0.819818 0.554849
Si Si4 0.314996 0.287768 0.289658
Si Si5 0.720484 0.087328 0.099784
Si Si6 0.830220 0.782654 0.077411
O O1 0.124438 0.415081 0.843952
O O2 0.946305 0.121000 0.805812
O O3 0.538880 0.937096 0.686133
O O4 0.978226 0.281909 0.063789
O O5 0.471321 0.638732 0.724382
O O6 0.047929 0.460360 0.645320
O O7 0.560845 0.866725 0.982308
O O8 0.500000 0.000000 0.500000
O O9 0.225038 0.844363 0.694970
O O10 0.500000 0.500000 0.500000
O O11 0.212456 0.252831 0.118372
O O12 0.995129 0.005489 0.221748
O O13 0.500000 0.000000 0.000000
O O14 0.500000 0.500000 0.000000
#
# Coordination Sequence:
#
# PCOD9013215 Si02
#       6
#     2   2   2   2   2   2
#     4  10  21  41  63  96 128 176 218 264 334 394
#     4  11  22  43  65  93 138 169 217 282 325 396
#     4   9  22  39  64  95 132 164 215 266 332 387
#     4  11  26  43  70 100 132 177 230 278 335 394
#     4  10  22  40  65  93 129 173 220 260 339 394
#     4  11  23  46  68  93 138 177 223 281 332 400
#
# _framework density 21.302399999999999
#
# number of rings (size 3 to 8) (size 9 to 14) (size 15 to 20)
#    0.000    1.667    3.333    0.000    2.333    9.333 
#    0.000    3.333    0.000    0.000    0.000    0.000 
#    0.000    0.000    0.000    0.000    0.000    0.000 
#
# Total GULP energy -66824.880253 kJ/mol
# GULP energy per Si atom -5568.740021 kJ/mol
# Density = 2.125392 g / cm^3
# Si number density = 21.302400 Si / 1000 Ang^3
#
#
#
# Elastic Constant Matrix: (Units=GPa)
#
#
# Indices 1 2 3 4 5 6 
#
# 1 93.0058 31.3751 27.4944 10.3483 12.3691 -11.2821
# 2 31.3751 164.6949 47.4072 6.6691 -13.8562 -13.4121
# 3 27.4944 47.4072 103.0819 7.4937 -8.3219 -10.3273
# 4 10.3483 6.6691 7.4937 25.0832 1.3283 -0.0831
# 5 12.3691 -13.8562 -8.3219 1.3283 36.8466 4.0104
# 6 -11.2821 -13.4121 -10.3273 -0.0831 4.0104 29.8911
#
#
#
# Elastic Compliance Matrix: (Units=1/GPa)
#
#
# Indices 1 2 3 4 5 6 
#
# 1 0.014010 -0.001924 -0.002627 -0.004133 -0.006345 0.004357
# 2 -0.001924 0.007544 -0.002548 -0.000593 0.002776 0.001404
# 3 -0.002627 -0.002548 0.012093 -0.001980 0.002542 0.001697
# 4 -0.004133 -0.000593 -0.001980 0.042344 -0.000557 -0.002318
# 5 -0.006345 0.002776 0.002542 -0.000557 0.031396 -0.004485
# 6 0.004357 0.001404 0.001697 -0.002318 -0.004485 0.036911
#
#
# Mechanical properties :
#
#
# Convention : Reuss Voigt Hill
#
# Bulk Modulus (GPa) = 51.42151 63.70400 57.56276
# Shear Modulus (GPa) = 30.30696 35.33124 32.81910
#
# Velocity S-wave (km/s) = 3.77596 4.07696 3.92934
# Velocity P-wave (km/s) = 6.57281 7.22022 6.90411
#
# Compressibility (1/GPa) = 0.01944711
#
# Stress axis : x y z
#
# Youngs Moduli (GPa) = 71.37724 132.55830 82.69389
#
# Poissons Ratio (x) = 0.25510 0.21724
# Poissons Ratio (y) = 0.13736 0.21072
# Poissons Ratio (z) = 0.18751 0.33779
#
# Static dielectric constant tensor:
#      x y z
#    x 1.859280 0.066160 0.038250 
#    y 0.066160 1.863930 -0.015600 
#    z 0.038250 -0.015600 1.813730 
# 
# From -- ./inp_files/35616.got.cif
#   From: 2010.05.17/outbox.cif.g08.bks.cpg/sg2_18_cif.got.tgz:35616.got - 2010.06.03 11:33:40.
