data_PCOD9013504
_publ_section_title
;
Structure prediction by ZEFSAII (Michael W. Deem and Ramdas Pophale) SiO2 
 PCOD9013504
Probable space group: P -1
;
_chemical_formula_sum "Si O2"
_cell_formula_units_Z 16
_cell_length_a 14.140046
_cell_length_b 10.638203
_cell_length_c 7.354658
_cell_angle_alpha 43.370960
_cell_angle_beta 114.459431
_cell_angle_gamma 91.207294
_cell_volume 618.340047
_symmetry_space_group_name_H-M "P -1"
_symmetry_group_IT_number 2
_symmetry_cell_setting 'triclinic'
loop_
_space_group_symop_operation_xyz
x,y,z
-x,-y,-z
loop_
_atom_site_type_symbol
_atom_site_label
_atom_site_fract_x
_atom_site_fract_y
_atom_site_fract_z
Si Si1 0.548115 0.761317 0.290443
Si Si2 0.854916 0.810605 0.336791
Si Si3 0.201066 0.530722 0.282185
Si Si4 0.680853 0.232490 0.915406
Si Si5 0.222532 0.042433 0.272105
Si Si6 0.603747 0.801289 0.691857
Si Si7 0.009733 0.951333 0.772344
Si Si8 0.629386 0.407240 0.279092
O O1 0.671249 0.659886 0.396832
O O2 0.445633 0.721301 0.161506
O O3 0.562417 0.729924 0.551926
O O4 0.500000 0.000000 0.000000
O O5 0.874859 0.594725 0.664900
O O6 0.961611 0.867299 0.324443
O O7 0.798161 0.842299 0.059244
O O8 0.766197 0.996312 0.197203
O O9 0.248228 0.657468 0.050501
O O10 0.118951 0.728462 0.129664
O O11 0.650125 0.333516 0.582406
O O12 0.298327 0.127387 0.355233
O O13 0.102441 0.066495 0.231541
O O14 0.297211 0.801849 0.549711
O O15 0.500000 0.000000 0.500000
O O16 0.659530 0.595562 0.072071
O O17 0.000000 0.000000 0.500000
O O18 0.500000 0.500000 0.000000
#
# Coordination Sequence:
#
# PCOD9013504 Si02
#       8
#     2   2   2   2   2   2   2   2
#     4  12  25  40  67 101 139 178 218 273 337 400
#     4  10  22  47  69  95 131 167 233 276 328 398
#     4  11  25  42  69  95 135 179 221 275 334 391
#     4  10  21  41  64  99 132 175 216 275 331 399
#     4  11  25  44  70  97 133 179 222 278 336 389
#     4  12  25  42  67 103 135 172 226 271 333 408
#     4  11  28  45  68  98 136 177 227 280 325 398
#     4  11  21  39  67  96 131 172 218 275 330 386
#
# _framework density 25.875731999999999
#
# number of rings (size 3 to 8) (size 9 to 14) (size 15 to 20)
#    0.000    1.000    3.750    2.250    5.250    2.000 
#    0.000    0.000    0.000    0.000    0.000    0.000 
#    0.000    0.000    0.000    0.000    0.000    0.000 
#
# Total GULP energy -89312.278552 kJ/mol
# GULP energy per Si atom -5582.017409 kJ/mol
# Density = 2.581684 g / cm^3
# Si number density = 25.875732 Si / 1000 Ang^3
#
#
#
# Elastic Constant Matrix: (Units=GPa)
#
#
# Indices 1 2 3 4 5 6 
#
# 1 178.6907 35.5115 39.0285 -15.7091 15.7247 35.6869
# 2 35.5115 85.4782 31.4596 -19.6754 -12.4654 32.0039
# 3 39.0285 31.4596 71.4573 1.8533 -8.6849 3.1367
# 4 -15.7091 -19.6754 1.8533 45.1206 0.5606 -14.9032
# 5 15.7247 -12.4654 -8.6849 0.5606 48.5763 -3.2196
# 6 35.6869 32.0039 3.1367 -14.9032 -3.2196 48.7561
#
#
#
# Elastic Compliance Matrix: (Units=1/GPa)
#
#
# Indices 1 2 3 4 5 6 
#
# 1 0.008197 0.000258 -0.004842 0.001328 -0.003847 -0.005706
# 2 0.000258 0.020703 -0.008557 0.005703 0.002885 -0.011294
# 3 -0.004842 -0.008557 0.020645 -0.004054 0.003562 0.006829
# 4 0.001328 0.005703 -0.004054 0.026483 0.000245 0.003656
# 5 -0.003847 0.002885 0.003562 0.000245 0.023359 0.002310
# 6 -0.005706 -0.011294 0.006829 0.003656 0.002310 0.032931
#
#
# Mechanical properties :
#
#
# Convention : Reuss Voigt Hill
#
# Bulk Modulus (GPa) = 42.98813 60.84726 51.91770
# Shear Modulus (GPa) = 30.05612 43.79905 36.92758
#
# Velocity S-wave (km/s) = 3.41186 4.11867 3.78181
# Velocity P-wave (km/s) = 5.67190 6.79589 6.25918
#
# Compressibility (1/GPa) = 0.02326223
#
# Stress axis : x y z
#
# Youngs Moduli (GPa) = 121.98893 48.30169 48.43868
#
# Poissons Ratio (x) = -0.01244 0.23455
# Poissons Ratio (y) = -0.03143 0.41449
# Poissons Ratio (z) = 0.59070 0.41331
#
# Static dielectric constant tensor:
#      x y z
#    x 2.070720 0.042580 -0.042390 
#    y 0.042580 2.336840 0.231910 
#    z -0.042390 0.231910 2.283520 
# 
# From -- ./inp_files/304593.got.cif
#   From: 2010.05.17/outbox.cif.g08.bks.cpg/sg2_153_cif.got.tgz:304593.got - 2010.06.03 11:33:40.
