data_PCOD9013845
_publ_section_title
;
Structure prediction by ZEFSAII (Michael W. Deem and Ramdas Pophale) SiO2 
 PCOD9013845
Probable space group: P -1
;
_chemical_formula_sum "Si O2"
_cell_formula_units_Z 14
_cell_length_a 12.440121
_cell_length_b 5.309464
_cell_length_c 14.933212
_cell_angle_alpha 112.864768
_cell_angle_beta 142.533260
_cell_angle_gamma 65.500917
_cell_volume 542.819989
_symmetry_space_group_name_H-M "P -1"
_symmetry_group_IT_number 2
_symmetry_cell_setting 'triclinic'
loop_
_space_group_symop_operation_xyz
x,y,z
-x,-y,-z
loop_
_atom_site_type_symbol
_atom_site_label
_atom_site_fract_x
_atom_site_fract_y
_atom_site_fract_z
Si Si1 0.796790 0.315356 0.695748
Si Si2 0.010940 0.825065 0.889425
Si Si3 0.459483 0.922869 0.810748
Si Si4 0.559422 0.528079 0.404422
Si Si5 0.125571 0.780641 0.651338
Si Si6 0.755472 0.781023 0.441640
Si Si7 0.313462 0.694503 0.938412
O O1 0.899670 0.577212 0.795894
O O2 0.691307 0.329811 0.532384
O O3 0.628588 0.367915 0.658997
O O4 0.928679 0.046668 0.787153
O O5 0.209140 0.686302 0.962366
O O6 0.000000 0.000000 0.000000
O O7 0.484936 0.635028 0.735410
O O8 0.282866 0.948484 0.758396
O O9 0.403006 0.140981 0.723520
O O10 0.629628 0.002444 0.981300
O O11 0.663953 0.768335 0.475144
O O12 0.151265 0.539622 0.561108
O O13 0.173201 0.656429 0.763820
O O14 0.920126 0.929030 0.542580
O O15 0.500000 0.500000 0.000000
#
# Coordination Sequence:
#
# PCOD9013845 Si02
#       7
#     2   2   2   2   2   2   2
#     4  11  27  49  76 112 147 202 260 317 374 463
#     4  12  29  51  79 111 157 202 257 313 386 454
#     4  11  23  41  69 101 146 194 243 315 380 451
#     4  10  25  42  75 105 146 194 257 317 383 448
#     4  10  22  40  63 101 139 189 240 300 375 450
#     4  10  21  41  66 100 143 184 242 308 374 441
#     4  12  26  46  72 108 150 198 253 314 383 461
#
# _framework density 25.791240999999999
#
# number of rings (size 3 to 8) (size 9 to 14) (size 15 to 20)
#    0.000    1.143    1.429    3.000    8.000    3.429 
#    0.000    0.000    0.000    0.000    0.000    0.000 
#    0.000    0.000    0.000    0.000    0.000    0.000 
#
# Total GULP energy -78220.457390 kJ/mol
# GULP energy per Si atom -5587.175528 kJ/mol
# Density = 2.573254 g / cm^3
# Si number density = 25.791241 Si / 1000 Ang^3
#
#
#
# Elastic Constant Matrix: (Units=GPa)
#
#
# Indices 1 2 3 4 5 6 
#
# 1 175.6054 20.2647 22.6541 4.1449 16.9928 -12.2699
# 2 20.2647 81.1128 11.5697 -9.4881 -4.7457 5.7692
# 3 22.6541 11.5697 108.5664 9.9279 -6.4904 -7.3238
# 4 4.1449 -9.4881 9.9279 41.1136 6.0878 0.1465
# 5 16.9928 -4.7457 -6.4904 6.0878 37.2755 -2.9068
# 6 -12.2699 5.7692 -7.3238 0.1465 -2.9068 50.5102
#
#
#
# Elastic Compliance Matrix: (Units=1/GPa)
#
#
# Indices 1 2 3 4 5 6 
#
# 1 0.006476 -0.001765 -0.001235 -0.000288 -0.003235 0.001410
# 2 -0.001765 0.013621 -0.001448 0.003448 0.001559 -0.002115
# 3 -0.001235 -0.001448 0.010172 -0.003082 0.002771 0.001509
# 4 -0.000288 0.003448 -0.003082 0.026547 -0.004399 -0.001241
# 5 -0.003235 0.001559 0.002771 -0.004399 0.029792 0.001165
# 6 0.001410 -0.002115 0.001509 -0.001241 0.001165 0.020672
#
#
# Mechanical properties :
#
#
# Convention : Reuss Voigt Hill
#
# Bulk Modulus (GPa) = 46.78849 52.69573 49.74211
# Shear Modulus (GPa) = 40.55121 46.49960 43.52540
#
# Velocity S-wave (km/s) = 3.96951 4.25069 4.11250
# Velocity P-wave (km/s) = 6.26019 6.67586 6.47136
#
# Compressibility (1/GPa) = 0.02137278
#
# Stress axis : x y z
#
# Youngs Moduli (GPa) = 154.41663 73.41647 98.30690
#
# Poissons Ratio (x) = 0.12958 0.12142
# Poissons Ratio (y) = 0.27255 0.14235
# Poissons Ratio (z) = 0.19073 0.10631
#
# Static dielectric constant tensor:
#      x y z
#    x 2.041280 -0.000740 -0.032090 
#    y -0.000740 2.114260 0.053820 
#    z -0.032090 0.053820 2.051710 
# 
# From -- ./inp_files/441452.got.cif
#   From: 2010.05.17/outbox.cif.g08.bks.cpg/sg2_221_cif.got.tgz:441452.got - 2010.06.03 11:33:40.
