data_PCOD9013098
_publ_section_title
;
Structure prediction by ZEFSAII (Michael W. Deem and Ramdas Pophale) SiO2 
 PCOD9013098
Probable space group: P -1
;
_chemical_formula_sum "Si O2"
_cell_formula_units_Z 16
_cell_length_a 11.642030
_cell_length_b 10.857937
_cell_length_c 9.918756
_cell_angle_alpha 78.725931
_cell_angle_beta 126.831166
_cell_angle_gamma 129.706267
_cell_volume 735.420808
_symmetry_space_group_name_H-M "P -1"
_symmetry_group_IT_number 2
_symmetry_cell_setting 'triclinic'
loop_
_space_group_symop_operation_xyz
x,y,z
-x,-y,-z
loop_
_atom_site_type_symbol
_atom_site_label
_atom_site_fract_x
_atom_site_fract_y
_atom_site_fract_z
Si Si1 0.240339 0.079664 0.008925
Si Si2 0.709559 0.277715 0.841300
Si Si3 0.835209 0.220895 0.667717
Si Si4 0.455828 0.360883 0.899729
Si Si5 0.468532 0.363060 0.600410
Si Si6 0.823983 0.393455 0.173084
Si Si7 0.584076 0.084355 0.259678
Si Si8 0.169783 0.078471 0.252821
O O1 0.282009 0.189451 0.886224
O O2 0.011244 0.932883 0.877415
O O3 0.393896 0.058238 0.111824
O O4 0.277005 0.157861 0.167522
O O5 0.769884 0.230220 0.766663
O O6 0.658871 0.387829 0.734796
O O7 0.504767 0.103939 0.790911
O O8 0.855811 0.361528 0.050554
O O9 0.665268 0.133876 0.457745
O O10 0.888563 0.103815 0.741009
O O11 0.002793 0.415711 0.701106
O O12 0.419265 0.371700 0.716819
O O13 0.500000 0.500000 0.000000
O O14 0.641162 0.378815 0.033296
O O15 0.500000 0.500000 0.500000
O O16 0.303784 0.187214 0.448766
O O17 0.752105 0.238752 0.251213
#
# Coordination Sequence:
#
# PCOD9013098 Si02
#       8
#     2   2   2   2   2   2   2   2
#     4  10  22  38  65  91 128 177 212 261 325 394
#     4  11  22  42  67  95 132 174 218 264 330 389
#     4  12  22  40  68 100 132 170 220 273 319 385
#     4  10  21  41  63  89 130 172 215 263 335 388
#     4  11  24  42  67  95 130 173 220 277 325 392
#     4  10  24  39  64  97 134 168 218 270 323 388
#     4  11  21  42  66  93 131 176 216 263 331 386
#     4  11  22  41  65  98 132 170 226 269 324 385
#
# _framework density 21.756250000000001
#
# number of rings (size 3 to 8) (size 9 to 14) (size 15 to 20)
#    0.000    1.250    2.500    3.750    0.000    4.500 
#    2.250    1.250    0.000    0.000    0.000    0.000 
#    0.000    0.000    0.000    0.000    0.000    0.000 
#
# Total GULP energy -89334.334767 kJ/mol
# GULP energy per Si atom -5583.395923 kJ/mol
# Density = 2.170673 g / cm^3
# Si number density = 21.756250 Si / 1000 Ang^3
#
#
#
# Elastic Constant Matrix: (Units=GPa)
#
#
# Indices 1 2 3 4 5 6 
#
# 1 62.2287 17.6769 28.7029 -7.1042 -7.4476 -4.6469
# 2 17.6769 103.4381 18.6499 -15.0716 -2.6760 -2.0201
# 3 28.7029 18.6499 103.5858 -10.6298 -17.4980 -11.4503
# 4 -7.1042 -15.0716 -10.6298 38.8921 1.1471 -7.4538
# 5 -7.4476 -2.6760 -17.4980 1.1471 32.9473 1.5383
# 6 -4.6469 -2.0201 -11.4503 -7.4538 1.5383 21.0646
#
#
#
# Elastic Compliance Matrix: (Units=1/GPa)
#
#
# Indices 1 2 3 4 5 6 
#
# 1 0.019217 -0.002159 -0.004185 0.001920 0.001771 0.002307
# 2 -0.002159 0.010768 -0.000824 0.003846 -0.000255 0.001488
# 3 -0.004185 -0.000824 0.013029 0.003653 0.005454 0.006974
# 4 0.001920 0.003846 0.003653 0.031155 0.000961 0.013732
# 5 0.001771 -0.000255 0.005454 0.000961 0.033537 0.001222
# 6 0.002307 0.001488 0.006974 0.013732 0.001222 0.056686
#
#
# Mechanical properties :
#
#
# Convention : Reuss Voigt Hill
#
# Bulk Modulus (GPa) = 34.87058 44.36799 39.61929
# Shear Modulus (GPa) = 26.55519 32.19566 29.37542
#
# Velocity S-wave (km/s) = 3.49747 3.85104 3.67850
# Velocity P-wave (km/s) = 5.68967 6.34125 6.02428
#
# Compressibility (1/GPa) = 0.02867747
#
# Stress axis : x y z
#
# Youngs Moduli (GPa) = 52.03793 92.86750 76.75245
#
# Poissons Ratio (x) = 0.20049 0.32120
# Poissons Ratio (y) = 0.11234 0.06328
# Poissons Ratio (z) = 0.21777 0.07656
#
# Static dielectric constant tensor:
#      x y z
#    x -4.580690 -6.002760 -0.522000 
#    y -6.002760 -3.782390 -0.482500 
#    z -0.522000 -0.482500 1.738060 
# 
# From -- ./inp_files/262415.got.cif
#   From: 2010.05.17/outbox.cif.g08.bks.cpg/sg2_132_cif.got.tgz:262415.got - 2010.06.03 11:33:40.
