data_PCOD9013227
_publ_section_title
;
Structure prediction by ZEFSAII (Michael W. Deem and Ramdas Pophale) SiO2 
 PCOD9013227
Probable space group: P -1
;
_chemical_formula_sum "Si O2"
_cell_formula_units_Z 16
_cell_length_a 5.646940
_cell_length_b 19.169533
_cell_length_c 8.059876
_cell_angle_alpha 101.906911
_cell_angle_beta 60.775859
_cell_angle_gamma 80.233482
_cell_volume 706.712653
_symmetry_space_group_name_H-M "P -1"
_symmetry_group_IT_number 2
_symmetry_cell_setting 'triclinic'
loop_
_space_group_symop_operation_xyz
x,y,z
-x,-y,-z
loop_
_atom_site_type_symbol
_atom_site_label
_atom_site_fract_x
_atom_site_fract_y
_atom_site_fract_z
Si Si1 0.678708 0.160374 0.825872
Si Si2 0.755328 0.805929 0.467121
Si Si3 0.348847 0.302291 0.833838
Si Si4 0.212530 0.976777 0.074351
Si Si5 0.805765 0.554724 0.459069
Si Si6 0.086212 0.668957 0.466721
Si Si7 0.340137 0.938276 0.526327
Si Si8 0.808139 0.405613 0.243239
O O1 0.462402 0.244166 0.920228
O O2 0.704765 0.111816 0.957850
O O3 0.598664 0.109940 0.685865
O O4 0.986757 0.167122 0.676802
O O5 0.694887 0.748939 0.326767
O O6 0.478392 0.878898 0.596934
O O7 0.879504 0.754507 0.558847
O O8 0.604876 0.333506 0.708487
O O9 0.055799 0.364153 0.013645
O O10 0.995333 0.022229 0.314331
O O11 0.500000 0.000000 0.000000
O O12 0.000000 0.000000 0.000000
O O13 0.764475 0.495125 0.310857
O O14 0.509855 0.598149 0.673447
O O15 0.000000 0.500000 0.500000
O O16 0.957399 0.613721 0.379505
O O17 0.109854 0.636007 0.627186
O O18 0.500000 0.000000 0.500000
#
# Coordination Sequence:
#
# PCOD9013227 Si02
#       8
#     2   2   2   2   2   2   2   2
#     4  10  23  44  64  91 128 174 223 265 339 405
#     4  10  22  40  67  91 126 173 227 266 329 402
#     4  10  23  41  65  93 131 173 219 273 329 399
#     4  12  27  42  65 103 136 164 226 291 342 403
#     4   9  20  39  65  94 130 167 215 266 330 393
#     4  10  21  41  63  97 130 166 222 272 325 403
#     4  11  22  43  73  88 126 183 221 271 336 406
#     4  10  21  41  65  93 131 173 212 272 327 391
#
# _framework density 22.640035999999998
#
# number of rings (size 3 to 8) (size 9 to 14) (size 15 to 20)
#    0.000    1.750    1.250    1.875    3.500    5.500 
#    6.750    8.750    0.000    0.000    0.000    0.000 
#    0.000    0.000    0.000    0.000    0.000    0.000 
#
# Total GULP energy -89383.215074 kJ/mol
# GULP energy per Si atom -5586.450942 kJ/mol
# Density = 2.258851 g / cm^3
# Si number density = 22.640036 Si / 1000 Ang^3
#
#
#
# Elastic Constant Matrix: (Units=GPa)
#
#
# Indices 1 2 3 4 5 6 
#
# 1 106.6095 45.7461 33.2479 -11.4640 -29.0776 11.2338
# 2 45.7461 121.2223 36.1946 -16.6720 -17.7944 7.5617
# 3 33.2479 36.1946 82.0163 8.6145 -24.2369 8.7446
# 4 -11.4640 -16.6720 8.6145 37.0042 -15.0588 -5.5660
# 5 -29.0776 -17.7944 -24.2369 -15.0588 35.6794 -11.4928
# 6 11.2338 7.5617 8.7446 -5.5660 -11.4928 54.6136
#
#
#
# Elastic Compliance Matrix: (Units=1/GPa)
#
#
# Indices 1 2 3 4 5 6 
#
# 1 0.016458 -0.001439 -0.002588 0.012147 0.016702 0.001981
# 2 -0.001439 0.011973 -0.003915 0.008622 0.006248 0.001459
# 3 -0.002588 -0.003915 0.017130 -0.004533 0.005337 -0.001007
# 4 0.012147 0.008622 -0.004533 0.051987 0.036271 0.009965
# 5 0.016702 0.006248 0.005337 0.036271 0.067816 0.012813
# 6 0.001981 0.001459 -0.001007 0.009965 0.012813 0.021574
#
#
# Mechanical properties :
#
#
# Convention : Reuss Voigt Hill
#
# Bulk Modulus (GPa) = 33.69707 60.02505 46.86106
# Shear Modulus (GPa) = 23.50562 38.43674 30.97118
#
# Velocity S-wave (km/s) = 3.22566 4.12483 3.70264
# Velocity P-wave (km/s) = 5.36557 7.01826 6.24681
#
# Compressibility (1/GPa) = 0.02967617
#
# Stress axis : x y z
#
# Youngs Moduli (GPa) = 60.76255 83.51822 58.37561
#
# Poissons Ratio (x) = 0.12020 0.15108
# Poissons Ratio (y) = 0.08745 0.22856
# Poissons Ratio (z) = 0.15725 0.32701
#
# Static dielectric constant tensor:
#      x y z
#    x 1.926790 -0.013790 0.067210 
#    y -0.013790 1.867640 0.003730 
#    z 0.067210 0.003730 1.844400 
# 
# From -- ./inp_files/122664.got.cif
#   From: 2010.05.17/outbox.cif.g08.bks.cpg/sg2_62_cif.got.tgz:122664.got - 2010.06.03 11:33:40.
