data_PCOD9013376
_publ_section_title
;
Structure prediction by ZEFSAII (Michael W. Deem and Ramdas Pophale) SiO2 
 PCOD9013376
Probable space group: P -1
;
_chemical_formula_sum "Si O2"
_cell_formula_units_Z 16
_cell_length_a 6.438137
_cell_length_b 19.765601
_cell_length_c 5.978406
_cell_angle_alpha 72.969329
_cell_angle_beta 78.181628
_cell_angle_gamma 95.171241
_cell_volume 702.773533
_symmetry_space_group_name_H-M "P -1"
_symmetry_group_IT_number 2
_symmetry_cell_setting 'triclinic'
loop_
_space_group_symop_operation_xyz
x,y,z
-x,-y,-z
loop_
_atom_site_type_symbol
_atom_site_label
_atom_site_fract_x
_atom_site_fract_y
_atom_site_fract_z
Si Si1 0.319316 0.105846 0.780539
Si Si2 0.015670 0.833341 0.901139
Si Si3 0.682362 0.774195 0.712081
Si Si4 0.239648 0.529926 0.971797
Si Si5 0.347684 0.792237 0.164738
Si Si6 0.509097 0.563269 0.259138
Si Si7 0.771218 0.016842 0.395941
Si Si8 0.525751 0.333850 0.475753
O O1 0.309313 0.156970 0.518096
O O2 0.553029 0.131813 0.814799
O O3 0.230305 0.026832 0.792428
O O4 0.165840 0.127940 0.984216
O O5 0.186966 0.897686 0.706620
O O6 0.905783 0.781822 0.785163
O O7 0.116935 0.793715 0.114009
O O8 0.633583 0.703958 0.639763
O O9 0.497048 0.777347 0.935080
O O10 0.349697 0.460303 0.950484
O O11 0.326912 0.598293 0.732271
O O12 0.281499 0.556951 0.190289
O O13 0.000000 0.500000 0.000000
O O14 0.355347 0.729643 0.401104
O O15 0.500000 0.500000 0.500000
O O16 0.576803 0.635474 0.310935
O O17 0.500000 0.000000 0.500000
O O18 0.000000 0.000000 0.500000
#
# Coordination Sequence:
#
# PCOD9013376 Si02
#       8
#     2   2   2   2   2   2   2   2
#     4  10  23  42  66  96 133 175 232 292 358 419
#     4  11  24  42  69  96 135 178 237 286 356 415
#     4  10  21  43  63  90 132 174 226 280 344 413
#     4  10  21  41  67  95 131 171 217 280 340 410
#     4  10  23  41  64  92 130 181 223 290 340 429
#     4   9  20  40  64  93 126 166 210 272 332 403
#     4  12  26  44  74 105 141 191 243 303 373 431
#     4  10  21  41  64  92 136 174 224 273 348 413
#
# _framework density 22.766936999999999
#
# number of rings (size 3 to 8) (size 9 to 14) (size 15 to 20)
#    0.000    1.750    1.250    1.875    3.500    4.500 
#    0.000   30.000    0.000    0.000    0.000    0.000 
#    0.000    0.000    0.000    0.000    0.000    0.000 
#
# Total GULP energy -89129.960609 kJ/mol
# GULP energy per Si atom -5570.622538 kJ/mol
# Density = 2.271512 g / cm^3
# Si number density = 22.766937 Si / 1000 Ang^3
#
#
#
# Elastic Constant Matrix: (Units=GPa)
#
#
# Indices 1 2 3 4 5 6 
#
# 1 90.5969 48.9770 26.5303 16.4846 23.0571 26.7799
# 2 48.9770 132.8242 29.9160 35.0562 16.5252 32.7406
# 3 26.5303 29.9160 75.1203 12.0611 17.0171 21.4103
# 4 16.4846 35.0562 12.0611 53.0517 11.4004 11.2429
# 5 23.0571 16.5252 17.0171 11.4004 35.3775 6.7056
# 6 26.7799 32.7406 21.4103 11.2429 6.7056 28.0924
#
#
#
# Elastic Compliance Matrix: (Units=1/GPa)
#
#
# Indices 1 2 3 4 5 6 
#
# 1 0.018236 -0.002788 0.000010 0.000609 -0.008439 -0.012372
# 2 -0.002788 0.012334 -0.000375 -0.005157 -0.000342 -0.009285
# 3 0.000010 -0.000375 0.018326 -0.000007 -0.006366 -0.012017
# 4 0.000609 -0.005157 -0.000007 0.023773 -0.005103 -0.002861
# 5 -0.008439 -0.000342 -0.006366 -0.005103 0.037419 0.006406
# 6 -0.012372 -0.009285 -0.012017 -0.002861 0.006406 0.066987
#
#
# Mechanical properties :
#
#
# Convention : Reuss Voigt Hill
#
# Bulk Modulus (GPa) = 23.47985 56.59868 40.03927
# Shear Modulus (GPa) = 25.30661 36.17887 30.74274
#
# Velocity S-wave (km/s) = 3.33761 3.99067 3.67866
# Velocity P-wave (km/s) = 5.01880 6.79323 5.97228
#
# Compressibility (1/GPa) = 0.04258971
#
# Stress axis : x y z
#
# Youngs Moduli (GPa) = 54.83635 81.07891 54.56685
#
# Poissons Ratio (x) = 0.22601 -0.00054
# Poissons Ratio (y) = 0.15286 0.02048
# Poissons Ratio (z) = -0.00054 0.03043
#
# Static dielectric constant tensor:
#      x y z
#    x 1.983230 0.011600 -0.034140 
#    y 0.011600 1.850930 0.035210 
#    z -0.034140 0.035210 1.837700 
# 
# From -- ./inp_files/10751.got.cif
#   From: 2010.05.17/outbox.cif.g08.bks.cpg/sg2_6_cif.got.tgz:10751.got - 2010.06.03 11:33:40.
