data_PCOD9013684
_publ_section_title
;
Structure prediction by ZEFSAII (Michael W. Deem and Ramdas Pophale) SiO2 
 PCOD9013684
Probable space group: P -1
;
_chemical_formula_sum "Si O2"
_cell_formula_units_Z 16
_cell_length_a 12.192866
_cell_length_b 6.302090
_cell_length_c 12.589802
_cell_angle_alpha 125.380918
_cell_angle_beta 101.818814
_cell_angle_gamma 56.580153
_cell_volume 649.016421
_symmetry_space_group_name_H-M "P -1"
_symmetry_group_IT_number 2
_symmetry_cell_setting 'triclinic'
loop_
_space_group_symop_operation_xyz
x,y,z
-x,-y,-z
loop_
_atom_site_type_symbol
_atom_site_label
_atom_site_fract_x
_atom_site_fract_y
_atom_site_fract_z
Si Si1 0.982887 0.818828 0.240477
Si Si2 0.378341 0.006136 0.825192
Si Si3 0.821399 0.523265 0.485059
Si Si4 0.393018 0.457869 0.404428
Si Si5 0.162035 0.388376 0.729124
Si Si6 0.780288 0.121256 0.691685
Si Si7 0.797596 0.067847 0.080550
Si Si8 0.644410 0.367134 0.942739
O O1 0.912926 0.152153 0.384419
O O2 0.909866 0.832162 0.118993
O O3 0.968229 0.601085 0.256132
O O4 0.128007 0.746461 0.225245
O O5 0.523790 0.805320 0.744757
O O6 0.335902 0.836516 0.850730
O O7 0.278905 0.100006 0.733038
O O8 0.345744 0.329226 0.961555
O O9 0.688848 0.607445 0.545839
O O10 0.800791 0.627097 0.389269
O O11 0.864570 0.747462 0.606531
O O12 0.500000 0.500000 0.500000
O O13 0.284332 0.751013 0.398798
O O14 0.158865 0.688684 0.851864
O O15 0.665635 0.251711 0.794119
O O16 0.751812 0.076169 0.953181
O O17 0.500000 0.500000 0.000000
#
# Coordination Sequence:
#
# PCOD9013684 Si02
#       8
#     2   2   2   2   2   2   2   2
#     4  10  22  43  66  91 126 161 205 261 314 369
#     4  10  21  41  65  93 128 166 207 255 312 369
#     4  11  23  40  64  92 126 166 206 256 314 370
#     4  12  25  40  63  94 126 164 209 258 313 370
#     4   9  19  40  67  91 121 163 208 256 312 369
#     4  12  27  41  62  96 126 164 211 256 308 370
#     4   9  20  41  68  91 121 167 206 254 314 366
#     4  11  24  42  65  94 129 165 208 256 305 372
#
# _framework density 24.652688999999999
#
# number of rings (size 3 to 8) (size 9 to 14) (size 15 to 20)
#    0.000    1.500    0.000    5.625    0.000   11.500 
#    0.000    5.625    0.000    0.000    0.000    0.000 
#    0.000    0.000    0.000    0.000    0.000    0.000 
#
# Total GULP energy -89341.417823 kJ/mol
# GULP energy per Si atom -5583.838614 kJ/mol
# Density = 2.459658 g / cm^3
# Si number density = 24.652689 Si / 1000 Ang^3
#
#
#
# Elastic Constant Matrix: (Units=GPa)
#
#
# Indices 1 2 3 4 5 6 
#
# 1 115.1497 36.3358 8.6748 -4.9740 -5.6902 27.5018
# 2 36.3358 91.7828 36.9644 -20.1093 -7.8883 15.9563
# 3 8.6748 36.9644 47.9762 -3.8892 1.5009 5.5917
# 4 -4.9740 -20.1093 -3.8892 47.2522 -9.6670 -5.1017
# 5 -5.6902 -7.8883 1.5009 -9.6670 26.7175 -7.1972
# 6 27.5018 15.9563 5.5917 -5.1017 -7.1972 42.8799
#
#
#
# Elastic Compliance Matrix: (Units=1/GPa)
#
#
# Indices 1 2 3 4 5 6 
#
# 1 0.011383 -0.004823 0.002297 -0.001624 -0.001395 -0.006233
# 2 -0.004823 0.022094 -0.015644 0.009569 0.009753 -0.000313
# 3 0.002297 -0.015644 0.032521 -0.005708 -0.008563 -0.002009
# 4 -0.001624 0.009569 -0.005708 0.027862 0.013926 0.003877
# 5 -0.001395 0.009753 -0.008563 0.013926 0.047698 0.008045
# 6 -0.006233 -0.000313 -0.002009 0.003877 0.008045 0.029508
#
#
# Mechanical properties :
#
#
# Convention : Reuss Voigt Hill
#
# Bulk Modulus (GPa) = 33.71934 46.53984 40.12959
# Shear Modulus (GPa) = 23.01032 34.89882 28.95457
#
# Velocity S-wave (km/s) = 3.05844 3.76655 3.43082
# Velocity P-wave (km/s) = 5.11659 6.15102 5.65750
#
# Compressibility (1/GPa) = 0.02965657
#
# Stress axis : x y z
#
# Youngs Moduli (GPa) = 87.85138 45.26044 30.74936
#
# Poissons Ratio (x) = 0.21831 -0.07062
# Poissons Ratio (y) = 0.42375 0.48104
# Poissons Ratio (z) = -0.20176 0.70805
#
# Static dielectric constant tensor:
#      x y z
#    x 1.950850 -0.028730 0.045180 
#    y -0.028730 1.996110 0.051840 
#    z 0.045180 0.051840 1.990620 
# 
# From -- ./inp_files/77614.got.cif
#   From: 2010.05.17/outbox.cif.g08.bks.cpg/sg2_39_cif.got.tgz:77614.got - 2010.06.03 11:33:40.
