data_PCOD9013047
_publ_section_title
;
Structure prediction by ZEFSAII (Michael W. Deem and Ramdas Pophale) SiO2 
 PCOD9013047
Probable space group: P -1
;
_chemical_formula_sum "Si O2"
_cell_formula_units_Z 14
_cell_length_a 9.471331
_cell_length_b 21.060977
_cell_length_c 12.280470
_cell_angle_alpha 23.701044
_cell_angle_beta 39.425566
_cell_angle_gamma 34.585275
_cell_volume 557.070521
_symmetry_space_group_name_H-M "P -1"
_symmetry_group_IT_number 2
_symmetry_cell_setting 'triclinic'
loop_
_space_group_symop_operation_xyz
x,y,z
-x,-y,-z
loop_
_atom_site_type_symbol
_atom_site_label
_atom_site_fract_x
_atom_site_fract_y
_atom_site_fract_z
Si Si1 0.125346 0.355545 0.385875
Si Si2 0.638612 0.906491 0.680171
Si Si3 0.882438 0.293124 0.412444
Si Si4 0.036566 0.338611 0.844136
Si Si5 0.775409 0.023667 0.020022
Si Si6 0.334726 0.791793 0.666148
Si Si7 0.558644 0.645249 0.533543
O O1 0.949288 0.528711 0.283149
O O2 0.394133 0.356593 0.214045
O O3 0.991486 0.337373 0.386105
O O4 0.195646 0.174575 0.698051
O O5 0.462878 0.868389 0.928801
O O6 0.900386 0.748114 0.738784
O O7 0.500000 0.000000 0.500000
O O8 0.691580 0.043961 0.504055
O O9 0.607604 0.421282 0.334258
O O10 0.828013 0.122606 0.732967
O O11 0.804635 0.470746 0.699643
O O12 0.307990 0.249017 0.770856
O O13 0.921772 0.218036 0.149200
O O14 0.000000 0.000000 0.000000
O O15 0.396983 0.759361 0.552045
#
# Coordination Sequence:
#
# PCOD9013047 Si02
#       7
#     2   2   2   2   2   2   2
#     4   9  18  37  64  86 118 156 203 242 285 365
#     4  11  20  38  64  91 116 154 199 242 303 358
#     4  11  22  38  61  95 124 149 201 254 295 342
#     4  10  22  44  61  80 121 170 200 236 306 345
#     4   9  18  35  57  91 121 151 191 238 297 354
#     4  10  21  41  63  84 119 161 200 240 298 367
#     4  10  23  40  59  90 122 158 203 246 291 356
#
# _framework density 25.131468999999999
#
# number of rings (size 3 to 8) (size 9 to 14) (size 15 to 20)
#    0.000    2.000    4.286    1.714    0.000    6.857 
#    0.000   12.857    0.000    0.000    0.000    0.000 
#    0.000    0.000    0.000    0.000    0.000    0.000 
#
# Total GULP energy -78128.014357 kJ/mol
# GULP energy per Si atom -5580.572454 kJ/mol
# Density = 2.507427 g / cm^3
# Si number density = 25.131469 Si / 1000 Ang^3
#
#
#
# Elastic Constant Matrix: (Units=GPa)
#
#
# Indices 1 2 3 4 5 6 
#
# 1 142.4443 52.6558 19.0318 21.7230 -14.2762 0.4485
# 2 52.6558 81.2479 30.3170 37.8282 -17.1095 -7.4446
# 3 19.0318 30.3170 90.4542 36.1484 -7.3357 -1.1351
# 4 21.7230 37.8282 36.1484 43.3449 -10.3002 -7.2825
# 5 -14.2762 -17.1095 -7.3357 -10.3002 29.5340 -0.5144
# 6 0.4485 -7.4446 -1.1351 -7.2825 -0.5144 32.5905
#
#
#
# Elastic Compliance Matrix: (Units=1/GPa)
#
#
# Indices 1 2 3 4 5 6 
#
# 1 0.009357 -0.006381 -0.000187 0.001080 0.001134 -0.001334
# 2 -0.006381 0.026236 0.000337 -0.018228 0.005878 0.002112
# 3 -0.000187 0.000337 0.016831 -0.014917 -0.000964 -0.002683
# 4 0.001080 -0.018228 -0.014917 0.053282 0.004967 0.007286
# 5 0.001134 0.005878 -0.000964 0.004967 0.039358 0.003024
# 6 -0.001334 0.002112 -0.002683 0.007286 0.003024 0.032767
#
#
# Mechanical properties :
#
#
# Convention : Reuss Voigt Hill
#
# Bulk Modulus (GPa) = 25.02338 57.57285 41.29812
# Shear Modulus (GPa) = 24.55634 35.23667 29.89650
#
# Velocity S-wave (km/s) = 3.12928 3.74852 3.45281
# Velocity P-wave (km/s) = 4.79949 6.45706 5.68897
#
# Compressibility (1/GPa) = 0.03996263
#
# Stress axis : x y z
#
# Youngs Moduli (GPa) = 106.87082 38.11571 59.41379
#
# Poissons Ratio (x) = 0.24322 0.01109
# Poissons Ratio (y) = 0.68195 -0.02002
# Poissons Ratio (z) = 0.01995 -0.01284
#
# Static dielectric constant tensor:
#      x y z
#    x 2.031230 -0.032370 0.144500 
#    y -0.032370 1.969350 -0.037100 
#    z 0.144500 -0.037100 2.300620 
# 
# From -- ./inp_files/404422.got.cif
#   From: 2010.05.17/outbox.cif.g08.bks.cpg/sg2_203_cif.got.tgz:404422.got - 2010.06.03 11:33:40.
