data_PCOD9013049
_publ_section_title
;
Structure prediction by ZEFSAII (Michael W. Deem and Ramdas Pophale) SiO2 
 PCOD9013049
Probable space group: P -1
;
_chemical_formula_sum "Si O2"
_cell_formula_units_Z 16
_cell_length_a 19.020684
_cell_length_b 18.779160
_cell_length_c 13.600737
_cell_angle_alpha 30.407584
_cell_angle_beta 20.883730
_cell_angle_gamma 19.989422
_cell_volume 587.147109
_symmetry_space_group_name_H-M "P -1"
_symmetry_group_IT_number 2
_symmetry_cell_setting 'triclinic'
loop_
_space_group_symop_operation_xyz
x,y,z
-x,-y,-z
loop_
_atom_site_type_symbol
_atom_site_label
_atom_site_fract_x
_atom_site_fract_y
_atom_site_fract_z
Si Si1 0.222738 0.001525 0.804051
Si Si2 0.377867 0.594812 0.792522
Si Si3 0.075053 0.834876 0.727053
Si Si4 0.877868 0.594812 0.792520
Si Si5 0.277263 0.998475 0.195947
Si Si6 0.743554 0.324915 0.810482
Si Si7 0.575053 0.834876 0.727053
Si Si8 0.243554 0.324915 0.810481
O O1 0.318034 0.059756 0.526712
O O2 0.860748 0.117598 0.948901
O O3 0.514352 0.842100 0.683096
O O4 0.937949 0.225781 0.956529
O O5 0.299934 0.617607 0.752028
O O6 0.587370 0.388735 0.831664
O O7 0.532931 0.666058 0.508277
O O8 0.014352 0.842100 0.683097
O O9 0.181968 0.940244 0.473286
O O10 0.750000 0.000001 0.999999
O O11 0.799936 0.617606 0.752027
O O12 0.032931 0.666059 0.508276
O O13 0.087370 0.388735 0.831664
O O14 0.562051 0.774219 0.043470
O O15 0.360748 0.117597 0.948900
O O16 0.500000 0.500000 0.000000
O O17 0.000000 0.500000 0.000000
#
# Coordination Sequence:
#
# PCOD9013049 Si02
#       8
#     2   2   2   2   2   2   2   2
#     4  10  21  41  63  85 119 155 193 243 292 344
#     4  10  22  40  60  88 119 153 196 239 292 349
#     4   9  20  39  63  87 113 154 199 241 291 341
#     4  10  22  40  60  88 119 153 196 239 292 349
#     4  10  21  41  63  85 119 155 193 243 292 344
#     4  11  24  38  59  91 121 154 194 238 292 350
#     4   9  20  39  63  87 113 154 199 241 291 341
#     4  11  24  38  59  91 121 154 194 238 292 350
#
# _framework density 27.250412000000001
#
# number of rings (size 3 to 8) (size 9 to 14) (size 15 to 20)
#    0.000    2.000    0.000    2.250    0.000   13.000 
#    0.000   17.500    0.000    0.000    0.000    0.000 
#    0.000    0.000    0.000    0.000    0.000    0.000 
#
# Total GULP energy -89497.508031 kJ/mol
# GULP energy per Si atom -5593.594252 kJ/mol
# Density = 2.718839 g / cm^3
# Si number density = 27.250412 Si / 1000 Ang^3
#
#
#
# Elastic Constant Matrix: (Units=GPa)
#
#
# Indices 1 2 3 4 5 6 
#
# 1 55.7410 27.7837 7.3001 6.4726 -7.6053 -38.8625
# 2 27.7837 126.6926 39.1197 -27.1679 19.2294 -33.7376
# 3 7.3001 39.1197 191.3806 -14.9992 -1.2632 -0.9607
# 4 6.4726 -27.1679 -14.9992 59.1235 -5.1920 5.1103
# 5 -7.6053 19.2294 -1.2632 -5.1920 37.8380 0.0330
# 6 -38.8625 -33.7376 -0.9607 5.1103 0.0330 69.1085
#
#
#
# Elastic Compliance Matrix: (Units=1/GPa)
#
#
# Indices 1 2 3 4 5 6 
#
# 1 0.035199 -0.005837 -0.000583 -0.007405 0.008990 0.017479
# 2 -0.005837 0.012588 -0.001984 0.005098 -0.006939 0.002462
# 3 -0.000583 -0.001984 0.005719 0.000818 0.001196 -0.001278
# 4 -0.007405 0.005098 0.000818 0.020440 -0.001244 -0.003175
# 5 0.008990 -0.006939 0.001196 -0.001244 0.031630 0.001762
# 6 0.017479 0.002462 -0.001278 -0.003175 0.001762 0.025717
#
#
# Mechanical properties :
#
#
# Convention : Reuss Voigt Hill
#
# Bulk Modulus (GPa) = 27.24996 58.02458 42.63727
# Shear Modulus (GPa) = 31.18520 53.18805 42.18663
#
# Velocity S-wave (km/s) = 3.38656 4.42274 3.93887
# Velocity P-wave (km/s) = 5.03123 6.88623 6.03048
#
# Compressibility (1/GPa) = 0.03669731
#
# Stress axis : x y z
#
# Youngs Moduli (GPa) = 28.40990 79.44225 174.86697
#
# Poissons Ratio (x) = 0.46370 0.10191
# Poissons Ratio (y) = 0.16583 0.34699
# Poissons Ratio (z) = 0.01656 0.15764
#
# Static dielectric constant tensor:
#      x y z
#    x 2.342230 -0.043660 -0.101780 
#    y -0.043660 2.083130 -0.080130 
#    z -0.101780 -0.080130 2.083830 
# 
# From -- ./inp_files/541757.got.cif
#   From: 2010.05.17/outbox.cif.g08.bks.cpg/sg2_271_cif.got.tgz:541757.got - 2010.06.03 11:33:40.
