data_PCOD9013706
_publ_section_title
;
Structure prediction by ZEFSAII (Michael W. Deem and Ramdas Pophale) SiO2 
 PCOD9013706
Probable space group: P -1
;
_chemical_formula_sum "Si O2"
_cell_formula_units_Z 14
_cell_length_a 12.076679
_cell_length_b 8.231671
_cell_length_c 17.545956
_cell_angle_alpha 74.380696
_cell_angle_beta 158.323597
_cell_angle_gamma 103.601531
_cell_volume 619.922760
_symmetry_space_group_name_H-M "P -1"
_symmetry_group_IT_number 2
_symmetry_cell_setting 'triclinic'
loop_
_space_group_symop_operation_xyz
x,y,z
-x,-y,-z
loop_
_atom_site_type_symbol
_atom_site_label
_atom_site_fract_x
_atom_site_fract_y
_atom_site_fract_z
Si Si1 0.695804 0.183915 0.310461
Si Si2 0.283129 0.605491 0.404885
Si Si3 0.133707 0.354416 0.996770
Si Si4 0.739369 0.025201 0.039301
Si Si5 0.129150 0.274867 0.171969
Si Si6 0.818656 0.806463 0.262796
Si Si7 0.834275 0.458856 0.251811
O O1 0.475897 0.320132 0.195967
O O2 0.476362 0.048151 0.153652
O O3 0.840822 0.280582 0.320197
O O4 0.947684 0.118249 0.538475
O O5 0.500000 0.500000 0.500000
O O6 0.515406 0.705213 0.591421
O O7 0.080925 0.485008 0.341303
O O8 0.060558 0.703997 0.191999
O O9 0.068136 0.259331 0.045153
O O10 0.043813 0.550750 0.932220
O O11 0.519068 0.152175 0.930882
O O12 0.844586 0.882003 0.185098
O O13 0.005065 0.124111 0.160110
O O14 0.883589 0.607501 0.324767
O O15 0.500000 0.500000 0.000000
#
# Coordination Sequence:
#
# PCOD9013706 Si02
#       7
#     2   2   2   2   2   2   2
#     4  12  24  42  69  97 129 171 228 267 330 382
#     4  10  22  38  64  97 129 166 209 268 326 380
#     4  10  21  41  65  94 126 168 221 274 310 390
#     4  11  25  43  63  96 136 174 215 274 324 401
#     4  10  23  41  65  94 132 171 215 263 338 386
#     4  11  25  42  66  96 131 174 222 270 331 379
#     4  12  22  43  72  97 129 169 224 277 318 383
#
# _framework density 22.583459000000001
#
# number of rings (size 3 to 8) (size 9 to 14) (size 15 to 20)
#    0.000    1.143    2.857    2.571    2.000    5.143 
#    0.000    5.000    0.000    0.000    0.000    0.000 
#    0.000    0.000    0.000    0.000    0.000    0.000 
#
# Total GULP energy -78327.198740 kJ/mol
# GULP energy per Si atom -5594.799910 kJ/mol
# Density = 2.253206 g / cm^3
# Si number density = 22.583459 Si / 1000 Ang^3
#
#
#
# Elastic Constant Matrix: (Units=GPa)
#
#
# Indices 1 2 3 4 5 6 
#
# 1 107.0572 19.6539 31.8196 13.8510 11.7241 19.3475
# 2 19.6539 40.9781 12.0492 12.2132 9.9053 12.4584
# 3 31.8196 12.0492 99.4001 9.3510 4.7920 14.7979
# 4 13.8510 12.2132 9.3510 27.2806 1.9262 11.4645
# 5 11.7241 9.9053 4.7920 1.9262 47.4272 3.1326
# 6 19.3475 12.4584 14.7979 11.4645 3.1326 32.4985
#
#
#
# Elastic Compliance Matrix: (Units=1/GPa)
#
#
# Indices 1 2 3 4 5 6 
#
# 1 0.011765 -0.002637 -0.002581 -0.002150 -0.001753 -0.003891
# 2 -0.002637 0.031987 -0.000932 -0.009619 -0.005122 -0.006381
# 3 -0.002581 -0.000932 0.011543 -0.000955 -0.000096 -0.003016
# 4 -0.002150 -0.009619 -0.000955 0.047040 0.001475 -0.011335
# 5 -0.001753 -0.005122 -0.000096 0.001475 0.022514 0.000360
# 6 -0.003891 -0.006381 -0.003016 -0.011335 0.000360 0.040871
#
#
# Mechanical properties :
#
#
# Convention : Reuss Voigt Hill
#
# Bulk Modulus (GPa) = 23.25729 41.60895 32.43312
# Shear Modulus (GPa) = 25.99431 33.70212 29.84822
#
# Velocity S-wave (km/s) = 3.39637 3.86727 3.63944
# Velocity P-wave (km/s) = 5.06963 6.19722 5.66157
#
# Compressibility (1/GPa) = 0.04299727
#
# Stress axis : x y z
#
# Youngs Moduli (GPa) = 84.99716 31.26277 86.63355
#
# Poissons Ratio (x) = 0.08243 0.22357
# Poissons Ratio (y) = 0.22411 0.08070
# Poissons Ratio (z) = 0.21934 0.02912
#
# Static dielectric constant tensor:
#      x y z
#    x 1.863560 -0.057530 -0.000320 
#    y -0.057530 1.823940 -0.015170 
#    z -0.000320 -0.015170 1.866810 
# 
# From -- ./inp_files/189481.got.cif
#   From: 2010.05.17/outbox.cif.g08.bks.cpg/sg2_95_cif.got.tgz:189481.got - 2010.06.03 11:33:40.
