data_PCOD9013892
_publ_section_title
;
Structure prediction by ZEFSAII (Michael W. Deem and Ramdas Pophale) SiO2 
 PCOD9013892
Probable space group: P -1
;
_chemical_formula_sum "Si O2"
_cell_formula_units_Z 16
_cell_length_a 21.484071
_cell_length_b 8.986405
_cell_length_c 8.718726
_cell_angle_alpha 60.446174
_cell_angle_beta 33.589502
_cell_angle_gamma 49.197446
_cell_volume 699.660080
_symmetry_space_group_name_H-M "P -1"
_symmetry_group_IT_number 2
_symmetry_cell_setting 'triclinic'
loop_
_space_group_symop_operation_xyz
x,y,z
-x,-y,-z
loop_
_atom_site_type_symbol
_atom_site_label
_atom_site_fract_x
_atom_site_fract_y
_atom_site_fract_z
Si Si1 0.387262 0.449137 0.787035
Si Si2 0.142279 0.785581 0.938196
Si Si3 0.192148 0.036662 0.945559
Si Si4 0.715423 0.133265 0.638423
Si Si5 0.913977 0.695127 0.474855
Si Si6 0.053265 0.579589 0.715625
Si Si7 0.278074 0.676282 0.187694
Si Si8 0.573224 0.062434 0.695387
O O1 0.500000 0.500000 0.500000
O O2 0.261030 0.587562 0.874850
O O3 0.459195 0.215219 0.739241
O O4 0.354519 0.492058 0.012054
O O5 0.179233 0.821926 0.676878
O O6 0.125729 0.964067 0.990714
O O7 0.019020 0.760520 0.192200
O O8 0.302736 0.058766 0.613166
O O9 0.082086 0.230694 0.157634
O O10 0.246856 0.859465 0.045665
O O11 0.655147 0.287684 0.821719
O O12 0.630613 0.156323 0.651134
O O13 0.785496 0.905481 0.670330
O O14 0.880613 0.600182 0.448129
O O15 0.000000 0.500000 0.500000
O O16 0.152179 0.659735 0.501436
O O17 0.000000 0.500000 0.000000
O O18 0.500000 0.000000 0.000000
#
# Coordination Sequence:
#
# PCOD9013892 Si02
#       8
#     2   2   2   2   2   2   2   2
#     4  11  21  45  68  92 124 173 225 250 319 389
#     4  10  21  41  66  88 126 176 208 264 308 393
#     4  10  21  43  63  89 126 176 213 253 322 386
#     4  11  23  42  63  96 127 170 215 259 324 381
#     4  12  24  38  62  97 132 164 212 269 326 374
#     4  12  24  38  62  99 130 163 213 272 323 372
#     4  11  23  40  68  92 128 171 212 266 311 390
#     4  11  25  43  69  92 130 173 211 269 320 382
#
# _framework density 22.868248999999999
#
# number of rings (size 3 to 8) (size 9 to 14) (size 15 to 20)
#    0.000    1.000    3.750    6.000    5.250    0.500 
#    0.000    0.625    0.000    0.000    0.000    0.000 
#    0.000    0.000    0.000    0.000    0.000    0.000 
#
# Total GULP energy -89187.903424 kJ/mol
# GULP energy per Si atom -5574.243964 kJ/mol
# Density = 2.281620 g / cm^3
# Si number density = 22.868249 Si / 1000 Ang^3
#
#
#
# Elastic Constant Matrix: (Units=GPa)
#
#
# Indices 1 2 3 4 5 6 
#
# 1 62.8179 6.1331 9.7249 11.8815 4.6858 2.3215
# 2 6.1331 67.6006 20.5345 9.1191 -9.9459 -15.6719
# 3 9.7249 20.5345 97.5919 -15.7953 -13.7517 13.1404
# 4 11.8815 9.1191 -15.7953 40.7868 -1.6967 3.3846
# 5 4.6858 -9.9459 -13.7517 -1.6967 35.1837 4.9330
# 6 2.3215 -15.6719 13.1404 3.3846 4.9330 36.0039
#
#
#
# Elastic Compliance Matrix: (Units=1/GPa)
#
#
# Indices 1 2 3 4 5 6 
#
# 1 0.018112 0.000204 -0.003839 -0.007125 -0.004423 0.001598
# 2 0.000204 0.021309 -0.007511 -0.008751 0.000857 0.012709
# 3 -0.003839 -0.007511 0.016293 0.010291 0.006776 -0.010864
# 4 -0.007125 -0.008751 0.010291 0.033688 0.005671 -0.011049
# 5 -0.004423 0.000857 0.006776 0.005671 0.033141 -0.006889
# 6 0.001598 0.012709 -0.010864 -0.011049 -0.006889 0.039151
#
#
# Mechanical properties :
#
#
# Convention : Reuss Voigt Hill
#
# Bulk Modulus (GPa) = 29.92116 33.42173 31.67145
# Shear Modulus (GPa) = 25.62445 35.16941 30.39693
#
# Velocity S-wave (km/s) = 3.35106 3.92588 3.64980
# Velocity P-wave (km/s) = 5.29956 5.93268 5.62503
#
# Compressibility (1/GPa) = 0.03342116
#
# Stress axis : x y z
#
# Youngs Moduli (GPa) = 55.21197 46.92953 61.37688
#
# Poissons Ratio (x) = -0.00957 0.23565
# Poissons Ratio (y) = -0.01126 0.46098
# Poissons Ratio (z) = 0.21198 0.35247
#
# Static dielectric constant tensor:
#      x y z
#    x 1.844850 -0.011650 -0.015590 
#    y -0.011650 1.957310 0.001910 
#    z -0.015590 0.001910 1.933800 
# 
# From -- ./inp_files/271330.got.cif
#   From: 2010.05.17/outbox.cif.g08.bks.cpg/sg2_136_cif.got.tgz:271330.got - 2010.06.03 11:33:40.
