data_PCOD9013873
_publ_section_title
;
Structure prediction by ZEFSAII (Michael W. Deem and Ramdas Pophale) SiO2 
 PCOD9013873
Probable space group: P -1
;
_chemical_formula_sum "Si O2"
_cell_formula_units_Z 16
_cell_length_a 7.327954
_cell_length_b 13.407619
_cell_length_c 20.196328
_cell_angle_alpha 29.880487
_cell_angle_beta 142.356638
_cell_angle_gamma 128.059120
_cell_volume 587.520383
_symmetry_space_group_name_H-M "P -1"
_symmetry_group_IT_number 2
_symmetry_cell_setting 'triclinic'
loop_
_space_group_symop_operation_xyz
x,y,z
-x,-y,-z
loop_
_atom_site_type_symbol
_atom_site_label
_atom_site_fract_x
_atom_site_fract_y
_atom_site_fract_z
Si Si1 0.231476 0.430200 0.504264
Si Si2 0.734817 0.599778 0.165810
Si Si3 0.265035 0.960378 0.654423
Si Si4 0.313709 0.952073 0.073878
Si Si5 0.310782 0.748914 0.436515
Si Si6 0.831546 0.386400 0.843698
Si Si7 0.163810 0.051155 0.339059
Si Si8 0.262037 0.397899 0.074337
O O1 0.500000 0.500000 0.500000
O O2 0.943549 0.435452 0.370290
O O3 0.420083 0.223014 0.713685
O O4 0.116421 0.631274 0.402484
O O5 0.456607 0.530267 0.092372
O O6 0.958198 0.612027 0.161311
O O7 0.014022 0.536080 0.093829
O O8 0.620405 0.822532 0.038478
O O9 0.472951 0.128709 0.612541
O O10 0.492361 0.750298 0.818489
O O11 0.000000 0.000000 0.500000
O O12 0.230505 0.842781 0.045791
O O13 0.000000 0.000000 0.000000
O O14 0.528788 0.557040 0.645538
O O15 0.156268 0.897966 0.364095
O O16 0.097749 0.948493 0.682350
O O17 0.150575 0.263033 0.176007
O O18 0.500000 0.000000 0.500000
#
# Coordination Sequence:
#
# PCOD9013873 Si02
#       8
#     2   2   2   2   2   2   2   2
#     4  11  20  36  69 107 142 201 250 303 366 445
#     4  11  22  39  66 109 153 193 250 299 372 448
#     4  11  22  43  73 104 142 190 246 303 370 441
#     4   9  19  35  59 102 147 192 246 303 362 443
#     4  10  22  41  73 112 145 190 254 306 369 447
#     4  10  21  41  66 111 149 190 246 306 373 440
#     4  11  24  43  71 106 148 189 246 312 365 443
#     4  11  25  43  71 113 150 189 243 309 375 448
#
# _framework density 27.233097999999998
#
# number of rings (size 3 to 8) (size 9 to 14) (size 15 to 20)
#    0.000    1.500    6.250    1.125    3.500    0.000 
#    4.500    1.875    0.000    4.500    0.000    5.250 
#    0.000    0.000    0.000    0.000    0.000    0.000 
#
# Total GULP energy -89775.785429 kJ/mol
# GULP energy per Si atom -5610.986589 kJ/mol
# Density = 2.717111 g / cm^3
# Si number density = 27.233098 Si / 1000 Ang^3
#
#
#
# Elastic Constant Matrix: (Units=GPa)
#
#
# Indices 1 2 3 4 5 6 
#
# 1 180.7204 53.2554 14.5959 -15.7632 -7.5415 -25.4912
# 2 53.2554 208.3069 70.3828 -6.5579 9.1717 -0.7743
# 3 14.5959 70.3828 103.8857 -3.1908 2.6901 6.7843
# 4 -15.7632 -6.5579 -3.1908 54.8179 -7.5145 -1.2875
# 5 -7.5415 9.1717 2.6901 -7.5145 22.3213 -2.4245
# 6 -25.4912 -0.7743 6.7843 -1.2875 -2.4245 36.2017
#
#
#
# Elastic Compliance Matrix: (Units=1/GPa)
#
#
# Indices 1 2 3 4 5 6 
#
# 1 0.007330 -0.001939 -0.000121 0.002655 0.004786 0.005557
# 2 -0.001939 0.006861 -0.004265 -0.000436 -0.003178 -0.000648
# 3 -0.000121 -0.004265 0.012705 0.000127 -0.000055 -0.002557
# 4 0.002655 -0.000436 0.000127 0.020156 0.008183 0.003101
# 5 0.004786 -0.003178 -0.000055 0.008183 0.051249 0.007035
# 6 0.005557 -0.000648 -0.002557 0.003101 0.007035 0.032583
#
#
# Mechanical properties :
#
#
# Convention : Reuss Voigt Hill
#
# Bulk Modulus (GPa) = 70.20013 85.48678 77.84346
# Shear Modulus (GPa) = 33.71953 46.31344 40.01648
#
# Velocity S-wave (km/s) = 3.52260 4.12834 3.83744
# Velocity P-wave (km/s) = 6.50987 7.36092 6.94844
#
# Compressibility (1/GPa) = 0.01424499
#
# Stress axis : x y z
#
# Youngs Moduli (GPa) = 136.42692 145.74682 78.71131
#
# Poissons Ratio (x) = 0.28267 0.00954
# Poissons Ratio (y) = 0.26460 0.33569
# Poissons Ratio (z) = 0.01653 0.62158
#
# Static dielectric constant tensor:
#      x y z
#    x 2.160890 -0.030140 0.005410 
#    y -0.030140 2.218750 -0.113140 
#    z 0.005410 -0.113140 2.173270 
# 
# From -- ./inp_files/610070.got.cif
#   From: 2010.05.17/outbox.cif.g08.bks.cpg/sg2_306_cif.got.tgz:610070.got - 2010.06.03 11:33:40.
