data_PCOD9013533
_publ_section_title
;
Structure prediction by ZEFSAII (Michael W. Deem and Ramdas Pophale) SiO2 
 PCOD9013533
Probable space group: P -1
;
_chemical_formula_sum "Si O2"
_cell_formula_units_Z 14
_cell_length_a 7.860186
_cell_length_b 11.923376
_cell_length_c 16.531509
_cell_angle_alpha 149.399146
_cell_angle_beta 135.619388
_cell_angle_gamma 52.744083
_cell_volume 551.420729
_symmetry_space_group_name_H-M "P -1"
_symmetry_group_IT_number 2
_symmetry_cell_setting 'triclinic'
loop_
_space_group_symop_operation_xyz
x,y,z
-x,-y,-z
loop_
_atom_site_type_symbol
_atom_site_label
_atom_site_fract_x
_atom_site_fract_y
_atom_site_fract_z
Si Si1 0.292862 0.061517 0.033901
Si Si2 0.892422 0.113883 0.805269
Si Si3 0.857946 0.364812 0.655117
Si Si4 0.307946 0.979386 0.742765
Si Si5 0.041113 0.600847 0.704467
Si Si6 0.305553 0.436400 0.962755
Si Si7 0.653366 0.662382 0.472071
O O1 0.150405 0.846525 0.887256
O O2 0.467878 0.147550 0.219125
O O3 0.075395 0.170231 0.977170
O O4 0.500000 0.000000 0.000000
O O5 0.070858 0.999930 0.731509
O O6 0.691733 0.927096 0.644575
O O7 0.771896 0.341098 0.880154
O O8 0.614643 0.427998 0.657938
O O9 0.951861 0.522693 0.712597
O O10 0.068766 0.341102 0.776579
O O11 0.774194 0.142855 0.441798
O O12 0.395269 0.232687 0.918165
O O13 0.243042 0.440780 0.638383
O O14 0.821596 0.586244 0.556135
O O15 0.500000 0.500000 0.000000
#
# Coordination Sequence:
#
# PCOD9013533 Si02
#       7
#     2   2   2   2   2   2   2
#     4   9  21  39  74  99 137 176 228 276 341 408
#     4  10  22  45  69 101 135 184 226 281 344 405
#     4  12  25  42  69 101 136 181 232 281 341 403
#     4  11  23  45  68 102 138 182 228 282 340 409
#     4  10  21  41  65 104 142 180 219 281 346 400
#     4  12  27  46  66  97 142 179 236 284 338 410
#     4  10  22  40  68 101 142 176 227 282 339 407
#
# _framework density 25.388961999999999
#
# number of rings (size 3 to 8) (size 9 to 14) (size 15 to 20)
#    0.000    1.429    1.429    3.000    6.000    1.143 
#    2.571    5.000    0.000    0.000    0.000    0.000 
#    0.000    0.000    0.000    0.000    0.000    0.000 
#
# Total GULP energy -78446.329962 kJ/mol
# GULP energy per Si atom -5603.309283 kJ/mol
# Density = 2.533118 g / cm^3
# Si number density = 25.388962 Si / 1000 Ang^3
#
#
#
# Elastic Constant Matrix: (Units=GPa)
#
#
# Indices 1 2 3 4 5 6 
#
# 1 137.4196 7.9630 26.1376 4.8596 23.8764 2.1533
# 2 7.9630 67.5334 0.8161 8.8040 7.2071 -3.1881
# 3 26.1376 0.8161 79.4912 2.6140 10.0635 -6.8836
# 4 4.8596 8.8040 2.6140 43.7187 -1.1040 11.7947
# 5 23.8764 7.2071 10.0635 -1.1040 47.9122 6.9510
# 6 2.1533 -3.1881 -6.8836 11.7947 6.9510 30.4979
#
#
#
# Elastic Compliance Matrix: (Units=1/GPa)
#
#
# Indices 1 2 3 4 5 6 
#
# 1 0.008399 -0.000471 -0.002270 -0.000791 -0.003654 -0.000016
# 2 -0.000471 0.015969 0.000904 -0.004466 -0.003090 0.004338
# 3 -0.002270 0.000904 0.014161 -0.002172 -0.002743 0.004916
# 4 -0.000791 -0.004466 -0.002172 0.027440 0.003956 -0.012415
# 5 -0.003654 -0.003090 -0.002743 0.003956 0.024971 -0.007905
# 6 -0.000016 0.004338 0.004916 -0.012415 -0.007905 0.040956
#
#
# Mechanical properties :
#
#
# Convention : Reuss Voigt Hill
#
# Bulk Modulus (GPa) = 28.68802 39.36420 34.02611
# Shear Modulus (GPa) = 33.97023 41.06091 37.51557
#
# Velocity S-wave (km/s) = 3.66183 4.02590 3.84817
# Velocity P-wave (km/s) = 5.40394 6.09496 5.75982
#
# Compressibility (1/GPa) = 0.03485776
#
# Stress axis : x y z
#
# Youngs Moduli (GPa) = 119.06123 62.62224 70.61457
#
# Poissons Ratio (x) = 0.02947 0.16027
# Poissons Ratio (y) = 0.05603 -0.06387
# Poissons Ratio (z) = 0.27022 -0.05664
#
# Static dielectric constant tensor:
#      x y z
#    x 1.976190 -0.017220 -0.032840 
#    y -0.017220 2.004590 0.073080 
#    z -0.032840 0.073080 2.017130 
# 
# From -- ./inp_files/560218.got.cif
#   From: 2010.05.17/outbox.cif.g08.bks.cpg/sg2_281_cif.got.tgz:560218.got - 2010.06.03 11:33:40.
