data_PCOD9013584
_publ_section_title
;
Structure prediction by ZEFSAII (Michael W. Deem and Ramdas Pophale) SiO2 
 PCOD9013584
Probable space group: P -1
;
_chemical_formula_sum "Si O2"
_cell_formula_units_Z 12
_cell_length_a 5.634744
_cell_length_b 5.445941
_cell_length_c 19.232757
_cell_angle_alpha 76.616260
_cell_angle_beta 112.881862
_cell_angle_gamma 75.278656
_cell_volume 488.433815
_symmetry_space_group_name_H-M "P -1"
_symmetry_group_IT_number 2
_symmetry_cell_setting 'triclinic'
loop_
_space_group_symop_operation_xyz
x,y,z
-x,-y,-z
loop_
_atom_site_type_symbol
_atom_site_label
_atom_site_fract_x
_atom_site_fract_y
_atom_site_fract_z
Si Si1 0.228044 0.924638 0.391660
Si Si2 0.166121 0.368915 0.458985
Si Si3 0.748914 0.423364 0.088537
Si Si4 0.590785 0.750290 0.187167
Si Si5 0.876657 0.125142 0.768679
Si Si6 0.764437 0.875152 0.985367
O O1 0.180558 0.639783 0.407796
O O2 0.541509 0.827896 0.461431
O O3 0.189054 0.001957 0.301298
O O4 0.067789 0.180635 0.408257
O O5 0.000000 0.500000 0.500000
O O6 0.626003 0.541864 0.141658
O O7 0.940611 0.113387 0.143009
O O8 0.500000 0.500000 0.000000
O O9 0.919017 0.582859 0.059302
O O10 0.904008 0.736250 0.234830
O O11 0.414117 0.712634 0.234817
O O12 0.403316 0.044608 0.111656
O O13 0.500000 0.000000 0.000000
O O14 0.000000 0.000000 0.000000
#
# Coordination Sequence:
#
# PCOD9013584 Si02
#       6
#     2   2   2   2   2   2
#     4  10  25  44  72 115 143 188 245 295 369 450
#     4  10  22  48  78 107 145 191 237 297 367 450
#     4  11  25  46  70 102 135 197 250 305 364 434
#     4  11  26  46  65 100 144 187 243 308 369 427
#     4  12  28  45  70 106 145 191 237 306 371 440
#     4  10  21  41  65  89 129 180 240 296 348 413
#
# _framework density 24.568321999999998
#
# number of rings (size 3 to 8) (size 9 to 14) (size 15 to 20)
#    0.000    1.333    1.667    2.500    7.000    4.667 
#    0.000    0.000    0.000    0.000    0.000    0.000 
#    0.000    0.000    0.000    0.000    0.000    0.000 
#
# Total GULP energy -66922.133105 kJ/mol
# GULP energy per Si atom -5576.844425 kJ/mol
# Density = 2.451240 g / cm^3
# Si number density = 24.568322 Si / 1000 Ang^3
#
#
#
# Elastic Constant Matrix: (Units=GPa)
#
#
# Indices 1 2 3 4 5 6 
#
# 1 166.7127 42.4587 49.5354 23.1719 -12.1532 -5.4632
# 2 42.4587 -6.8997 35.7494 61.0642 84.9606 -53.0362
# 3 49.5354 35.7494 131.3116 36.2370 -8.2608 0.0887
# 4 23.1719 61.0642 36.2370 37.2443 -31.5046 4.0281
# 5 -12.1532 84.9606 -8.2608 -31.5046 -47.4564 45.6314
# 6 -5.4632 -53.0362 0.0887 4.0281 45.6314 23.5981
#
#
#
# Elastic Compliance Matrix: (Units=1/GPa)
#
#
# Indices 1 2 3 4 5 6 
#
# 1 0.007048 -0.000917 -0.001984 -0.001708 -0.000732 0.001285
# 2 -0.000917 0.008025 -0.000648 -0.001655 0.011620 -0.004361
# 3 -0.001984 -0.000648 0.010598 -0.007317 0.000588 -0.001844
# 4 -0.001708 -0.001655 -0.007317 0.028185 -0.009975 0.010388
# 5 -0.000732 0.011620 0.000588 -0.009975 0.011549 0.005315
# 6 0.001285 -0.004361 -0.001844 0.010388 0.005315 0.020828
#
#
# Mechanical properties :
#
#
# Convention : Reuss Voigt Hill
#
# Bulk Modulus (GPa) = 53.84519 60.73462 57.28990
# Shear Modulus (GPa) = 50.23976 13.56929 31.90452
#
# Velocity S-wave (km/s) = 4.52696 2.35267 3.60752
# Velocity P-wave (km/s) = 7.02058 5.67049 6.38134
#
# Compressibility (1/GPa) = 0.01857176
#
# Stress axis : x y z
#
# Youngs Moduli (GPa) = 141.88939 124.61081 94.35664
#
# Poissons Ratio (x) = 0.11427 0.18725
# Poissons Ratio (y) = 0.13011 0.06115
# Poissons Ratio (z) = 0.28157 0.08076
#
# Static dielectric constant tensor:
#      x y z
#    x 2.111530 0.188300 -0.082770 
#    y 0.188300 2.714180 -0.034990 
#    z -0.082770 -0.034990 1.981110 
# 
# From -- ./inp_files/545651.got.cif
#   From: 2010.05.17/outbox.cif.g08.bks.cpg/sg2_273_cif.got.tgz:545651.got - 2010.06.03 11:33:40.
