data_PCOD9013541
_publ_section_title
;
Structure prediction by ZEFSAII (Michael W. Deem and Ramdas Pophale) SiO2 
 PCOD9013541
Probable space group: P -1
;
_chemical_formula_sum "Si O2"
_cell_formula_units_Z 16
_cell_length_a 11.021216
_cell_length_b 14.555214
_cell_length_c 20.632196
_cell_angle_alpha 27.481522
_cell_angle_beta 29.691705
_cell_angle_gamma 27.942567
_cell_volume 658.110101
_symmetry_space_group_name_H-M "P -1"
_symmetry_group_IT_number 2
_symmetry_cell_setting 'triclinic'
loop_
_space_group_symop_operation_xyz
x,y,z
-x,-y,-z
loop_
_atom_site_type_symbol
_atom_site_label
_atom_site_fract_x
_atom_site_fract_y
_atom_site_fract_z
Si Si1 0.461997 0.360264 0.846549
Si Si2 0.380003 0.368363 0.293326
Si Si3 0.917591 0.144686 0.529335
Si Si4 0.738379 0.390362 0.013271
Si Si5 0.457953 0.804929 0.434256
Si Si6 0.054940 0.205797 0.861123
Si Si7 0.149627 0.292733 0.143462
Si Si8 0.126450 0.678183 0.418474
O O1 0.531870 0.522983 0.757305
O O2 0.726812 0.228891 0.757691
O O3 0.167744 0.515893 0.848859
O O4 0.372044 0.227553 0.022345
O O5 0.156402 0.574398 0.221706
O O6 0.200749 0.255582 0.475464
O O7 0.649316 0.254597 0.191085
O O8 0.727329 0.272892 0.475418
O O9 0.844421 0.270319 0.552353
O O10 0.877508 0.925209 0.691197
O O11 0.246245 0.031465 0.429870
O O12 0.755886 0.588827 0.920064
O O13 0.011978 0.253283 0.927765
O O14 0.500000 0.500000 0.000000
O O15 0.644341 0.853655 0.267543
O O16 0.671578 0.596462 0.510128
O O17 0.000000 0.000000 0.000000
#
# Coordination Sequence:
#
# PCOD9013541 Si02
#       8
#     2   2   2   2   2   2   2   2
#     4  10  21  41  65  86 129 169 208 260 312 368
#     4   9  21  40  62  91 123 169 206 258 322 362
#     4  11  24  39  66  92 128 166 209 262 311 384
#     4   9  20  37  62  89 123 160 202 257 319 361
#     4  10  24  39  59  94 134 157 205 264 322 370
#     4  10  22  36  63  92 125 161 207 265 310 382
#     4  10  22  41  64  92 125 167 210 261 311 370
#     4  11  22  41  65  91 126 170 212 256 316 372
#
# _framework density 24.312042000000002
#
# number of rings (size 3 to 8) (size 9 to 14) (size 15 to 20)
#    0.000    2.000    1.250    0.750    8.750    5.500 
#    0.000    4.375    0.000    0.000    0.000    0.000 
#    0.000    0.000    0.000    0.000    0.000    0.000 
#
# Total GULP energy -89412.580089 kJ/mol
# GULP energy per Si atom -5588.286256 kJ/mol
# Density = 2.425671 g / cm^3
# Si number density = 24.312042 Si / 1000 Ang^3
#
#
#
# Elastic Constant Matrix: (Units=GPa)
#
#
# Indices 1 2 3 4 5 6 
#
# 1 80.9713 15.5810 16.7206 14.7993 1.9735 4.5400
# 2 15.5810 84.7820 49.2333 36.8896 14.3189 0.0664
# 3 16.7206 49.2333 135.8965 50.9201 5.9400 5.5597
# 4 14.7993 36.8896 50.9201 47.0391 12.1877 5.6333
# 5 1.9735 14.3189 5.9400 12.1877 29.3417 15.8763
# 6 4.5400 0.0664 5.5597 5.6333 15.8763 24.2287
#
#
#
# Elastic Compliance Matrix: (Units=1/GPa)
#
#
# Indices 1 2 3 4 5 6 
#
# 1 0.013421 -0.001640 0.000368 -0.003779 0.003597 -0.004073
# 2 -0.001640 0.020210 -0.003165 -0.010466 -0.010241 0.010122
# 3 0.000368 -0.003165 0.013317 -0.013263 0.006740 -0.004449
# 4 -0.003779 -0.010466 -0.013263 0.048120 -0.012290 0.000645
# 5 0.003597 -0.010241 0.006740 -0.012290 0.065409 -0.042195
# 6 -0.004073 0.010122 -0.004449 0.000645 -0.042195 0.070529
#
#
# Mechanical properties :
#
#
# Convention : Reuss Voigt Hill
#
# Bulk Modulus (GPa) = 26.26470 51.63549 38.95010
# Shear Modulus (GPa) = 19.79649 34.79622 27.29636
#
# Velocity S-wave (km/s) = 2.85663 3.78727 3.35438
# Velocity P-wave (km/s) = 4.65909 6.35683 5.57299
#
# Compressibility (1/GPa) = 0.03807391
#
# Stress axis : x y z
#
# Youngs Moduli (GPa) = 74.50985 49.48087 75.09311
#
# Poissons Ratio (x) = 0.08117 -0.02766
# Poissons Ratio (y) = 0.12223 0.23765
# Poissons Ratio (z) = -0.02745 0.15660
#
# Static dielectric constant tensor:
#      x y z
#    x 1.934900 -0.054080 0.016780 
#    y -0.054080 1.987810 0.057840 
#    z 0.016780 0.057840 1.996430 
# 
# From -- ./inp_files/471115.got.cif
#   From: 2010.05.17/outbox.cif.g08.bks.cpg/sg2_236_cif.got.tgz:471115.got - 2010.06.03 11:33:40.
