data_PCOD9013798
_publ_section_title
;
Structure prediction by ZEFSAII (Michael W. Deem and Ramdas Pophale) SiO2 
 PCOD9013798
Probable space group: P -1
;
_chemical_formula_sum "Si O2"
_cell_formula_units_Z 13
_cell_length_a 14.762409
_cell_length_b 13.799038
_cell_length_c 7.124659
_cell_angle_alpha 37.809079
_cell_angle_beta 59.165168
_cell_angle_gamma 38.856318
_cell_volume 537.926347
_symmetry_space_group_name_H-M "P -1"
_symmetry_group_IT_number 2
_symmetry_cell_setting 'triclinic'
loop_
_space_group_symop_operation_xyz
x,y,z
-x,-y,-z
loop_
_atom_site_type_symbol
_atom_site_label
_atom_site_fract_x
_atom_site_fract_y
_atom_site_fract_z
Si Si1 0.457141 0.965099 0.795406
Si Si2 0.277274 0.236895 0.894921
Si Si3 0.000000 0.500000 0.000000
Si Si4 0.877748 0.364761 0.085545
Si Si5 0.651150 0.192491 0.410879
Si Si6 0.542131 0.607154 0.049093
Si Si7 0.053841 0.940190 0.821945
O O1 0.590329 0.831572 0.012417
O O2 0.500000 0.000000 0.500000
O O3 0.431462 0.810957 0.998889
O O4 0.321042 0.194204 0.696845
O O5 0.277653 0.047879 0.233640
O O6 0.120336 0.463065 0.789746
O O7 0.073632 0.515885 0.079035
O O8 0.701168 0.521746 0.037342
O O9 0.949272 0.163163 0.464969
O O10 0.938427 0.238685 0.012947
O O11 0.575600 0.385225 0.351142
O O12 0.781006 0.157588 0.227728
O O13 0.525457 0.289078 0.243454
O O14 0.000000 0.000000 0.000000
#
# Coordination Sequence:
#
# PCOD9013798 Si02
#       7
#     2   2   1   2   2   2   2
#     4  11  23  44  65  93 137 174 217 280 341 393
#     4  11  24  42  67  94 133 179 222 280 329 405
#     4  12  22  44  68 100 132 182 234 268 346 416
#     4  10  22  42  65  93 136 174 228 282 336 404
#     4  10  21  42  66  97 131 174 229 272 334 409
#     4  10  21  41  65  97 133 170 223 279 329 406
#     4  10  22  44  66  93 135 179 224 286 340 396
#
# _framework density 24.166878000000001
#
# number of rings (size 3 to 8) (size 9 to 14) (size 15 to 20)
#    0.000    1.538    4.615    0.000    0.000    1.846 
#   13.846    1.538    0.000    0.000    0.000    0.000 
#    0.000    0.000    0.000    0.000    0.000    0.000 
#
# Total GULP energy -72407.736183 kJ/mol
# GULP energy per Si atom -5569.825860 kJ/mol
# Density = 2.411187 g / cm^3
# Si number density = 24.166878 Si / 1000 Ang^3
#
#
#
# Elastic Constant Matrix: (Units=GPa)
#
#
# Indices 1 2 3 4 5 6 
#
# 1 131.7932 25.7854 1.8628 1.7631 17.7097 27.9892
# 2 25.7854 114.6996 26.0295 38.6212 14.4603 29.3655
# 3 1.8628 26.0295 64.0400 23.7175 9.2002 5.3450
# 4 1.7631 38.6212 23.7175 41.8305 1.9930 12.6729
# 5 17.7097 14.4603 9.2002 1.9930 24.4672 -6.3180
# 6 27.9892 29.3655 5.3450 12.6729 -6.3180 54.3003
#
#
#
# Elastic Compliance Matrix: (Units=1/GPa)
#
#
# Indices 1 2 3 4 5 6 
#
# 1 0.010346 -0.000128 0.001138 0.001585 -0.009747 -0.006880
# 2 -0.000128 0.015826 0.000067 -0.012089 -0.010070 -0.006849
# 3 0.001138 0.000067 0.020996 -0.011330 -0.008090 -0.000987
# 4 0.001585 -0.012089 -0.011330 0.041787 0.006290 -0.002185
# 5 -0.009747 -0.010070 -0.008090 0.006290 0.060763 0.016868
# 6 -0.006880 -0.006849 -0.000987 -0.002185 0.016868 0.028236
#
#
# Mechanical properties :
#
#
# Convention : Reuss Voigt Hill
#
# Bulk Modulus (GPa) = 20.27470 46.43201 33.35336
# Shear Modulus (GPa) = 26.00922 41.24325 33.62623
#
# Velocity S-wave (km/s) = 3.28416 4.13559 3.73422
# Velocity P-wave (km/s) = 4.77374 6.48528 5.69419
#
# Compressibility (1/GPa) = 0.04932255
#
# Stress axis : x y z
#
# Youngs Moduli (GPa) = 96.65367 63.18828 47.62910
#
# Poissons Ratio (x) = 0.00807 -0.05422
# Poissons Ratio (y) = 0.01235 -0.00318
# Poissons Ratio (z) = -0.11003 -0.00423
#
# Static dielectric constant tensor:
#      x y z
#    x 1.906930 -0.007290 -0.024310 
#    y -0.007290 2.091700 -0.066130 
#    z -0.024310 -0.066130 1.954860 
# 
# From -- ./inp_files/93158.got.cif
#   From: 2010.05.17/outbox.cif.g08.bks.cpg/sg2_47_cif.got.tgz:93158.got - 2010.06.03 11:33:40.
