data_PCOD9013815
_publ_section_title
;
Structure prediction by ZEFSAII (Michael W. Deem and Ramdas Pophale) SiO2 
 PCOD9013815
Probable space group: P -1
;
_chemical_formula_sum "Si O2"
_cell_formula_units_Z 11
_cell_length_a 8.838816
_cell_length_b 9.801524
_cell_length_c 12.608007
_cell_angle_alpha 35.040966
_cell_angle_beta 133.553056
_cell_angle_gamma 115.601620
_cell_volume 431.032474
_symmetry_space_group_name_H-M "P -1"
_symmetry_group_IT_number 2
_symmetry_cell_setting 'triclinic'
loop_
_space_group_symop_operation_xyz
x,y,z
-x,-y,-z
loop_
_atom_site_type_symbol
_atom_site_label
_atom_site_fract_x
_atom_site_fract_y
_atom_site_fract_z
Si Si1 0.500000 0.500000 0.500000
Si Si2 0.890752 0.581683 0.512916
Si Si3 0.748757 0.319527 0.238700
Si Si4 0.497300 0.328490 0.404684
Si Si5 0.811650 0.900813 0.715089
Si Si6 0.257465 0.832614 0.904252
O O1 0.719964 0.448229 0.560471
O O2 0.407725 0.340273 0.472792
O O3 0.000000 0.500000 0.500000
O O4 0.088409 0.545186 0.717062
O O5 0.760723 0.882595 0.260602
O O6 0.802436 0.203056 0.222476
O O7 0.768144 0.096829 0.472106
O O8 0.500000 0.500000 0.000000
O O9 0.320323 0.283367 0.263149
O O10 0.703589 0.082061 0.643214
O O11 0.481082 0.612941 0.179537
O O12 0.071766 0.783939 0.921859
#
# Coordination Sequence:
#
# PCOD9013815 Si02
#       6
#     1   2   2   2   2   2
#     4  12  24  46  66 100 152 186 232 294 368 424
#     4  11  26  47  73 104 150 190 237 299 363 432
#     4  11  21  42  72 104 134 189 246 292 360 426
#     4  11  23  40  65 100 138 184 233 300 351 429
#     4  10  21  41  65  98 137 176 241 299 346 420
#     4  11  22  42  70  98 135 193 238 294 359 417
#
# _framework density 25.520122000000001
#
# number of rings (size 3 to 8) (size 9 to 14) (size 15 to 20)
#    0.000    1.091    1.818    7.091    0.000    0.727 
#    3.273    1.818    0.000    0.000    0.000    0.000 
#    0.000    0.000    0.000    0.000    0.000    0.000 
#
# Total GULP energy -61251.279767 kJ/mol
# GULP energy per Si atom -5568.298161 kJ/mol
# Density = 2.546204 g / cm^3
# Si number density = 25.520122 Si / 1000 Ang^3
#
#
#
# Elastic Constant Matrix: (Units=GPa)
#
#
# Indices 1 2 3 4 5 6 
#
# 1 123.7566 57.0049 12.3897 -6.3478 13.7467 -12.7176
# 2 57.0049 154.9889 20.6654 -4.6062 10.0426 -47.7859
# 3 12.3897 20.6654 74.1460 -14.3009 18.8953 -2.8002
# 4 -6.3478 -4.6062 -14.3009 35.2095 -8.3743 6.2565
# 5 13.7467 10.0426 18.8953 -8.3743 19.8627 6.1739
# 6 -12.7176 -47.7859 -2.8002 6.2565 6.1739 70.9552
#
#
#
# Elastic Compliance Matrix: (Units=1/GPa)
#
#
# Indices 1 2 3 4 5 6 
#
# 1 0.010293 -0.003490 0.000855 0.000301 -0.006054 0.000029
# 2 -0.003490 0.010232 -0.001253 -0.002092 -0.004561 0.006797
# 3 0.000855 -0.001253 0.018628 0.003392 -0.016619 0.001191
# 4 0.000301 -0.002092 0.003392 0.033728 0.013512 -0.005371
# 5 -0.006054 -0.004561 -0.016619 0.013512 0.082444 -0.013177
# 6 0.000029 0.006797 0.001191 -0.005371 -0.013177 0.020343
#
#
# Mechanical properties :
#
#
# Convention : Reuss Voigt Hill
#
# Bulk Modulus (GPa) = 31.87136 59.22351 45.54744
# Shear Modulus (GPa) = 25.78625 42.72759 34.25692
#
# Velocity S-wave (km/s) = 3.18217 4.09622 3.66778
# Velocity P-wave (km/s) = 5.10073 6.75493 5.98525
#
# Compressibility (1/GPa) = 0.03137613
#
# Stress axis : x y z
#
# Youngs Moduli (GPa) = 97.15214 97.73591 53.68368
#
# Poissons Ratio (x) = 0.34107 -0.04588
# Poissons Ratio (y) = 0.33903 0.06727
# Poissons Ratio (z) = -0.08304 0.12248
#
# Static dielectric constant tensor:
#      x y z
#    x 2.118290 0.081870 0.004960 
#    y 0.081870 10.428280 0.551180 
#    z 0.004960 0.551180 2.083550 
# 
# From -- ./inp_files/377529.got.cif
#   From: 2010.05.17/outbox.cif.g08.bks.cpg/sg2_189_cif.got.tgz:377529.got - 2010.06.03 11:33:40.
