data_PCOD9013943
_publ_section_title
;
Structure prediction by ZEFSAII (Michael W. Deem and Ramdas Pophale) SiO2 
 PCOD9013943
Probable space group: P -1
;
_chemical_formula_sum "Si O2"
_cell_formula_units_Z 16
_cell_length_a 14.528237
_cell_length_b 7.023083
_cell_length_c 7.986052
_cell_angle_alpha 115.682645
_cell_angle_beta 60.396983
_cell_angle_gamma 95.650452
_cell_volume 631.497117
_symmetry_space_group_name_H-M "P -1"
_symmetry_group_IT_number 2
_symmetry_cell_setting 'triclinic'
loop_
_space_group_symop_operation_xyz
x,y,z
-x,-y,-z
loop_
_atom_site_type_symbol
_atom_site_label
_atom_site_fract_x
_atom_site_fract_y
_atom_site_fract_z
Si Si1 0.366906 0.609578 0.765096
Si Si2 0.423368 0.494568 0.295677
Si Si3 0.915563 0.070167 0.965254
Si Si4 0.134359 0.542251 0.054262
Si Si5 0.255920 0.116767 0.817509
Si Si6 0.047409 0.816687 0.516006
Si Si7 0.363185 0.076257 0.040654
Si Si8 0.290111 0.889660 0.384613
O O1 0.366497 0.520960 0.541551
O O2 0.457682 0.469518 0.742753
O O3 0.253543 0.610699 0.959481
O O4 0.402776 0.846379 0.828930
O O5 0.427672 0.257650 0.122526
O O6 0.361961 0.665279 0.285187
O O7 0.928940 0.295050 0.958136
O O8 0.944739 0.860366 0.743425
O O9 0.797918 0.084495 0.148574
O O10 0.000000 0.000000 0.000000
O O11 0.161461 0.294784 0.904437
O O12 0.077211 0.601743 0.303906
O O13 0.321277 0.042391 0.565358
O O14 0.300320 0.191136 0.980530
O O15 0.162937 0.865576 0.498261
O O16 0.000000 0.000000 0.500000
O O17 0.308569 0.995938 0.228578
#
# Coordination Sequence:
#
# PCOD9013943 Si02
#       8
#     2   2   2   2   2   2   2   2
#     4  11  23  49  71 105 148 181 243 295 346 431
#     4  11  26  45  73 105 142 194 233 293 360 416
#     4  11  22  42  68  97 137 179 230 295 347 415
#     4  11  23  45  67  98 140 179 226 296 350 413
#     4  12  25  44  73 104 140 189 237 289 356 428
#     4  10  21  41  66  91 134 179 224 288 351 408
#     4  12  24  45  73 104 141 189 238 288 355 423
#     4  12  23  46  70 101 144 185 234 293 351 416
#
# _framework density 25.336618000000001
#
# number of rings (size 3 to 8) (size 9 to 14) (size 15 to 20)
#    0.000    0.750    5.000    2.625    0.000    1.500 
#    4.500    1.875    0.000    0.000    0.000    0.000 
#    0.000    0.000    0.000    0.000    0.000    0.000 
#
# Total GULP energy -89156.382139 kJ/mol
# GULP energy per Si atom -5572.273884 kJ/mol
# Density = 2.527895 g / cm^3
# Si number density = 25.336618 Si / 1000 Ang^3
#
#
#
# Elastic Constant Matrix: (Units=GPa)
#
#
# Indices 1 2 3 4 5 6 
#
# 1 103.4787 23.7756 -15.0475 -2.2236 6.9454 -31.4705
# 2 23.7756 114.0238 15.0984 7.7680 8.4901 -16.3465
# 3 -15.0475 15.0984 68.4657 -5.8579 19.0877 -1.7568
# 4 -2.2236 7.7680 -5.8579 37.9922 -7.5646 0.5709
# 5 6.9454 8.4901 19.0877 -7.5646 41.3559 3.4579
# 6 -31.4705 -16.3465 -1.7568 0.5709 3.4579 30.0969
#
#
#
# Elastic Compliance Matrix: (Units=1/GPa)
#
#
# Indices 1 2 3 4 5 6 
#
# 1 0.016892 -0.001302 0.006454 0.000593 -0.006955 0.018121
# 2 -0.001302 0.010291 -0.002198 -0.002939 -0.001782 0.004360
# 3 0.006454 -0.002198 0.019658 0.001741 -0.010042 0.007823
# 4 0.000593 -0.002939 0.001741 0.028258 0.005035 -0.001990
# 5 -0.006955 -0.001782 -0.010042 0.005035 0.032326 -0.012636
# 6 0.018121 0.004360 0.007823 -0.001990 -0.012636 0.056488
#
#
# Mechanical properties :
#
#
# Convention : Reuss Voigt Hill
#
# Bulk Modulus (GPa) = 18.95737 37.06904 28.01320
# Shear Modulus (GPa) = 28.47580 39.36512 33.92046
#
# Velocity S-wave (km/s) = 3.35610 3.94596 3.66292
# Velocity P-wave (km/s) = 4.74513 5.95173 5.38235
#
# Compressibility (1/GPa) = 0.05274993
#
# Stress axis : x y z
#
# Youngs Moduli (GPa) = 59.19968 97.17627 50.86871
#
# Poissons Ratio (x) = 0.12649 -0.32833
# Poissons Ratio (y) = 0.07705 0.11183
# Poissons Ratio (z) = -0.38210 0.21362
#
# Static dielectric constant tensor:
#      x y z
#    x 2.047060 -0.009530 0.029470 
#    y -0.009530 2.036510 -0.032890 
#    z 0.029470 -0.032890 1.959250 
# 
# From -- ./inp_files/296693.got.cif
#   From: 2010.05.17/outbox.cif.g08.bks.cpg/sg2_149_cif.got.tgz:296693.got - 2010.06.03 11:33:40.
