data_PCOD9013794
_publ_section_title
;
Structure prediction by ZEFSAII (Michael W. Deem and Ramdas Pophale) SiO2 
 PCOD9013794
Probable space group: P -1
;
_chemical_formula_sum "Si O2"
_cell_formula_units_Z 15
_cell_length_a 7.871190
_cell_length_b 5.173738
_cell_length_c 15.859588
_cell_angle_alpha 95.540185
_cell_angle_beta 103.089295
_cell_angle_gamma 110.553742
_cell_volume 577.953093
_symmetry_space_group_name_H-M "P -1"
_symmetry_group_IT_number 2
_symmetry_cell_setting 'triclinic'
loop_
_space_group_symop_operation_xyz
x,y,z
-x,-y,-z
loop_
_atom_site_type_symbol
_atom_site_label
_atom_site_fract_x
_atom_site_fract_y
_atom_site_fract_z
Si Si1 0.000000 0.000000 0.000000
Si Si2 0.777137 0.283504 0.949336
Si Si3 0.809091 0.986190 0.349241
Si Si4 0.534681 0.418302 0.792638
Si Si5 0.000091 0.567230 0.294626
Si Si6 0.216073 0.401786 0.887615
Si Si7 0.335820 0.114191 0.501252
Si Si8 0.349733 0.429181 0.356150
O O1 0.197106 0.005437 0.062000
O O2 0.884109 0.876360 0.075024
O O3 0.692917 0.366505 0.862292
O O4 0.691988 0.344612 0.027293
O O5 0.000000 0.500000 0.000000
O O6 0.591833 0.845236 0.288094
O O7 0.905575 0.762143 0.335471
O O8 0.811465 0.064649 0.450624
O O9 0.898087 0.254926 0.309347
O O10 0.382444 0.424900 0.843575
O O11 0.620787 0.654759 0.737978
O O12 0.944979 0.570998 0.190473
O O13 0.217550 0.608994 0.336891
O O14 0.260404 0.189947 0.408544
O O15 0.445645 0.405392 0.573642
O O16 0.500000 0.000000 0.500000
#
# Coordination Sequence:
#
# PCOD9013794 Si02
#       8
#     1   2   2   2   2   2   2   2
#     4  10  22  40  60  94 130 170 226 284 336 404
#     4  10  21  41  65  97 130 177 227 286 341 407
#     4  10  26  46  72 102 142 182 234 287 351 417
#     4  10  22  46  66  99 133 186 229 287 349 418
#     4  11  25  47  71 105 140 185 232 292 346 414
#     4  10  23  41  68  95 136 176 235 282 347 407
#     4  10  24  43  70 103 141 186 231 286 347 423
#     4  10  23  43  69 100 140 184 230 289 350 415
#
# _framework density 25.953664
#
# number of rings (size 3 to 8) (size 9 to 14) (size 15 to 20)
#    0.000    1.867    0.000    2.000   13.067    1.600 
#    9.600    0.000    0.000    0.000    0.000    0.000 
#    0.000    0.000    0.000    0.000    0.000    0.000 
#
# Total GULP energy -83516.832360 kJ/mol
# GULP energy per Si atom -5567.788824 kJ/mol
# Density = 2.589459 g / cm^3
# Si number density = 25.953664 Si / 1000 Ang^3
#
#
#
# Elastic Constant Matrix: (Units=GPa)
#
#
# Indices 1 2 3 4 5 6 
#
# 1 124.5368 18.0531 85.4206 -17.9972 -3.1373 -14.3528
# 2 18.0531 46.1564 39.0750 -15.7599 4.5068 -15.1664
# 3 85.4206 39.0750 244.5908 -49.6184 -7.7146 -10.0593
# 4 -17.9972 -15.7599 -49.6184 31.6315 -0.4608 9.7232
# 5 -3.1373 4.5068 -7.7146 -0.4608 59.8400 2.1855
# 6 -14.3528 -15.1664 -10.0593 9.7232 2.1855 30.9942
#
#
#
# Elastic Compliance Matrix: (Units=1/GPa)
#
#
# Indices 1 2 3 4 5 6 
#
# 1 0.011032 -0.000005 -0.003919 -0.001167 -0.000089 0.004207
# 2 -0.000005 0.030965 -0.003205 0.006582 -0.003143 0.012267
# 3 -0.003919 -0.003205 0.007804 0.009653 0.001261 -0.003967
# 4 -0.001167 0.006582 0.009653 0.052723 0.001489 -0.010831
# 5 -0.000089 -0.003143 0.001261 0.001489 0.017221 -0.002851
# 6 0.004207 0.012267 -0.003967 -0.010831 -0.002851 0.042526
#
#
# Mechanical properties :
#
#
# Convention : Reuss Voigt Hill
#
# Bulk Modulus (GPa) = 28.13348 77.82017 52.97683
# Shear Modulus (GPa) = 26.54265 42.67551 34.60908
#
# Velocity S-wave (km/s) = 3.20143 4.05939 3.65567
# Velocity P-wave (km/s) = 4.95267 7.21255 6.18667
#
# Compressibility (1/GPa) = 0.03554484
#
# Stress axis : x y z
#
# Youngs Moduli (GPa) = 90.64342 32.29434 128.14281
#
# Poissons Ratio (x) = 0.00016 0.50214
# Poissons Ratio (y) = 0.00046 0.41064
# Poissons Ratio (z) = 0.35519 0.10349
#
# Static dielectric constant tensor:
#      x y z
#    x 2.103460 0.071390 -0.052860 
#    y 0.071390 1.877920 0.024770 
#    z -0.052860 0.024770 2.042840 
# 
# From -- ./inp_files/488333.got.cif
#   From: 2010.05.17/outbox.cif.g08.bks.cpg/sg2_245_cif.got.tgz:488333.got - 2010.06.03 11:33:40.
