data_PCOD9013384
_publ_section_title
;
Structure prediction by ZEFSAII (Michael W. Deem and Ramdas Pophale) SiO2 
 PCOD9013384
Probable space group: P -1
;
_chemical_formula_sum "Si O2"
_cell_formula_units_Z 16
_cell_length_a 21.183851
_cell_length_b 5.370363
_cell_length_c 7.312598
_cell_angle_alpha 118.809154
_cell_angle_beta 62.186652
_cell_angle_gamma 110.626917
_cell_volume 635.961145
_symmetry_space_group_name_H-M "P -1"
_symmetry_group_IT_number 2
_symmetry_cell_setting 'triclinic'
loop_
_space_group_symop_operation_xyz
x,y,z
-x,-y,-z
loop_
_atom_site_type_symbol
_atom_site_label
_atom_site_fract_x
_atom_site_fract_y
_atom_site_fract_z
Si Si1 0.212782 0.683205 0.442623
Si Si2 0.477338 0.264483 0.287671
Si Si3 0.936063 0.378721 0.260039
Si Si4 0.086632 0.309084 0.979126
Si Si5 0.321617 0.231427 0.456993
Si Si6 0.761965 0.351335 0.166487
Si Si7 0.310438 0.269775 0.060271
Si Si8 0.532835 0.808689 0.234710
O O1 0.127271 0.590534 0.500119
O O2 0.223330 0.634485 0.628937
O O3 0.263819 0.523721 0.190280
O O4 0.246139 0.015472 0.493750
O O5 0.500000 0.500000 0.500000
O O6 0.394127 0.116163 0.374434
O O7 0.484387 0.494811 0.195881
O O8 0.528898 0.025463 0.146357
O O9 0.930017 0.597209 0.175904
O O10 0.917111 0.034825 0.110603
O O11 0.019877 0.409047 0.212835
O O12 0.166442 0.480733 0.965662
O O13 0.308807 0.495173 0.695586
O O14 0.330493 0.300588 0.257304
O O15 0.742433 0.026148 0.013946
O O16 0.386293 0.247811 0.856037
O O17 0.500000 0.000000 0.500000
#
# Coordination Sequence:
#
# PCOD9013384 Si02
#       8
#     2   2   2   2   2   2   2   2
#     4  10  23  40  63  95 128 172 211 268 324 385
#     4  10  23  40  66  88 120 162 213 259 321 383
#     4   9  17  35  61  93 130 166 215 264 311 378
#     4   9  17  33  63  95 123 172 218 256 314 379
#     4  11  24  41  65  93 128 169 210 272 328 386
#     4  10  21  41  64  93 127 174 216 263 320 388
#     4  11  26  41  65  94 130 166 218 271 324 389
#     4  10  23  43  63  90 120 167 208 266 320 384
#
# _framework density 25.158767999999998
#
# number of rings (size 3 to 8) (size 9 to 14) (size 15 to 20)
#    0.000    2.000    1.250    1.500    8.750    2.000 
#    0.000    0.625    0.000    0.750    0.000    0.000 
#    0.000    0.000    0.000    0.000    0.000    0.000 
#
# Total GULP energy -89349.399718 kJ/mol
# GULP energy per Si atom -5584.337482 kJ/mol
# Density = 2.510151 g / cm^3
# Si number density = 25.158768 Si / 1000 Ang^3
#
#
#
# Elastic Constant Matrix: (Units=GPa)
#
#
# Indices 1 2 3 4 5 6 
#
# 1 85.1409 9.6383 29.5567 -10.2303 -14.9482 6.7621
# 2 9.6383 109.3303 18.1169 9.3347 -2.9687 -2.4000
# 3 29.5567 18.1169 113.1157 -3.7375 -24.0278 2.8962
# 4 -10.2303 9.3347 -3.7375 50.1086 2.4444 -10.3842
# 5 -14.9482 -2.9687 -24.0278 2.4444 37.5606 -4.6245
# 6 6.7621 -2.4000 2.8962 -10.3842 -4.6245 46.2717
#
#
#
# Elastic Compliance Matrix: (Units=1/GPa)
#
#
# Indices 1 2 3 4 5 6 
#
# 1 0.013726 -0.000912 -0.002604 0.002401 0.003445 -0.001007
# 2 -0.000912 0.009636 -0.001457 -0.002024 -0.000373 0.000233
# 3 -0.002604 -0.001457 0.011013 0.000331 0.005906 0.000280
# 4 0.002401 -0.002024 0.000331 0.021758 0.000136 0.004420
# 5 0.003445 -0.000373 0.005906 0.000136 0.032022 0.002338
# 6 -0.001007 0.000233 0.000280 0.004420 0.002338 0.022979
#
#
# Mechanical properties :
#
#
# Convention : Reuss Voigt Hill
#
# Bulk Modulus (GPa) = 40.93534 46.91231 43.92382
# Shear Modulus (GPa) = 38.69308 43.47319 41.08313
#
# Velocity S-wave (km/s) = 3.92593 4.16138 4.04537
# Velocity P-wave (km/s) = 6.07097 6.46347 6.27029
#
# Compressibility (1/GPa) = 0.02442877
#
# Stress axis : x y z
#
# Youngs Moduli (GPa) = 72.85656 103.77517 90.80530
#
# Poissons Ratio (x) = 0.09466 0.23641
# Poissons Ratio (y) = 0.06646 0.13231
# Poissons Ratio (z) = 0.18968 0.15121
#
# Static dielectric constant tensor:
#      x y z
#    x 2.174970 -0.172730 0.172880 
#    y -0.172730 2.055860 -0.195410 
#    z 0.172880 -0.195410 2.195990 
# 
# From -- ./inp_files/52886.got.cif
#   From: 2010.05.17/outbox.cif.g08.bks.cpg/sg2_27_cif.got.tgz:52886.got - 2010.06.03 11:33:40.
