data_PCOD9013677
_publ_section_title
;
Structure prediction by ZEFSAII (Michael W. Deem and Ramdas Pophale) SiO2 
 PCOD9013677
Probable space group: P -1
;
_chemical_formula_sum "Si O2"
_cell_formula_units_Z 16
_cell_length_a 7.740503
_cell_length_b 16.635929
_cell_length_c 17.019329
_cell_angle_alpha 153.431284
_cell_angle_beta 51.840415
_cell_angle_gamma 137.074948
_cell_volume 662.618235
_symmetry_space_group_name_H-M "P -1"
_symmetry_group_IT_number 2
_symmetry_cell_setting 'triclinic'
loop_
_space_group_symop_operation_xyz
x,y,z
-x,-y,-z
loop_
_atom_site_type_symbol
_atom_site_label
_atom_site_fract_x
_atom_site_fract_y
_atom_site_fract_z
Si Si1 0.511819 0.150236 0.360777
Si Si2 0.754904 0.868601 0.848499
Si Si3 0.986589 0.297625 0.255976
Si Si4 0.207589 0.714090 0.456296
Si Si5 0.948185 0.100660 0.840418
Si Si6 0.159789 0.291567 0.671150
Si Si7 0.285396 0.131586 0.637340
Si Si8 0.823399 0.419168 0.200488
O O1 0.739991 0.286391 0.355402
O O2 0.657072 0.114469 0.362197
O O3 0.359909 0.249351 0.530880
O O4 0.287058 0.964905 0.211712
O O5 0.449845 0.749571 0.836264
O O6 0.847694 0.730104 0.747209
O O7 0.849323 0.927111 0.784273
O O8 0.875995 0.088501 0.052357
O O9 0.138457 0.503093 0.340443
O O10 0.422486 0.784947 0.390679
O O11 0.948585 0.622821 0.399434
O O12 0.185720 0.119709 0.742480
O O13 0.995908 0.314036 0.052420
O O14 0.212568 0.279219 0.736547
O O15 0.198084 0.503126 0.811276
O O16 0.884614 0.094769 0.553937
#
# Coordination Sequence:
#
# PCOD9013677 Si02
#       8
#     2   2   2   2   2   2   2   2
#     4  10  21  41  65  93 125 166 207 257 316 372
#     4  11  23  40  65  96 133 158 207 270 321 369
#     4  11  22  41  66  96 126 166 208 264 321 373
#     4  11  23  40  66  93 133 165 210 262 312 370
#     4  11  22  42  68  92 130 171 208 257 315 379
#     4   9  21  42  67  91 128 168 210 261 314 370
#     4   9  21  43  62  88 129 172 210 258 311 370
#     4  12  23  40  67  97 128 165 211 263 318 371
#
# _framework density 24.146635
#
# number of rings (size 3 to 8) (size 9 to 14) (size 15 to 20)
#    0.000    1.500    2.500    3.750    0.000    3.500 
#    0.000    8.125    0.000    0.000    0.000    0.000 
#    0.000    0.000    0.000    0.000    0.000    0.000 
#
# Total GULP energy -89438.875190 kJ/mol
# GULP energy per Si atom -5589.929699 kJ/mol
# Density = 2.409168 g / cm^3
# Si number density = 24.146635 Si / 1000 Ang^3
#
#
#
# Elastic Constant Matrix: (Units=GPa)
#
#
# Indices 1 2 3 4 5 6 
#
# 1 57.7534 8.4470 4.6675 -3.4344 19.6563 -11.5203
# 2 8.4470 150.5394 19.6705 -18.5051 1.1083 -1.9171
# 3 4.6675 19.6705 56.9816 -9.3157 13.4582 4.3379
# 4 -3.4344 -18.5051 -9.3157 25.7108 -4.7404 -1.2416
# 5 19.6563 1.1083 13.4582 -4.7404 31.3589 1.5877
# 6 -11.5203 -1.9171 4.3379 -1.2416 1.5877 49.9922
#
#
#
# Elastic Compliance Matrix: (Units=1/GPa)
#
#
# Indices 1 2 3 4 5 6 
#
# 1 0.024012 -0.001375 0.001898 0.000222 -0.016078 0.005832
# 2 -0.001375 0.007605 -0.002271 0.004901 0.002298 0.000221
# 3 0.001898 -0.002271 0.021239 0.004513 -0.009487 -0.001079
# 4 0.000222 0.004901 0.004513 0.044957 0.004505 0.000821
# 5 -0.016078 0.002298 -0.009487 0.004505 0.046850 -0.004170
# 6 0.005832 0.000221 -0.001079 0.000821 -0.004170 0.021602
#
#
# Mechanical properties :
#
#
# Convention : Reuss Voigt Hill
#
# Bulk Modulus (GPa) = 20.25986 36.76047 28.51017
# Shear Modulus (GPa) = 26.85087 36.91168 31.88127
#
# Velocity S-wave (km/s) = 3.33827 3.91403 3.63756
# Velocity P-wave (km/s) = 4.82362 5.97353 5.42911
#
# Compressibility (1/GPa) = 0.04935869
#
# Stress axis : x y z
#
# Youngs Moduli (GPa) = 41.64657 131.49115 47.08378
#
# Poissons Ratio (x) = 0.18084 -0.08935
# Poissons Ratio (y) = 0.05728 0.10692
# Poissons Ratio (z) = -0.07904 0.29859
#
# Static dielectric constant tensor:
#      x y z
#    x 2.019260 -0.020980 0.014720 
#    y -0.020980 1.880000 -0.006480 
#    z 0.014720 -0.006480 1.967950 
# 
# From -- ./inp_files/561808.got.cif
#   From: 2010.05.17/outbox.cif.g08.bks.cpg/sg2_281_cif.got.tgz:561808.got - 2010.06.03 11:33:40.
