data_PCOD9013764
_publ_section_title
;
Structure prediction by ZEFSAII (Michael W. Deem and Ramdas Pophale) SiO2 
 PCOD9013764
Probable space group: P -1
;
_chemical_formula_sum "Si O2"
_cell_formula_units_Z 16
_cell_length_a 9.763121
_cell_length_b 8.136472
_cell_length_c 15.388184
_cell_angle_alpha 45.276571
_cell_angle_beta 73.754399
_cell_angle_gamma 105.721022
_cell_volume 606.865979
_symmetry_space_group_name_H-M "P -1"
_symmetry_group_IT_number 2
_symmetry_cell_setting 'triclinic'
loop_
_space_group_symop_operation_xyz
x,y,z
-x,-y,-z
loop_
_atom_site_type_symbol
_atom_site_label
_atom_site_fract_x
_atom_site_fract_y
_atom_site_fract_z
Si Si1 0.799560 0.355280 0.762126
Si Si2 0.574469 0.511090 0.696969
Si Si3 0.014669 0.162409 0.801627
Si Si4 0.231628 0.443667 0.820210
Si Si5 0.162774 0.439763 0.123420
Si Si6 0.807117 0.008757 0.629368
Si Si7 0.751926 0.874964 0.350701
Si Si8 0.538560 0.050631 0.262922
O O1 0.610673 0.278132 0.787512
O O2 0.810271 0.415921 0.840682
O O3 0.832527 0.122380 0.824707
O O4 0.983992 0.680510 0.560008
O O5 0.354386 0.354811 0.801104
O O6 0.690389 0.756208 0.665422
O O7 0.671488 0.716842 0.516985
O O8 0.135479 0.433167 0.753962
O O9 0.164009 0.250234 0.669480
O O10 0.932454 0.838510 0.981258
O O11 0.378308 0.768377 0.725658
O O12 0.170943 0.172037 0.237973
O O13 0.326007 0.691467 0.931949
O O14 0.946637 0.247700 0.195069
O O15 0.677527 0.081725 0.656784
O O16 0.592503 0.840804 0.336653
#
# Coordination Sequence:
#
# PCOD9013764 Si02
#       8
#     2   2   2   2   2   2   2   2
#     4  11  22  42  66  89 123 166 195 250 313 360
#     4  10  22  42  66  91 121 158 209 252 296 364
#     4  11  26  41  60  88 129 165 200 248 306 363
#     4  10  24  43  61  90 125 161 202 252 302 363
#     4  11  20  41  65  92 121 157 208 250 300 360
#     4  10  21  41  65  96 120 156 205 253 304 357
#     4  12  23  40  62  94 123 159 207 252 298 361
#     4  11  24  38  67  93 120 161 205 254 300 353
#
# _framework density 26.364965999999999
#
# number of rings (size 3 to 8) (size 9 to 14) (size 15 to 20)
#    0.000    1.250    3.750    2.250    5.250    2.500 
#    0.000    0.000    0.000    0.000    0.000    0.000 
#    0.000    0.000    0.000    0.000    0.000    0.000 
#
# Total GULP energy -89780.841098 kJ/mol
# GULP energy per Si atom -5611.302569 kJ/mol
# Density = 2.630496 g / cm^3
# Si number density = 26.364966 Si / 1000 Ang^3
#
#
#
# Elastic Constant Matrix: (Units=GPa)
#
#
# Indices 1 2 3 4 5 6 
#
# 1 167.8229 16.4745 41.8657 21.0536 -7.7697 -21.7353
# 2 16.4745 61.9113 24.8371 5.6396 -2.5463 -12.9660
# 3 41.8657 24.8371 95.3136 29.0507 -7.0435 -4.1773
# 4 21.0536 5.6396 29.0507 34.1599 -0.4146 -9.6150
# 5 -7.7697 -2.5463 -7.0435 -0.4146 45.4315 -1.8490
# 6 -21.7353 -12.9660 -4.1773 -9.6150 -1.8490 36.9893
#
#
#
# Elastic Compliance Matrix: (Units=1/GPa)
#
#
# Indices 1 2 3 4 5 6 
#
# 1 0.007286 0.000038 -0.002602 -0.001222 0.000986 0.003733
# 2 0.000038 0.019738 -0.005980 0.003863 0.000518 0.007296
# 3 -0.002602 -0.005980 0.017179 -0.013435 0.001553 -0.005099
# 4 -0.001222 0.003863 -0.013435 0.043734 -0.001252 0.010425
# 5 0.000986 0.000518 0.001553 -0.001252 0.022509 0.001736
# 6 0.003733 0.007296 -0.005099 0.010425 0.001736 0.034006
#
#
# Mechanical properties :
#
#
# Convention : Reuss Voigt Hill
#
# Bulk Modulus (GPa) = 36.87619 54.60026 45.73823
# Shear Modulus (GPa) = 29.31212 39.44083 34.37647
#
# Velocity S-wave (km/s) = 3.33796 3.87195 3.61483
# Velocity P-wave (km/s) = 5.37337 6.38308 5.89987
#
# Compressibility (1/GPa) = 0.02711777
#
# Stress axis : x y z
#
# Youngs Moduli (GPa) = 137.24459 50.66305 58.21109
#
# Poissons Ratio (x) = -0.00195 0.15144
# Poissons Ratio (y) = -0.00527 0.34808
# Poissons Ratio (z) = 0.35705 0.30295
#
# Static dielectric constant tensor:
#      x y z
#    x 2.074770 -0.050570 0.033150 
#    y -0.050570 2.110090 -0.031120 
#    z 0.033150 -0.031120 1.963640 
# 
# From -- ./inp_files/494383.got.cif
#   From: 2010.05.17/outbox.cif.g08.bks.cpg/sg2_248_cif.got.tgz:494383.got - 2010.06.03 11:33:40.
