data_PCOD9013517
_publ_section_title
;
Structure prediction by ZEFSAII (Michael W. Deem and Ramdas Pophale) SiO2 
 PCOD9013517
Probable space group: P -1
;
_chemical_formula_sum "Si O2"
_cell_formula_units_Z 16
_cell_length_a 25.196257
_cell_length_b 5.134217
_cell_length_c 5.712335
_cell_angle_alpha 90.484615
_cell_angle_beta 112.948799
_cell_angle_gamma 65.939832
_cell_volume 611.322515
_symmetry_space_group_name_H-M "P -1"
_symmetry_group_IT_number 2
_symmetry_cell_setting 'triclinic'
loop_
_space_group_symop_operation_xyz
x,y,z
-x,-y,-z
loop_
_atom_site_type_symbol
_atom_site_label
_atom_site_fract_x
_atom_site_fract_y
_atom_site_fract_z
Si Si1 0.281321 0.890857 0.791958
Si Si2 0.073776 0.443234 0.126565
Si Si3 0.243063 0.305987 0.101904
Si Si4 0.806066 0.104322 0.725262
Si Si5 0.397957 0.717243 0.717364
Si Si6 0.046107 0.660658 0.578466
Si Si7 0.514451 0.771617 0.814479
Si Si8 0.633437 0.633792 0.716141
O O1 0.238395 0.770348 0.575980
O O2 0.333378 0.943806 0.726916
O O3 0.234728 0.190281 0.835005
O O4 0.323182 0.642850 0.047500
O O5 0.120380 0.101192 0.202247
O O6 0.083286 0.573295 0.392035
O O7 0.082805 0.570389 0.891396
O O8 0.000000 0.500000 0.000000
O O9 0.220854 0.119443 0.231213
O O10 0.319496 0.216684 0.238887
O O11 0.207982 0.640276 0.114546
O O12 0.444861 0.791560 0.634854
O O13 0.377903 0.496764 0.545071
O O14 0.443614 0.547317 0.010096
O O15 0.000000 0.500000 0.500000
O O16 0.000000 0.000000 0.500000
O O17 0.563846 0.798105 0.717271
O O18 0.500000 0.000000 0.000000
#
# Coordination Sequence:
#
# PCOD9013517 Si02
#       8
#     2   2   2   2   2   2   2   2
#     4  11  24  46  72 102 145 195 248 309 374 448
#     4  10  25  50  77 117 155 203 252 322 387 463
#     4  12  26  47  70 109 142 199 246 306 373 442
#     4  12  29  47  76 108 152 192 254 307 377 457
#     4  10  21  41  65 100 141 184 246 302 374 442
#     4  10  22  43  76 107 152 195 246 297 377 452
#     4  10  22  37  63 101 138 188 237 304 374 442
#     4  11  23  43  70  98 146 189 247 305 374 443
#
# _framework density 26.172767
#
# number of rings (size 3 to 8) (size 9 to 14) (size 15 to 20)
#    0.000    1.250    2.500    1.500    3.500    6.500 
#    0.000    1.250    0.000    0.000    0.000    0.000 
#    0.000    0.000    0.000    0.000    0.000    0.000 
#
# Total GULP energy -89552.743102 kJ/mol
# GULP energy per Si atom -5597.046444 kJ/mol
# Density = 2.611320 g / cm^3
# Si number density = 26.172767 Si / 1000 Ang^3
#
#
#
# Elastic Constant Matrix: (Units=GPa)
#
#
# Indices 1 2 3 4 5 6 
#
# 1 100.4012 31.1651 36.7697 -3.5529 14.3469 -3.7542
# 2 31.1651 133.9253 26.8910 6.9162 -7.2307 -25.5556
# 3 36.7697 26.8910 95.3238 -5.6345 -20.2515 -18.9282
# 4 -3.5529 6.9162 -5.6345 45.8031 -6.9390 -5.0339
# 5 14.3469 -7.2307 -20.2515 -6.9390 49.2493 -3.0669
# 6 -3.7542 -25.5556 -18.9282 -5.0339 -3.0669 62.1576
#
#
#
# Elastic Compliance Matrix: (Units=1/GPa)
#
#
# Indices 1 2 3 4 5 6 
#
# 1 0.014403 -0.002874 -0.007027 -0.000814 -0.007803 -0.002903
# 2 -0.002874 0.009029 -0.000362 -0.000933 0.002098 0.003457
# 3 -0.007027 -0.000362 0.016610 0.003593 0.009658 0.005253
# 4 -0.000814 -0.000933 0.003593 0.023427 0.005053 0.002808
# 5 -0.007803 0.002098 0.009658 0.005053 0.027888 0.005117
# 6 -0.002903 0.003457 0.005253 0.002808 0.005117 0.019413
#
#
# Mechanical properties :
#
#
# Convention : Reuss Voigt Hill
#
# Bulk Modulus (GPa) = 51.23691 57.70020 54.46855
# Shear Modulus (GPa) = 36.28377 47.09696 41.69036
#
# Velocity S-wave (km/s) = 3.72737 4.24661 3.99543
# Velocity P-wave (km/s) = 6.17602 6.79255 6.49161
#
# Compressibility (1/GPa) = 0.01951718
#
# Stress axis : x y z
#
# Youngs Moduli (GPa) = 69.42813 110.75104 60.20291
#
# Poissons Ratio (x) = 0.31828 0.42307
# Poissons Ratio (y) = 0.19952 0.02178
# Poissons Ratio (z) = 0.48790 0.04007
#
# Static dielectric constant tensor:
#      x y z
#    x 2.106670 0.025260 -0.099870 
#    y 0.025260 2.018520 -0.049140 
#    z -0.099870 -0.049140 2.194840 
# 
# From -- ./inp_files/14961.got.cif
#   From: 2010.05.17/outbox.cif.g08.bks.cpg/sg2_8_cif.got.tgz:14961.got - 2010.06.03 11:33:40.
