data_PCOD9013982
_publ_section_title
;
Structure prediction by ZEFSAII (Michael W. Deem and Ramdas Pophale) SiO2 
 PCOD9013982
Probable space group: P -1
;
_chemical_formula_sum "Si O2"
_cell_formula_units_Z 14
_cell_length_a 7.418686
_cell_length_b 6.911888
_cell_length_c 17.472273
_cell_angle_alpha 134.602553
_cell_angle_beta 106.872292
_cell_angle_gamma 60.074387
_cell_volume 550.222594
_symmetry_space_group_name_H-M "P -1"
_symmetry_group_IT_number 2
_symmetry_cell_setting 'triclinic'
loop_
_space_group_symop_operation_xyz
x,y,z
-x,-y,-z
loop_
_atom_site_type_symbol
_atom_site_label
_atom_site_fract_x
_atom_site_fract_y
_atom_site_fract_z
Si Si1 0.108094 0.209818 0.997660
Si Si2 0.823633 0.266713 0.637474
Si Si3 0.749731 0.168000 0.231466
Si Si4 0.620539 0.502138 0.829774
Si Si5 0.743632 0.817109 0.400346
Si Si6 0.504661 0.241134 0.370687
Si Si7 0.674651 0.411338 0.060345
O O1 0.262512 0.367309 0.062743
O O2 0.219462 0.935942 0.995247
O O3 0.880962 0.436717 0.064833
O O4 0.086690 0.063508 0.873335
O O5 0.785401 0.291249 0.730209
O O6 0.694604 0.574399 0.657386
O O7 0.060001 0.187496 0.624063
O O8 0.745818 0.021782 0.529140
O O9 0.540897 0.244407 0.176301
O O10 0.773756 0.480519 0.326903
O O11 0.690298 0.113875 0.294532
O O12 0.467180 0.413176 0.836888
O O13 0.541597 0.993724 0.371932
O O14 0.500000 0.500000 0.500000
O O15 0.500000 0.500000 0.000000
#
# Coordination Sequence:
#
# PCOD9013982 Si02
#       7
#     2   2   2   2   2   2   2
#     4  10  23  44  62  89 138 164 205 277 318 380
#     4   9  21  40  64  93 129 167 210 276 318 379
#     4  10  21  41  67  94 129 175 213 268 329 386
#     4  10  22  42  64  90 131 169 207 268 331 372
#     4  10  21  41  66  93 128 169 220 261 329 391
#     4   9  20  40  63  92 125 167 215 267 321 379
#     4  10  22  40  64  95 120 169 222 252 321 391
#
# _framework density 25.444248000000002
#
# number of rings (size 3 to 8) (size 9 to 14) (size 15 to 20)
#    0.000    2.286    0.000    1.714    6.000    6.857 
#   15.429    9.286    0.000    0.000    0.000    0.000 
#    0.000    0.000    0.000    0.000    0.000    0.000 
#
# Total GULP energy -78100.871428 kJ/mol
# GULP energy per Si atom -5578.633673 kJ/mol
# Density = 2.538634 g / cm^3
# Si number density = 25.444248 Si / 1000 Ang^3
#
#
#
# Elastic Constant Matrix: (Units=GPa)
#
#
# Indices 1 2 3 4 5 6 
#
# 1 101.4069 15.3733 35.2538 2.0549 -16.7760 7.2894
# 2 15.3733 83.2054 15.4043 -20.1060 5.1672 0.9805
# 3 35.2538 15.4043 131.7859 -2.9687 -24.1034 9.6681
# 4 2.0549 -20.1060 -2.9687 32.0983 12.4694 -2.3534
# 5 -16.7760 5.1672 -24.1034 12.4694 48.6399 -2.8068
# 6 7.2894 0.9805 9.6681 -2.3534 -2.8068 32.3253
#
#
#
# Elastic Compliance Matrix: (Units=1/GPa)
#
#
# Indices 1 2 3 4 5 6 
#
# 1 0.012074 -0.003363 -0.001937 -0.005046 0.004740 -0.001997
# 2 -0.003363 0.016749 -0.002202 0.013474 -0.007412 0.001246
# 3 -0.001937 -0.002202 0.009315 -0.002357 0.004668 -0.002049
# 4 -0.005046 0.013474 -0.002357 0.046155 -0.015976 0.003407
# 5 0.004740 -0.007412 0.004668 -0.015976 0.029341 -0.000856
# 6 -0.001997 0.001246 -0.002049 0.003407 -0.000856 0.032135
#
#
# Mechanical properties :
#
#
# Convention : Reuss Voigt Hill
#
# Bulk Modulus (GPa) = 43.22495 49.82899 46.52697
# Shear Modulus (GPa) = 29.67655 39.30382 34.49019
#
# Velocity S-wave (km/s) = 3.41887 3.93454 3.68573
# Velocity P-wave (km/s) = 5.71051 6.34562 6.03642
#
# Compressibility (1/GPa) = 0.02313478
#
# Stress axis : x y z
#
# Youngs Moduli (GPa) = 82.81938 59.70553 107.35894
#
# Poissons Ratio (x) = 0.20076 0.20797
# Poissons Ratio (y) = 0.27848 0.23639
# Poissons Ratio (z) = 0.16044 0.13146
#
# Static dielectric constant tensor:
#      x y z
#    x 2.037500 0.071440 -0.089430 
#    y 0.071440 2.252980 0.022740 
#    z -0.089430 0.022740 2.064150 
# 
# From -- ./inp_files/554799.got.cif
#   From: 2010.05.17/outbox.cif.g08.bks.cpg/sg2_278_cif.got.tgz:554799.got - 2010.06.03 11:33:40.
