data_PCOD9013377
_publ_section_title
;
Structure prediction by ZEFSAII (Michael W. Deem and Ramdas Pophale) SiO2 
 PCOD9013377
Probable space group: P -1
;
_chemical_formula_sum "Si O2"
_cell_formula_units_Z 16
_cell_length_a 6.007353
_cell_length_b 26.714999
_cell_length_c 6.454269
_cell_angle_alpha 109.121129
_cell_angle_beta 77.380143
_cell_angle_gamma 134.194573
_cell_volume 701.612266
_symmetry_space_group_name_H-M "P -1"
_symmetry_group_IT_number 2
_symmetry_cell_setting 'triclinic'
loop_
_space_group_symop_operation_xyz
x,y,z
-x,-y,-z
loop_
_atom_site_type_symbol
_atom_site_label
_atom_site_fract_x
_atom_site_fract_y
_atom_site_fract_z
Si Si1 0.270430 0.168318 0.528534
Si Si2 0.702501 0.107958 0.848261
Si Si3 0.069355 0.526680 0.793419
Si Si4 0.840097 0.790578 0.788597
Si Si5 0.795826 0.666656 0.795283
Si Si6 0.687248 0.227593 0.879846
Si Si7 0.036320 0.983382 0.723217
Si Si8 0.145848 0.436997 0.422568
O O1 0.218420 0.207123 0.433555
O O2 0.593642 0.219734 0.651111
O O3 0.996030 0.130637 0.699547
O O4 0.204604 0.102566 0.342363
O O5 0.639716 0.158582 0.857113
O O6 0.400374 0.028296 0.735015
O O7 0.836306 0.133088 0.089032
O O8 0.433232 0.597082 0.792990
O O9 0.968395 0.457354 0.595902
O O10 0.889938 0.550930 0.791196
O O11 0.000000 0.500000 0.000000
O O12 0.842820 0.729145 0.754594
O O13 0.555045 0.774218 0.944620
O O14 0.945804 0.637653 0.625018
O O15 0.969328 0.702302 0.026848
O O16 0.000000 0.000000 0.500000
O O17 0.000000 0.000000 0.000000
O O18 0.500000 0.500000 0.500000
#
# Coordination Sequence:
#
# PCOD9013377 Si02
#       8
#     2   2   2   2   2   2   2   2
#     4  11  24  42  69  96 134 178 237 292 351 421
#     4  10  23  42  65  97 135 175 233 291 356 416
#     4  10  21  41  67  98 129 169 221 279 342 411
#     4  10  23  41  65  92 130 182 227 286 343 424
#     4  10  21  41  64  92 136 177 220 277 345 417
#     4  10  21  43  62  90 132 174 226 281 343 419
#     4  12  26  44  74 105 142 192 244 304 373 432
#     4   9  20  40  63  91 130 165 208 271 331 404
#
# _framework density 22.804618999999999
#
# number of rings (size 3 to 8) (size 9 to 14) (size 15 to 20)
#    0.000    1.750    1.250    1.875    3.500    4.500 
#    0.000   30.000    0.000    0.000    0.000    0.000 
#    0.000    0.000    0.000    0.000    0.000    0.000 
#
# Total GULP energy -89124.775774 kJ/mol
# GULP energy per Si atom -5570.298486 kJ/mol
# Density = 2.275271 g / cm^3
# Si number density = 22.804619 Si / 1000 Ang^3
#
#
#
# Elastic Constant Matrix: (Units=GPa)
#
#
# Indices 1 2 3 4 5 6 
#
# 1 85.9599 20.2029 33.3569 12.2054 26.4617 -7.4917
# 2 20.2029 56.1726 35.4014 22.7582 17.2231 2.1978
# 3 33.3569 35.4014 93.6688 14.2167 30.6754 0.9410
# 4 12.2054 22.7582 14.2167 32.2229 3.3833 2.8548
# 5 26.4617 17.2231 30.6754 3.3833 53.3349 13.3192
# 6 -7.4917 2.1978 0.9410 2.8548 13.3192 39.7969
#
#
#
# Elastic Compliance Matrix: (Units=1/GPa)
#
#
# Indices 1 2 3 4 5 6 
#
# 1 0.016230 -0.000263 -0.002510 -0.004577 -0.007744 0.006049
# 2 -0.000263 0.031525 -0.007402 -0.018500 -0.004962 0.001372
# 3 -0.002510 -0.007402 0.016477 -0.000586 -0.006221 0.001671
# 4 -0.004577 -0.018500 -0.000586 0.045838 0.007041 -0.005471
# 5 -0.007744 -0.004962 -0.006221 0.007041 0.030237 -0.011662
# 6 0.006049 0.001372 0.001671 -0.005471 -0.011662 0.030446
#
#
# Mechanical properties :
#
#
# Convention : Reuss Voigt Hill
#
# Bulk Modulus (GPa) = 22.78880 45.96931 34.37905
# Shear Modulus (GPa) = 24.30355 34.86028 29.58191
#
# Velocity S-wave (km/s) = 3.26809 3.91404 3.60556
# Velocity P-wave (km/s) = 4.92497 6.37400 5.69575
#
# Compressibility (1/GPa) = 0.04388121
#
# Stress axis : x y z
#
# Youngs Moduli (GPa) = 61.61273 31.72114 60.69152
#
# Poissons Ratio (x) = 0.00834 0.15236
# Poissons Ratio (y) = 0.01620 0.44923
# Poissons Ratio (z) = 0.15468 0.23480
#
# Static dielectric constant tensor:
#      x y z
#    x 1.838810 -0.031410 -0.063660 
#    y -0.031410 1.823810 -0.047500 
#    z -0.063660 -0.047500 1.935400 
# 
# From -- ./inp_files/10683.got.cif
#   From: 2010.05.17/outbox.cif.g08.bks.cpg/sg2_6_cif.got.tgz:10683.got - 2010.06.03 11:33:40.
