data_PCOD9013603
_publ_section_title
;
Structure prediction by ZEFSAII (Michael W. Deem and Ramdas Pophale) SiO2 
 PCOD9013603
Probable space group: P -1
;
_chemical_formula_sum "Si O2"
_cell_formula_units_Z 14
_cell_length_a 14.334665
_cell_length_b 10.067137
_cell_length_c 9.969951
_cell_angle_alpha 37.876671
_cell_angle_beta 102.632616
_cell_angle_gamma 121.145874
_cell_volume 705.104655
_symmetry_space_group_name_H-M "P -1"
_symmetry_group_IT_number 2
_symmetry_cell_setting 'triclinic'
loop_
_space_group_symop_operation_xyz
x,y,z
-x,-y,-z
loop_
_atom_site_type_symbol
_atom_site_label
_atom_site_fract_x
_atom_site_fract_y
_atom_site_fract_z
Si Si1 0.677177 0.340378 0.428289
Si Si2 0.452709 0.677336 0.332703
Si Si3 0.903344 0.857984 0.969167
Si Si4 0.115199 0.559460 0.914981
Si Si5 0.592439 0.434596 0.065961
Si Si6 0.789084 0.041252 0.619570
Si Si7 0.345638 0.743676 0.012230
O O1 0.615501 0.328216 0.554082
O O2 0.598380 0.305131 0.305712
O O3 0.718345 0.145083 0.585107
O O4 0.789606 0.635134 0.194906
O O5 0.500000 0.500000 0.500000
O O6 0.358589 0.578846 0.261605
O O7 0.576202 0.966911 0.127412
O O8 0.888770 0.071778 0.722190
O O9 0.915728 0.689911 0.990106
O O10 0.000000 0.000000 0.000000
O O11 0.165406 0.800845 0.631685
O O12 0.220123 0.640366 0.990119
O O13 0.000000 0.500000 0.000000
O O14 0.500000 0.500000 0.000000
O O15 0.577177 0.246144 0.093662
O O16 0.708230 0.723414 0.834149
#
# Coordination Sequence:
#
# PCOD9013603 Si02
#       7
#     2   2   2   2   2   2   2
#     4  10  22  40  62  97 120 169 217 256 333 391
#     4  11  26  40  63  94 137 175 206 276 339 386
#     4  10  23  43  64  96 127 167 227 273 323 395
#     4  11  25  43  66  97 130 178 226 274 330 398
#     4  11  21  37  68  94 123 164 213 264 322 392
#     4  10  21  41  65  90 127 163 216 272 318 384
#     4  11  24  43  59  98 134 163 229 261 320 413
#
# _framework density 19.85521
#
# number of rings (size 3 to 8) (size 9 to 14) (size 15 to 20)
#    0.000    1.429    4.286    1.714    4.000   10.857 
#    0.000    0.000    0.000    0.000    0.000    0.000 
#    0.000    0.000    0.000    0.000    0.000    0.000 
#
# Total GULP energy -78019.603449 kJ/mol
# GULP energy per Si atom -5572.828818 kJ/mol
# Density = 1.981002 g / cm^3
# Si number density = 19.855210 Si / 1000 Ang^3
#
#
#
# Elastic Constant Matrix: (Units=GPa)
#
#
# Indices 1 2 3 4 5 6 
#
# 1 155.3744 74.7038 81.3636 15.0964 14.6994 -13.2780
# 2 74.7038 133.9603 93.1484 21.2084 16.0801 -7.5035
# 3 81.3636 93.1484 208.1225 0.5786 23.4790 -70.1702
# 4 15.0964 21.2084 0.5786 40.1197 2.4129 15.1375
# 5 14.6994 16.0801 23.4790 2.4129 43.5635 11.1114
# 6 -13.2780 -7.5035 -70.1702 15.1375 11.1114 83.2028
#
#
#
# Elastic Compliance Matrix: (Units=1/GPa)
#
#
# Indices 1 2 3 4 5 6 
#
# 1 0.009404 -0.003446 -0.002153 -0.001550 -0.000587 -0.000265
# 2 -0.003446 0.014319 -0.006430 -0.004745 0.000600 -0.003899
# 3 -0.002153 -0.006430 0.012906 0.000354 -0.006625 0.010781
# 4 -0.001550 -0.004745 0.000354 0.030209 0.001976 -0.006137
# 5 -0.000587 0.000600 -0.006625 0.001976 0.028904 -0.009847
# 6 -0.000265 -0.003899 0.010781 -0.006137 -0.009847 0.023149
#
#
# Mechanical properties :
#
#
# Convention : Reuss Voigt Hill
#
# Bulk Modulus (GPa) = 79.55480 110.65431 95.10456
# Shear Modulus (GPa) = 33.98150 49.92664 41.95407
#
# Velocity S-wave (km/s) = 4.14147 5.01995 4.60173
# Velocity P-wave (km/s) = 7.93874 9.45788 8.73141
#
# Compressibility (1/GPa) = 0.01256995
#
# Stress axis : x y z
#
# Youngs Moduli (GPa) = 106.33978 69.83906 77.48351
#
# Poissons Ratio (x) = 0.24067 0.16681
# Poissons Ratio (y) = 0.36645 0.49825
# Poissons Ratio (z) = 0.22894 0.44909
#
# Static dielectric constant tensor:
#      x y z
#    x 1.710100 0.061870 0.008230 
#    y 0.061870 1.729510 -0.015780 
#    z 0.008230 -0.015780 1.739170 
# 
# From -- ./inp_files/37171.got.cif
#   From: 2010.05.17/outbox.cif.g08.bks.cpg/sg2_19_cif.got.tgz:37171.got - 2010.06.03 11:33:40.
