data_PCOD9013897
_publ_section_title
;
Structure prediction by ZEFSAII (Michael W. Deem and Ramdas Pophale) SiO2 
 PCOD9013897
Probable space group: P -1
;
_chemical_formula_sum "Si O2"
_cell_formula_units_Z 10
_cell_length_a 12.649416
_cell_length_b 5.633234
_cell_length_c 9.716950
_cell_angle_alpha 71.644297
_cell_angle_beta 46.599800
_cell_angle_gamma 91.530079
_cell_volume 446.836615
_symmetry_space_group_name_H-M "P -1"
_symmetry_group_IT_number 2
_symmetry_cell_setting 'triclinic'
loop_
_space_group_symop_operation_xyz
x,y,z
-x,-y,-z
loop_
_atom_site_type_symbol
_atom_site_label
_atom_site_fract_x
_atom_site_fract_y
_atom_site_fract_z
Si Si1 0.652018 0.273458 0.473347
Si Si2 0.100250 0.748262 0.205361
Si Si3 0.707403 0.889678 0.261151
Si Si4 0.665299 0.022601 0.792975
Si Si5 0.135021 0.274816 0.365727
O O1 0.713015 0.595353 0.340757
O O2 0.463270 0.173169 0.644919
O O3 0.695526 0.198651 0.597566
O O4 0.708208 0.093577 0.347609
O O5 0.220765 0.865982 0.201232
O O6 0.127672 0.470040 0.213566
O O7 0.930047 0.673719 0.437945
O O8 0.154075 0.947820 0.995325
O O9 0.699204 0.756041 0.769836
O O10 0.500000 0.000000 0.000000
O O11 0.000000 0.000000 0.500000
#
# Coordination Sequence:
#
# PCOD9013897 Si02
#       5
#     2   2   2   2   2
#     4  10  23  39  59  96 132 160 210 262 316 382
#     4  10  21  41  66  89 122 175 208 256 319 379
#     4  10  22  40  62  89 132 172 201 255 329 380
#     4  11  22  38  64  97 123 161 212 269 312 367
#     4   9  22  39  63  89 127 159 221 257 311 377
#
# _framework density 22.379543000000002
#
# number of rings (size 3 to 8) (size 9 to 14) (size 15 to 20)
#    0.000    2.000    2.000    0.000    8.400    2.400 
#    0.000    2.000    0.000    0.000    0.000    0.000 
#    0.000    0.000    0.000    0.000    0.000    0.000 
#
# Total GULP energy -55748.621613 kJ/mol
# GULP energy per Si atom -5574.862161 kJ/mol
# Density = 2.232861 g / cm^3
# Si number density = 22.379543 Si / 1000 Ang^3
#
#
#
# Elastic Constant Matrix: (Units=GPa)
#
#
# Indices 1 2 3 4 5 6 
#
# 1 47.5023 31.6318 18.0760 17.3870 6.3657 0.3363
# 2 31.6318 133.3509 54.8315 -5.9541 7.7753 -23.9057
# 3 18.0760 54.8315 110.5743 1.3705 7.2013 -11.1755
# 4 17.3870 -5.9541 1.3705 30.6871 -13.6394 2.1075
# 5 6.3657 7.7753 7.2013 -13.6394 38.4805 4.6062
# 6 0.3363 -23.9057 -11.1755 2.1075 4.6062 35.6654
#
#
#
# Elastic Compliance Matrix: (Units=1/GPa)
#
#
# Indices 1 2 3 4 5 6 
#
# 1 0.043331 -0.011421 -0.000357 -0.033691 -0.016246 -0.004087
# 2 -0.011421 0.013564 -0.004468 0.010042 0.002724 0.006854
# 3 -0.000357 -0.004468 0.011587 -0.002190 -0.002107 0.001041
# 4 -0.033691 0.010042 -0.002190 0.066012 0.027482 -0.001087
# 5 -0.016246 0.002724 -0.002107 0.027482 0.038898 -0.005329
# 6 -0.004087 0.006854 0.001041 -0.001087 -0.005329 0.033750
#
#
# Mechanical properties :
#
#
# Convention : Reuss Voigt Hill
#
# Bulk Modulus (GPa) = 27.78663 55.61179 41.69921
# Shear Modulus (GPa) = 19.87051 33.42582 26.64816
#
# Velocity S-wave (km/s) = 2.98298 3.86889 3.45445
# Velocity P-wave (km/s) = 4.93024 6.69784 5.88083
#
# Compressibility (1/GPa) = 0.03598853
#
# Stress axis : x y z
#
# Youngs Moduli (GPa) = 23.07838 73.72690 86.30131
#
# Poissons Ratio (x) = 0.84204 0.03085
# Poissons Ratio (y) = 0.26358 0.38559
# Poissons Ratio (z) = 0.00825 0.32941
#
# Static dielectric constant tensor:
#      x y z
#    x 1.875720 0.012350 -0.067160 
#    y 0.012350 2.270000 0.022950 
#    z -0.067160 0.022950 1.832920 
# 
# From -- ./inp_files/15190.got.cif
#   From: 2010.05.17/outbox.cif.g08.bks.cpg/sg2_8_cif.got.tgz:15190.got - 2010.06.03 11:33:40.
