data_PCOD9013605
_publ_section_title
;
Structure prediction by ZEFSAII (Michael W. Deem and Ramdas Pophale) SiO2 
 PCOD9013605
Probable space group: P -1
;
_chemical_formula_sum "Si O2"
_cell_formula_units_Z 16
_cell_length_a 10.555566
_cell_length_b 12.130729
_cell_length_c 8.123697
_cell_angle_alpha 121.997212
_cell_angle_beta 110.152687
_cell_angle_gamma 104.112747
_cell_volume 699.387000
_symmetry_space_group_name_H-M "P -1"
_symmetry_group_IT_number 2
_symmetry_cell_setting 'triclinic'
loop_
_space_group_symop_operation_xyz
x,y,z
-x,-y,-z
loop_
_atom_site_type_symbol
_atom_site_label
_atom_site_fract_x
_atom_site_fract_y
_atom_site_fract_z
Si Si1 0.837276 0.899367 0.557529
Si Si2 0.688036 0.691565 0.635148
Si Si3 0.842297 0.460202 0.996541
Si Si4 0.671563 0.054528 0.191223
Si Si5 0.657373 0.421847 0.571040
Si Si6 0.685979 0.105377 0.624405
Si Si7 0.923262 0.368153 0.496237
Si Si8 0.203170 0.152436 0.863379
O O1 0.794954 0.793789 0.614285
O O2 0.769740 0.803168 0.280923
O O3 0.772255 0.014571 0.640541
O O4 0.024509 0.007540 0.693073
O O5 0.641310 0.516430 0.486581
O O6 0.528667 0.697110 0.566102
O O7 0.773081 0.739868 0.889152
O O8 0.730213 0.479196 0.834236
O O9 0.758792 0.278872 0.862465
O O10 0.000000 0.500000 0.000000
O O11 0.925657 0.582304 0.277875
O O12 0.698162 0.115708 0.439428
O O13 0.821816 0.188562 0.261120
O O14 0.680324 0.905574 0.090285
O O15 0.500000 0.000000 0.000000
O O16 0.780351 0.380216 0.522181
O O17 0.500000 0.000000 0.500000
O O18 0.000000 0.500000 0.500000
#
# Coordination Sequence:
#
# PCOD9013605 Si02
#       8
#     2   2   2   2   2   2   2   2
#     4  10  24  41  65  98 128 173 227 269 334 393
#     4  11  23  44  67  91 135 176 216 274 326 405
#     4  10  21  41  65  90 130 169 214 270 325 387
#     4  11  24  42  64  95 137 168 213 283 333 392
#     4  10  23  43  65  94 127 173 223 262 335 401
#     4  11  23  40  68  96 127 173 223 273 329 396
#     4  11  25  41  66 100 131 172 219 275 336 397
#     4  10  24  41  65  96 131 171 222 278 327 395
#
# _framework density 22.877178000000001
#
# number of rings (size 3 to 8) (size 9 to 14) (size 15 to 20)
#    0.000    1.500    2.500    1.875    8.750    1.000 
#    2.250    1.250    0.000    0.000    0.000    0.000 
#    0.000    0.000    0.000    0.000    0.000    0.000 
#
# Total GULP energy -89196.168007 kJ/mol
# GULP energy per Si atom -5574.760500 kJ/mol
# Density = 2.282511 g / cm^3
# Si number density = 22.877178 Si / 1000 Ang^3
#
#
#
# Elastic Constant Matrix: (Units=GPa)
#
#
# Indices 1 2 3 4 5 6 
#
# 1 49.6424 9.7411 -7.7343 -6.2745 6.2283 -0.3533
# 2 9.7411 108.4867 11.5128 -6.5182 -4.7391 9.1449
# 3 -7.7343 11.5128 79.6821 -8.6222 15.0255 -0.4902
# 4 -6.2745 -6.5182 -8.6222 29.6779 -0.0480 13.6733
# 5 6.2283 -4.7391 15.0255 -0.0480 20.1705 -1.4964
# 6 -0.3533 9.1449 -0.4902 13.6733 -1.4964 19.9083
#
#
#
# Elastic Compliance Matrix: (Units=1/GPa)
#
#
# Indices 1 2 3 4 5 6 
#
# 1 0.024260 -0.002410 0.006063 0.008794 -0.012948 -0.005326
# 2 -0.002410 0.010841 -0.002108 0.005057 0.004263 -0.008227
# 3 0.006063 -0.002108 0.017245 0.008269 -0.015591 -0.005351
# 4 0.008794 0.005057 0.008269 0.058995 -0.010759 -0.043290
# 5 -0.012948 0.004263 -0.015591 -0.010759 0.066896 0.009845
# 6 -0.005326 -0.008227 -0.005351 -0.043290 0.009845 0.084255
#
#
# Mechanical properties :
#
#
# Convention : Reuss Voigt Hill
#
# Bulk Modulus (GPa) = 18.03838 29.42783 23.73310
# Shear Modulus (GPa) = 17.99343 28.90412 23.44878
#
# Velocity S-wave (km/s) = 2.80754 3.55836 3.20501
# Velocity P-wave (km/s) = 4.29089 5.45654 4.90844
#
# Compressibility (1/GPa) = 0.05543736
#
# Stress axis : x y z
#
# Youngs Moduli (GPa) = 41.22041 92.23961 57.98880
#
# Poissons Ratio (x) = 0.22230 -0.35161
# Poissons Ratio (y) = 0.09934 0.12222
# Poissons Ratio (z) = -0.24994 0.19441
#
# Static dielectric constant tensor:
#      x y z
#    x 1.907750 -0.041130 -0.140220 
#    y -0.041130 1.905730 0.007710 
#    z -0.140220 0.007710 2.031240 
# 
# From -- ./inp_files/259674.got.cif
#   From: 2010.05.17/outbox.cif.g08.bks.cpg/sg2_130_cif.got.tgz:259674.got - 2010.06.03 11:33:40.
