data_PCOD9013315
_publ_section_title
;
Structure prediction by ZEFSAII (Michael W. Deem and Ramdas Pophale) SiO2 
 PCOD9013315
Probable space group: P -1
;
_chemical_formula_sum "Si O2"
_cell_formula_units_Z 14
_cell_length_a 12.302524
_cell_length_b 9.088389
_cell_length_c 17.741470
_cell_angle_alpha 129.025988
_cell_angle_beta 146.018668
_cell_angle_gamma 33.524643
_cell_volume 600.024154
_symmetry_space_group_name_H-M "P -1"
_symmetry_group_IT_number 2
_symmetry_cell_setting 'triclinic'
loop_
_space_group_symop_operation_xyz
x,y,z
-x,-y,-z
loop_
_atom_site_type_symbol
_atom_site_label
_atom_site_fract_x
_atom_site_fract_y
_atom_site_fract_z
Si Si1 0.361368 0.363871 0.649854
Si Si2 0.346480 0.210066 0.356099
Si Si3 0.392736 0.596081 0.882718
Si Si4 0.552335 0.284176 0.370547
Si Si5 0.965575 0.246351 0.035727
Si Si6 0.877801 0.218463 0.817556
Si Si7 0.987009 0.301801 0.576380
O O1 0.353156 0.436727 0.755729
O O2 0.623454 0.284191 0.733542
O O3 0.092577 0.618694 0.531294
O O4 0.428338 0.098671 0.587509
O O5 0.497679 0.278666 0.424537
O O6 0.120640 0.436453 0.359374
O O7 0.175756 0.219957 0.196870
O O8 0.500000 0.500000 0.000000
O O9 0.649220 0.521355 0.964185
O O10 0.107385 0.913260 0.820335
O O11 0.268895 0.546392 0.251897
O O12 0.783241 0.281832 0.486043
O O13 0.699508 0.989943 0.328333
O O14 0.015236 0.231167 0.970918
O O15 0.000000 0.000000 0.000000
#
# Coordination Sequence:
#
# PCOD9013315 Si02
#       7
#     2   2   2   2   2   2   2
#     4  10  22  39  63  97 125 156 215 263 302 375
#     4  12  22  39  66  94 126 162 209 261 313 369
#     4  11  19  36  67  93 123 166 201 253 322 363
#     4  10  25  43  62  89 126 169 216 254 304 380
#     4  11  21  40  61  97 129 154 205 262 308 378
#     4  10  21  41  64  90 128 168 202 254 320 366
#     4  10  24  45  63  86 130 171 206 260 314 361
#
# _framework density 23.332391999999999
#
# number of rings (size 3 to 8) (size 9 to 14) (size 15 to 20)
#    0.000    1.429    4.286    0.857    0.000   11.429 
#    0.000    1.429    0.000    0.000    0.000    0.000 
#    0.000    0.000    0.000    0.000    0.000    0.000 
#
# Total GULP energy -78265.406593 kJ/mol
# GULP energy per Si atom -5590.386185 kJ/mol
# Density = 2.327929 g / cm^3
# Si number density = 23.332392 Si / 1000 Ang^3
#
#
#
# Elastic Constant Matrix: (Units=GPa)
#
#
# Indices 1 2 3 4 5 6 
#
# 1 65.6822 47.5021 6.6676 2.1911 -16.6408 -1.6002
# 2 47.5021 194.1473 42.0975 -19.0138 -20.8877 -19.1905
# 3 6.6676 42.0975 54.7846 -1.9159 -6.1036 1.9218
# 4 2.1911 -19.0138 -1.9159 35.1120 -4.2328 -5.1511
# 5 -16.6408 -20.8877 -6.1036 -4.2328 27.4018 -2.3809
# 6 -1.6002 -19.1905 1.9218 -5.1511 -2.3809 42.1878
#
#
#
# Elastic Compliance Matrix: (Units=1/GPa)
#
#
# Indices 1 2 3 4 5 6 
#
# 1 0.021001 -0.005170 0.002331 -0.003162 0.008708 -0.001556
# 2 -0.005170 0.009299 -0.006032 0.006294 0.004038 0.005305
# 3 0.002331 -0.006032 0.022780 -0.002610 0.001145 -0.003947
# 4 -0.003162 0.006294 -0.002610 0.034030 0.008203 0.007480
# 5 0.008708 0.004038 0.001145 0.008203 0.046883 0.005762
# 6 -0.001556 0.005305 -0.003947 0.007480 0.005762 0.027476
#
#
# Mechanical properties :
#
#
# Convention : Reuss Voigt Hill
#
# Bulk Modulus (GPa) = 28.29896 56.34983 42.32439
# Shear Modulus (GPa) = 26.17918 35.49677 30.83798
#
# Velocity S-wave (km/s) = 3.35328 3.90468 3.63944
# Velocity P-wave (km/s) = 5.21033 6.67323 5.98664
#
# Compressibility (1/GPa) = 0.03533699
#
# Stress axis : x y z
#
# Youngs Moduli (GPa) = 47.61604 107.53801 43.89869
#
# Poissons Ratio (x) = 0.55602 -0.10234
# Poissons Ratio (y) = 0.24620 0.26481
# Poissons Ratio (z) = -0.11101 0.64871
#
# Static dielectric constant tensor:
#      x y z
#    x 1.914510 0.027410 0.020320 
#    y 0.027410 1.907270 0.026610 
#    z 0.020320 0.026610 1.920480 
# 
# From -- ./inp_files/78421.got.cif
#   From: 2010.05.17/outbox.cif.g08.bks.cpg/sg2_40_cif.got.tgz:78421.got - 2010.06.03 11:33:40.
