data_PCOD9013662
_publ_section_title
;
Structure prediction by ZEFSAII (Michael W. Deem and Ramdas Pophale) SiO2 
 PCOD9013662
Probable space group: P -1
;
_chemical_formula_sum "Si O2"
_cell_formula_units_Z 16
_cell_length_a 12.325711
_cell_length_b 11.766419
_cell_length_c 15.468381
_cell_angle_alpha 153.560019
_cell_angle_beta 121.621803
_cell_angle_gamma 51.356692
_cell_volume 776.251579
_symmetry_space_group_name_H-M "P -1"
_symmetry_group_IT_number 2
_symmetry_cell_setting 'triclinic'
loop_
_space_group_symop_operation_xyz
x,y,z
-x,-y,-z
loop_
_atom_site_type_symbol
_atom_site_label
_atom_site_fract_x
_atom_site_fract_y
_atom_site_fract_z
Si Si1 0.850651 0.724589 0.062510
Si Si2 0.364901 0.389235 0.199022
Si Si3 0.153032 0.992411 0.576377
Si Si4 0.926740 0.905050 0.041467
Si Si5 0.375678 0.877885 0.971354
Si Si6 0.841890 0.576821 0.271775
Si Si7 0.879956 0.800173 0.622994
Si Si8 0.635787 0.271496 0.947782
O O1 0.879117 0.762349 0.000983
O O2 0.825506 0.964798 0.284664
O O3 0.714288 0.662300 0.953798
O O4 0.000000 0.500000 0.000000
O O5 0.269247 0.696482 0.397431
O O6 0.377457 0.163484 0.125831
O O7 0.516113 0.349045 0.201397
O O8 0.166518 0.232689 0.685876
O O9 0.000000 0.000000 0.500000
O O10 0.031357 0.013002 0.204287
O O11 0.008178 0.689739 0.854056
O O12 0.777691 0.125599 0.098208
O O13 0.413265 0.829216 0.053930
O O14 0.837350 0.745809 0.472171
O O15 0.728542 0.446366 0.128332
O O16 0.000000 0.500000 0.500000
O O17 0.739017 0.990053 0.747216
O O18 0.500000 0.500000 0.000000
#
# Coordination Sequence:
#
# PCOD9013662 Si02
#       8
#     2   2   2   2   2   2   2   2
#     4  11  20  36  61  94 125 164 210 263 334 375
#     4  10  24  41  66  94 129 175 211 278 324 394
#     4  12  22  37  65  99 131 162 216 272 323 390
#     4  10  21  41  65  92 130 171 213 274 324 384
#     4  10  22  46  65  89 136 173 221 265 338 388
#     4  11  24  41  66 101 129 170 225 269 329 394
#     4  11  24  42  67  96 125 173 227 267 325 395
#     4  11  27  45  68  95 137 180 216 279 332 389
#
# _framework density 20.611875000000001
#
# number of rings (size 3 to 8) (size 9 to 14) (size 15 to 20)
#    0.000    1.250    2.500    3.000    3.500    3.500 
#    2.250    6.875    0.000    0.000    0.000    0.000 
#    0.000    0.000    0.000    0.000    0.000    0.000 
#
# Total GULP energy -89190.933071 kJ/mol
# GULP energy per Si atom -5574.433317 kJ/mol
# Density = 2.056496 g / cm^3
# Si number density = 20.611875 Si / 1000 Ang^3
#
#
#
# Elastic Constant Matrix: (Units=GPa)
#
#
# Indices 1 2 3 4 5 6 
#
# 1 110.9439 41.7897 45.8800 8.6075 -26.2920 -8.0834
# 2 41.7897 99.8071 20.1406 5.0843 -21.3374 -11.6225
# 3 45.8800 20.1406 113.5517 0.1561 -31.5208 -16.1350
# 4 8.6075 5.0843 0.1561 34.7104 -4.6869 -9.6982
# 5 -26.2920 -21.3374 -31.5208 -4.6869 30.7456 7.3267
# 6 -8.0834 -11.6225 -16.1350 -9.6982 7.3267 23.8866
#
#
#
# Elastic Compliance Matrix: (Units=1/GPa)
#
#
# Indices 1 2 3 4 5 6 
#
# 1 0.013185 -0.003858 -0.003573 -0.002694 0.005118 -0.002492
# 2 -0.003858 0.013208 0.001757 0.001250 0.006726 0.004752
# 3 -0.003573 0.001757 0.014203 0.004195 0.011606 0.007383
# 4 -0.002694 0.001250 0.004195 0.034069 0.004487 0.014986
# 5 0.005118 0.006726 0.011606 0.004487 0.054651 -0.002097
# 6 -0.002492 0.004752 0.007383 0.014986 -0.002097 0.055049
#
#
# Mechanical properties :
#
#
# Convention : Reuss Voigt Hill
#
# Bulk Modulus (GPa) = 34.19066 59.99146 47.09106
# Shear Modulus (GPa) = 24.33537 32.30136 28.31836
#
# Velocity S-wave (km/s) = 3.43978 3.96299 3.71062
# Velocity P-wave (km/s) = 5.69210 7.07876 6.42296
#
# Compressibility (1/GPa) = 0.02924775
#
# Stress axis : x y z
#
# Youngs Moduli (GPa) = 75.84642 75.71172 70.40546
#
# Poissons Ratio (x) = 0.29213 0.25153
# Poissons Ratio (y) = 0.29265 -0.12370
# Poissons Ratio (z) = 0.27097 -0.13302
#
# Static dielectric constant tensor:
#      x y z
#    x 1.761340 -0.162510 0.082540 
#    y -0.162510 1.427490 0.220060 
#    z 0.082540 0.220060 1.617480 
# 
# From -- ./inp_files/519394.got.cif
#   From: 2010.05.17/outbox.cif.g08.bks.cpg/sg2_260_cif.got.tgz:519394.got - 2010.06.03 11:33:40.
