data_PCOD9013242
_publ_section_title
;
Structure prediction by ZEFSAII (Michael W. Deem and Ramdas Pophale) SiO2 
 PCOD9013242
Probable space group: P -1
;
_chemical_formula_sum "Si O2"
_cell_formula_units_Z 16
_cell_length_a 11.214975
_cell_length_b 12.668256
_cell_length_c 11.486181
_cell_angle_alpha 102.619039
_cell_angle_beta 153.579718
_cell_angle_gamma 65.095168
_cell_volume 605.560150
_symmetry_space_group_name_H-M "P -1"
_symmetry_group_IT_number 2
_symmetry_cell_setting 'triclinic'
loop_
_space_group_symop_operation_xyz
x,y,z
-x,-y,-z
loop_
_atom_site_type_symbol
_atom_site_label
_atom_site_fract_x
_atom_site_fract_y
_atom_site_fract_z
Si Si1 0.522110 0.120238 0.504293
Si Si2 0.129503 0.107041 0.650460
Si Si3 0.044842 0.359989 0.980668
Si Si4 0.116706 0.335912 0.363842
Si Si5 0.445591 0.328854 0.119365
Si Si6 0.644825 0.720847 0.198350
Si Si7 0.468221 0.556530 0.287434
Si Si8 0.958805 0.027384 0.259520
O O1 0.284329 0.234820 0.235613
O O2 0.416474 0.203796 0.549309
O O3 0.500000 0.000000 0.500000
O O4 0.850014 0.055921 0.704200
O O5 0.751753 0.191297 0.347983
O O6 0.180707 0.040023 0.552763
O O7 0.240352 0.205124 0.763367
O O8 0.209900 0.028716 0.821317
O O9 0.178538 0.328334 0.961587
O O10 0.707732 0.385457 0.730468
O O11 0.000000 0.500000 0.000000
O O12 0.115602 0.334720 0.500689
O O13 0.803088 0.366038 0.029688
O O14 0.231875 0.431713 0.454806
O O15 0.374780 0.371553 0.932902
O O16 0.536426 0.417566 0.290276
O O17 0.301974 0.829541 0.968116
#
# Coordination Sequence:
#
# PCOD9013242 Si02
#       8
#     2   2   2   2   2   2   2   2
#     4  11  23  43  74 104 142 191 237 296 366 431
#     4  10  21  41  63  98 138 176 240 297 358 422
#     4   9  20  45  70 103 140 182 239 297 356 424
#     4  11  27  47  68 105 147 185 238 297 359 429
#     4  10  22  43  71 100 132 189 238 292 362 423
#     4  11  25  39  66  98 137 184 237 301 355 431
#     4  10  25  47  72 102 143 187 238 298 357 433
#     4  10  22  41  65  95 138 181 236 296 361 427
#
# _framework density 26.421818999999999
#
# number of rings (size 3 to 8) (size 9 to 14) (size 15 to 20)
#    0.000    1.750    1.250    1.125    8.750    2.500 
#    6.750    5.625    0.000    0.000    0.000    0.000 
#    0.000    0.000    0.000    0.000    0.000    0.000 
#
# Total GULP energy -89375.422313 kJ/mol
# GULP energy per Si atom -5585.963895 kJ/mol
# Density = 2.636168 g / cm^3
# Si number density = 26.421819 Si / 1000 Ang^3
#
#
#
# Elastic Constant Matrix: (Units=GPa)
#
#
# Indices 1 2 3 4 5 6 
#
# 1 90.1723 22.5755 27.2471 -15.0877 -19.5507 5.2191
# 2 22.5755 70.5512 19.2555 -14.5493 -13.1598 7.8418
# 3 27.2471 19.2555 101.8254 -19.9919 -21.1391 1.7705
# 4 -15.0877 -14.5493 -19.9919 35.6372 -1.6566 3.0852
# 5 -19.5507 -13.1598 -21.1391 -1.6566 31.1336 1.8739
# 6 5.2191 7.8418 1.7705 3.0852 1.8739 50.2859
#
#
#
# Elastic Compliance Matrix: (Units=1/GPa)
#
#
# Indices 1 2 3 4 5 6 
#
# 1 0.014583 -0.001501 -0.000703 0.005727 0.008466 -0.001922
# 2 -0.001501 0.017872 0.000007 0.007290 0.007206 -0.003347
# 3 -0.000703 0.000007 0.013468 0.007794 0.009194 -0.001223
# 4 0.005727 0.007290 0.007794 0.038927 0.014337 -0.004928
# 5 0.008466 0.007206 0.009194 0.014337 0.047788 -0.004987
# 6 -0.001922 -0.003347 -0.001223 -0.004928 -0.004987 0.021139
#
#
# Mechanical properties :
#
#
# Convention : Reuss Voigt Hill
#
# Bulk Modulus (GPa) = 24.07891 44.52277 34.30084
# Shear Modulus (GPa) = 29.06769 36.30938 32.68853
#
# Velocity S-wave (km/s) = 3.32043 3.71107 3.52117
# Velocity P-wave (km/s) = 4.88195 5.93718 5.43523
#
# Compressibility (1/GPa) = 0.04153011
#
# Stress axis : x y z
#
# Youngs Moduli (GPa) = 68.57251 55.95380 74.25193
#
# Poissons Ratio (x) = 0.08397 0.05220
# Poissons Ratio (y) = 0.10291 -0.00055
# Poissons Ratio (z) = 0.04821 -0.00042
#
# Static dielectric constant tensor:
#      x y z
#    x 2.068730 0.025120 -0.025480 
#    y 0.025120 2.099200 -0.031270 
#    z -0.025480 -0.031270 2.134860 
# 
# From -- ./inp_files/428617.got.cif
#   From: 2010.05.17/outbox.cif.g08.bks.cpg/sg2_215_cif.got.tgz:428617.got - 2010.06.03 11:33:40.
