data_PCOD9013757
_publ_section_title
;
Structure prediction by ZEFSAII (Michael W. Deem and Ramdas Pophale) SiO2 
 PCOD9013757
Probable space group: P -1
;
_chemical_formula_sum "Si O2"
_cell_formula_units_Z 12
_cell_length_a 15.965402
_cell_length_b 5.402379
_cell_length_c 8.073425
_cell_angle_alpha 91.963857
_cell_angle_beta 138.662546
_cell_angle_gamma 90.238770
_cell_volume 459.187041
_symmetry_space_group_name_H-M "P -1"
_symmetry_group_IT_number 2
_symmetry_cell_setting 'triclinic'
loop_
_space_group_symop_operation_xyz
x,y,z
-x,-y,-z
loop_
_atom_site_type_symbol
_atom_site_label
_atom_site_fract_x
_atom_site_fract_y
_atom_site_fract_z
Si Si1 0.705415 0.459713 0.114591
Si Si2 0.061582 0.257468 0.664523
Si Si3 0.553642 0.477804 0.386045
Si Si4 0.870709 0.288663 0.658160
Si Si5 0.791186 0.783934 0.708506
Si Si6 0.649318 0.089469 0.719391
O O1 0.764452 0.335458 0.359438
O O2 0.798276 0.684608 0.197271
O O3 0.565310 0.565051 0.909430
O O4 0.690727 0.250884 0.943347
O O5 0.007151 0.276963 0.769811
O O6 0.000000 0.500000 0.500000
O O7 0.000000 0.000000 0.500000
O O8 0.500000 0.500000 0.500000
O O9 0.641909 0.699740 0.448118
O O10 0.648238 0.261248 0.557726
O O11 0.862444 0.537876 0.760702
O O12 0.849220 0.018484 0.701303
O O13 0.754837 0.890168 0.838763
O O14 0.500000 0.000000 0.500000
#
# Coordination Sequence:
#
# PCOD9013757 Si02
#       6
#     2   2   2   2   2   2
#     4  10  23  43  71  97 124 183 230 262 320 408
#     4  10  22  46  68  94 130 175 223 271 319 394
#     4  10  21  41  65  95 132 175 219 258 328 396
#     4  11  25  42  66 101 133 170 217 282 333 369
#     4  12  23  43  65  96 146 165 206 288 336 375
#     4  11  22  43  67  97 135 182 220 260 325 414
#
# _framework density 26.133143
#
# number of rings (size 3 to 8) (size 9 to 14) (size 15 to 20)
#    0.000    1.333    5.000    2.000    0.000    5.333 
#    0.000    1.667    0.000    0.000    0.000    0.000 
#    0.000    0.000    0.000    0.000    0.000    0.000 
#
# Total GULP energy -66956.687983 kJ/mol
# GULP energy per Si atom -5579.723999 kJ/mol
# Density = 2.607366 g / cm^3
# Si number density = 26.133143 Si / 1000 Ang^3
#
#
#
# Elastic Constant Matrix: (Units=GPa)
#
#
# Indices 1 2 3 4 5 6 
#
# 1 125.1487 65.6531 10.4660 22.0823 8.4782 -4.6918
# 2 65.6531 200.6901 35.4089 26.8693 -7.2702 13.9044
# 3 10.4660 35.4089 102.7910 14.8524 -16.9236 -12.7291
# 4 22.0823 26.8693 14.8524 44.1985 -14.9050 -4.7481
# 5 8.4782 -7.2702 -16.9236 -14.9050 26.5931 -9.2985
# 6 -4.6918 13.9044 -12.7291 -4.7481 -9.2985 61.4378
#
#
#
# Elastic Compliance Matrix: (Units=1/GPa)
#
#
# Indices 1 2 3 4 5 6 
#
# 1 0.011362 -0.003003 -0.000653 -0.006615 -0.008712 -0.000418
# 2 -0.003003 0.006818 -0.002131 -0.002470 -0.000803 -0.002526
# 3 -0.000653 -0.002131 0.012559 0.001251 0.009940 0.004636
# 4 -0.006615 -0.002470 0.001251 0.036144 0.024891 0.006874
# 5 -0.008712 -0.000803 0.009940 0.024891 0.065108 0.013354
# 6 -0.000418 -0.002526 0.004636 0.006874 0.013354 0.020329
#
#
# Mechanical properties :
#
#
# Convention : Reuss Voigt Hill
#
# Bulk Modulus (GPa) = 52.17687 72.40956 62.29322
# Shear Modulus (GPa) = 29.36313 47.58598 38.47456
#
# Velocity S-wave (km/s) = 3.35565 4.27184 3.84116
# Velocity P-wave (km/s) = 5.91802 7.21800 6.60009
#
# Compressibility (1/GPa) = 0.01916558
#
# Stress axis : x y z
#
# Youngs Moduli (GPa) = 88.01196 146.67482 79.62573
#
# Poissons Ratio (x) = 0.44044 0.05198
# Poissons Ratio (y) = 0.26428 0.16967
# Poissons Ratio (z) = 0.05746 0.31254
#
# Static dielectric constant tensor:
#      x y z
#    x 2.226030 -0.023470 -0.161070 
#    y -0.023470 2.254260 -0.126810 
#    z -0.161070 -0.126810 2.299810 
# 
# From -- ./inp_files/322679.got.cif
#   From: 2010.05.17/outbox.cif.g08.bks.cpg/sg2_162_cif.got.tgz:322679.got - 2010.06.03 11:33:40.
