data_PCOD9013776
_publ_section_title
;
Structure prediction by ZEFSAII (Michael W. Deem and Ramdas Pophale) SiO2 
 PCOD9013776
Probable space group: P -1
;
_chemical_formula_sum "Si O2"
_cell_formula_units_Z 15
_cell_length_a 13.359626
_cell_length_b 11.602296
_cell_length_c 16.313305
_cell_angle_alpha 129.976061
_cell_angle_beta 29.146549
_cell_angle_gamma 147.580585
_cell_volume 615.202933
_symmetry_space_group_name_H-M "P -1"
_symmetry_group_IT_number 2
_symmetry_cell_setting 'triclinic'
loop_
_space_group_symop_operation_xyz
x,y,z
-x,-y,-z
loop_
_atom_site_type_symbol
_atom_site_label
_atom_site_fract_x
_atom_site_fract_y
_atom_site_fract_z
Si Si1 0.771856 0.419139 0.801289
Si Si2 0.543346 0.362915 0.273215
Si Si3 0.269820 0.832766 0.516285
Si Si4 0.377671 0.525918 0.912176
Si Si5 0.963977 0.017796 0.345158
Si Si6 0.902347 0.150850 0.623743
Si Si7 0.500000 0.500000 0.500000
Si Si8 0.633138 0.786269 0.143830
O O1 0.806050 0.266752 0.735014
O O2 0.441837 0.278591 0.928386
O O3 0.006163 0.585323 0.635092
O O4 0.853504 0.563299 0.888719
O O5 0.702041 0.504798 0.140937
O O6 0.704859 0.464626 0.291385
O O7 0.251594 0.319831 0.493333
O O8 0.366698 0.107633 0.266289
O O9 0.145103 0.921096 0.613695
O O10 0.456623 0.841064 0.319269
O O11 0.500000 0.000000 0.500000
O O12 0.488499 0.418715 0.805947
O O13 0.663912 0.801827 0.849788
O O14 0.961216 0.107932 0.474247
O O15 0.736821 0.751521 0.393459
O O16 0.000000 0.000000 0.000000
#
# Coordination Sequence:
#
# PCOD9013776 Si02
#       8
#     2   2   2   2   2   2   1   2
#     4  12  24  43  68  99 137 183 222 277 337 406
#     4   9  20  40  64  96 126 172 220 276 333 388
#     4  12  25  40  67 101 133 179 227 274 334 414
#     4  11  24  41  65  95 140 176 220 276 339 398
#     4  10  21  41  65  96 130 175 223 275 331 398
#     4   9  19  40  65  89 124 172 225 266 327 401
#     4  10  22  38  70  98 128 172 226 278 330 402
#     4  12  26  44  66  99 138 179 223 282 342 400
#
# _framework density 24.382197999999999
#
# number of rings (size 3 to 8) (size 9 to 14) (size 15 to 20)
#    0.000    1.333    2.667    4.000    5.600    0.533 
#    0.000    0.000    0.000    3.200    0.000    0.000 
#    0.000    0.000    0.000    0.000    0.000    0.000 
#
# Total GULP energy -83604.005619 kJ/mol
# GULP energy per Si atom -5573.600375 kJ/mol
# Density = 2.432670 g / cm^3
# Si number density = 24.382198 Si / 1000 Ang^3
#
#
#
# Elastic Constant Matrix: (Units=GPa)
#
#
# Indices 1 2 3 4 5 6 
#
# 1 95.1146 16.7276 16.4278 -7.9081 18.5055 -7.0447
# 2 16.7276 121.9563 13.8078 -16.3140 -8.4047 -12.9981
# 3 16.4278 13.8078 56.6191 -0.5612 12.8994 -0.6497
# 4 -7.9081 -16.3140 -0.5612 28.0969 4.9873 4.1863
# 5 18.5055 -8.4047 12.8994 4.9873 35.5719 4.4939
# 6 -7.0447 -12.9981 -0.6497 4.1863 4.4939 45.4229
#
#
#
# Elastic Compliance Matrix: (Units=1/GPa)
#
#
# Indices 1 2 3 4 5 6 
#
# 1 0.012908 -0.001356 -0.001716 0.003797 -0.007192 0.001951
# 2 -0.001356 0.009671 -0.002606 0.004362 0.003095 0.001812
# 3 -0.001716 -0.002606 0.020404 -0.000334 -0.007077 0.000011
# 4 0.003797 0.004362 -0.000334 0.040501 -0.006341 -0.001273
# 5 -0.007192 0.003095 -0.007077 -0.006341 0.036464 -0.003354
# 6 0.001951 0.001812 0.000011 -0.001273 -0.003354 0.023286
#
#
# Mechanical properties :
#
#
# Convention : Reuss Voigt Hill
#
# Bulk Modulus (GPa) = 31.61841 40.84624 36.23232
# Shear Modulus (GPa) = 30.27882 36.93346 33.60614
#
# Velocity S-wave (km/s) = 3.52780 3.89623 3.71658
# Velocity P-wave (km/s) = 5.43965 6.08520 5.77146
#
# Compressibility (1/GPa) = 0.03162715
#
# Stress axis : x y z
#
# Youngs Moduli (GPa) = 77.47152 103.40659 49.00899
#
# Poissons Ratio (x) = 0.14021 0.08410
# Poissons Ratio (y) = 0.10505 0.12772
# Poissons Ratio (z) = 0.13294 0.26948
#
# Static dielectric constant tensor:
#      x y z
#    x 2.458110 0.528550 -0.057820 
#    y 0.528550 2.277440 -0.102440 
#    z -0.057820 -0.102440 2.127280 
# 
# From -- ./inp_files/202039.got.cif
#   From: 2010.05.17/outbox.cif.g08.bks.cpg/sg2_102_cif.got.tgz:202039.got - 2010.06.03 11:33:40.
