data_PCOD9013695
_publ_section_title
;
Structure prediction by ZEFSAII (Michael W. Deem and Ramdas Pophale) SiO2 
 PCOD9013695
Probable space group: P -1
;
_chemical_formula_sum "Si O2"
_cell_formula_units_Z 16
_cell_length_a 9.669421
_cell_length_b 8.105998
_cell_length_c 12.429887
_cell_angle_alpha 79.657214
_cell_angle_beta 131.479740
_cell_angle_gamma 92.414325
_cell_volume 714.136335
_symmetry_space_group_name_H-M "P -1"
_symmetry_group_IT_number 2
_symmetry_cell_setting 'triclinic'
loop_
_space_group_symop_operation_xyz
x,y,z
-x,-y,-z
loop_
_atom_site_type_symbol
_atom_site_label
_atom_site_fract_x
_atom_site_fract_y
_atom_site_fract_z
Si Si1 0.463889 0.347636 0.077239
Si Si2 0.018428 0.814114 0.921101
Si Si3 0.363429 0.171929 0.411084
Si Si4 0.619719 0.360348 0.384460
Si Si5 0.979451 0.154100 0.616972
Si Si6 0.924421 0.798997 0.103998
Si Si7 0.840477 0.677471 0.502990
Si Si8 0.156543 0.773133 0.778969
O O1 0.497740 0.395442 0.211707
O O2 0.635210 0.212668 0.148871
O O3 0.500000 0.500000 0.000000
O O4 0.270186 0.274226 0.974835
O O5 0.808692 0.837559 0.760352
O O6 0.138046 0.719053 0.899580
O O7 0.019851 0.733571 0.049320
O O8 0.094374 0.997751 0.946179
O O9 0.485350 0.316249 0.415709
O O10 0.282051 0.217405 0.481787
O O11 0.500000 0.000000 0.500000
O O12 0.742279 0.511771 0.450841
O O13 0.771466 0.198501 0.461857
O O14 0.973821 0.227285 0.726676
O O15 0.120639 0.231866 0.599661
O O16 0.044195 0.956630 0.682956
O O17 0.046690 0.647654 0.665706
#
# Coordination Sequence:
#
# PCOD9013695 Si02
#       8
#     2   2   2   2   2   2   2   2
#     4  12  26  42  65  97 140 178 220 278 340 396
#     4   9  20  41  65  93 126 176 216 277 327 392
#     4  11  23  42  67 102 132 174 227 278 331 393
#     4  12  24  43  67 100 138 174 222 279 333 402
#     4  11  23  41  71 102 126 182 222 280 336 394
#     4  10  21  41  65  93 133 169 224 263 337 394
#     4  11  23  39  66 100 136 170 221 271 340 394
#     4  10  23  42  67  98 133 172 234 274 331 399
#
# _framework density 22.404684
#
# number of rings (size 3 to 8) (size 9 to 14) (size 15 to 20)
#    0.000    1.250    2.500    4.125    3.500    2.000 
#    0.000    9.375    0.000    0.000    0.000    0.000 
#    0.000    0.000    0.000    0.000    0.000    0.000 
#
# Total GULP energy -89433.335944 kJ/mol
# GULP energy per Si atom -5589.583497 kJ/mol
# Density = 2.235369 g / cm^3
# Si number density = 22.404684 Si / 1000 Ang^3
#
#
#
# Elastic Constant Matrix: (Units=GPa)
#
#
# Indices 1 2 3 4 5 6 
#
# 1 130.0534 27.8724 24.3934 -6.2293 -31.2704 37.5188
# 2 27.8724 62.9727 21.9011 6.6918 5.0539 26.5782
# 3 24.3934 21.9011 80.3030 2.9604 -25.8709 14.2559
# 4 -6.2293 6.6918 2.9604 26.0493 6.0654 6.4572
# 5 -31.2704 5.0539 -25.8709 6.0654 42.2027 1.8959
# 6 37.5188 26.5782 14.2559 6.4572 1.8959 44.5063
#
#
#
# Elastic Compliance Matrix: (Units=1/GPa)
#
#
# Indices 1 2 3 4 5 6 
#
# 1 0.014933 -0.003886 0.002812 0.004237 0.013199 -0.012345
# 2 -0.003886 0.024578 -0.006972 -0.002165 -0.009406 -0.008453
# 3 0.002812 -0.006972 0.019350 -0.002121 0.015298 -0.004748
# 4 0.004237 -0.002165 -0.002121 0.042971 -0.003733 -0.007675
# 5 0.013199 -0.009406 0.015298 -0.003733 0.045045 -0.011787
# 6 -0.012345 -0.008453 -0.004748 -0.007675 -0.011787 0.041060
#
#
# Mechanical properties :
#
#
# Convention : Reuss Voigt Hill
#
# Bulk Modulus (GPa) = 23.38330 46.85143 35.11736
# Shear Modulus (GPa) = 22.90578 35.82915 29.36747
#
# Velocity S-wave (km/s) = 3.20091 4.00331 3.62439
# Velocity P-wave (km/s) = 4.91127 6.50581 5.76395
#
# Compressibility (1/GPa) = 0.04276556
#
# Stress axis : x y z
#
# Youngs Moduli (GPa) = 66.96785 40.68755 51.67949
#
# Poissons Ratio (x) = 0.15813 -0.14530
# Poissons Ratio (y) = 0.26026 0.36033
# Poissons Ratio (z) = -0.18828 0.28369
#
# Static dielectric constant tensor:
#      x y z
#    x 1.861080 -0.035430 -0.030040 
#    y -0.035430 1.861460 -0.006980 
#    z -0.030040 -0.006980 1.840900 
# 
# From -- ./inp_files/382134.got.cif
#   From: 2010.05.17/outbox.cif.g08.bks.cpg/sg2_192_cif.got.tgz:382134.got - 2010.06.03 11:33:40.
