data_PCOD9013135
_publ_section_title
;
Structure prediction by ZEFSAII (Michael W. Deem and Ramdas Pophale) SiO2 
 PCOD9013135
Probable space group: P -1
;
_chemical_formula_sum "Si O2"
_cell_formula_units_Z 16
_cell_length_a 15.818103
_cell_length_b 12.710592
_cell_length_c 17.898205
_cell_angle_alpha 28.578476
_cell_angle_beta 151.160300
_cell_angle_gamma 131.573886
_cell_volume 738.171881
_symmetry_space_group_name_H-M "P -1"
_symmetry_group_IT_number 2
_symmetry_cell_setting 'triclinic'
loop_
_space_group_symop_operation_xyz
x,y,z
-x,-y,-z
loop_
_atom_site_type_symbol
_atom_site_label
_atom_site_fract_x
_atom_site_fract_y
_atom_site_fract_z
Si Si1 0.306052 0.544654 0.867579
Si Si2 0.024235 0.549047 0.401573
Si Si3 0.123149 0.481934 0.897127
Si Si4 0.394295 0.601935 0.433719
Si Si5 0.953985 0.971963 0.854073
Si Si6 0.916755 0.915905 0.690242
Si Si7 0.243072 0.456310 0.177298
Si Si8 0.286568 0.232570 0.673618
O O1 0.182794 0.416459 0.814539
O O2 0.309342 0.467089 0.004215
O O3 0.171561 0.839792 0.578135
O O4 0.500000 0.500000 0.000000
O O5 0.191015 0.326168 0.622909
O O6 0.000000 0.500000 0.500000
O O7 0.085515 0.769154 0.302295
O O8 0.916885 0.713613 0.564853
O O9 0.103733 0.227583 0.028695
O O10 0.165349 0.492560 0.010266
O O11 0.500000 0.500000 0.500000
O O12 0.527617 0.661163 0.557276
O O13 0.347165 0.406695 0.562551
O O14 0.189097 0.835607 0.113711
O O15 0.874204 0.005540 0.686849
O O16 0.822066 0.732530 0.716033
O O17 0.144576 0.728049 0.969148
O O18 0.500000 0.000000 0.000000
#
# Coordination Sequence:
#
# PCOD9013135 Si02
#       8
#     2   2   2   2   2   2   2   2
#     4  11  25  43  63  96 132 174 223 275 337 405
#     4  11  24  44  73  98 137 181 219 285 349 389
#     4   9  23  45  67  94 138 176 220 283 334 397
#     4  11  23  38  69 100 131 175 230 281 331 405
#     4  10  21  44  68  95 134 175 225 277 336 404
#     4  10  21  41  63  91 133 168 221 271 330 400
#     4  10  22  41  64  95 128 178 214 272 344 389
#     4  10  25  44  67 102 135 173 232 280 336 405
#
# _framework density 21.675169
#
# number of rings (size 3 to 8) (size 9 to 14) (size 15 to 20)
#    0.000    1.750    2.500    0.000    8.750    6.000 
#    2.250    1.250    0.000    0.000    0.000    0.000 
#    0.000    0.000    0.000    0.000    0.000    0.000 
#
# Total GULP energy -89153.077373 kJ/mol
# GULP energy per Si atom -5572.067336 kJ/mol
# Density = 2.162584 g / cm^3
# Si number density = 21.675169 Si / 1000 Ang^3
#
#
#
# Elastic Constant Matrix: (Units=GPa)
#
#
# Indices 1 2 3 4 5 6 
#
# 1 128.1321 28.8787 25.8202 7.5967 3.3202 7.8207
# 2 28.8787 68.9678 32.1719 0.1841 3.5430 4.1774
# 3 25.8202 32.1719 55.3378 -0.7123 0.0916 6.7935
# 4 7.5967 0.1841 -0.7123 25.4947 4.2110 1.8379
# 5 3.3202 3.5430 0.0916 4.2110 28.2533 6.5105
# 6 7.8207 4.1774 6.7935 1.8379 6.5105 30.6749
#
#
#
# Elastic Compliance Matrix: (Units=1/GPa)
#
#
# Indices 1 2 3 4 5 6 
#
# 1 0.009145 -0.002480 -0.002710 -0.002683 -0.000075 -0.001217
# 2 -0.002480 0.020745 -0.010981 0.000649 -0.002542 0.000740
# 3 -0.002710 -0.010981 0.026253 0.001536 0.002354 -0.004219
# 4 -0.002683 0.000649 0.001536 0.041069 -0.005661 -0.001004
# 5 -0.000075 -0.002542 0.002354 -0.005661 0.038393 -0.007966
# 6 -0.001217 0.000740 -0.004219 -0.001004 -0.007966 0.035495
#
#
# Mechanical properties :
#
#
# Convention : Reuss Voigt Hill
#
# Bulk Modulus (GPa) = 42.01737 47.35324 44.68531
# Shear Modulus (GPa) = 23.65453 27.92238 25.78845
#
# Velocity S-wave (km/s) = 3.30710 3.59307 3.45305
# Velocity P-wave (km/s) = 5.83178 6.25362 6.04638
#
# Compressibility (1/GPa) = 0.02379968
#
# Stress axis : x y z
#
# Youngs Moduli (GPa) = 109.35161 48.20513 38.09037
#
# Poissons Ratio (x) = 0.11957 0.10322
# Poissons Ratio (y) = 0.27123 0.41828
# Poissons Ratio (z) = 0.29633 0.52936
#
# Static dielectric constant tensor:
#      x y z
#    x 1.804270 -0.010870 0.008530 
#    y -0.010870 1.826280 0.001520 
#    z 0.008530 0.001520 1.806110 
# 
# From -- ./inp_files/573572.got.cif
#   From: 2010.05.17/outbox.cif.g08.bks.cpg/sg2_287_cif.got.tgz:573572.got - 2010.06.03 11:33:40.
