data_PCOD9013004
_publ_section_title
;
Structure prediction by ZEFSAII (Michael W. Deem and Ramdas Pophale) SiO2 
 PCOD9013004
Probable space group: P -1
;
_chemical_formula_sum "Si O2"
_cell_formula_units_Z 14
_cell_length_a 18.775107
_cell_length_b 13.136605
_cell_length_c 5.411261
_cell_angle_alpha 121.613397
_cell_angle_beta 97.211482
_cell_angle_gamma 36.124999
_cell_volume 539.400009
_symmetry_space_group_name_H-M "P -1"
_symmetry_group_IT_number 2
_symmetry_cell_setting 'triclinic'
loop_
_space_group_symop_operation_xyz
x,y,z
-x,-y,-z
loop_
_atom_site_type_symbol
_atom_site_label
_atom_site_fract_x
_atom_site_fract_y
_atom_site_fract_z
Si Si1 0.250237 0.126436 0.572092
Si Si2 0.145366 0.871202 0.385358
Si Si3 0.009974 0.593263 0.431246
Si Si4 0.658555 0.763306 0.402651
Si Si5 0.220923 0.783823 0.798701
Si Si6 0.211219 0.515165 0.409637
Si Si7 0.466738 0.415495 0.780022
O O1 0.158245 0.158271 0.434796
O O2 0.301738 0.154745 0.443636
O O3 0.388632 0.874444 0.470087
O O4 0.129077 0.369272 0.999003
O O5 0.166007 0.921769 0.698670
O O6 0.134953 0.948110 0.215483
O O7 0.320209 0.570967 0.051065
O O8 0.000000 0.000000 0.500000
O O9 0.000000 0.500000 0.500000
O O10 0.086383 0.604128 0.562813
O O11 0.665247 0.689565 0.578770
O O12 0.500000 0.000000 0.500000
O O13 0.757611 0.561178 0.963103
O O14 0.180945 0.700856 0.645742
O O15 0.397391 0.530395 0.620294
O O16 0.500000 0.500000 0.000000
#
# Coordination Sequence:
#
# PCOD9013004 Si02
#       7
#     2   2   2   2   2   2   2
#     4  10  22  41  63  96 137 178 227 280 337 414
#     4  10  23  46  72  94 137 177 234 289 341 403
#     4  10  21  41  62  94 138 180 222 276 345 414
#     4  11  22  36  63  93 133 169 216 272 336 408
#     4  10  23  42  70  99 134 173 230 286 341 410
#     4  11  22  39  64  98 129 174 221 269 345 405
#     4  10  25  45  69 101 138 184 233 289 346 406
#
# _framework density 25.954765999999999
#
# number of rings (size 3 to 8) (size 9 to 14) (size 15 to 20)
#    0.857    0.857    1.429    2.571    2.000    4.000 
#    2.571    0.000    0.000    0.000    0.000    0.000 
#    0.000    0.000    0.000    0.000    0.000    0.000 
#
# Total GULP energy -78125.104678 kJ/mol
# GULP energy per Si atom -5580.364620 kJ/mol
# Density = 2.589569 g / cm^3
# Si number density = 25.954766 Si / 1000 Ang^3
#
#
#
# Elastic Constant Matrix: (Units=GPa)
#
#
# Indices 1 2 3 4 5 6 
#
# 1 137.5289 16.3626 5.7975 12.3434 11.2815 -19.7372
# 2 16.3626 167.2573 29.5087 -0.3282 0.7579 -26.4173
# 3 5.7975 29.5087 42.6827 3.2149 -5.6805 -4.1358
# 4 12.3434 -0.3282 3.2149 51.0356 -8.0958 -8.8637
# 5 11.2815 0.7579 -5.6805 -8.0958 30.2000 1.7616
# 6 -19.7372 -26.4173 -4.1358 -8.8637 1.7616 43.4261
#
#
#
# Elastic Compliance Matrix: (Units=1/GPa)
#
#
# Indices 1 2 3 4 5 6 
#
# 1 0.008326 -0.000061 -0.001150 -0.001996 -0.004058 0.003395
# 2 -0.000061 0.007562 -0.005019 0.000957 -0.001107 0.004334
# 3 -0.001150 -0.005019 0.027737 -0.000841 0.005625 -0.001334
# 4 -0.001996 0.000957 -0.000841 0.021774 0.006179 0.003788
# 5 -0.004058 -0.001107 0.005625 0.006179 0.037502 -0.002242
# 6 0.003395 0.004334 -0.001334 0.003788 -0.002242 0.027945
#
#
# Mechanical properties :
#
#
# Convention : Reuss Voigt Hill
#
# Bulk Modulus (GPa) = 32.08599 50.08960 41.08780
# Shear Modulus (GPa) = 32.53223 44.65234 38.59228
#
# Velocity S-wave (km/s) = 3.54421 4.15226 3.86022
# Velocity P-wave (km/s) = 5.39793 6.50608 5.97774
#
# Compressibility (1/GPa) = 0.03116625
#
# Stress axis : x y z
#
# Youngs Moduli (GPa) = 120.10369 132.24415 36.05232
#
# Poissons Ratio (x) = 0.00808 0.04144
# Poissons Ratio (y) = 0.00733 0.18095
# Poissons Ratio (z) = 0.13806 0.66373
#
# Static dielectric constant tensor:
#      x y z
#    x 2.137570 -0.048880 0.018410 
#    y -0.048880 2.166300 -0.064280 
#    z 0.018410 -0.064280 2.186910 
# 
# From -- ./inp_files/119183.got.cif
#   From: 2010.05.17/outbox.cif.g08.bks.cpg/sg2_60_cif.got.tgz:119183.got - 2010.06.03 11:33:40.
