data_PCOD9013738
_publ_section_title
;
Structure prediction by ZEFSAII (Michael W. Deem and Ramdas Pophale) SiO2 
 PCOD9013738
Probable space group: P -1
;
_chemical_formula_sum "Si O2"
_cell_formula_units_Z 14
_cell_length_a 10.998875
_cell_length_b 10.079113
_cell_length_c 15.673044
_cell_angle_alpha 143.741704
_cell_angle_beta 52.636542
_cell_angle_gamma 141.936167
_cell_volume 631.686053
_symmetry_space_group_name_H-M "P -1"
_symmetry_group_IT_number 2
_symmetry_cell_setting 'triclinic'
loop_
_space_group_symop_operation_xyz
x,y,z
-x,-y,-z
loop_
_atom_site_type_symbol
_atom_site_label
_atom_site_fract_x
_atom_site_fract_y
_atom_site_fract_z
Si Si1 0.056121 0.646224 0.644181
Si Si2 0.736907 0.257149 0.793300
Si Si3 0.481164 0.167286 0.996853
Si Si4 0.816927 0.837957 0.235152
Si Si5 0.929593 0.116712 0.519806
Si Si6 0.202937 0.283524 0.098700
Si Si7 0.915004 0.288413 0.005239
O O1 0.081356 0.458186 0.600401
O O2 0.000000 0.500000 0.500000
O O3 0.869745 0.608121 0.742462
O O4 0.218259 0.984529 0.722607
O O5 0.687586 0.455065 0.879317
O O6 0.750360 0.079944 0.624716
O O7 0.590502 0.093926 0.850161
O O8 0.962357 0.497948 0.856864
O O9 0.642422 0.494543 0.130889
O O10 0.330034 0.190522 0.022564
O O11 0.319076 0.905885 0.991690
O O12 0.007232 0.889021 0.139720
O O13 0.863241 0.948541 0.370394
O O14 0.000000 0.000000 0.500000
O O15 0.000000 0.000000 0.000000
O O16 0.000000 0.500000 0.000000
#
# Coordination Sequence:
#
# PCOD9013738 Si02
#       7
#     2   2   2   2   2   2   2
#     4   9  19  37  63  92 125 169 217 251 312 384
#     4  10  22  37  61  99 124 162 213 256 319 375
#     4  11  22  39  66  95 130 160 209 268 313 379
#     4  10  21  41  65  95 125 169 220 254 315 383
#     4  10  21  41  67  92 131 174 210 265 320 374
#     4  11  18  37  63  93 125 160 206 262 321 364
#     4  11  22  40  66  91 127 173 206 257 321 380
#
# _framework density 22.162908000000002
#
# number of rings (size 3 to 8) (size 9 to 14) (size 15 to 20)
#    0.000    1.714    2.857    2.143    0.000    2.286 
#    0.000    9.286    0.000    3.429    0.000    0.000 
#    0.000    0.000    0.000    0.000    0.000    0.000 
#
# Total GULP energy -78044.129790 kJ/mol
# GULP energy per Si atom -5574.580699 kJ/mol
# Density = 2.211246 g / cm^3
# Si number density = 22.162908 Si / 1000 Ang^3
#
#
#
# Elastic Constant Matrix: (Units=GPa)
#
#
# Indices 1 2 3 4 5 6 
#
# 1 84.2841 31.1605 14.5416 9.6746 -8.7145 -23.4246
# 2 31.1605 156.3852 42.1620 -6.9601 2.0494 -12.8033
# 3 14.5416 42.1620 102.6945 -27.6894 12.6353 4.8541
# 4 9.6746 -6.9601 -27.6894 30.4996 -17.2393 -7.4545
# 5 -8.7145 2.0494 12.6353 -17.2393 32.7155 6.6024
# 6 -23.4246 -12.8033 4.8541 -7.4545 6.6024 51.5993
#
#
#
# Elastic Compliance Matrix: (Units=1/GPa)
#
#
# Indices 1 2 3 4 5 6 
#
# 1 0.015740 -0.001988 -0.003632 -0.006754 0.000971 0.005894
# 2 -0.001988 0.007686 -0.002929 -0.000054 -0.000169 0.001294
# 3 -0.003632 -0.002929 0.015350 0.014785 0.001456 -0.001870
# 4 -0.006754 -0.000054 0.014785 0.063061 0.025444 0.001384
# 5 0.000971 -0.000169 0.001456 0.025444 0.044023 -0.001695
# 6 0.005894 0.001294 -0.001870 0.001384 -0.001695 0.022970
#
#
# Mechanical properties :
#
#
# Convention : Reuss Voigt Hill
#
# Bulk Modulus (GPa) = 46.12799 57.67689 51.90244
# Shear Modulus (GPa) = 25.88621 39.99620 32.94121
#
# Velocity S-wave (km/s) = 3.42130 4.25272 3.85947
# Velocity P-wave (km/s) = 6.03866 7.08482 6.58256
#
# Compressibility (1/GPa) = 0.02167881
#
# Stress axis : x y z
#
# Youngs Moduli (GPa) = 63.53283 130.10703 65.14575
#
# Poissons Ratio (x) = 0.25864 0.23660
# Poissons Ratio (y) = 0.12630 0.19081
# Poissons Ratio (z) = 0.23074 0.38107
#
# Static dielectric constant tensor:
#      x y z
#    x 1.906240 -0.000380 -0.065890 
#    y -0.000380 1.708080 0.101160 
#    z -0.065890 0.101160 1.819290 
# 
# From -- ./inp_files/410043.got.cif
#   From: 2010.05.17/outbox.cif.g08.bks.cpg/sg2_206_cif.got.tgz:410043.got - 2010.06.03 11:33:40.
