data_PCOD9013300
_publ_section_title
;
Structure prediction by ZEFSAII (Michael W. Deem and Ramdas Pophale) SiO2 
 PCOD9013300
Probable space group: P -1
;
_chemical_formula_sum "Si O2"
_cell_formula_units_Z 16
_cell_length_a 22.888423
_cell_length_b 9.327488
_cell_length_c 16.227873
_cell_angle_alpha 63.998641
_cell_angle_beta 18.741240
_cell_angle_gamma 54.418193
_cell_volume 816.893424
_symmetry_space_group_name_H-M "P -1"
_symmetry_group_IT_number 2
_symmetry_cell_setting 'triclinic'
loop_
_space_group_symop_operation_xyz
x,y,z
-x,-y,-z
loop_
_atom_site_type_symbol
_atom_site_label
_atom_site_fract_x
_atom_site_fract_y
_atom_site_fract_z
Si Si1 0.627923 0.574870 0.263227
Si Si2 0.893592 0.170211 0.737341
Si Si3 0.898583 0.566453 0.388866
Si Si4 0.382324 0.083621 0.722305
Si Si5 0.559269 0.565703 0.166843
Si Si6 0.424832 0.908191 0.882880
Si Si7 0.103156 0.748562 0.637336
Si Si8 0.838606 0.708485 0.751295
O O1 0.500000 0.500000 0.500000
O O2 0.578710 0.761539 0.331227
O O3 0.542905 0.614670 0.272702
O O4 0.898536 0.440619 0.924710
O O5 0.044580 0.230683 0.481718
O O6 0.732417 0.334022 0.978455
O O7 0.727758 0.173078 0.890997
O O8 0.043700 0.949397 0.626094
O O9 0.662337 0.769657 0.643120
O O10 0.872514 0.405390 0.422582
O O11 0.981247 0.489073 0.390127
O O12 0.500000 0.000000 0.500000
O O13 0.451808 0.932549 0.743237
O O14 0.120173 0.186952 0.032355
O O15 0.322919 0.645354 0.423842
O O16 0.664097 0.670347 0.958044
O O17 0.287634 0.119718 0.055153
#
# Coordination Sequence:
#
# PCOD9013300 Si02
#       8
#     2   2   2   2   2   2   2   2
#     4  10  23  42  64  91 126 157 200 256 306 364
#     4  11  23  38  67  90 122 170 204 250 307 360
#     4  10  21  41  64  89 124 164 204 253 304 360
#     4  10  22  43  65  91 122 159 205 251 302 369
#     4  11  23  42  60  92 130 158 202 255 307 361
#     4  11  21  40  65  91 122 164 206 252 302 359
#     4  10  22  40  63  91 125 160 210 249 298 371
#     4  11  23  42  60  93 130 155 210 261 297 359
#
# _framework density 19.586399
#
# number of rings (size 3 to 8) (size 9 to 14) (size 15 to 20)
#    0.000    1.500    6.250    0.750    3.500    5.000 
#    0.000    3.750    0.000    0.000    0.000    0.000 
#    0.000    0.000    0.000    0.000    0.000    0.000 
#
# Total GULP energy -89311.676722 kJ/mol
# GULP energy per Si atom -5581.979795 kJ/mol
# Density = 1.954182 g / cm^3
# Si number density = 19.586399 Si / 1000 Ang^3
#
#
#
# Elastic Constant Matrix: (Units=GPa)
#
#
# Indices 1 2 3 4 5 6 
#
# 1 75.4085 27.5635 56.0646 4.4427 -13.5258 6.1669
# 2 27.5635 82.9024 53.5722 -20.7396 -6.1267 -0.2362
# 3 56.0646 53.5722 83.9627 -10.9612 -15.0496 -13.2484
# 4 4.4427 -20.7396 -10.9612 41.4351 0.8311 -6.4502
# 5 -13.5258 -6.1267 -15.0496 0.8311 36.6753 -2.8724
# 6 6.1669 -0.2362 -13.2484 -6.4502 -2.8724 25.0207
#
#
#
# Elastic Compliance Matrix: (Units=1/GPa)
#
#
# Indices 1 2 3 4 5 6 
#
# 1 0.054495 0.011393 -0.054891 -0.022140 -0.003823 -0.048535
# 2 0.011393 0.026188 -0.027470 0.002048 -0.004077 -0.017046
# 3 -0.054891 -0.027470 0.081606 0.023428 0.013138 0.064028
# 4 -0.022140 0.002048 0.023428 0.038033 0.003125 0.028045
# 5 -0.003823 -0.004077 0.013138 0.003125 0.031457 0.012277
# 6 -0.048535 -0.017046 0.064028 0.028045 0.012277 0.094310
#
#
# Mechanical properties :
#
#
# Convention : Reuss Voigt Hill
#
# Bulk Modulus (GPa) = 49.13350 57.40824 53.27087
# Shear Modulus (GPa) = 10.53051 27.63110 19.08081
#
# Velocity S-wave (km/s) = 2.32123 3.76004 3.12458
# Velocity P-wave (km/s) = 5.68543 6.94438 6.34620
#
# Compressibility (1/GPa) = 0.02035271
#
# Stress axis : x y z
#
# Youngs Moduli (GPa) = 18.35026 38.18530 12.25400
#
# Poissons Ratio (x) = -0.43505 0.67264
# Poissons Ratio (y) = -0.20907 0.33662
# Poissons Ratio (z) = 1.00727 1.04895
#
# Static dielectric constant tensor:
#      x y z
#    x 1.669560 0.009430 0.007310 
#    y 0.009430 1.709630 -0.011790 
#    z 0.007310 -0.011790 1.692900 
# 
# From -- ./inp_files/201288.got.cif
#   From: 2010.05.17/outbox.cif.g08.bks.cpg/sg2_101_cif.got.tgz:201288.got - 2010.06.03 11:33:40.
