data_PCOD9013857
_publ_section_title
;
Structure prediction by ZEFSAII (Michael W. Deem and Ramdas Pophale) SiO2 
 PCOD9013857
Probable space group: P -1
;
_chemical_formula_sum "Si O2"
_cell_formula_units_Z 12
_cell_length_a 15.352670
_cell_length_b 15.089476
_cell_length_c 12.269043
_cell_angle_alpha 16.594413
_cell_angle_beta 37.053254
_cell_angle_gamma 33.320436
_cell_volume 445.840438
_symmetry_space_group_name_H-M "P -1"
_symmetry_group_IT_number 2
_symmetry_cell_setting 'triclinic'
loop_
_space_group_symop_operation_xyz
x,y,z
-x,-y,-z
loop_
_atom_site_type_symbol
_atom_site_label
_atom_site_fract_x
_atom_site_fract_y
_atom_site_fract_z
Si Si1 0.178598 0.198570 0.814795
Si Si2 0.342145 0.464347 0.163177
Si Si3 0.409684 0.424975 0.898407
Si Si4 0.039577 0.166003 0.603469
Si Si5 0.766208 0.802240 0.819282
Si Si6 0.650597 0.708590 0.254419
O O1 0.290299 0.242101 0.558984
O O2 0.267472 0.163338 0.883756
O O3 0.025393 0.560159 0.558932
O O4 0.100604 0.944386 0.158864
O O5 0.500000 0.500000 0.000000
O O6 0.378482 0.329553 0.162505
O O7 0.194422 0.833173 0.872539
O O8 0.572623 0.465906 0.667409
O O9 0.273106 0.809968 0.564170
O O10 0.381212 0.185111 0.122050
O O11 0.092168 0.318699 0.265588
O O12 0.768556 0.586443 0.177082
O O13 0.500000 0.000000 0.000000
#
# Coordination Sequence:
#
# PCOD9013857 Si02
#       6
#     2   2   2   2   2   2
#     4  12  26  46  71 105 143 186 224 290 355 408
#     4  11  23  47  74 104 138 184 235 287 343 420
#     4  10  21  41  66 102 129 175 226 288 332 397
#     4  11  26  46  68 105 146 180 228 285 357 417
#     4  10  22  41  69  92 138 179 223 276 340 404
#     4  10  23  44  71 102 139 181 237 286 339 410
#
# _framework density 26.915462000000002
#
# number of rings (size 3 to 8) (size 9 to 14) (size 15 to 20)
#    0.000    1.333    1.667    3.500    0.000    9.333 
#    0.000    8.333    0.000    0.000    0.000    0.000 
#    0.000    0.000    0.000    0.000    0.000    0.000 
#
# Total GULP energy -67348.494890 kJ/mol
# GULP energy per Si atom -5612.374574 kJ/mol
# Density = 2.685420 g / cm^3
# Si number density = 26.915462 Si / 1000 Ang^3
#
#
#
# Elastic Constant Matrix: (Units=GPa)
#
#
# Indices 1 2 3 4 5 6 
#
# 1 109.6690 26.4044 35.9280 15.0377 5.5836 -6.1784
# 2 26.4044 129.6074 56.2970 38.1890 6.9350 5.7191
# 3 35.9280 56.2970 143.9235 44.5722 -2.1647 17.3295
# 4 15.0377 38.1890 44.5722 66.7200 5.3650 9.5050
# 5 5.5836 6.9350 -2.1647 5.3650 52.3906 8.9582
# 6 -6.1784 5.7191 17.3295 9.5050 8.9582 65.1282
#
#
#
# Elastic Compliance Matrix: (Units=1/GPa)
#
#
# Indices 1 2 3 4 5 6 
#
# 1 0.010352 -0.001000 -0.002332 -0.000369 -0.001360 0.001931
# 2 -0.001000 0.010232 -0.002624 -0.003853 -0.001032 0.000409
# 3 -0.002332 -0.002624 0.010315 -0.004687 0.001897 -0.002312
# 4 -0.000369 -0.003853 -0.004687 0.020712 -0.001550 -0.001259
# 5 -0.001360 -0.001032 0.001897 -0.001550 0.020134 -0.003086
# 6 0.001931 0.000409 -0.002312 -0.001259 -0.003086 0.016725
#
#
# Mechanical properties :
#
#
# Convention : Reuss Voigt Hill
#
# Bulk Modulus (GPa) = 52.66753 68.93985 60.80369
# Shear Modulus (GPa) = 46.85649 54.48579 50.67114
#
# Velocity S-wave (km/s) = 4.17691 4.50414 4.34360
# Velocity P-wave (km/s) = 6.54770 7.26077 6.91343
#
# Compressibility (1/GPa) = 0.01898703
#
# Stress axis : x y z
#
# Youngs Moduli (GPa) = 96.60401 97.73617 96.94619
#
# Poissons Ratio (x) = 0.09772 0.22605
# Poissons Ratio (y) = 0.09659 0.25439
# Poissons Ratio (z) = 0.22525 0.25646
#
# Static dielectric constant tensor:
#      x y z
#    x 2.054690 -0.077810 0.082090 
#    y -0.077810 2.154380 -0.042020 
#    z 0.082090 -0.042020 2.088500 
# 
# From -- ./inp_files/84338.got.cif
#   From: 2010.05.17/outbox.cif.g08.bks.cpg/sg2_43_cif.got.tgz:84338.got - 2010.06.03 11:33:40.
