data_PCOD9013248
_publ_section_title
;
Structure prediction by ZEFSAII (Michael W. Deem and Ramdas Pophale) SiO2 
 PCOD9013248
Probable space group: P -1
;
_chemical_formula_sum "Si O2"
_cell_formula_units_Z 16
_cell_length_a 11.775593
_cell_length_b 13.367320
_cell_length_c 7.678103
_cell_angle_alpha 37.341233
_cell_angle_beta 85.245888
_cell_angle_gamma 70.743563
_cell_volume 657.261897
_symmetry_space_group_name_H-M "P -1"
_symmetry_group_IT_number 2
_symmetry_cell_setting 'triclinic'
loop_
_space_group_symop_operation_xyz
x,y,z
-x,-y,-z
loop_
_atom_site_type_symbol
_atom_site_label
_atom_site_fract_x
_atom_site_fract_y
_atom_site_fract_z
Si Si1 0.321366 0.793052 0.587491
Si Si2 0.835845 0.604834 0.085532
Si Si3 0.246962 0.496772 0.083939
Si Si4 0.086369 0.103501 0.312153
Si Si5 0.592678 0.912921 0.875262
Si Si6 0.323369 0.094833 0.728475
Si Si7 0.901097 0.352374 0.746820
Si Si8 0.153308 0.913136 0.089526
O O1 0.239385 0.840062 0.353089
O O2 0.222866 0.936789 0.534811
O O3 0.419758 0.880456 0.439690
O O4 0.341505 0.592467 0.920956
O O5 0.902550 0.490278 0.408281
O O6 0.832472 0.462539 0.141220
O O7 0.904936 0.724303 0.836887
O O8 0.697103 0.756062 0.960718
O O9 0.300574 0.279726 0.379693
O O10 0.164375 0.565062 0.174812
O O11 0.000000 0.000000 0.500000
O O12 0.039213 0.195378 0.000236
O O13 0.451243 0.930910 0.863816
O O14 0.644946 0.873445 0.120283
O O15 0.204281 0.049180 0.809972
O O16 0.818975 0.258121 0.802944
O O17 0.000000 0.000000 0.000000
#
# Coordination Sequence:
#
# PCOD9013248 Si02
#       8
#     2   2   2   2   2   2   2   2
#     4  10  21  41  63  99 132 174 219 274 334 391
#     4  11  25  43  66  97 136 177 225 277 333 397
#     4  12  25  40  67 103 132 169 234 273 334 392
#     4  11  23  40  65  96 135 182 222 269 333 402
#     4   9  21  46  70  90 137 174 225 278 332 401
#     4  10  23  43  70 101 125 181 227 272 335 403
#     4  12  24  42  65  97 140 176 219 279 334 392
#     4  11  23  41  69  96 137 180 218 266 344 399
#
# _framework density 24.343413999999999
#
# number of rings (size 3 to 8) (size 9 to 14) (size 15 to 20)
#    0.000    1.250    5.000    0.375    1.750    2.500 
#    0.000    1.875    0.000    0.000    0.000    0.000 
#    0.000    0.000    0.000    0.000    0.000    0.000 
#
# Total GULP energy -89287.779289 kJ/mol
# GULP energy per Si atom -5580.486206 kJ/mol
# Density = 2.428801 g / cm^3
# Si number density = 24.343414 Si / 1000 Ang^3
#
#
#
# Elastic Constant Matrix: (Units=GPa)
#
#
# Indices 1 2 3 4 5 6 
#
# 1 122.7181 15.1224 27.1382 -1.6073 -14.9245 -8.3396
# 2 15.1224 88.6953 8.3836 9.5076 2.5883 2.2042
# 3 27.1382 8.3836 134.8969 3.7498 -35.3325 2.5248
# 4 -1.6073 9.5076 3.7498 26.3313 -0.2189 -6.3863
# 5 -14.9245 2.5883 -35.3325 -0.2189 27.9554 -9.9458
# 6 -8.3396 2.2042 2.5248 -6.3863 -9.9458 25.2806
#
#
#
# Elastic Compliance Matrix: (Units=1/GPa)
#
#
# Indices 1 2 3 4 5 6 
#
# 1 0.010046 -0.002540 0.000138 0.003465 0.008563 0.007766
# 2 -0.002540 0.012899 -0.001881 -0.006091 -0.007156 -0.006129
# 3 0.000138 -0.001881 0.011964 0.000600 0.017530 0.006063
# 4 0.003465 -0.006091 0.000600 0.044389 0.009399 0.016526
# 5 0.008563 -0.007156 0.017530 0.009399 0.075211 0.033661
# 6 0.007766 -0.006129 0.006063 0.016526 0.033661 0.059464
#
#
# Mechanical properties :
#
#
# Convention : Reuss Voigt Hill
#
# Bulk Modulus (GPa) = 37.96129 49.73320 43.84725
# Shear Modulus (GPa) = 21.61507 35.62452 28.61979
#
# Velocity S-wave (km/s) = 2.98304 3.82961 3.43252
# Velocity P-wave (km/s) = 5.24334 6.32683 5.81039
#
# Compressibility (1/GPa) = 0.02634263
#
# Stress axis : x y z
#
# Youngs Moduli (GPa) = 99.54449 77.52268 83.58686
#
# Poissons Ratio (x) = 0.19692 -0.01153
# Poissons Ratio (y) = 0.25286 0.15722
# Poissons Ratio (z) = -0.01373 0.14581
#
# Static dielectric constant tensor:
#      x y z
#    x 1.993680 0.011930 -0.003880 
#    y 0.011930 2.011360 0.023010 
#    z -0.003880 0.023010 2.003410 
# 
# From -- ./inp_files/271368.got.cif
#   From: 2010.05.17/outbox.cif.g08.bks.cpg/sg2_136_cif.got.tgz:271368.got - 2010.06.03 11:33:40.
