data_PCOD9013180
_publ_section_title
;
Structure prediction by ZEFSAII (Michael W. Deem and Ramdas Pophale) SiO2 
 PCOD9013180
Probable space group: P -1
;
_chemical_formula_sum "Si O2"
_cell_formula_units_Z 16
_cell_length_a 7.529900
_cell_length_b 10.992607
_cell_length_c 9.676429
_cell_angle_alpha 53.886743
_cell_angle_beta 106.430751
_cell_angle_gamma 109.617606
_cell_volume 605.679165
_symmetry_space_group_name_H-M "P -1"
_symmetry_group_IT_number 2
_symmetry_cell_setting 'triclinic'
loop_
_space_group_symop_operation_xyz
x,y,z
-x,-y,-z
loop_
_atom_site_type_symbol
_atom_site_label
_atom_site_fract_x
_atom_site_fract_y
_atom_site_fract_z
Si Si1 0.404470 0.644955 0.694081
Si Si2 0.360207 0.083323 0.272284
Si Si3 0.259744 0.022658 0.989672
Si Si4 0.325728 0.563796 0.150060
Si Si5 0.294755 0.896673 0.803343
Si Si6 0.002739 0.818179 0.351159
Si Si7 0.010077 0.704203 0.705931
Si Si8 0.249201 0.685057 0.339657
O O1 0.577242 0.767688 0.720351
O O2 0.483557 0.488597 0.817506
O O3 0.379943 0.681675 0.503194
O O4 0.201742 0.651455 0.721162
O O5 0.562798 0.036100 0.331958
O O6 0.193025 0.938835 0.364215
O O7 0.319935 0.119431 0.077228
O O8 0.088833 0.086643 0.842622
O O9 0.355543 0.010792 0.868225
O O10 0.246197 0.849751 0.157200
O O11 0.305590 0.585600 0.296090
O O12 0.138095 0.433008 0.163221
O O13 0.313009 0.726296 0.971732
O O14 0.083724 0.848916 0.727856
O O15 0.906222 0.759062 0.513295
O O16 0.044245 0.669524 0.379360
#
# Coordination Sequence:
#
# PCOD9013180 Si02
#       8
#     2   2   2   2   2   2   2   2
#     4  10  23  41  67  97 126 173 213 263 327 375
#     4  10  21  41  63  94 130 163 210 268 316 382
#     4  10  21  41  65  95 130 168 214 261 325 386
#     4  11  23  45  65  96 131 170 217 263 320 381
#     4  10  23  42  65  97 127 170 215 265 321 377
#     4  10  22  42  64  98 127 170 213 260 331 379
#     4  10  24  44  64  98 132 168 214 269 314 385
#     4   9  20  41  66  91 130 164 215 265 313 382
#
# _framework density 26.416627999999999
#
# number of rings (size 3 to 8) (size 9 to 14) (size 15 to 20)
#    0.000    2.000    0.000    2.625    1.750   12.500 
#   22.500    0.000    0.000    0.000    0.000    0.000 
#    0.000    0.000    0.000    0.000    0.000    0.000 
#
# Total GULP energy -89182.532255 kJ/mol
# GULP energy per Si atom -5573.908266 kJ/mol
# Density = 2.635650 g / cm^3
# Si number density = 26.416628 Si / 1000 Ang^3
#
#
#
# Elastic Constant Matrix: (Units=GPa)
#
#
# Indices 1 2 3 4 5 6 
#
# 1 60.8558 19.0232 12.0502 -21.5873 4.5669 4.5226
# 2 19.0232 85.6895 29.6216 8.2168 13.1941 -8.5516
# 3 12.0502 29.6216 118.6655 9.8584 8.3057 1.3083
# 4 -21.5873 8.2168 9.8584 43.3006 -1.6201 -5.7109
# 5 4.5669 13.1941 8.3057 -1.6201 28.8767 -2.4761
# 6 4.5226 -8.5516 1.3083 -5.7109 -2.4761 47.9232
#
#
#
# Elastic Compliance Matrix: (Units=1/GPa)
#
#
# Indices 1 2 3 4 5 6 
#
# 1 0.023423 -0.005963 -0.001968 0.013045 0.000176 -0.001657
# 2 -0.005963 0.015436 -0.002457 -0.005221 -0.005483 0.002479
# 3 -0.001968 -0.002457 0.009600 -0.002883 -0.001570 -0.000940
# 4 0.013045 -0.005221 -0.002883 0.031603 0.003083 0.001841
# 5 0.000176 -0.005483 -0.001570 0.003083 0.037849 0.001371
# 6 -0.001657 0.002479 -0.000940 0.001841 0.001371 0.021781
#
#
# Mechanical properties :
#
#
# Convention : Reuss Voigt Hill
#
# Bulk Modulus (GPa) = 36.12413 42.95563 39.53988
# Shear Modulus (GPa) = 29.46419 37.65448 33.55933
#
# Velocity S-wave (km/s) = 3.34333 3.77955 3.56812
# Velocity P-wave (km/s) = 5.34867 5.94498 5.65469
#
# Compressibility (1/GPa) = 0.02768233
#
# Stress axis : x y z
#
# Youngs Moduli (GPa) = 42.69220 64.78520 104.16650
#
# Poissons Ratio (x) = 0.38633 0.20498
# Poissons Ratio (y) = 0.25458 0.25597
# Poissons Ratio (z) = 0.08401 0.15920
#
# Static dielectric constant tensor:
#      x y z
#    x 2.381110 -0.034690 0.085990 
#    y -0.034690 2.144520 0.030250 
#    z 0.085990 0.030250 2.063770 
# 
# From -- ./inp_files/381487.got.cif
#   From: 2010.05.17/outbox.cif.g08.bks.cpg/sg2_191_cif.got.tgz:381487.got - 2010.06.03 11:33:40.
