data_PCOD9013575
_publ_section_title
;
Structure prediction by ZEFSAII (Michael W. Deem and Ramdas Pophale) SiO2 
 PCOD9013575
Probable space group: P -1
;
_chemical_formula_sum "Si O2"
_cell_formula_units_Z 16
_cell_length_a 9.446331
_cell_length_b 15.592771
_cell_length_c 8.611160
_cell_angle_alpha 100.054061
_cell_angle_beta 52.441913
_cell_angle_gamma 61.876071
_cell_volume 665.659953
_symmetry_space_group_name_H-M "P -1"
_symmetry_group_IT_number 2
_symmetry_cell_setting 'triclinic'
loop_
_space_group_symop_operation_xyz
x,y,z
-x,-y,-z
loop_
_atom_site_type_symbol
_atom_site_label
_atom_site_fract_x
_atom_site_fract_y
_atom_site_fract_z
Si Si1 0.076641 0.434393 0.096370
Si Si2 0.706392 0.352035 0.960595
Si Si3 0.435219 0.979372 0.877629
Si Si4 0.794169 0.892140 0.346980
Si Si5 0.965796 0.009831 0.840941
Si Si6 0.317900 0.734944 0.370416
Si Si7 0.879058 0.439066 0.652153
Si Si8 0.004538 0.715540 0.747977
O O1 0.000860 0.520990 0.326350
O O2 0.988436 0.366832 0.162851
O O3 0.394928 0.326556 0.847524
O O4 0.000000 0.500000 0.000000
O O5 0.754685 0.270844 0.754782
O O6 0.763723 0.425510 0.871687
O O7 0.922918 0.257941 0.920182
O O8 0.394686 0.448705 0.228552
O O9 0.695927 0.886276 0.570959
O O10 0.332336 0.918358 0.950705
O O11 0.206477 0.131522 0.016174
O O12 0.500000 0.000000 0.000000
O O13 0.500000 0.000000 0.500000
O O14 0.904888 0.949566 0.295132
O O15 0.121126 0.878661 0.607532
O O16 0.000000 0.000000 0.000000
O O17 0.268624 0.673302 0.505473
O O18 0.060700 0.314473 0.379032
#
# Coordination Sequence:
#
# PCOD9013575 Si02
#       8
#     2   2   2   2   2   2   2   2
#     4  11  23  39  61  96 125 163 211 266 324 381
#     4   9  20  40  67  92 122 175 215 265 319 384
#     4  11  24  43  69  99 129 173 223 268 330 401
#     4  12  24  41  67  97 136 173 214 275 338 389
#     4  11  23  43  60  93 134 169 214 268 327 393
#     4   9  21  42  63  85 129 168 212 262 318 390
#     4   9  19  41  65  89 127 165 222 260 310 390
#     4  10  21  41  65  89 125 167 210 264 317 382
#
# _framework density 24.036294000000002
#
# number of rings (size 3 to 8) (size 9 to 14) (size 15 to 20)
#    0.000    1.750    1.250    4.125    0.000    6.500 
#    4.500    0.000    0.000    0.000    0.000    0.000 
#    0.000    0.000    0.000    0.000    0.000    0.000 
#
# Total GULP energy -89147.629979 kJ/mol
# GULP energy per Si atom -5571.726874 kJ/mol
# Density = 2.398159 g / cm^3
# Si number density = 24.036294 Si / 1000 Ang^3
#
#
#
# Elastic Constant Matrix: (Units=GPa)
#
#
# Indices 1 2 3 4 5 6 
#
# 1 96.9386 31.5222 21.7859 -9.3908 -27.9961 10.0207
# 2 31.5222 94.5547 16.9585 -16.9724 -30.7159 13.7302
# 3 21.7859 16.9585 90.8914 -10.1246 -17.7536 15.9555
# 4 -9.3908 -16.9724 -10.1246 39.0886 15.5899 -11.5742
# 5 -27.9961 -30.7159 -17.7536 15.5899 35.7092 -0.8329
# 6 10.0207 13.7302 15.9555 -11.5742 -0.8329 55.0480
#
#
#
# Elastic Compliance Matrix: (Units=1/GPa)
#
#
# Indices 1 2 3 4 5 6 
#
# 1 0.013919 -0.001178 -0.000943 -0.002210 0.010342 -0.002275
# 2 -0.001178 0.015489 0.000469 0.000644 0.012271 -0.003464
# 3 -0.000943 0.000469 0.012951 -0.000179 0.006096 -0.003645
# 4 -0.002210 0.000644 -0.000179 0.033709 -0.015817 0.007142
# 5 0.010342 0.012271 0.006096 -0.015817 0.056390 -0.009183
# 6 -0.002275 -0.003464 -0.003645 0.007142 -0.009183 0.021863
#
#
# Mechanical properties :
#
#
# Convention : Reuss Voigt Hill
#
# Bulk Modulus (GPa) = 25.60470 46.99088 36.29779
# Shear Modulus (GPa) = 29.30098 40.11035 34.70567
#
# Velocity S-wave (km/s) = 3.49525 4.08945 3.80397
# Velocity P-wave (km/s) = 5.19275 6.47229 5.86751
#
# Compressibility (1/GPa) = 0.03905532
#
# Stress axis : x y z
#
# Youngs Moduli (GPa) = 71.84619 64.56081 77.21235
#
# Poissons Ratio (x) = 0.07604 0.07283
# Poissons Ratio (y) = 0.08462 -0.03621
# Poissons Ratio (z) = 0.06777 -0.03028
#
# Static dielectric constant tensor:
#      x y z
#    x 1.752510 -0.004440 0.029250 
#    y -0.004440 2.114850 0.008260 
#    z 0.029250 0.008260 1.949290 
# 
# From -- ./inp_files/207512.got.cif
#   From: 2010.05.17/outbox.cif.g08.bks.cpg/sg2_104_cif.got.tgz:207512.got - 2010.06.03 11:33:40.
