data_PCOD9013401
_publ_section_title
;
Structure prediction by ZEFSAII (Michael W. Deem and Ramdas Pophale) SiO2 
 PCOD9013401
Probable space group: P -1
;
_chemical_formula_sum "Si O2"
_cell_formula_units_Z 16
_cell_length_a 7.464796
_cell_length_b 14.199232
_cell_length_c 10.849797
_cell_angle_alpha 49.036447
_cell_angle_beta 104.125714
_cell_angle_gamma 69.395989
_cell_volume 602.208490
_symmetry_space_group_name_H-M "P -1"
_symmetry_group_IT_number 2
_symmetry_cell_setting 'triclinic'
loop_
_space_group_symop_operation_xyz
x,y,z
-x,-y,-z
loop_
_atom_site_type_symbol
_atom_site_label
_atom_site_fract_x
_atom_site_fract_y
_atom_site_fract_z
Si Si1 0.771337 0.252809 0.829737
Si Si2 0.055231 0.776972 0.748819
Si Si3 0.647274 0.172792 0.355715
Si Si4 0.880796 0.141029 0.687413
Si Si5 0.675121 0.661953 0.192668
Si Si6 0.191879 0.247564 0.633396
Si Si7 0.209963 0.312336 0.327216
Si Si8 0.050477 0.317331 0.950956
O O1 0.696297 0.267634 0.661708
O O2 0.539550 0.338150 0.811841
O O3 0.906152 0.323099 0.805359
O O4 0.976258 0.050361 0.077594
O O5 0.028626 0.666363 0.758081
O O6 0.321114 0.724424 0.817641
O O7 0.832120 0.979007 0.498602
O O8 0.968435 0.781794 0.866741
O O9 0.754118 0.174978 0.504533
O O10 0.383151 0.235039 0.300975
O O11 0.086577 0.157156 0.699887
O O12 0.658168 0.769262 0.210091
O O13 0.942347 0.458165 0.405339
O O14 0.688926 0.741787 0.004739
O O15 0.339645 0.198821 0.570609
O O16 0.120514 0.493226 0.182250
#
# Coordination Sequence:
#
# PCOD9013401 Si02
#       8
#     2   2   2   2   2   2   2   2
#     4  11  24  40  64  92 127 165 195 249 314 363
#     4  11  24  44  62  87 128 159 210 258 295 359
#     4  11  24  42  65  91 121 163 208 255 300 360
#     4  11  22  42  63  91 128 159 204 253 300 369
#     4  10  23  41  63  93 127 161 196 252 309 364
#     4  10  21  41  64  94 125 155 207 250 300 373
#     4  11  24  40  67  91 120 165 204 252 312 354
#     4  11  24  42  61  95 126 157 207 252 300 372
#
# _framework density 26.56887
#
# number of rings (size 3 to 8) (size 9 to 14) (size 15 to 20)
#    0.000    1.250    3.750    1.500    1.750    3.500 
#    0.000    0.000    0.000    0.000    0.000    0.000 
#    0.000    0.000    0.000    0.000    0.000    0.000 
#
# Total GULP energy -89581.621744 kJ/mol
# GULP energy per Si atom -5598.851359 kJ/mol
# Density = 2.650840 g / cm^3
# Si number density = 26.568870 Si / 1000 Ang^3
#
#
#
# Elastic Constant Matrix: (Units=GPa)
#
#
# Indices 1 2 3 4 5 6 
#
# 1 154.6646 27.8123 17.8613 0.2124 -31.3711 -10.5930
# 2 27.8123 87.2709 20.1349 13.5533 -18.2252 6.6899
# 3 17.8613 20.1349 48.2346 12.0206 -17.8689 -5.7271
# 4 0.2124 13.5533 12.0206 38.7432 -4.8119 -13.0700
# 5 -31.3711 -18.2252 -17.8689 -4.8119 35.5103 6.5919
# 6 -10.5930 6.6899 -5.7271 -13.0700 6.5919 63.1785
#
#
#
# Elastic Compliance Matrix: (Units=1/GPa)
#
#
# Indices 1 2 3 4 5 6 
#
# 1 0.008133 -0.001588 -0.000353 0.001805 0.006209 0.001225
# 2 -0.001588 0.014646 -0.003053 -0.004801 0.004589 -0.003566
# 3 -0.000353 -0.003053 0.027857 -0.006053 0.011252 0.000363
# 4 0.001805 -0.004801 -0.006053 0.031569 -0.000916 0.006889
# 5 0.006209 0.004589 0.011252 -0.000916 0.042098 -0.003007
# 6 0.001225 -0.003566 0.000363 0.006889 -0.003007 0.018183
#
#
# Mechanical properties :
#
#
# Convention : Reuss Voigt Hill
#
# Bulk Modulus (GPa) = 24.60070 46.86524 35.73297
# Shear Modulus (GPa) = 30.11655 42.44384 36.28019
#
# Velocity S-wave (km/s) = 3.37044 4.00121 3.69930
# Velocity P-wave (km/s) = 4.94225 6.24690 5.63248
#
# Compressibility (1/GPa) = 0.04064925
#
# Stress axis : x y z
#
# Youngs Moduli (GPa) = 122.95869 68.27666 35.89791
#
# Poissons Ratio (x) = 0.10842 0.01266
# Poissons Ratio (y) = 0.19525 0.10959
# Poissons Ratio (z) = 0.04337 0.20843
#
# Static dielectric constant tensor:
#      x y z
#    x 2.058100 -0.033540 0.012400 
#    y -0.033540 2.060230 0.088360 
#    z 0.012400 0.088360 2.149610 
# 
# From -- ./inp_files/69615.got.cif
#   From: 2010.05.17/outbox.cif.g08.bks.cpg/sg2_35_cif.got.tgz:69615.got - 2010.06.03 11:33:40.
