data_PCOD9013631
_publ_section_title
;
Structure prediction by ZEFSAII (Michael W. Deem and Ramdas Pophale) SiO2 
 PCOD9013631
Probable space group: P -1
;
_chemical_formula_sum "Si O2"
_cell_formula_units_Z 16
_cell_length_a 10.325519
_cell_length_b 18.535148
_cell_length_c 15.792092
_cell_angle_alpha 22.855924
_cell_angle_beta 44.251367
_cell_angle_gamma 35.361317
_cell_volume 671.009250
_symmetry_space_group_name_H-M "P -1"
_symmetry_group_IT_number 2
_symmetry_cell_setting 'triclinic'
loop_
_space_group_symop_operation_xyz
x,y,z
-x,-y,-z
loop_
_atom_site_type_symbol
_atom_site_label
_atom_site_fract_x
_atom_site_fract_y
_atom_site_fract_z
Si Si1 0.010429 0.717650 0.761635
Si Si2 0.533676 0.997673 0.747705
Si Si3 0.343726 0.923352 0.089254
Si Si4 0.875414 0.738994 0.619821
Si Si5 0.178083 0.386268 0.724503
Si Si6 0.431661 0.825950 0.811482
Si Si7 0.518710 0.554780 0.722337
Si Si8 0.847235 0.247036 0.757175
O O1 0.251658 0.661130 0.733567
O O2 0.959055 0.794382 0.605106
O O3 0.802716 0.883713 0.740594
O O4 0.000000 0.500000 0.000000
O O5 0.429720 0.259198 0.495892
O O6 0.452455 0.958249 0.916516
O O7 0.474672 0.893373 0.810974
O O8 0.166399 0.176095 0.933970
O O9 0.547903 0.755295 0.238790
O O10 0.227789 0.805439 0.237772
O O11 0.661492 0.734767 0.751287
O O12 0.062431 0.509749 0.733125
O O13 0.771202 0.948618 0.379203
O O14 0.078110 0.587383 0.484157
O O15 0.383523 0.636578 0.045175
O O16 0.632277 0.413696 0.736292
O O17 0.000000 0.000000 0.000000
#
# Coordination Sequence:
#
# PCOD9013631 Si02
#       8
#     2   2   2   2   2   2   2   2
#     4  11  20  40  69  92 123 167 202 263 316 366
#     4  11  22  40  67  96 124 166 214 257 318 373
#     4  11  24  43  66  92 131 165 217 265 312 376
#     4  10  21  41  65  91 127 169 202 261 323 370
#     4  11  24  42  64  95 128 167 213 261 320 371
#     4  10  22  41  65  90 129 163 208 263 314 372
#     4  12  22  40  67  95 124 163 219 258 310 381
#     4  12  25  42  66  93 129 173 212 260 317 381
#
# _framework density 23.84468
#
# number of rings (size 3 to 8) (size 9 to 14) (size 15 to 20)
#    0.000    1.000    5.000    3.000    0.000    1.500 
#    0.000    6.875    0.000    0.000    0.000    0.000 
#    0.000    0.000    0.000    0.000    0.000    0.000 
#
# Total GULP energy -89480.042530 kJ/mol
# GULP energy per Si atom -5592.502658 kJ/mol
# Density = 2.379041 g / cm^3
# Si number density = 23.844680 Si / 1000 Ang^3
#
#
#
# Elastic Constant Matrix: (Units=GPa)
#
#
# Indices 1 2 3 4 5 6 
#
# 1 25.9826 20.4474 14.8530 -4.4496 7.9256 -13.8541
# 2 20.4474 81.7469 22.6775 0.3061 -6.3888 -5.6918
# 3 14.8530 22.6775 142.3391 -11.9334 -2.5324 -4.3787
# 4 -4.4496 0.3061 -11.9334 28.0364 6.5737 1.5086
# 5 7.9256 -6.3888 -2.5324 6.5737 35.9226 -0.0638
# 6 -13.8541 -5.6918 -4.3787 1.5086 -0.0638 20.3915
#
#
#
# Elastic Compliance Matrix: (Units=1/GPa)
#
#
# Indices 1 2 3 4 5 6 
#
# 1 0.105547 -0.023337 -0.004319 0.019088 -0.031123 0.062759
# 2 -0.023337 0.018422 -0.001161 -0.006046 0.009431 -0.010486
# 3 -0.004319 -0.001161 0.007837 0.002564 0.000826 -0.001763
# 4 0.019088 -0.006046 0.002564 0.042402 -0.012850 0.008654
# 5 -0.031123 0.009431 0.000826 -0.012850 0.038761 -0.017263
# 6 0.062759 -0.010486 -0.001763 0.008654 -0.017263 0.087679
#
#
# Mechanical properties :
#
#
# Convention : Reuss Voigt Hill
#
# Bulk Modulus (GPa) = 13.48216 40.66937 27.07576
# Shear Modulus (GPa) = 13.05465 29.67613 21.36539
#
# Velocity S-wave (km/s) = 2.34238 3.53166 2.99661
# Velocity P-wave (km/s) = 3.60307 5.80716 4.83245
#
# Compressibility (1/GPa) = 0.07417210
#
# Stress axis : x y z
#
# Youngs Moduli (GPa) = 9.47443 54.28305 127.60633
#
# Poissons Ratio (x) = 1.26679 0.55108
# Poissons Ratio (y) = 0.22110 0.14821
# Poissons Ratio (z) = 0.04092 0.06305
#
# Static dielectric constant tensor:
#      x y z
#    x 1.913970 -0.005840 0.032870 
#    y -0.005840 1.953510 0.002920 
#    z 0.032870 0.002920 1.937620 
# 
# From -- ./inp_files/455452.got.cif
#   From: 2010.05.17/outbox.cif.g08.bks.cpg/sg2_228_cif.got.tgz:455452.got - 2010.06.03 11:33:40.
