data_PCOD9013683
_publ_section_title
;
Structure prediction by ZEFSAII (Michael W. Deem and Ramdas Pophale) SiO2 
 PCOD9013683
Probable space group: P -1
;
_chemical_formula_sum "Si O2"
_cell_formula_units_Z 16
_cell_length_a 23.655951
_cell_length_b 23.642210
_cell_length_c 8.469034
_cell_angle_alpha 151.372488
_cell_angle_beta 144.299128
_cell_angle_gamma 17.628241
_cell_volume 677.411718
_symmetry_space_group_name_H-M "P -1"
_symmetry_group_IT_number 2
_symmetry_cell_setting 'triclinic'
loop_
_space_group_symop_operation_xyz
x,y,z
-x,-y,-z
loop_
_atom_site_type_symbol
_atom_site_label
_atom_site_fract_x
_atom_site_fract_y
_atom_site_fract_z
Si Si1 0.524771 0.990933 0.719500
Si Si2 0.090970 0.440287 0.892652
Si Si3 0.556389 0.402334 0.213718
Si Si4 0.260636 0.838406 0.414407
Si Si5 0.756896 0.936802 0.275460
Si Si6 0.011735 0.060153 0.841020
Si Si7 0.477905 0.816382 0.347090
Si Si8 0.124973 0.154198 0.150717
O O1 0.313531 0.233052 0.901016
O O2 0.500000 0.000000 0.500000
O O3 0.599709 0.795563 0.502751
O O4 0.658202 0.960959 0.978717
O O5 0.066950 0.351637 0.505158
O O6 0.000000 0.500000 0.000000
O O7 0.974542 0.673588 0.137862
O O8 0.500000 0.500000 0.500000
O O9 0.461542 0.591314 0.338992
O O10 0.783353 0.162306 0.155473
O O11 0.453458 0.381755 0.921727
O O12 0.277704 0.890555 0.418509
O O13 0.137643 0.848484 0.162734
O O14 0.151998 0.048101 0.794967
O O15 0.651366 0.007836 0.369469
O O16 0.000000 0.000000 0.500000
O O17 0.996655 0.211707 0.121646
O O18 0.332920 0.939555 0.177368
#
# Coordination Sequence:
#
# PCOD9013683 Si02
#       8
#     2   2   2   2   2   2   2   2
#     4  11  25  44  69 101 131 167 227 276 323 393
#     4  11  23  43  69  93 131 179 214 264 344 389
#     4  11  20  38  67  87 128 173 211 270 329 376
#     4  11  23  39  60  96 129 164 220 275 314 388
#     4  12  25  43  65  95 139 171 219 271 330 398
#     4   9  18  36  60  94 117 158 217 262 317 379
#     4  10  21  41  65  93 127 173 213 268 327 390
#     4   9  18  38  63  90 122 164 221 266 315 384
#
# _framework density 23.619313999999999
#
# number of rings (size 3 to 8) (size 9 to 14) (size 15 to 20)
#    0.000    1.500    6.250    1.875    0.000    4.500 
#    0.000    2.500    0.000    0.000    0.000    0.000 
#    0.000    0.000    0.000    0.000    0.000    0.000 
#
# Total GULP energy -89358.636177 kJ/mol
# GULP energy per Si atom -5584.914761 kJ/mol
# Density = 2.356556 g / cm^3
# Si number density = 23.619314 Si / 1000 Ang^3
#
#
#
# Elastic Constant Matrix: (Units=GPa)
#
#
# Indices 1 2 3 4 5 6 
#
# 1 112.1998 30.7632 6.7770 9.6696 25.9950 4.4087
# 2 30.7632 90.0312 5.4690 5.0647 13.1470 6.2781
# 3 6.7770 5.4690 61.0068 3.5312 14.0308 12.9802
# 4 9.6696 5.0647 3.5312 28.2171 6.1489 15.0980
# 5 25.9950 13.1470 14.0308 6.1489 48.4525 0.1774
# 6 4.4087 6.2781 12.9802 15.0980 0.1774 32.9396
#
#
#
# Elastic Compliance Matrix: (Units=1/GPa)
#
#
# Indices 1 2 3 4 5 6 
#
# 1 0.011034 -0.002945 0.000297 -0.002224 -0.004925 0.000013
# 2 -0.002945 0.012515 0.000075 0.000314 -0.001869 -0.002155
# 3 0.000297 0.000075 0.019609 0.003913 -0.006320 -0.009541
# 4 -0.002224 0.000314 0.003913 0.049954 -0.006276 -0.024167
# 5 -0.004925 -0.001869 -0.006320 -0.006276 0.026392 0.006240
# 6 0.000013 -0.002155 -0.009541 -0.024167 0.006240 0.045570
#
#
# Mechanical properties :
#
#
# Convention : Reuss Voigt Hill
#
# Bulk Modulus (GPa) = 26.30757 38.80625 32.55691
# Shear Modulus (GPa) = 27.33878 36.60373 31.97126
#
# Velocity S-wave (km/s) = 3.40586 3.94094 3.68313
# Velocity P-wave (km/s) = 5.16032 6.09701 5.64812
#
# Compressibility (1/GPa) = 0.03801187
#
# Stress axis : x y z
#
# Youngs Moduli (GPa) = 90.62624 79.90677 50.99766
#
# Poissons Ratio (x) = 0.23533 -0.01513
# Poissons Ratio (y) = 0.26690 -0.00385
# Poissons Ratio (z) = -0.02689 -0.00603
#
# Static dielectric constant tensor:
#      x y z
#    x 1.145760 -0.258020 -2.056820 
#    y -0.258020 1.785330 -0.698280 
#    z -2.056820 -0.698280 -3.317440 
# 
# From -- ./inp_files/355592.got.cif
#   From: 2010.05.17/outbox.cif.g08.bks.cpg/sg2_178_cif.got.tgz:355592.got - 2010.06.03 11:33:40.
