data_PCOD9013089
_publ_section_title
;
Structure prediction by ZEFSAII (Michael W. Deem and Ramdas Pophale) SiO2 
 PCOD9013089
Probable space group: P -1
;
_chemical_formula_sum "Si O2"
_cell_formula_units_Z 16
_cell_length_a 9.720931
_cell_length_b 8.938957
_cell_length_c 8.592396
_cell_angle_alpha 86.772617
_cell_angle_beta 87.180800
_cell_angle_gamma 56.299080
_cell_volume 620.030388
_symmetry_space_group_name_H-M "P -1"
_symmetry_group_IT_number 2
_symmetry_cell_setting 'triclinic'
loop_
_space_group_symop_operation_xyz
x,y,z
-x,-y,-z
loop_
_atom_site_type_symbol
_atom_site_label
_atom_site_fract_x
_atom_site_fract_y
_atom_site_fract_z
Si Si1 0.411652 0.404493 0.726706
Si Si2 0.971629 0.664623 0.396733
Si Si3 0.509920 0.819471 0.547327
Si Si4 0.688975 0.073145 0.907971
Si Si5 0.668011 0.506235 0.741972
Si Si6 0.897477 0.711361 0.047730
Si Si7 0.208586 0.699970 0.945511
Si Si8 0.162063 0.988443 0.436419
O O1 0.379199 0.330566 0.579133
O O2 0.506429 0.232207 0.848970
O O3 0.544471 0.456342 0.686037
O O4 0.255992 0.588334 0.791110
O O5 0.151558 0.617600 0.336209
O O6 0.000000 0.500000 0.500000
O O7 0.878038 0.708310 0.234134
O O8 0.877537 0.821874 0.516101
O O9 0.591897 0.715841 0.707412
O O10 0.500000 0.000000 0.500000
O O11 0.329514 0.855240 0.530083
O O12 0.796697 0.044210 0.746550
O O13 0.741439 0.158567 0.036560
O O14 0.731869 0.877506 0.967724
O O15 0.684519 0.454751 0.923545
O O16 0.000000 0.500000 0.000000
O O17 0.022818 0.772283 0.996673
O O18 0.000000 0.000000 0.500000
#
# Coordination Sequence:
#
# PCOD9013089 Si02
#       8
#     2   2   2   2   2   2   2   2
#     4  10  22  41  64  91 122 164 210 263 316 373
#     4  11  23  40  61  89 125 166 208 257 317 380
#     4  11  24  40  61  93 130 167 210 261 317 379
#     4  10  21  41  63  89 124 160 211 268 313 372
#     4  10  21  41  63  89 124 163 212 265 313 373
#     4  11  24  40  61  92 127 165 207 258 320 385
#     4  10  22  41  64  90 122 162 210 265 315 369
#     4  11  23  40  63  93 125 165 212 261 314 373
#
# _framework density 25.805188000000001
#
# number of rings (size 3 to 8) (size 9 to 14) (size 15 to 20)
#    0.000    1.500    0.000    6.750    0.000    9.000 
#    0.000    1.250    0.000    0.000    0.000    0.000 
#    0.000    0.000    0.000    0.000    0.000    0.000 
#
# Total GULP energy -89537.040170 kJ/mol
# GULP energy per Si atom -5596.065011 kJ/mol
# Density = 2.574645 g / cm^3
# Si number density = 25.805188 Si / 1000 Ang^3
#
#
#
# Elastic Constant Matrix: (Units=GPa)
#
#
# Indices 1 2 3 4 5 6 
#
# 1 65.1393 -4.7670 14.8683 -6.0095 -15.3600 -9.9769
# 2 -4.7670 156.3516 43.7516 -14.2580 4.1331 4.4129
# 3 14.8683 43.7516 62.9394 9.1996 -6.3917 3.5326
# 4 -6.0095 -14.2580 9.1996 56.6710 -4.6670 1.5941
# 5 -15.3600 4.1331 -6.3917 -4.6670 34.5681 4.9634
# 6 -9.9769 4.4129 3.5326 1.5941 4.9634 30.9291
#
#
#
# Elastic Compliance Matrix: (Units=1/GPa)
#
#
# Indices 1 2 3 4 5 6 
#
# 1 0.019977 0.002525 -0.006683 0.004271 0.007128 0.005483
# 2 0.002525 0.008892 -0.007416 0.003627 -0.000872 0.000346
# 3 -0.006683 -0.007416 0.023952 -0.006185 0.002063 -0.003846
# 4 0.004271 0.003627 -0.006185 0.020266 0.003052 0.000032
# 5 0.007128 -0.000872 0.002063 0.003052 0.033473 -0.003341
# 6 0.005483 0.000346 -0.003846 0.000032 -0.003341 0.035025
#
#
# Mechanical properties :
#
#
# Convention : Reuss Voigt Hill
#
# Bulk Modulus (GPa) = 33.70023 43.57067 38.63545
# Shear Modulus (GPa) = 28.63326 39.80547 34.21936
#
# Velocity S-wave (km/s) = 3.33467 3.93178 3.64547
# Velocity P-wave (km/s) = 5.28342 6.12641 5.72047
#
# Compressibility (1/GPa) = 0.02967339
#
# Stress axis : x y z
#
# Youngs Moduli (GPa) = 50.05861 112.45900 41.75103
#
# Poissons Ratio (x) = -0.28401 0.27901
# Poissons Ratio (y) = -0.12642 0.30963
# Poissons Ratio (z) = 0.33453 0.83400
#
# Static dielectric constant tensor:
#      x y z
#    x 2.107090 -0.036090 0.023400 
#    y -0.036090 2.498250 0.035650 
#    z 0.023400 0.035650 2.046570 
# 
# From -- ./inp_files/244031.got.cif
#   From: 2010.05.17/outbox.cif.g08.bks.cpg/sg2_123_cif.got.tgz:244031.got - 2010.06.03 11:33:40.
