data_PCOD9013294
_publ_section_title
;
Structure prediction by ZEFSAII (Michael W. Deem and Ramdas Pophale) SiO2 
 PCOD9013294
Probable space group: P -1
;
_chemical_formula_sum "Si O2"
_cell_formula_units_Z 16
_cell_length_a 19.238874
_cell_length_b 8.564703
_cell_length_c 16.724125
_cell_angle_alpha 125.059096
_cell_angle_beta 21.886443
_cell_angle_gamma 113.830042
_cell_volume 762.029113
_symmetry_space_group_name_H-M "P -1"
_symmetry_group_IT_number 2
_symmetry_cell_setting 'triclinic'
loop_
_space_group_symop_operation_xyz
x,y,z
-x,-y,-z
loop_
_atom_site_type_symbol
_atom_site_label
_atom_site_fract_x
_atom_site_fract_y
_atom_site_fract_z
Si Si1 0.809332 0.423896 0.114825
Si Si2 0.761882 0.831544 0.509507
Si Si3 0.930308 0.794932 0.087063
Si Si4 0.821587 0.232516 0.769530
Si Si5 0.471401 0.617945 0.728501
Si Si6 0.145209 0.392358 0.483337
Si Si7 0.531379 0.285319 0.945220
Si Si8 0.816015 0.260745 0.355434
O O1 0.018323 0.282166 0.800639
O O2 0.863063 0.319297 0.113906
O O3 0.804697 0.655184 0.191135
O O4 0.619906 0.422991 0.267867
O O5 0.606153 0.748731 0.611904
O O6 0.785646 0.749133 0.551613
O O7 0.664613 0.081910 0.690848
O O8 0.818677 0.035795 0.304084
O O9 0.998791 0.783200 0.918445
O O10 0.651332 0.269434 0.895306
O O11 0.927118 0.394209 0.695462
O O12 0.719101 0.256007 0.972247
O O13 0.000000 0.000000 0.500000
O O14 0.611938 0.412347 0.570055
O O15 0.149375 0.611912 0.570025
O O16 0.312160 0.291065 0.206125
O O17 0.500000 0.500000 0.000000
#
# Coordination Sequence:
#
# PCOD9013294 Si02
#       8
#     2   2   2   2   2   2   2   2
#     4  11  22  40  65  92 123 157 209 254 307 358
#     4  11  21  41  64  89 124 164 202 253 304 369
#     4  10  22  41  63  90 125 164 197 262 309 352
#     4  12  21  38  67  90 119 170 208 242 303 375
#     4  11  21  38  67  93 117 163 212 246 301 372
#     4  11  21  41  65  88 123 166 205 246 300 378
#     4  12  26  40  62  94 128 157 205 259 306 357
#     4  10  21  41  64  88 127 163 203 250 310 360
#
# _framework density 20.996572
#
# number of rings (size 3 to 8) (size 9 to 14) (size 15 to 20)
#    0.000    1.000    7.500    1.125    1.750    1.500 
#    2.250    0.000    0.000    0.000    0.000    0.000 
#    0.000    0.000    0.000    0.000    0.000    0.000 
#
# Total GULP energy -89482.150610 kJ/mol
# GULP energy per Si atom -5592.634413 kJ/mol
# Density = 2.094878 g / cm^3
# Si number density = 20.996572 Si / 1000 Ang^3
#
#
#
# Elastic Constant Matrix: (Units=GPa)
#
#
# Indices 1 2 3 4 5 6 
#
# 1 66.2293 24.2194 -3.6474 -3.5845 -7.0204 25.9975
# 2 24.2194 101.3781 28.8206 31.3951 -2.7128 17.0651
# 3 -3.6474 28.8206 70.9645 2.2913 13.6488 9.3799
# 4 -3.5845 31.3951 2.2913 42.5653 6.4406 -0.6267
# 5 -7.0204 -2.7128 13.6488 6.4406 29.7590 -12.6749
# 6 25.9975 17.0651 9.3799 -0.6267 -12.6749 36.2387
#
#
#
# Elastic Compliance Matrix: (Units=1/GPa)
#
#
# Indices 1 2 3 4 5 6 
#
# 1 0.026071 -0.008411 0.008895 0.009019 -0.009214 -0.020111
# 2 -0.008411 0.019383 -0.009727 -0.015745 0.008567 0.002149
# 3 0.008895 -0.009727 0.023354 0.009085 -0.017321 -0.013747
# 4 0.009019 -0.015745 0.009085 0.037409 -0.013977 -0.005648
# 5 -0.009214 0.008567 -0.017321 -0.013977 0.054150 0.025757
# 6 -0.020111 0.002149 -0.013747 -0.005648 0.025757 0.053480
#
#
# Mechanical properties :
#
#
# Convention : Reuss Voigt Hill
#
# Bulk Modulus (GPa) = 19.87264 37.48413 28.67839
# Shear Modulus (GPa) = 20.07172 34.32454 27.19813
#
# Velocity S-wave (km/s) = 3.09520 4.04761 3.60302
# Velocity P-wave (km/s) = 4.71794 6.30361 5.56752
#
# Compressibility (1/GPa) = 0.05032044
#
# Stress axis : x y z
#
# Youngs Moduli (GPa) = 38.35734 51.59277 42.81864
#
# Poissons Ratio (x) = 0.43396 -0.38088
# Poissons Ratio (y) = 0.32263 0.41652
# Poissons Ratio (z) = -0.34119 0.50186
#
# Static dielectric constant tensor:
#      x y z
#    x 1.754520 0.009270 0.026230 
#    y 0.009270 1.752970 -0.000540 
#    z 0.026230 -0.000540 1.780100 
# 
# From -- ./inp_files/208161.got.cif
#   From: 2010.05.17/outbox.cif.g08.bks.cpg/sg2_105_cif.got.tgz:208161.got - 2010.06.03 11:33:40.
