data_PCOD9013817
_publ_section_title
;
Structure prediction by ZEFSAII (Michael W. Deem and Ramdas Pophale) SiO2 
 PCOD9013817
Probable space group: P -1
;
_chemical_formula_sum "Si O2"
_cell_formula_units_Z 16
_cell_length_a 14.354100
_cell_length_b 7.440991
_cell_length_c 11.083880
_cell_angle_alpha 37.028869
_cell_angle_beta 127.105049
_cell_angle_gamma 121.516781
_cell_volume 566.501149
_symmetry_space_group_name_H-M "P -1"
_symmetry_group_IT_number 2
_symmetry_cell_setting 'triclinic'
loop_
_space_group_symop_operation_xyz
x,y,z
-x,-y,-z
loop_
_atom_site_type_symbol
_atom_site_label
_atom_site_fract_x
_atom_site_fract_y
_atom_site_fract_z
Si Si1 0.879816 0.530351 0.286479
Si Si2 0.476644 0.698490 0.134208
Si Si3 0.999945 0.295543 0.928743
Si Si4 0.080109 0.968612 0.761302
Si Si5 0.171732 0.091153 0.508451
Si Si6 0.571352 0.760432 0.400303
Si Si7 0.747344 0.747165 0.862181
Si Si8 0.601682 0.196721 0.404178
O O1 0.578131 0.538748 0.225589
O O2 0.919059 0.715376 0.334929
O O3 0.543164 0.966020 0.136563
O O4 0.981257 0.488952 0.287084
O O5 0.482083 0.504669 0.387605
O O6 0.353201 0.511436 0.106422
O O7 0.781661 0.716046 0.044966
O O8 0.131873 0.318038 0.074117
O O9 0.910839 0.233754 0.001632
O O10 0.000000 0.000000 0.000000
O O11 0.164828 0.008325 0.690777
O O12 0.957442 0.833075 0.676611
O O13 0.290707 0.303105 0.471305
O O14 0.181766 0.801746 0.585696
O O15 0.576927 0.060012 0.326955
O O16 0.713106 0.073272 0.623963
O O17 0.500000 0.000000 0.500000
#
# Coordination Sequence:
#
# PCOD9013817 Si02
#       8
#     2   2   2   2   2   2   2   2
#     4   9  20  40  65  97 136 181 232 295 351 409
#     4  11  24  43  71 105 140 175 230 297 353 418
#     4   8  17  36  68  96 132 180 231 283 347 416
#     4  10  21  41  65  98 139 180 238 289 359 420
#     4  11  24  39  65 100 141 186 229 297 356 412
#     4  12  24  44  68  97 144 188 236 284 347 429
#     4   9  18  38  68  99 137 179 232 283 345 418
#     4  10  21  42  68  97 133 181 237 280 348 419
#
# _framework density 28.243545000000001
#
# number of rings (size 3 to 8) (size 9 to 14) (size 15 to 20)
#    0.750    1.250    2.500    1.875    0.000    2.000 
#    0.000   11.250    0.000    0.000    0.000    0.000 
#    0.000    0.000    0.000    0.000    0.000    0.000 
#
# Total GULP energy -89069.705415 kJ/mol
# GULP energy per Si atom -5566.856588 kJ/mol
# Density = 2.817926 g / cm^3
# Si number density = 28.243545 Si / 1000 Ang^3
#
#
#
# Elastic Constant Matrix: (Units=GPa)
#
#
# Indices 1 2 3 4 5 6 
#
# 1 102.7501 54.5076 62.9007 6.5895 -24.6409 0.0556
# 2 54.5076 198.0980 58.9946 7.5862 -12.5472 -12.5732
# 3 62.9007 58.9946 163.5833 26.1415 -1.9412 -11.5179
# 4 6.5895 7.5862 26.1415 63.8940 -8.5425 -8.6646
# 5 -24.6409 -12.5472 -1.9412 -8.5425 48.7397 -2.0119
# 6 0.0556 -12.5732 -11.5179 -8.6646 -2.0119 47.1094
#
#
#
# Elastic Compliance Matrix: (Units=1/GPa)
#
#
# Indices 1 2 3 4 5 6 
#
# 1 0.016183 -0.002454 -0.005626 0.001746 0.007574 -0.001405
# 2 -0.002454 0.006195 -0.001228 0.000268 0.000411 0.001423
# 3 -0.005626 -0.001228 0.009301 -0.003363 -0.003330 0.001192
# 4 0.001746 0.000268 -0.003363 0.017717 0.004034 0.002678
# 5 0.007574 0.000411 -0.003330 0.004034 0.025072 0.001099
# 6 -0.001405 0.001423 0.001192 0.002678 0.001099 0.022440
#
#
# Mechanical properties :
#
#
# Convention : Reuss Voigt Hill
#
# Bulk Modulus (GPa) = 76.55061 90.80416 83.67738
# Shear Modulus (GPa) = 41.70875 51.15049 46.42962
#
# Velocity S-wave (km/s) = 3.84702 4.26026 4.05890
# Velocity P-wave (km/s) = 6.84802 7.51132 7.18733
#
# Compressibility (1/GPa) = 0.01306325
#
# Stress axis : x y z
#
# Youngs Moduli (GPa) = 61.79267 161.41813 107.51275
#
# Poissons Ratio (x) = 0.39608 0.60485
# Poissons Ratio (y) = 0.15163 0.13207
# Poissons Ratio (z) = 0.34764 0.19829
#
# Static dielectric constant tensor:
#      x y z
#    x 2.672490 -0.791460 -0.017180 
#    y -0.791460 4.134500 0.043490 
#    z -0.017180 0.043490 2.647960 
# 
# From -- ./inp_files/412145.got.cif
#   From: 2010.05.17/outbox.cif.g08.bks.cpg/sg2_207_cif.got.tgz:412145.got - 2010.06.03 11:33:40.
