data_PCOD9013958
_publ_section_title
;
Structure prediction by ZEFSAII (Michael W. Deem and Ramdas Pophale) SiO2 
 PCOD9013958
Probable space group: P -1
;
_chemical_formula_sum "Si O2"
_cell_formula_units_Z 14
_cell_length_a 9.421108
_cell_length_b 20.499059
_cell_length_c 17.108505
_cell_angle_alpha 20.048038
_cell_angle_beta 135.250709
_cell_angle_gamma 144.384802
_cell_volume 635.469945
_symmetry_space_group_name_H-M "P -1"
_symmetry_group_IT_number 2
_symmetry_cell_setting 'triclinic'
loop_
_space_group_symop_operation_xyz
x,y,z
-x,-y,-z
loop_
_atom_site_type_symbol
_atom_site_label
_atom_site_fract_x
_atom_site_fract_y
_atom_site_fract_z
Si Si1 0.899200 0.271114 0.424385
Si Si2 0.115158 0.154471 0.155699
Si Si3 0.642395 0.370628 0.094500
Si Si4 0.363882 0.125440 0.815168
Si Si5 0.574856 0.944973 0.787809
Si Si6 0.514050 0.391697 0.736411
Si Si7 0.092851 0.870879 0.728451
O O1 0.693698 0.295122 0.281386
O O2 0.188897 0.499255 0.274530
O O3 0.876463 0.070855 0.586637
O O4 0.832064 0.180783 0.589118
O O5 0.405718 0.379037 0.003283
O O6 0.994759 0.159892 0.181673
O O7 0.922054 0.078204 0.095427
O O8 0.560647 0.196025 0.186662
O O9 0.916266 0.609985 0.915000
O O10 0.382566 0.221975 0.800785
O O11 0.475292 0.370645 0.532433
O O12 0.500000 0.000000 0.000000
O O13 0.386690 0.987843 0.705789
O O14 0.598208 0.773990 0.044506
O O15 0.000000 0.000000 0.500000
#
# Coordination Sequence:
#
# PCOD9013958 Si02
#       7
#     2   2   2   2   2   2   2
#     4  10  21  41  66  92 130 166 208 254 322 388
#     4  10  22  39  62  88 125 165 203 261 319 372
#     4  11  22  39  62  94 132 166 205 251 325 391
#     4  10  22  42  67  90 125 168 223 268 322 376
#     4  11  22  39  65  95 126 166 215 257 315 390
#     4  10  22  42  69  93 123 175 215 268 323 375
#     4  12  23  34  59  96 135 164 206 257 317 386
#
# _framework density 22.030939
#
# number of rings (size 3 to 8) (size 9 to 14) (size 15 to 20)
#    0.000    1.429    1.429    5.143    4.000    0.000 
#    0.000   11.429    0.000    9.429    0.000    0.000 
#    0.000    0.000    0.000    0.000    0.000    0.000 
#
# Total GULP energy -78126.838767 kJ/mol
# GULP energy per Si atom -5580.488483 kJ/mol
# Density = 2.198080 g / cm^3
# Si number density = 22.030939 Si / 1000 Ang^3
#
#
#
# Elastic Constant Matrix: (Units=GPa)
#
#
# Indices 1 2 3 4 5 6 
#
# 1 91.3820 9.7366 11.2693 7.6876 7.2629 1.6337
# 2 9.7366 97.7814 17.0840 12.1921 4.7900 2.3030
# 3 11.2693 17.0840 85.5878 30.7412 -2.5872 -3.9108
# 4 7.6876 12.1921 30.7412 30.9660 -0.4629 3.8318
# 5 7.2629 4.7900 -2.5872 -0.4629 35.0660 10.6014
# 6 1.6337 2.3030 -3.9108 3.8318 10.6014 20.6648
#
#
#
# Elastic Compliance Matrix: (Units=1/GPa)
#
#
# Indices 1 2 3 4 5 6 
#
# 1 0.011462 -0.000658 -0.000694 -0.002027 -0.002585 0.000738
# 2 -0.000658 0.010935 -0.001005 -0.003165 -0.001468 -0.000017
# 3 -0.000694 -0.001005 0.019375 -0.019668 -0.000959 0.007973
# 4 -0.002027 -0.003165 -0.019668 0.055633 0.005000 -0.016090
# 5 -0.002585 -0.001468 -0.000959 0.005000 0.034883 -0.018636
# 6 0.000738 -0.000017 0.007973 -0.016090 -0.018636 0.062388
#
#
# Mechanical properties :
#
#
# Convention : Reuss Voigt Hill
#
# Bulk Modulus (GPa) = 26.98436 38.99233 32.98834
# Shear Modulus (GPa) = 23.61362 33.11678 28.36520
#
# Velocity S-wave (km/s) = 3.27745 3.88131 3.59209
# Velocity P-wave (km/s) = 5.15725 6.15007 5.67541
#
# Compressibility (1/GPa) = 0.03705850
#
# Stress axis : x y z
#
# Youngs Moduli (GPa) = 87.24786 91.45095 51.61222
#
# Poissons Ratio (x) = 0.06017 0.03582
# Poissons Ratio (y) = 0.05741 0.05185
# Poissons Ratio (z) = 0.06056 0.09187
#
# Static dielectric constant tensor:
#      x y z
#    x 1.825910 0.043820 0.001880 
#    y 0.043820 1.824870 0.025490 
#    z 0.001880 0.025490 1.934760 
# 
# From -- ./inp_files/259064.got.cif
#   From: 2010.05.17/outbox.cif.g08.bks.cpg/sg2_130_cif.got.tgz:259064.got - 2010.06.03 11:33:40.
