data_PCOD9013576
_publ_section_title
;
Structure prediction by ZEFSAII (Michael W. Deem and Ramdas Pophale) SiO2 
 PCOD9013576
Probable space group: P -1
;
_chemical_formula_sum "Si O2"
_cell_formula_units_Z 16
_cell_length_a 26.754827
_cell_length_b 26.481358
_cell_length_c 7.920110
_cell_angle_alpha 139.017405
_cell_angle_beta 42.855611
_cell_angle_gamma 169.109879
_cell_volume 693.734566
_symmetry_space_group_name_H-M "P -1"
_symmetry_group_IT_number 2
_symmetry_cell_setting 'triclinic'
loop_
_space_group_symop_operation_xyz
x,y,z
-x,-y,-z
loop_
_atom_site_type_symbol
_atom_site_label
_atom_site_fract_x
_atom_site_fract_y
_atom_site_fract_z
Si Si1 0.818714 0.459698 0.484300
Si Si2 0.719376 0.116895 0.835718
Si Si3 0.228050 0.993681 0.438564
Si Si4 0.531695 0.613099 0.801757
Si Si5 0.311609 0.188178 0.426098
Si Si6 0.771817 0.575761 0.754522
Si Si7 0.837877 0.814728 0.769180
Si Si8 0.259987 0.738573 0.560073
O O1 0.569013 0.187096 0.296149
O O2 0.846354 0.579925 0.703219
O O3 0.764816 0.372713 0.584630
O O4 0.074505 0.678597 0.314095
O O5 0.797460 0.123729 0.780212
O O6 0.720141 0.191557 0.140959
O O7 0.265466 0.067261 0.348503
O O8 0.480248 0.267164 0.620961
O O9 0.971923 0.772960 0.602187
O O10 0.500000 0.500000 0.500000
O O11 0.629546 0.768654 0.806569
O O12 0.733075 0.789622 0.891123
O O13 0.267151 0.382648 0.951187
O O14 0.568753 0.492306 0.635067
O O15 0.052115 0.981453 0.553386
O O16 0.000000 0.000000 0.000000
O O17 0.000000 0.500000 0.500000
O O18 0.500000 0.000000 0.500000
#
# Coordination Sequence:
#
# PCOD9013576 Si02
#       8
#     2   2   2   2   2   2   2   2
#     4  10  21  41  66  89 119 171 214 250 303 366
#     4  10  21  41  65  89 125 167 211 252 298 374
#     4  10  22  40  64  91 117 162 213 257 305 362
#     4  10  24  42  60  89 123 159 199 256 323 374
#     4  11  23  39  61  89 121 155 200 258 318 373
#     4  10  22  41  64  87 120 160 213 258 302 378
#     4  11  23  40  62  88 118 161 208 256 307 376
#     4  12  24  38  62 100 135 163 201 257 312 365
#
# _framework density 23.063576000000001
#
# number of rings (size 3 to 8) (size 9 to 14) (size 15 to 20)
#    0.000    1.500    0.000    4.500    0.000    8.000 
#    0.000    2.500    0.000    0.000    0.000    0.000 
#    0.000    0.000    0.000    0.000    0.000    0.000 
#
# Total GULP energy -89516.383091 kJ/mol
# GULP energy per Si atom -5594.773943 kJ/mol
# Density = 2.301108 g / cm^3
# Si number density = 23.063576 Si / 1000 Ang^3
#
#
#
# Elastic Constant Matrix: (Units=GPa)
#
#
# Indices 1 2 3 4 5 6 
#
# 1 159.2075 4.3511 4.8459 0.1586 0.0229 -23.0851
# 2 4.3511 116.0035 9.1288 -12.0471 -1.6930 -8.0217
# 3 4.8459 9.1288 38.8139 -7.9628 -9.8970 8.4252
# 4 0.1586 -12.0471 -7.9628 31.6342 1.9645 5.1011
# 5 0.0229 -1.6930 -9.8970 1.9645 19.2277 2.6774
# 6 -23.0851 -8.0217 8.4252 5.1011 2.6774 38.9991
#
#
#
# Elastic Compliance Matrix: (Units=1/GPa)
#
#
# Indices 1 2 3 4 5 6 
#
# 1 0.007118 0.000140 -0.002858 -0.001411 -0.002045 0.005184
# 2 0.000140 0.009213 -0.002383 0.002612 -0.000991 0.002219
# 3 -0.002858 -0.002383 0.036143 0.009025 0.019214 -0.012490
# 4 -0.001411 0.002612 0.009025 0.035892 0.002198 -0.007093
# 5 -0.002045 -0.000991 0.019214 0.002198 0.063006 -0.010178
# 6 0.005184 0.002219 -0.012490 -0.007093 -0.010178 0.033492
#
#
# Mechanical properties :
#
#
# Convention : Reuss Voigt Hill
#
# Bulk Modulus (GPa) = 23.65601 38.96405 31.31003
# Shear Modulus (GPa) = 23.90555 37.68546 30.79551
#
# Velocity S-wave (km/s) = 3.22297 4.04664 3.65806
# Velocity P-wave (km/s) = 4.91215 6.22612 5.60775
#
# Compressibility (1/GPa) = 0.04227255
#
# Stress axis : x y z
#
# Youngs Moduli (GPa) = 140.49488 108.54323 27.66762
#
# Poissons Ratio (x) = -0.01520 0.07907
# Poissons Ratio (y) = -0.01968 0.06593
# Poissons Ratio (z) = 0.40150 0.25866
#
# Static dielectric constant tensor:
#      x y z
#    x 1.906520 -0.027650 -0.041570 
#    y -0.027650 1.838920 0.040980 
#    z -0.041570 0.040980 1.912490 
# 
# From -- ./inp_files/358006.got.cif
#   From: 2010.05.17/outbox.cif.g08.bks.cpg/sg2_180_cif.got.tgz:358006.got - 2010.06.03 11:33:40.
