data_PCOD9013126
_publ_section_title
;
Structure prediction by ZEFSAII (Michael W. Deem and Ramdas Pophale) SiO2 
 PCOD9013126
Probable space group: P -1
;
_chemical_formula_sum "Si O2"
_cell_formula_units_Z 14
_cell_length_a 10.062980
_cell_length_b 10.958991
_cell_length_c 14.438308
_cell_angle_alpha 151.388906
_cell_angle_beta 122.946368
_cell_angle_gamma 47.085203
_cell_volume 551.772026
_symmetry_space_group_name_H-M "P -1"
_symmetry_group_IT_number 2
_symmetry_cell_setting 'triclinic'
loop_
_space_group_symop_operation_xyz
x,y,z
-x,-y,-z
loop_
_atom_site_type_symbol
_atom_site_label
_atom_site_fract_x
_atom_site_fract_y
_atom_site_fract_z
Si Si1 0.475152 0.033518 0.402177
Si Si2 0.794853 0.402252 0.844286
Si Si3 0.255542 0.923203 0.114286
Si Si4 0.119477 0.182992 0.584258
Si Si5 0.928572 0.738667 0.006812
Si Si6 0.416230 0.873959 0.960332
Si Si7 0.850314 0.443643 0.307350
O O1 0.396240 0.844861 0.198922
O O2 0.307406 0.370132 0.553432
O O3 0.500000 0.000000 0.500000
O O4 0.675693 0.940692 0.378912
O O5 0.834938 0.662974 0.005782
O O6 0.902220 0.100184 0.625430
O O7 0.580582 0.550917 0.837613
O O8 0.881085 0.302332 0.912103
O O9 0.051172 0.180025 0.233288
O O10 0.344563 0.027593 0.135596
O O11 0.226621 0.678651 0.886303
O O12 0.117840 0.310151 0.566642
O O13 0.976762 0.471224 0.777243
O O14 0.777896 0.041369 0.105043
O O15 0.500000 0.000000 0.000000
#
# Coordination Sequence:
#
# PCOD9013126 Si02
#       7
#     2   2   2   2   2   2   2
#     4  10  23  38  60  94 127 167 217 266 330 393
#     4  10  22  39  63  91 129 167 214 277 319 384
#     4  11  21  42  63  90 135 171 216 277 327 392
#     4  11  21  39  60  93 124 164 215 268 323 391
#     4  10  21  41  63  91 125 173 217 262 332 387
#     4  10  21  41  68  96 127 171 223 268 328 399
#     4  10  23  39  63  93 125 173 216 268 333 394
#
# _framework density 25.372799000000001
#
# number of rings (size 3 to 8) (size 9 to 14) (size 15 to 20)
#    0.000    1.714    1.429    2.571    0.000    4.571 
#    5.143    0.000    0.000   11.143    0.000    0.000 
#    0.000    0.000    0.000    0.000    0.000    0.000 
#
# Total GULP energy -78104.377280 kJ/mol
# GULP energy per Si atom -5578.884091 kJ/mol
# Density = 2.531505 g / cm^3
# Si number density = 25.372799 Si / 1000 Ang^3
#
#
#
# Elastic Constant Matrix: (Units=GPa)
#
#
# Indices 1 2 3 4 5 6 
#
# 1 65.5160 7.3410 -5.3029 2.5257 1.1154 2.1821
# 2 7.3410 159.4966 55.8320 -6.4255 -0.0991 -17.5404
# 3 -5.3029 55.8320 101.2175 4.3462 4.2893 -5.4796
# 4 2.5257 -6.4255 4.3462 50.3700 -12.4304 -5.0490
# 5 1.1154 -0.0991 4.2893 -12.4304 35.9135 4.5057
# 6 2.1821 -17.5404 -5.4796 -5.0490 4.5057 25.3261
#
#
#
# Elastic Compliance Matrix: (Units=1/GPa)
#
#
# Indices 1 2 3 4 5 6 
#
# 1 0.015741 -0.001641 0.001717 -0.001614 -0.000973 -0.002270
# 2 -0.001641 0.008693 -0.004717 0.002334 0.000760 0.005471
# 3 0.001717 -0.004717 0.012736 -0.002437 -0.002340 -0.000729
# 4 -0.001614 0.002334 -0.002437 0.022779 0.007679 0.004403
# 5 -0.000973 0.000760 -0.002340 0.007679 0.031308 -0.003935
# 6 -0.002270 0.005471 -0.000729 0.004403 -0.003935 0.044890
#
#
# Mechanical properties :
#
#
# Convention : Reuss Voigt Hill
#
# Bulk Modulus (GPa) = 35.85744 49.10781 42.48263
# Shear Modulus (GPa) = 32.31572 40.21259 36.26415
#
# Velocity S-wave (km/s) = 3.57268 3.98536 3.78465
# Velocity P-wave (km/s) = 5.58405 6.36977 5.98981
#
# Compressibility (1/GPa) = 0.02788821
#
# Stress axis : x y z
#
# Youngs Moduli (GPa) = 63.52947 115.03909 78.51751
#
# Poissons Ratio (x) = 0.18877 -0.13485
# Poissons Ratio (y) = 0.10425 0.37038
# Poissons Ratio (z) = -0.10911 0.54265
#
# Static dielectric constant tensor:
#      x y z
#    x 2.106830 -0.008930 0.010290 
#    y -0.008930 2.036660 -0.011680 
#    z 0.010290 -0.011680 1.968800 
# 
# From -- ./inp_files/131521.got.cif
#   From: 2010.05.17/outbox.cif.g08.bks.cpg/sg2_66_cif.got.tgz:131521.got - 2010.06.03 11:33:40.
