data_PCOD9013452
_publ_section_title
;
Structure prediction by ZEFSAII (Michael W. Deem and Ramdas Pophale) SiO2 
 PCOD9013452
Probable space group: P -1
;
_chemical_formula_sum "Si O2"
_cell_formula_units_Z 14
_cell_length_a 11.093855
_cell_length_b 13.896994
_cell_length_c 12.493676
_cell_angle_alpha 47.514517
_cell_angle_beta 135.306654
_cell_angle_gamma 151.344708
_cell_volume 641.983949
_symmetry_space_group_name_H-M "P -1"
_symmetry_group_IT_number 2
_symmetry_cell_setting 'triclinic'
loop_
_space_group_symop_operation_xyz
x,y,z
-x,-y,-z
loop_
_atom_site_type_symbol
_atom_site_label
_atom_site_fract_x
_atom_site_fract_y
_atom_site_fract_z
Si Si1 0.242109 0.703249 0.605442
Si Si2 0.821662 0.023844 0.348318
Si Si3 0.312281 0.177190 0.799657
Si Si4 0.330626 0.050808 0.131051
Si Si5 0.875732 0.528368 0.813663
Si Si6 0.249548 0.707124 0.300723
Si Si7 0.194862 0.980408 0.325786
O O1 0.195675 0.824781 0.451257
O O2 0.040352 0.100997 0.690347
O O3 0.965514 0.466443 0.617732
O O4 0.496329 0.796469 0.628778
O O5 0.961261 0.245349 0.277789
O O6 0.727491 0.956357 0.215482
O O7 0.566852 0.867891 0.382706
O O8 0.000000 0.000000 0.500000
O O9 0.584214 0.404930 0.764185
O O10 0.352126 0.148705 0.965885
O O11 0.615538 0.208258 0.253508
O O12 0.230638 0.851908 0.178053
O O13 0.151101 0.988175 0.166623
O O14 0.834380 0.418490 0.764407
O O15 0.000000 0.500000 0.000000
#
# Coordination Sequence:
#
# PCOD9013452 Si02
#       7
#     2   2   2   2   2   2   2
#     4   9  21  40  63  91 127 164 209 256 311 379
#     4  11  27  40  63  98 129 165 214 267 317 377
#     4  11  23  41  67  91 133 163 208 262 321 367
#     4  10  21  41  64  96 123 167 209 260 305 390
#     4  11  24  43  65  94 127 168 214 261 320 381
#     4  11  22  38  69  86 124 167 213 250 326 367
#     4   9  22  41  62  94 129 162 211 256 317 373
#
# _framework density 21.807400000000001
#
# number of rings (size 3 to 8) (size 9 to 14) (size 15 to 20)
#    0.857    0.857    0.000    3.857    6.000    4.000 
#    2.571    0.714    0.000    0.000    0.000    0.000 
#    0.000    0.000    0.000    0.000    0.000    0.000 
#
# Total GULP energy -78086.892418 kJ/mol
# GULP energy per Si atom -5577.635173 kJ/mol
# Density = 2.175777 g / cm^3
# Si number density = 21.807400 Si / 1000 Ang^3
#
#
#
# Elastic Constant Matrix: (Units=GPa)
#
#
# Indices 1 2 3 4 5 6 
#
# 1 124.8249 60.4145 17.1563 -2.8197 -16.8979 35.9532
# 2 60.4145 162.0044 37.7542 -14.1897 5.2440 30.0262
# 3 17.1563 37.7542 79.5661 2.6161 -14.8213 8.9162
# 4 -2.8197 -14.1897 2.6161 22.7661 -2.0554 -6.9334
# 5 -16.8979 5.2440 -14.8213 -2.0554 26.2721 1.3917
# 6 35.9532 30.0262 8.9162 -6.9334 1.3917 46.1209
#
#
#
# Elastic Compliance Matrix: (Units=1/GPa)
#
#
# Indices 1 2 3 4 5 6 
#
# 1 0.014190 -0.004850 0.002583 -0.003318 0.011783 -0.009258
# 2 -0.004850 0.010051 -0.005240 0.005360 -0.007625 -0.000714
# 3 0.002583 -0.005240 0.017273 -0.004747 0.012240 -0.003024
# 4 -0.003318 0.005360 -0.004747 0.049474 -0.002410 0.007525
# 5 0.011783 -0.007625 0.012240 -0.002410 0.054336 -0.008590
# 6 -0.009258 -0.000714 -0.003024 0.007525 -0.008590 0.031339
#
#
# Mechanical properties :
#
#
# Convention : Reuss Voigt Hill
#
# Bulk Modulus (GPa) = 37.73544 66.33836 52.03690
# Shear Modulus (GPa) = 24.93637 35.76986 30.35311
#
# Velocity S-wave (km/s) = 3.38521 4.05441 3.73483
# Velocity P-wave (km/s) = 5.71148 7.23905 6.52016
#
# Compressibility (1/GPa) = 0.02650029
#
# Stress axis : x y z
#
# Youngs Moduli (GPa) = 70.47064 99.49195 57.89494
#
# Poissons Ratio (x) = 0.48252 -0.14954
# Poissons Ratio (y) = 0.34177 0.30337
# Poissons Ratio (z) = -0.18203 0.52134
#
# Static dielectric constant tensor:
#      x y z
#    x 1.836030 0.046030 -0.048740 
#    y 0.046030 1.806410 0.053120 
#    z -0.048740 0.053120 1.814360 
# 
# From -- ./inp_files/431138.got.cif
#   From: 2010.05.17/outbox.cif.g08.bks.cpg/sg2_216_cif.got.tgz:431138.got - 2010.06.03 11:33:40.
