data_PCOD9013804
_publ_section_title
;
Structure prediction by ZEFSAII (Michael W. Deem and Ramdas Pophale) SiO2 
 PCOD9013804
Probable space group: P -1
;
_chemical_formula_sum "Si O2"
_cell_formula_units_Z 15
_cell_length_a 8.335006
_cell_length_b 12.404525
_cell_length_c 9.891985
_cell_angle_alpha 60.010553
_cell_angle_beta 43.034708
_cell_angle_gamma 84.563780
_cell_volume 537.441119
_symmetry_space_group_name_H-M "P -1"
_symmetry_group_IT_number 2
_symmetry_cell_setting 'triclinic'
loop_
_space_group_symop_operation_xyz
x,y,z
-x,-y,-z
loop_
_atom_site_type_symbol
_atom_site_label
_atom_site_fract_x
_atom_site_fract_y
_atom_site_fract_z
Si Si1 0.148697 0.012817 0.762918
Si Si2 0.678293 0.870343 0.679091
Si Si3 0.500000 0.500000 0.000000
Si Si4 0.986456 0.646268 0.426472
Si Si5 0.431708 0.216570 0.913483
Si Si6 0.887731 0.287223 0.984409
Si Si7 0.405903 0.857330 0.409683
Si Si8 0.150671 0.389800 0.016720
O O1 0.108880 0.073185 0.608069
O O2 0.436780 0.132502 0.556029
O O3 0.135847 0.859878 0.850138
O O4 0.000000 0.000000 0.000000
O O5 0.612355 0.998843 0.665698
O O6 0.744409 0.840104 0.806262
O O7 0.399177 0.741135 0.883445
O O8 0.765557 0.620886 0.687040
O O9 0.665814 0.523198 0.027761
O O10 0.000000 0.500000 0.500000
O O11 0.277515 0.750121 0.234915
O O12 0.944280 0.682692 0.276795
O O13 0.420490 0.140826 0.827886
O O14 0.359338 0.340958 0.850132
O O15 0.018800 0.406367 0.944161
O O16 0.122268 0.724729 0.673368
#
# Coordination Sequence:
#
# PCOD9013804 Si02
#       8
#     2   2   1   2   2   2   2   2
#     4  11  21  40  68 105 143 177 217 266 335 414
#     4  10  21  41  65  97 140 174 216 273 327 407
#     4  12  26  44  70  94 130 168 232 296 328 384
#     4  11  24  48  68  92 128 174 232 286 337 387
#     4  11  24  40  68  96 134 177 223 274 335 399
#     4  10  22  44  68  93 133 179 216 279 335 402
#     4  11  21  40  65  99 137 175 220 266 333 402
#     4  12  23  43  68  95 132 176 225 281 337 390
#
# _framework density 27.910034
#
# number of rings (size 3 to 8) (size 9 to 14) (size 15 to 20)
#    0.000    1.067    5.333    2.000    0.000    2.133 
#    2.400    0.667    0.000    0.000    0.000    0.000 
#    0.000    0.000    0.000    0.000    0.000    0.000 
#
# Total GULP energy -83592.840932 kJ/mol
# GULP energy per Si atom -5572.856062 kJ/mol
# Density = 2.784651 g / cm^3
# Si number density = 27.910034 Si / 1000 Ang^3
#
#
#
# Elastic Constant Matrix: (Units=GPa)
#
#
# Indices 1 2 3 4 5 6 
#
# 1 115.7383 40.0303 23.0706 3.0865 -3.6629 58.3597
# 2 40.0303 110.7917 25.7677 2.5646 3.4406 44.0582
# 3 23.0706 25.7677 168.7432 37.2928 12.3316 17.7892
# 4 3.0865 2.5646 37.2928 42.5353 15.7843 -5.9511
# 5 -3.6629 3.4406 12.3316 15.7843 46.0420 3.6165
# 6 58.3597 44.0582 17.7892 -5.9511 3.6165 61.9408
#
#
#
# Elastic Compliance Matrix: (Units=1/GPa)
#
#
# Indices 1 2 3 4 5 6 
#
# 1 0.017849 0.000734 0.000347 -0.005967 0.004754 -0.018290
# 2 0.000734 0.012862 -0.000656 -0.001894 0.000698 -0.009875
# 3 0.000347 -0.000656 0.007913 -0.007628 0.000801 -0.002913
# 4 -0.005967 -0.001894 -0.007628 0.037101 -0.012064 0.013429
# 5 0.004754 0.000698 0.000801 -0.012064 0.026588 -0.007917
# 6 -0.018290 -0.009875 -0.002913 0.013429 -0.007917 0.042990
#
#
# Mechanical properties :
#
#
# Convention : Reuss Voigt Hill
#
# Bulk Modulus (GPa) = 25.33246 63.66783 44.50015
# Shear Modulus (GPa) = 31.72342 50.53059 41.12701
#
# Velocity S-wave (km/s) = 3.37505 4.25959 3.84286
# Velocity P-wave (km/s) = 4.92790 6.85955 5.97234
#
# Compressibility (1/GPa) = 0.03947505
#
# Stress axis : x y z
#
# Youngs Moduli (GPa) = 56.02491 77.74621 126.36925
#
# Poissons Ratio (x) = -0.05706 -0.04385
# Poissons Ratio (y) = -0.04112 0.08287
# Poissons Ratio (z) = -0.01944 0.05099
#
# Static dielectric constant tensor:
#      x y z
#    x 2.285870 -0.111680 -0.030180 
#    y -0.111680 2.281010 -0.023900 
#    z -0.030180 -0.023900 2.204770 
# 
# From -- ./inp_files/177289.got.cif
#   From: 2010.05.17/outbox.cif.g08.bks.cpg/sg2_89_cif.got.tgz:177289.got - 2010.06.03 11:33:40.
