data_PCOD9013998
_publ_section_title
;
Structure prediction by ZEFSAII (Michael W. Deem and Ramdas Pophale) SiO2 
 PCOD9013998
Probable space group: P -1
;
_chemical_formula_sum "Si O2"
_cell_formula_units_Z 16
_cell_length_a 8.724673
_cell_length_b 13.538568
_cell_length_c 9.429113
_cell_angle_alpha 96.436001
_cell_angle_beta 106.604368
_cell_angle_gamma 42.856648
_cell_volume 717.806440
_symmetry_space_group_name_H-M "P -1"
_symmetry_group_IT_number 2
_symmetry_cell_setting 'triclinic'
loop_
_space_group_symop_operation_xyz
x,y,z
-x,-y,-z
loop_
_atom_site_type_symbol
_atom_site_label
_atom_site_fract_x
_atom_site_fract_y
_atom_site_fract_z
Si Si1 0.691149 0.575777 0.284419
Si Si2 0.157414 0.139989 0.805850
Si Si3 0.904498 0.267217 0.203107
Si Si4 0.589783 0.568418 0.565608
Si Si5 0.690356 0.817342 0.887009
Si Si6 0.179516 0.832523 0.075202
Si Si7 0.090346 0.477512 0.177637
Si Si8 0.065282 0.855620 0.519387
O O1 0.750281 0.434672 0.229671
O O2 0.705587 0.564092 0.456377
O O3 0.432793 0.735894 0.199050
O O4 0.886854 0.548826 0.248647
O O5 0.975615 0.159131 0.854212
O O6 0.050074 0.171137 0.625920
O O7 0.419580 0.973060 0.842555
O O8 0.209651 0.214682 0.929178
O O9 0.983381 0.167480 0.342865
O O10 0.136471 0.193974 0.164474
O O11 0.759456 0.262445 0.060089
O O12 0.500000 0.500000 0.500000
O O13 0.767958 0.490648 0.731840
O O14 0.346059 0.732178 0.560021
O O15 0.715796 0.699749 0.799488
O O16 0.000000 0.000000 0.000000
O O17 0.000000 0.500000 0.000000
O O18 0.000000 0.000000 0.500000
#
# Coordination Sequence:
#
# PCOD9013998 Si02
#       8
#     2   2   2   2   2   2   2   2
#     4  11  24  46  68  97 140 185 230 289 346 419
#     4  10  21  41  66  93 134 183 227 279 353 413
#     4  10  23  40  65  98 135 183 234 282 346 415
#     4  12  26  46  70 102 142 187 233 289 350 422
#     4   9  22  44  64  93 140 179 232 288 340 419
#     4  11  23  39  66  99 136 179 231 285 346 413
#     4  11  27  43  71 103 138 182 239 289 348 407
#     4  12  24  40  68 101 140 177 235 287 348 413
#
# _framework density 22.290130999999999
#
# number of rings (size 3 to 8) (size 9 to 14) (size 15 to 20)
#    0.000    1.250    2.500    2.250    5.250    1.500 
#    0.000    0.000    0.000    0.000    0.000    0.000 
#    0.000    0.000    0.000    0.000    0.000    0.000 
#
# Total GULP energy -89299.404378 kJ/mol
# GULP energy per Si atom -5581.212774 kJ/mol
# Density = 2.223940 g / cm^3
# Si number density = 22.290131 Si / 1000 Ang^3
#
#
#
# Elastic Constant Matrix: (Units=GPa)
#
#
# Indices 1 2 3 4 5 6 
#
# 1 58.7351 24.7476 43.2928 2.0204 10.7791 -3.3042
# 2 24.7476 90.6155 5.5292 -17.4224 12.0633 -19.9575
# 3 43.2928 5.5292 145.9082 -13.5409 9.4078 -17.9716
# 4 2.0204 -17.4224 -13.5409 26.3715 -3.5154 -1.9128
# 5 10.7791 12.0633 9.4078 -3.5154 34.2268 -4.5789
# 6 -3.3042 -19.9575 -17.9716 -1.9128 -4.5789 34.6653
#
#
#
# Elastic Compliance Matrix: (Units=1/GPa)
#
#
# Indices 1 2 3 4 5 6 
#
# 1 0.033351 -0.014441 -0.012518 -0.020286 -0.005865 -0.013519
# 2 -0.014441 0.022214 0.007428 0.020639 -0.001027 0.016267
# 3 -0.012518 0.007428 0.012775 0.013267 0.000582 0.010516
# 4 -0.020286 0.020639 0.013267 0.062052 0.004632 0.020863
# 5 -0.005865 -0.001027 0.000582 0.004632 0.032232 0.003665
# 6 -0.013519 0.016267 0.010516 0.020863 0.003665 0.044011
#
#
# Mechanical properties :
#
#
# Convention : Reuss Voigt Hill
#
# Bulk Modulus (GPa) = 34.15524 49.15533 41.65528
# Shear Modulus (GPa) = 19.57283 33.83199 26.70241
#
# Velocity S-wave (km/s) = 2.96648 3.90012 3.46489
# Velocity P-wave (km/s) = 5.20477 6.51012 5.89370
#
# Compressibility (1/GPa) = 0.02927808
#
# Stress axis : x y z
#
# Youngs Moduli (GPa) = 29.98433 45.01640 78.27647
#
# Poissons Ratio (x) = 0.65010 0.97986
# Poissons Ratio (y) = 0.43302 -0.58147
# Poissons Ratio (z) = 0.37534 -0.33440
#
# Static dielectric constant tensor:
#      x y z
#    x 1.783170 0.017280 0.039130 
#    y 0.017280 1.795880 0.022720 
#    z 0.039130 0.022720 1.880650 
# 
# From -- ./inp_files/207880.got.cif
#   From: 2010.05.17/outbox.cif.g08.bks.cpg/sg2_104_cif.got.tgz:207880.got - 2010.06.03 11:33:40.
