data_PCOD9013272
_publ_section_title
;
Structure prediction by ZEFSAII (Michael W. Deem and Ramdas Pophale) SiO2 
 PCOD9013272
Probable space group: P -1
;
_chemical_formula_sum "Si O2"
_cell_formula_units_Z 16
_cell_length_a 15.161857
_cell_length_b 5.301878
_cell_length_c 11.963092
_cell_angle_alpha 84.152464
_cell_angle_beta 112.965607
_cell_angle_gamma 61.477467
_cell_volume 726.939582
_symmetry_space_group_name_H-M "P -1"
_symmetry_group_IT_number 2
_symmetry_cell_setting 'triclinic'
loop_
_space_group_symop_operation_xyz
x,y,z
-x,-y,-z
loop_
_atom_site_type_symbol
_atom_site_label
_atom_site_fract_x
_atom_site_fract_y
_atom_site_fract_z
Si Si1 0.238350 0.882998 0.762191
Si Si2 0.026314 0.666226 0.408241
Si Si3 0.259517 0.402566 0.636516
Si Si4 0.424170 0.286712 0.529406
Si Si5 0.115359 0.359275 0.225108
Si Si6 0.654176 0.212323 0.701465
Si Si7 0.776260 0.060163 0.001016
Si Si8 0.077262 0.655488 0.960222
O O1 0.291634 0.573443 0.732473
O O2 0.283446 0.842866 0.912323
O O3 0.251220 0.136751 0.698300
O O4 0.099446 0.030354 0.693437
O O5 0.133011 0.666622 0.510921
O O6 0.075366 0.482827 0.324069
O O7 0.000000 0.500000 0.500000
O O8 0.351095 0.257926 0.588518
O O9 0.521304 0.321490 0.631798
O O10 0.340660 0.569113 0.394434
O O11 0.500000 0.000000 0.500000
O O12 0.074797 0.606488 0.094166
O O13 0.252694 0.126146 0.286551
O O14 0.049034 0.198816 0.162860
O O15 0.694922 0.210997 0.846393
O O16 0.861735 0.172011 0.037806
O O17 0.844933 0.691385 0.037077
#
# Coordination Sequence:
#
# PCOD9013272 Si02
#       8
#     2   2   2   2   2   2   2   2
#     4  11  24  45  65 101 139 180 221 269 331 416
#     4  10  22  38  65  97 141 183 219 263 330 411
#     4  11  26  43  70  95 135 183 228 276 332 394
#     4  11  26  48  71  97 132 174 235 294 337 391
#     4  10  21  41  64 105 138 176 220 271 338 405
#     4  10  26  42  72 100 130 177 227 291 340 391
#     4  11  23  44  69 100 141 177 219 274 341 402
#     4  10  23  39  65 102 143 175 213 270 337 411
#
# _framework density 22.010082000000001
#
# number of rings (size 3 to 8) (size 9 to 14) (size 15 to 20)
#    0.000    1.500    1.250    1.875   14.000    5.500 
#    0.000    1.250    0.000    0.000    0.000    0.000 
#    0.000    0.000    0.000    0.000    0.000    0.000 
#
# Total GULP energy -89464.333886 kJ/mol
# GULP energy per Si atom -5591.520868 kJ/mol
# Density = 2.195999 g / cm^3
# Si number density = 22.010082 Si / 1000 Ang^3
#
#
#
# Elastic Constant Matrix: (Units=GPa)
#
#
# Indices 1 2 3 4 5 6 
#
# 1 99.7311 37.8759 50.0981 12.4094 -24.9098 -3.4731
# 2 37.8759 88.5927 39.8658 24.3855 -11.1159 4.2322
# 3 50.0981 39.8658 123.6535 24.0062 -18.9142 -11.9999
# 4 12.4094 24.3855 24.0062 32.4031 -14.3454 0.1806
# 5 -24.9098 -11.1159 -18.9142 -14.3454 26.8400 12.9482
# 6 -3.4731 4.2322 -11.9999 0.1806 12.9482 32.8530
#
#
#
# Elastic Compliance Matrix: (Units=1/GPa)
#
#
# Indices 1 2 3 4 5 6 
#
# 1 0.018019 -0.005219 -0.005174 0.009464 0.019345 -0.006989
# 2 -0.005219 0.017068 -0.002038 -0.011288 -0.004431 -0.001686
# 3 -0.005174 -0.002038 0.012230 -0.007156 -0.003568 0.005628
# 4 0.009464 -0.011288 -0.007156 0.057546 0.037107 -0.015100
# 5 0.019345 -0.004431 -0.003568 0.037107 0.086632 -0.033035
# 6 -0.006989 -0.001686 0.005628 -0.015100 -0.033035 0.045076
#
#
# Mechanical properties :
#
#
# Convention : Reuss Voigt Hill
#
# Bulk Modulus (GPa) = 44.53470 63.07300 53.80385
# Shear Modulus (GPa) = 18.59296 30.69507 24.64401
#
# Velocity S-wave (km/s) = 2.90961 3.73847 3.34978
# Velocity P-wave (km/s) = 5.61831 6.88139 6.28168
#
# Compressibility (1/GPa) = 0.02245440
#
# Stress axis : x y z
#
# Youngs Moduli (GPa) = 55.49625 58.59002 81.76348
#
# Poissons Ratio (x) = 0.30579 0.42307
# Poissons Ratio (y) = 0.28964 0.16664
# Poissons Ratio (z) = 0.28716 0.11941
#
# Static dielectric constant tensor:
#      x y z
#    x 1.807270 0.004540 0.023830 
#    y 0.004540 1.984760 -0.030280 
#    z 0.023830 -0.030280 1.836550 
# 
# From -- ./inp_files/441965.got.cif
#   From: 2010.05.17/outbox.cif.g08.bks.cpg/sg2_221_cif.got.tgz:441965.got - 2010.06.03 11:33:40.
