data_PCOD9013542
_publ_section_title
;
Structure prediction by ZEFSAII (Michael W. Deem and Ramdas Pophale) SiO2 
 PCOD9013542
Probable space group: P -1
;
_chemical_formula_sum "Si O2"
_cell_formula_units_Z 14
_cell_length_a 11.604258
_cell_length_b 8.479827
_cell_length_c 13.076333
_cell_angle_alpha 31.733304
_cell_angle_beta 84.478143
_cell_angle_gamma 102.555248
_cell_volume 552.766966
_symmetry_space_group_name_H-M "P -1"
_symmetry_group_IT_number 2
_symmetry_cell_setting 'triclinic'
loop_
_space_group_symop_operation_xyz
x,y,z
-x,-y,-z
loop_
_atom_site_type_symbol
_atom_site_label
_atom_site_fract_x
_atom_site_fract_y
_atom_site_fract_z
Si Si1 0.241314 0.294936 0.262609
Si Si2 0.263912 0.638476 0.280170
Si Si3 0.333065 0.828222 0.557202
Si Si4 0.082247 0.316612 0.093800
Si Si5 0.895282 0.993769 0.929256
Si Si6 0.512463 0.932679 0.805616
Si Si7 0.347322 0.096550 0.611447
O O1 0.285587 0.584794 0.189472
O O2 0.214295 0.918914 0.509424
O O3 0.106005 0.211496 0.260093
O O4 0.381630 0.511649 0.060172
O O5 0.268460 0.299132 0.510440
O O6 0.387603 0.953341 0.167664
O O7 0.141909 0.709518 0.243988
O O8 0.253927 0.397291 0.819635
O O9 0.401344 0.939287 0.377910
O O10 0.422284 0.125676 0.478798
O O11 0.039941 0.015543 0.179396
O O12 0.234131 0.664219 0.855670
O O13 0.000000 0.500000 0.000000
O O14 0.000000 0.000000 0.000000
O O15 0.432901 0.134987 0.684279
#
# Coordination Sequence:
#
# PCOD9013542 Si02
#       7
#     2   2   2   2   2   2   2
#     4  10  22  40  61  90 124 163 201 244 300 362
#     4  11  23  39  60  90 125 160 199 248 301 353
#     4  10  22  40  62  87 121 164 203 242 299 363
#     4  10  21  41  65  87 117 160 206 250 301 361
#     4  11  25  43  62  90 121 155 203 258 302 351
#     4  11  21  37  63  94 123 158 202 250 296 354
#     4   9  22  40  61  90 124 162 200 244 302 362
#
# _framework density 25.32713
#
# number of rings (size 3 to 8) (size 9 to 14) (size 15 to 20)
#    0.000    1.714    0.000    3.429    0.000   10.286 
#    0.000    6.429    0.000    0.000    0.000    0.000 
#    0.000    0.000    0.000    0.000    0.000    0.000 
#
# Total GULP energy -77942.095971 kJ/mol
# GULP energy per Si atom -5567.292569 kJ/mol
# Density = 2.526948 g / cm^3
# Si number density = 25.327130 Si / 1000 Ang^3
#
#
#
# Elastic Constant Matrix: (Units=GPa)
#
#
# Indices 1 2 3 4 5 6 
#
# 1 89.1004 58.3443 20.3742 9.9214 37.9640 20.4711
# 2 58.3443 75.2077 26.9912 20.1189 20.1085 16.1000
# 3 20.3742 26.9912 90.2174 -4.6767 26.9184 0.2255
# 4 9.9214 20.1189 -4.6767 27.7895 5.3773 11.8330
# 5 37.9640 20.1085 26.9184 5.3773 46.2113 10.4484
# 6 20.4711 16.1000 0.2255 11.8330 10.4484 49.1520
#
#
#
# Elastic Compliance Matrix: (Units=1/GPa)
#
#
# Indices 1 2 3 4 5 6 
#
# 1 0.038128 -0.029181 0.008118 0.015670 -0.024042 -0.005020
# 2 -0.029181 0.043001 -0.012144 -0.026200 0.015108 0.001220
# 3 0.008118 -0.012144 0.017299 0.011043 -0.012882 0.000597
# 4 0.015670 -0.026200 0.011043 0.057553 -0.012525 -0.009188
# 5 -0.024042 0.015108 -0.012882 -0.012525 0.044055 -0.001226
# 6 -0.005020 0.001220 0.000597 -0.009188 -0.001226 0.024506
#
#
# Mechanical properties :
#
#
# Convention : Reuss Voigt Hill
#
# Bulk Modulus (GPa) = 31.23668 51.77166 41.50417
# Shear Modulus (GPa) = 16.57682 34.55161 25.56421
#
# Velocity S-wave (km/s) = 2.56111 3.69753 3.18049
# Velocity P-wave (km/s) = 4.59410 6.22210 5.46902
#
# Compressibility (1/GPa) = 0.03201364
#
# Stress axis : x y z
#
# Youngs Moduli (GPa) = 26.22771 23.25538 57.80779
#
# Poissons Ratio (x) = 0.67861 -0.46930
# Poissons Ratio (y) = 0.76535 0.70202
# Poissons Ratio (z) = -0.21292 0.28241
#
# Static dielectric constant tensor:
#      x y z
#    x 2.187430 0.021010 -0.033010 
#    y 0.021010 2.102260 0.060940 
#    z -0.033010 0.060940 2.023400 
# 
# From -- ./inp_files/514819.got.cif
#   From: 2010.05.17/outbox.cif.g08.bks.cpg/sg2_258_cif.got.tgz:514819.got - 2010.06.03 11:33:40.
