data_PCOD9013664
_publ_section_title
;
Structure prediction by ZEFSAII (Michael W. Deem and Ramdas Pophale) SiO2 
 PCOD9013664
Probable space group: P -1
;
_chemical_formula_sum "Si O2"
_cell_formula_units_Z 16
_cell_length_a 14.930455
_cell_length_b 8.704186
_cell_length_c 6.689880
_cell_angle_alpha 102.226408
_cell_angle_beta 121.360613
_cell_angle_gamma 67.329511
_cell_volume 684.959703
_symmetry_space_group_name_H-M "P -1"
_symmetry_group_IT_number 2
_symmetry_cell_setting 'triclinic'
loop_
_space_group_symop_operation_xyz
x,y,z
-x,-y,-z
loop_
_atom_site_type_symbol
_atom_site_label
_atom_site_fract_x
_atom_site_fract_y
_atom_site_fract_z
Si Si1 0.568706 0.431017 0.865684
Si Si2 0.458715 0.213384 0.533149
Si Si3 0.363088 0.025896 0.604699
Si Si4 0.725203 0.151370 0.220316
Si Si5 0.154850 0.309259 0.543136
Si Si6 0.144189 0.624049 0.343824
Si Si7 0.056446 0.136190 0.655311
Si Si8 0.277209 0.388819 0.091221
O O1 0.479996 0.387378 0.613602
O O2 0.631584 0.547996 0.889547
O O3 0.500000 0.500000 0.000000
O O4 0.661717 0.260116 0.993595
O O5 0.430958 0.157759 0.705596
O O6 0.350035 0.240648 0.278436
O O7 0.568635 0.089820 0.525205
O O8 0.236336 0.147270 0.479934
O O9 0.357225 0.907010 0.747731
O O10 0.783099 0.268137 0.444464
O O11 0.817375 0.982677 0.202763
O O12 0.141854 0.470874 0.440934
O O13 0.052774 0.256618 0.493583
O O14 0.211653 0.335656 0.824708
O O15 0.197471 0.536143 0.176405
O O16 0.016992 0.748778 0.224828
O O17 0.000000 0.000000 0.500000
#
# Coordination Sequence:
#
# PCOD9013664 Si02
#       8
#     2   2   2   2   2   2   2   2
#     4  12  23  39  65  96 135 172 218 267 316 380
#     4  11  23  38  60  94 132 175 217 257 324 375
#     4  10  22  39  59  89 129 170 210 264 315 378
#     4  10  21  41  65  92 131 169 214 264 327 377
#     4  11  22  42  68  93 130 170 213 266 321 382
#     4  11  21  44  66  95 129 166 218 266 324 379
#     4   9  22  41  71  94 124 171 209 264 332 383
#     4  12  24  39  66  98 131 168 220 266 316 381
#
# _framework density 23.359038999999999
#
# number of rings (size 3 to 8) (size 9 to 14) (size 15 to 20)
#    0.000    1.250    2.500    3.750    0.000    5.500 
#    0.000    0.625    2.750    0.000    0.000    0.000 
#    0.000    0.000    0.000    0.000    0.000    0.000 
#
# Total GULP energy -89280.450424 kJ/mol
# GULP energy per Si atom -5580.028151 kJ/mol
# Density = 2.330587 g / cm^3
# Si number density = 23.359039 Si / 1000 Ang^3
#
#
#
# Elastic Constant Matrix: (Units=GPa)
#
#
# Indices 1 2 3 4 5 6 
#
# 1 119.6771 26.4952 25.4645 8.7324 -34.5230 3.2600
# 2 26.4952 78.1111 20.4444 0.5638 -14.5359 -1.0987
# 3 25.4645 20.4444 43.7742 -4.4680 -9.4537 2.7562
# 4 8.7324 0.5638 -4.4680 25.7932 -2.2184 -11.1195
# 5 -34.5230 -14.5359 -9.4537 -2.2184 23.3975 5.0285
# 6 3.2600 -1.0987 2.7562 -11.1195 5.0285 71.9759
#
#
#
# Elastic Compliance Matrix: (Units=1/GPa)
#
#
# Indices 1 2 3 4 5 6 
#
# 1 0.016332 -0.000100 -0.005091 -0.005797 0.022070 -0.002984
# 2 -0.000100 0.015698 -0.005779 -0.000756 0.007232 -0.000157
# 3 -0.005091 -0.005779 0.029557 0.007101 0.001513 0.000002
# 4 -0.005797 -0.000756 0.007101 0.044759 -0.003444 0.007134
# 5 0.022070 0.007232 0.001513 -0.003444 0.081625 -0.007182
# 6 -0.002984 -0.000157 0.000002 0.007134 -0.007182 0.015630
#
#
# Mechanical properties :
#
#
# Convention : Reuss Voigt Hill
#
# Bulk Modulus (GPa) = 25.22340 42.93005 34.07672
# Shear Modulus (GPa) = 20.94183 35.51056 28.22620
#
# Velocity S-wave (km/s) = 2.99744 3.90321 3.47992
# Velocity P-wave (km/s) = 4.77505 6.22348 5.54675
#
# Compressibility (1/GPa) = 0.03964573
#
# Stress axis : x y z
#
# Youngs Moduli (GPa) = 61.22862 63.70331 33.83341
#
# Poissons Ratio (x) = 0.00639 0.17226
# Poissons Ratio (y) = 0.00614 0.19551
# Poissons Ratio (z) = 0.31174 0.36812
#
# Static dielectric constant tensor:
#      x y z
#    x 1.922250 -0.006390 0.043540 
#    y -0.006390 2.007940 -0.055580 
#    z 0.043540 -0.055580 1.910340 
# 
# From -- ./inp_files/90495.got.cif
#   From: 2010.05.17/outbox.cif.g08.bks.cpg/sg2_46_cif.got.tgz:90495.got - 2010.06.03 11:33:40.
