data_PCOD9013978
_publ_section_title
;
Structure prediction by ZEFSAII (Michael W. Deem and Ramdas Pophale) SiO2 
 PCOD9013978
Probable space group: P -1
;
_chemical_formula_sum "Si O2"
_cell_formula_units_Z 16
_cell_length_a 7.148475
_cell_length_b 11.806476
_cell_length_c 8.773481
_cell_angle_alpha 122.516463
_cell_angle_beta 94.857814
_cell_angle_gamma 80.043794
_cell_volume 614.955522
_symmetry_space_group_name_H-M "P -1"
_symmetry_group_IT_number 2
_symmetry_cell_setting 'triclinic'
loop_
_space_group_symop_operation_xyz
x,y,z
-x,-y,-z
loop_
_atom_site_type_symbol
_atom_site_label
_atom_site_fract_x
_atom_site_fract_y
_atom_site_fract_z
Si Si1 0.577918 0.526657 0.279298
Si Si2 0.792858 0.639966 0.132339
Si Si3 0.884110 0.737185 0.915303
Si Si4 0.083919 0.970191 0.158095
Si Si5 0.476635 0.280446 0.296388
Si Si6 0.872112 0.237294 0.330141
Si Si7 0.200434 0.672817 0.303538
Si Si8 0.428854 0.876560 0.316150
O O1 0.741841 0.528172 0.168061
O O2 0.547289 0.393283 0.272043
O O3 0.590998 0.643697 0.494143
O O4 0.387322 0.569568 0.198613
O O5 0.840428 0.621948 0.943197
O O6 0.613528 0.762933 0.215841
O O7 0.994237 0.672427 0.226897
O O8 0.957951 0.854379 0.104980
O O9 0.692165 0.780947 0.838125
O O10 0.043743 0.705976 0.773993
O O11 0.300762 0.919673 0.186648
O O12 0.022755 0.119392 0.329604
O O13 0.000000 0.000000 0.000000
O O14 0.673485 0.179506 0.254259
O O15 0.817877 0.350990 0.534076
O O16 0.279139 0.812316 0.366314
O O17 0.500000 0.000000 0.500000
#
# Coordination Sequence:
#
# PCOD9013978 Si02
#       8
#     2   2   2   2   2   2   2   2
#     4   9  22  43  67  97 121 164 221 273 317 375
#     4  11  23  39  67  91 132 166 210 267 323 378
#     4  11  24  39  61  94 132 168 207 260 326 386
#     4  10  23  41  59  93 136 166 210 262 314 387
#     4  10  22  43  68  91 128 167 216 269 322 383
#     4  10  23  40  63  91 129 169 215 258 318 389
#     4  10  21  41  66  93 125 164 217 268 313 380
#     4  11  24  40  65  96 129 172 222 261 316 386
#
# _framework density 26.018141
#
# number of rings (size 3 to 8) (size 9 to 14) (size 15 to 20)
#    0.000    1.750    1.250    1.500    5.250    8.000 
#    0.000    5.000    0.000    0.000    0.000    0.000 
#    0.000    0.000    0.000    0.000    0.000    0.000 
#
# Total GULP energy -89324.127885 kJ/mol
# GULP energy per Si atom -5582.757993 kJ/mol
# Density = 2.595892 g / cm^3
# Si number density = 26.018141 Si / 1000 Ang^3
#
#
#
# Elastic Constant Matrix: (Units=GPa)
#
#
# Indices 1 2 3 4 5 6 
#
# 1 190.6953 41.2599 54.9827 -13.6577 15.4736 -6.6731
# 2 41.2599 77.4132 29.4833 -13.4612 0.4550 -0.6903
# 3 54.9827 29.4833 89.9844 -23.3832 -1.1948 3.8933
# 4 -13.6577 -13.4612 -23.3832 36.7249 1.2043 -1.0345
# 5 15.4736 0.4550 -1.1948 1.2043 61.2550 -11.2389
# 6 -6.6731 -0.6903 3.8933 -1.0345 -11.2389 54.7625
#
#
#
# Elastic Compliance Matrix: (Units=1/GPa)
#
#
# Indices 1 2 3 4 5 6 
#
# 1 0.006933 -0.002384 -0.003650 -0.000545 -0.001662 0.000723
# 2 -0.002384 0.015839 -0.002951 0.003034 0.000415 0.000262
# 3 -0.003650 -0.002951 0.016450 0.007969 0.000865 -0.001323
# 4 -0.000545 0.003034 0.007969 0.033225 -0.000391 -0.000047
# 5 -0.001662 0.000415 0.000865 -0.000391 0.017372 0.003299
# 6 0.000723 0.000262 -0.001323 -0.000047 0.003299 0.019122
#
#
# Mechanical properties :
#
#
# Convention : Reuss Voigt Hill
#
# Bulk Modulus (GPa) = 47.05103 67.72719 57.38911
# Shear Modulus (GPa) = 37.31491 46.03962 41.67726
#
# Velocity S-wave (km/s) = 3.79118 4.21113 4.00666
# Velocity P-wave (km/s) = 6.10633 7.05210 6.59618
#
# Compressibility (1/GPa) = 0.02125352
#
# Stress axis : x y z
#
# Youngs Moduli (GPa) = 144.23164 63.13370 60.79103
#
# Poissons Ratio (x) = 0.15048 0.22191
# Poissons Ratio (y) = 0.34379 0.17937
# Poissons Ratio (z) = 0.52649 0.18628
#
# Static dielectric constant tensor:
#      x y z
#    x 2.021220 -0.041110 0.013600 
#    y -0.041110 2.200190 0.073150 
#    z 0.013600 0.073150 2.178990 
# 
# From -- ./inp_files/100621.got.cif
#   From: 2010.05.17/outbox.cif.g08.bks.cpg/sg2_51_cif.got.tgz:100621.got - 2010.06.03 11:33:40.
