data_PCOD9013381
_publ_section_title
;
Structure prediction by ZEFSAII (Michael W. Deem and Ramdas Pophale) SiO2 
 PCOD9013381
Probable space group: P -1
;
_chemical_formula_sum "Si O2"
_cell_formula_units_Z 16
_cell_length_a 18.714456
_cell_length_b 11.558327
_cell_length_c 8.396975
_cell_angle_alpha 79.364318
_cell_angle_beta 130.647576
_cell_angle_gamma 140.264486
_cell_volume 667.732872
_symmetry_space_group_name_H-M "P -1"
_symmetry_group_IT_number 2
_symmetry_cell_setting 'triclinic'
loop_
_space_group_symop_operation_xyz
x,y,z
-x,-y,-z
loop_
_atom_site_type_symbol
_atom_site_label
_atom_site_fract_x
_atom_site_fract_y
_atom_site_fract_z
Si Si1 0.998498 0.864300 0.095792
Si Si2 0.333551 0.093180 0.378812
Si Si3 0.456430 0.231910 0.859660
Si Si4 0.183541 0.080094 0.662324
Si Si5 0.650644 0.400470 0.555439
Si Si6 0.224519 0.744000 0.720578
Si Si7 0.831728 0.664163 0.423993
Si Si8 0.409785 0.907360 0.626320
O O1 0.791459 0.578558 0.861635
O O2 0.127479 0.924276 0.149590
O O3 0.081714 0.957008 0.371849
O O4 0.000000 0.000000 0.000000
O O5 0.436383 0.254274 0.646030
O O6 0.452065 0.246516 0.353195
O O7 0.352294 0.971951 0.456779
O O8 0.391982 0.256199 0.890045
O O9 0.307036 0.964950 0.747424
O O10 0.670897 0.425931 0.147883
O O11 0.188634 0.221074 0.681746
O O12 0.046486 0.863565 0.641764
O O13 0.763971 0.578226 0.527179
O O14 0.615235 0.226766 0.498693
O O15 0.266729 0.732316 0.612521
O O16 0.000000 0.500000 0.500000
O O17 0.375397 0.861562 0.044058
#
# Coordination Sequence:
#
# PCOD9013381 Si02
#       8
#     2   2   2   2   2   2   2   2
#     4  11  24  46  65  96 132 175 227 269 333 395
#     4  10  25  43  66  93 132 180 218 274 331 396
#     4  10  21  41  64  93 125 170 222 261 334 388
#     4  10  23  41  64  92 130 169 218 272 326 389
#     4  12  24  41  69  96 135 175 219 274 329 396
#     4  10  22  38  67  98 131 172 216 277 330 391
#     4  11  22  40  64  97 127 170 215 278 325 385
#     4  10  23  43  63  98 135 172 225 267 330 397
#
# _framework density 23.961676000000001
#
# number of rings (size 3 to 8) (size 9 to 14) (size 15 to 20)
#    0.000    1.500    2.500    1.500    1.750    6.000 
#    2.250    0.000    0.000    0.000    0.000    0.000 
#    0.000    0.000    0.000    0.000    0.000    0.000 
#
# Total GULP energy -89356.884887 kJ/mol
# GULP energy per Si atom -5584.805305 kJ/mol
# Density = 2.390714 g / cm^3
# Si number density = 23.961676 Si / 1000 Ang^3
#
#
#
# Elastic Constant Matrix: (Units=GPa)
#
#
# Indices 1 2 3 4 5 6 
#
# 1 107.9310 38.7167 14.8618 20.3068 18.7009 7.9998
# 2 38.7167 83.3743 26.5735 13.4876 10.8688 25.9117
# 3 14.8618 26.5735 87.5171 23.5872 7.3342 5.5605
# 4 20.3068 13.4876 23.5872 37.6600 4.2860 7.2065
# 5 18.7009 10.8688 7.3342 4.2860 38.7333 6.5480
# 6 7.9998 25.9117 5.5605 7.2065 6.5480 37.2065
#
#
#
# Elastic Compliance Matrix: (Units=1/GPa)
#
#
# Indices 1 2 3 4 5 6 
#
# 1 0.012818 -0.005768 0.001316 -0.005710 -0.004694 0.002996
# 2 -0.005768 0.019656 -0.004557 0.001219 0.000027 -0.012009
# 3 0.001316 -0.004557 0.014912 -0.008735 -0.001661 0.002646
# 4 -0.005710 0.001219 -0.008735 0.035579 0.001043 -0.005391
# 5 -0.004694 0.000027 -0.001661 0.001043 0.028962 -0.004060
# 6 0.002996 -0.012009 0.002646 -0.005391 -0.004060 0.035960
#
#
# Mechanical properties :
#
#
# Convention : Reuss Voigt Hill
#
# Bulk Modulus (GPa) = 34.04787 48.79179 41.41983
# Shear Modulus (GPa) = 28.45871 35.96464 32.21167
#
# Velocity S-wave (km/s) = 3.45001 3.87838 3.67045
# Velocity P-wave (km/s) = 5.48728 6.36101 5.94023
#
# Compressibility (1/GPa) = 0.02937042
#
# Stress axis : x y z
#
# Youngs Moduli (GPa) = 78.01256 50.87440 67.06179
#
# Poissons Ratio (x) = 0.29342 -0.08828
# Poissons Ratio (y) = 0.44994 0.30559
# Poissons Ratio (z) = -0.10270 0.23183
#
# Static dielectric constant tensor:
#      x y z
#    x 1.948720 -0.010130 -0.019300 
#    y -0.010130 1.956970 -0.012640 
#    z -0.019300 -0.012640 1.976940 
# 
# From -- ./inp_files/333283.got.cif
#   From: 2010.05.17/outbox.cif.g08.bks.cpg/sg2_167_cif.got.tgz:333283.got - 2010.06.03 11:33:40.
