data_PCOD9013390
_publ_section_title
;
Structure prediction by ZEFSAII (Michael W. Deem and Ramdas Pophale) SiO2 
 PCOD9013390
Probable space group: P -1
;
_chemical_formula_sum "Si O2"
_cell_formula_units_Z 16
_cell_length_a 15.008815
_cell_length_b 10.575125
_cell_length_c 12.063790
_cell_angle_alpha 75.564284
_cell_angle_beta 28.843993
_cell_angle_gamma 58.533043
_cell_volume 679.872041
_symmetry_space_group_name_H-M "P -1"
_symmetry_group_IT_number 2
_symmetry_cell_setting 'triclinic'
loop_
_space_group_symop_operation_xyz
x,y,z
-x,-y,-z
loop_
_atom_site_type_symbol
_atom_site_label
_atom_site_fract_x
_atom_site_fract_y
_atom_site_fract_z
Si Si1 0.606845 0.315904 0.974584
Si Si2 0.960105 0.724249 0.224609
Si Si3 0.731234 0.082622 0.311726
Si Si4 0.747685 0.662302 0.792163
Si Si5 0.029223 0.552980 0.837045
Si Si6 0.541634 0.773342 0.207875
Si Si7 0.138327 0.130283 0.454641
Si Si8 0.461933 0.630223 0.700847
O O1 0.459472 0.270218 0.085851
O O2 0.565335 0.337117 0.145986
O O3 0.500000 0.500000 0.000000
O O4 0.893666 0.172665 0.673586
O O5 0.913665 0.597367 0.270874
O O6 0.934106 0.762530 0.375266
O O7 0.234167 0.644896 0.908095
O O8 0.766845 0.912646 0.336136
O O9 0.629308 0.194239 0.511978
O O10 0.567247 0.218494 0.364571
O O11 0.000000 0.000000 0.000000
O O12 0.788307 0.797630 0.731998
O O13 0.000000 0.500000 0.500000
O O14 0.666450 0.633923 0.002489
O O15 0.261673 0.540675 0.585736
O O16 0.774295 0.725693 0.030837
O O17 0.000000 0.500000 0.000000
O O18 0.358550 0.941610 0.296132
#
# Coordination Sequence:
#
# PCOD9013390 Si02
#       8
#     2   2   2   2   2   2   2   2
#     4  11  23  40  68 100 123 174 228 263 322 401
#     4   9  21  40  69  88 126 176 214 268 338 383
#     4   9  19  43  67  92 127 173 216 274 332 384
#     4  12  23  42  70  97 135 177 214 271 335 390
#     4  12  24  41  61  99 133 167 222 269 323 402
#     4  11  24  42  66  97 137 171 219 279 328 388
#     4  10  22  44  65  95 131 171 219 273 325 390
#     4  10  21  41  64  93 129 167 220 272 322 394
#
# _framework density 23.533839
#
# number of rings (size 3 to 8) (size 9 to 14) (size 15 to 20)
#    0.000    1.500    2.500    3.375    1.750    1.500 
#    2.250    1.250    0.000    0.000    0.000    0.000 
#    0.000    0.000    0.000    0.000    0.000    0.000 
#
# Total GULP energy -89308.767340 kJ/mol
# GULP energy per Si atom -5581.797959 kJ/mol
# Density = 2.348028 g / cm^3
# Si number density = 23.533839 Si / 1000 Ang^3
#
#
#
# Elastic Constant Matrix: (Units=GPa)
#
#
# Indices 1 2 3 4 5 6 
#
# 1 76.3107 14.9897 50.1004 4.8507 -5.4896 -23.3918
# 2 14.9897 80.3496 24.9033 6.9579 -9.0757 -26.0003
# 3 50.1004 24.9033 169.9616 7.7181 -11.5427 -11.2424
# 4 4.8507 6.9579 7.7181 32.8043 -11.2304 -3.2309
# 5 -5.4896 -9.0757 -11.5427 -11.2304 55.8363 1.6315
# 6 -23.3918 -26.0003 -11.2424 -3.2309 1.6315 39.0072
#
#
#
# Elastic Compliance Matrix: (Units=1/GPa)
#
#
# Indices 1 2 3 4 5 6 
#
# 1 0.019822 0.001784 -0.005268 -0.000710 0.000672 0.011471
# 2 0.001784 0.016800 -0.002032 -0.001592 0.001831 0.011474
# 3 -0.005268 -0.002032 0.007650 -0.000591 0.000684 -0.002386
# 4 -0.000710 -0.001592 -0.000591 0.033277 0.006218 0.000839
# 5 0.000672 0.001831 0.000684 0.006218 0.019621 0.001514
# 6 0.011471 0.011474 -0.002386 0.000839 0.001514 0.039481
#
#
# Mechanical properties :
#
#
# Convention : Reuss Voigt Hill
#
# Bulk Modulus (GPa) = 30.08396 56.28987 43.18691
# Shear Modulus (GPa) = 31.49364 41.30478 36.39921
#
# Velocity S-wave (km/s) = 3.66215 4.19396 3.93705
# Velocity P-wave (km/s) = 5.54011 6.88644 6.24963
#
# Compressibility (1/GPa) = 0.03324030
#
# Stress axis : x y z
#
# Youngs Moduli (GPa) = 50.44887 59.52383 130.72461
#
# Poissons Ratio (x) = -0.10619 0.68863
# Poissons Ratio (y) = -0.09000 0.26562
# Poissons Ratio (z) = 0.26576 0.12095
#
# Static dielectric constant tensor:
#      x y z
#    x 1.874400 0.004230 0.016880 
#    y 0.004230 1.963310 0.038520 
#    z 0.016880 0.038520 2.007470 
# 
# From -- ./inp_files/390130.got.cif
#   From: 2010.05.17/outbox.cif.g08.bks.cpg/sg2_196_cif.got.tgz:390130.got - 2010.06.03 11:33:40.
