data_PCOD9013832
_publ_section_title
;
Structure prediction by ZEFSAII (Michael W. Deem and Ramdas Pophale) SiO2 
 PCOD9013832
Probable space group: P -1
;
_chemical_formula_sum "Si O2"
_cell_formula_units_Z 16
_cell_length_a 13.958610
_cell_length_b 15.358115
_cell_length_c 13.248750
_cell_angle_alpha 143.710443
_cell_angle_beta 56.770392
_cell_angle_gamma 149.311903
_cell_volume 752.383319
_symmetry_space_group_name_H-M "P -1"
_symmetry_group_IT_number 2
_symmetry_cell_setting 'triclinic'
loop_
_space_group_symop_operation_xyz
x,y,z
-x,-y,-z
loop_
_atom_site_type_symbol
_atom_site_label
_atom_site_fract_x
_atom_site_fract_y
_atom_site_fract_z
Si Si1 0.527528 0.681105 0.087548
Si Si2 0.497253 0.603115 0.502636
Si Si3 0.088679 0.813293 0.205908
Si Si4 0.809597 0.869057 0.922450
Si Si5 0.713079 0.275181 0.001421
Si Si6 0.305977 0.707317 0.738745
Si Si7 0.901438 0.328215 0.502501
Si Si8 0.085447 0.372777 0.090569
O O1 0.298187 0.511810 0.070092
O O2 0.703451 0.999875 0.309054
O O3 0.500000 0.500000 0.000000
O O4 0.624557 0.730941 0.972352
O O5 0.500000 0.500000 0.500000
O O6 0.318746 0.370174 0.306454
O O7 0.442225 0.707135 0.669258
O O8 0.739727 0.877005 0.577253
O O9 0.852180 0.562611 0.154107
O O10 0.192095 0.771127 0.145758
O O11 0.047097 0.758447 0.059266
O O12 0.000000 0.000000 0.000000
O O13 0.933369 0.124688 0.025174
O O14 0.743748 0.298440 0.125114
O O15 0.460183 0.996659 0.869093
O O16 0.099529 0.457781 0.559191
O O17 0.854979 0.411353 0.685052
O O18 0.000000 0.500000 0.500000
#
# Coordination Sequence:
#
# PCOD9013832 Si02
#       8
#     2   2   2   2   2   2   2   2
#     4  12  28  47  71 105 143 194 242 296 362 432
#     4  11  24  42  68 101 139 189 241 289 360 431
#     4  10  21  41  65  99 137 175 224 300 350 425
#     4  12  25  49  73 100 148 196 238 299 366 433
#     4   9  20  40  65  96 131 175 223 290 363 412
#     4  10  22  40  70  96 137 183 236 289 364 427
#     4  12  26  45  73 106 142 192 244 301 365 432
#     4  12  25  46  74 103 142 181 247 302 359 432
#
# _framework density 21.265756
#
# number of rings (size 3 to 8) (size 9 to 14) (size 15 to 20)
#    0.000    1.000    5.000    1.125    1.750    2.000 
#    2.250    1.250    0.000    0.000    0.000    0.000 
#    0.000    0.000    0.000    0.000    0.000    0.000 
#
# Total GULP energy -89227.245291 kJ/mol
# GULP energy per Si atom -5576.702831 kJ/mol
# Density = 2.121735 g / cm^3
# Si number density = 21.265756 Si / 1000 Ang^3
#
#
#
# Elastic Constant Matrix: (Units=GPa)
#
#
# Indices 1 2 3 4 5 6 
#
# 1 76.0818 32.7532 29.0478 7.8975 3.3903 10.9752
# 2 32.7532 127.2406 32.1047 23.8269 -6.6925 -4.4316
# 3 29.0478 32.1047 118.8119 24.4109 3.7938 -3.3579
# 4 7.8975 23.8269 24.4109 39.8339 -3.2832 -11.9662
# 5 3.3903 -6.6925 3.7938 -3.2832 26.0017 -0.8139
# 6 10.9752 -4.4316 -3.3579 -11.9662 -0.8139 19.2251
#
#
#
# Elastic Compliance Matrix: (Units=1/GPa)
#
#
# Indices 1 2 3 4 5 6 
#
# 1 0.018798 -0.004022 -0.002898 -0.004415 -0.004093 -0.015086
# 2 -0.004022 0.010069 -0.001007 -0.003692 0.002868 0.002265
# 3 -0.002898 -0.001007 0.010605 -0.005587 -0.002143 -0.000294
# 4 -0.004415 -0.003692 -0.005587 0.039873 0.006282 0.025777
# 5 -0.004093 0.002868 -0.002143 0.006282 0.041096 0.008273
# 6 -0.015086 0.002265 -0.000294 0.025777 0.008273 0.077493
#
#
# Mechanical properties :
#
#
# Convention : Reuss Voigt Hill
#
# Bulk Modulus (GPa) = 42.33576 56.66061 49.49819
# Shear Modulus (GPa) = 22.55694 32.22739 27.39217
#
# Velocity S-wave (km/s) = 3.26040 3.89711 3.59289
# Velocity P-wave (km/s) = 5.84164 6.85215 6.36697
#
# Compressibility (1/GPa) = 0.02362069
#
# Stress axis : x y z
#
# Youngs Moduli (GPa) = 53.19611 99.31009 94.29294
#
# Poissons Ratio (x) = 0.39940 0.27324
# Poissons Ratio (y) = 0.21394 0.09492
# Poissons Ratio (z) = 0.15415 0.09997
#
# Static dielectric constant tensor:
#      x y z
#    x 2.367290 -0.449030 0.790630 
#    y -0.449030 2.201570 -0.621150 
#    z 0.790630 -0.621150 2.953680 
# 
# From -- ./inp_files/455927.got.cif
#   From: 2010.05.17/outbox.cif.g08.bks.cpg/sg2_228_cif.got.tgz:455927.got - 2010.06.03 11:33:40.
