data_PCOD9013904
_publ_section_title
;
Structure prediction by ZEFSAII (Michael W. Deem and Ramdas Pophale) SiO2 
 PCOD9013904
Probable space group: P -1
;
_chemical_formula_sum "Si O2"
_cell_formula_units_Z 14
_cell_length_a 8.707537
_cell_length_b 9.928514
_cell_length_c 13.353146
_cell_angle_alpha 111.163895
_cell_angle_beta 83.372483
_cell_angle_gamma 40.235065
_cell_volume 528.933936
_symmetry_space_group_name_H-M "P -1"
_symmetry_group_IT_number 2
_symmetry_cell_setting 'triclinic'
loop_
_space_group_symop_operation_xyz
x,y,z
-x,-y,-z
loop_
_atom_site_type_symbol
_atom_site_label
_atom_site_fract_x
_atom_site_fract_y
_atom_site_fract_z
Si Si1 0.711772 0.830954 0.539294
Si Si2 0.906013 0.657044 0.152486
Si Si3 0.908925 0.249971 0.188015
Si Si4 0.777780 0.094105 0.614088
Si Si5 0.283956 0.633558 0.143876
Si Si6 0.282429 0.896739 0.875188
Si Si7 0.210019 0.274761 0.230185
O O1 0.975818 0.501814 0.400392
O O2 0.500000 0.000000 0.500000
O O3 0.454954 0.045824 0.704430
O O4 0.882601 0.845143 0.536705
O O5 0.026096 0.724982 0.157028
O O6 0.073845 0.440084 0.176192
O O7 0.000000 0.500000 0.000000
O O8 0.580582 0.600685 0.315100
O O9 0.841653 0.137395 0.191882
O O10 0.188050 0.118531 0.179806
O O11 0.001465 0.170921 0.042600
O O12 0.805541 0.149487 0.732446
O O13 0.000000 0.000000 0.500000
O O14 0.481125 0.383682 0.144909
O O15 0.500000 0.500000 0.000000
O O16 0.482663 0.874685 0.824841
#
# Coordination Sequence:
#
# PCOD9013904 Si02
#       7
#     2   2   2   2   2   2   2
#     4  10  17  30  47  75 105 127 170 217 259 310
#     4  10  19  31  48  75 107 135 172 213 265 319
#     4  10  18  32  54  72 114 137 172 219 268 308
#     4  11  19  31  53  80 106 134 173 219 267 308
#     4  10  21  33  51  76 105 135 174 222 263 308
#     4   9  20  33  49  82 103 140 180 214 261 323
#     4  10  19  33  53  79 107 134 175 219 268 307
#
# _framework density 26.468333999999999
#
# number of rings (size 3 to 8) (size 9 to 14) (size 15 to 20)
#    0.000    2.000    2.857    4.714    2.000    0.000 
#    0.000    0.000    0.000    0.857    0.000   16.000 
#    0.000    0.000    0.000    0.000    0.000    0.000 
#
# Total GULP energy -78382.156125 kJ/mol
# GULP energy per Si atom -5598.725437 kJ/mol
# Density = 2.640809 g / cm^3
# Si number density = 26.468334 Si / 1000 Ang^3
#
#
#
# Elastic Constant Matrix: (Units=GPa)
#
#
# Indices 1 2 3 4 5 6 
#
# 1 281.8677 42.6967 70.3506 -10.7452 -0.7224 6.4843
# 2 42.6967 62.5034 24.4122 -6.1283 -4.6190 -7.0288
# 3 70.3506 24.4122 147.0900 -20.6574 10.7409 -6.1483
# 4 -10.7452 -6.1283 -20.6574 48.0997 -0.8138 -5.9119
# 5 -0.7224 -4.6190 10.7409 -0.8138 58.4448 4.3116
# 6 6.4843 -7.0288 -6.1483 -5.9119 4.3116 55.1666
#
#
#
# Elastic Compliance Matrix: (Units=1/GPa)
#
#
# Indices 1 2 3 4 5 6 
#
# 1 0.004376 -0.002413 -0.001788 -0.000224 0.000268 -0.001066
# 2 -0.002413 0.018892 -0.001793 0.001435 0.001627 0.002517
# 3 -0.001788 -0.001793 0.008593 0.003207 -0.001803 0.001424
# 4 -0.000224 0.001435 0.003207 0.022666 -0.000386 0.003026
# 5 0.000268 0.001627 -0.001803 -0.000386 0.017675 -0.001448
# 6 -0.001066 0.002517 0.001424 0.003026 -0.001448 0.019169
#
#
# Mechanical properties :
#
#
# Convention : Reuss Voigt Hill
#
# Bulk Modulus (GPa) = 50.32238 85.15334 67.73786
# Shear Modulus (GPa) = 45.46099 55.94230 50.70164
#
# Velocity S-wave (km/s) = 4.14884 4.60233 4.38146
# Velocity P-wave (km/s) = 6.48106 7.77712 7.15848
#
# Compressibility (1/GPa) = 0.01987187
#
# Stress axis : x y z
#
# Youngs Moduli (GPa) = 228.50484 52.93236 116.37272
#
# Poissons Ratio (x) = 0.12773 0.20810
# Poissons Ratio (y) = 0.55142 0.20870
# Poissons Ratio (z) = 0.40861 0.09493
#
# Static dielectric constant tensor:
#      x y z
#    x 2.020670 -0.046030 -0.007140 
#    y -0.046030 2.322830 -0.042240 
#    z -0.007140 -0.042240 1.949000 
# 
# From -- ./inp_files/154931.got.cif
#   From: 2010.05.17/outbox.cif.g08.bks.cpg/sg2_78_cif.got.tgz:154931.got - 2010.06.03 11:33:40.
