data_PCOD9013442
_publ_section_title
;
Structure prediction by ZEFSAII (Michael W. Deem and Ramdas Pophale) SiO2 
 PCOD9013442
Probable space group: P -1
;
_chemical_formula_sum "Si O2"
_cell_formula_units_Z 16
_cell_length_a 10.510818
_cell_length_b 9.155113
_cell_length_c 18.639952
_cell_angle_alpha 73.981763
_cell_angle_beta 136.248984
_cell_angle_gamma 135.671671
_cell_volume 751.462503
_symmetry_space_group_name_H-M "P -1"
_symmetry_group_IT_number 2
_symmetry_cell_setting 'triclinic'
loop_
_space_group_symop_operation_xyz
x,y,z
-x,-y,-z
loop_
_atom_site_type_symbol
_atom_site_label
_atom_site_fract_x
_atom_site_fract_y
_atom_site_fract_z
Si Si1 0.189474 0.270829 0.559340
Si Si2 0.591332 0.403675 0.512632
Si Si3 0.238413 0.753266 0.969973
Si Si4 0.308843 0.491095 0.728839
Si Si5 0.130404 0.356353 0.034955
Si Si6 0.261011 0.947402 0.366084
Si Si7 0.670170 0.355040 0.705748
Si Si8 0.376092 0.002488 0.237193
O O1 0.171493 0.393002 0.476654
O O2 0.165731 0.328860 0.619891
O O3 0.510988 0.402003 0.664585
O O4 0.000000 0.000000 0.500000
O O5 0.500000 0.500000 0.500000
O O6 0.671341 0.353294 0.620425
O O7 0.327662 0.156926 0.396541
O O8 0.082203 0.753765 0.968160
O O9 0.995798 0.564754 0.837249
O O10 0.285209 0.618366 0.044570
O O11 0.500000 0.000000 0.000000
O O12 0.611394 0.596731 0.852422
O O13 0.064189 0.311107 0.713200
O O14 0.392594 0.720802 0.725475
O O15 0.912515 0.170484 0.906642
O O16 0.308246 0.981215 0.296262
O O17 0.500000 0.000000 0.500000
O O18 0.523009 0.108530 0.710758
#
# Coordination Sequence:
#
# PCOD9013442 Si02
#       8
#     2   2   2   2   2   2   2   2
#     4  11  23  39  66 100 129 175 226 276 341 398
#     4  10  21  41  64  95 134 167 224 279 329 402
#     4  10  22  42  71 101 133 174 222 287 341 390
#     4  12  25  44  70  96 138 185 220 284 336 396
#     4  10  24  45  66 104 135 174 236 272 336 409
#     4  12  26  45  65 100 139 176 229 275 338 407
#     4  10  21  43  64  95 134 173 224 280 334 404
#     4  11  25  44  69  96 139 183 224 278 337 406
#
# _framework density 21.291815
#
# number of rings (size 3 to 8) (size 9 to 14) (size 15 to 20)
#    0.000    1.250    3.750    1.875    0.000    8.000 
#    0.000    0.000    0.000    0.000    0.000    0.000 
#    0.000    0.000    0.000    0.000    0.000    0.000 
#
# Total GULP energy -89344.541031 kJ/mol
# GULP energy per Si atom -5584.033814 kJ/mol
# Density = 2.124335 g / cm^3
# Si number density = 21.291815 Si / 1000 Ang^3
#
#
#
# Elastic Constant Matrix: (Units=GPa)
#
#
# Indices 1 2 3 4 5 6 
#
# 1 63.5798 28.5222 27.8342 6.5360 -2.1835 3.1032
# 2 28.5222 150.7761 38.0809 25.0292 13.1119 9.3947
# 3 27.8342 38.0809 73.1004 2.5708 -15.6336 1.6331
# 4 6.5360 25.0292 2.5708 33.3405 -2.7057 0.8008
# 5 -2.1835 13.1119 -15.6336 -2.7057 36.1091 1.9272
# 6 3.1032 9.3947 1.6331 0.8008 1.9272 37.2504
#
#
#
# Elastic Compliance Matrix: (Units=1/GPa)
#
#
# Indices 1 2 3 4 5 6 
#
# 1 0.019633 -0.001380 -0.006966 -0.002373 -0.001460 -0.000855
# 2 -0.001380 0.010403 -0.006079 -0.007595 -0.006970 -0.001718
# 3 -0.006966 -0.006079 0.021784 0.005178 0.011582 0.000448
# 4 -0.002373 -0.007595 0.005178 0.036356 0.007542 0.000714
# 5 -0.001460 -0.006970 0.011582 0.007542 0.035750 -0.000640
# 6 -0.000855 -0.001718 0.000448 0.000714 -0.000640 0.027348
#
#
# Mechanical properties :
#
#
# Convention : Reuss Voigt Hill
#
# Bulk Modulus (GPa) = 43.53726 52.92565 48.23145
# Shear Modulus (GPa) = 26.62698 34.20793 30.41746
#
# Velocity S-wave (km/s) = 3.54018 4.01262 3.78378
# Velocity P-wave (km/s) = 6.09941 6.81024 6.46460
#
# Compressibility (1/GPa) = 0.02296883
#
# Stress axis : x y z
#
# Youngs Moduli (GPa) = 50.93548 96.12930 45.90596
#
# Poissons Ratio (x) = 0.13269 0.31978
# Poissons Ratio (y) = 0.07031 0.27905
# Poissons Ratio (z) = 0.35482 0.58435
#
# Static dielectric constant tensor:
#      x y z
#    x 1.781810 0.001130 -0.006370 
#    y 0.001130 1.880360 -0.013420 
#    z -0.006370 -0.013420 1.774990 
# 
# From -- ./inp_files/532582.got.cif
#   From: 2010.05.17/outbox.cif.g08.bks.cpg/sg2_267_cif.got.tgz:532582.got - 2010.06.03 11:33:40.
