data_PCOD9013277
_publ_section_title
;
Structure prediction by ZEFSAII (Michael W. Deem and Ramdas Pophale) SiO2 
 PCOD9013277
Probable space group: P -1
;
_chemical_formula_sum "Si O2"
_cell_formula_units_Z 14
_cell_length_a 11.293226
_cell_length_b 9.355288
_cell_length_c 9.885827
_cell_angle_alpha 99.067913
_cell_angle_beta 121.965357
_cell_angle_gamma 127.060295
_cell_volume 502.128748
_symmetry_space_group_name_H-M "P -1"
_symmetry_group_IT_number 2
_symmetry_cell_setting 'triclinic'
loop_
_space_group_symop_operation_xyz
x,y,z
-x,-y,-z
loop_
_atom_site_type_symbol
_atom_site_label
_atom_site_fract_x
_atom_site_fract_y
_atom_site_fract_z
Si Si1 0.054935 0.513294 0.846223
Si Si2 0.184647 0.884311 0.715797
Si Si3 0.726859 0.820435 0.421614
Si Si4 0.320681 0.690818 0.749584
Si Si5 0.369361 0.756562 0.319078
Si Si6 0.927360 0.096459 0.832367
Si Si7 0.391961 0.349583 0.272551
O O1 0.185555 0.595567 0.798307
O O2 0.845516 0.454025 0.734005
O O3 0.964561 0.280274 0.810807
O O4 0.247667 0.714865 0.105514
O O5 0.298132 0.837199 0.703616
O O6 0.893514 0.587060 0.501034
O O7 0.193520 0.032450 0.644430
O O8 0.389946 0.087397 0.992505
O O9 0.539140 0.773303 0.373331
O O10 0.574616 0.542321 0.288898
O O11 0.922587 0.980826 0.684286
O O12 0.500000 0.000000 0.500000
O O13 0.701960 0.886256 0.768852
O O14 0.156486 0.242282 0.078393
O O15 0.500000 0.500000 0.500000
#
# Coordination Sequence:
#
# PCOD9013277 Si02
#       7
#     2   2   2   2   2   2   2
#     4  11  20  30  47  69 101 133 164 195 238 291
#     4  10  19  30  50  68  97 130 165 201 245 288
#     4  11  18  31  47  69 101 129 159 200 240 292
#     4  10  19  32  46  70  96 133 166 200 239 292
#     4  11  20  29  45  67  96 137 164 193 237 291
#     4  10  17  30  46  65  93 126 160 200 241 294
#     4   9  19  29  45  65  90 126 159 198 248 289
#
# _framework density 27.881295000000001
#
# number of rings (size 3 to 8) (size 9 to 14) (size 15 to 20)
#    0.000    1.714    5.714    0.000    0.000    0.000 
#    0.000    0.000    0.000    0.000    0.000    0.000 
#    0.000   17.143    0.000    6.714    0.000    0.286 
#
# Total GULP energy -77984.123955 kJ/mol
# GULP energy per Si atom -5570.294568 kJ/mol
# Density = 2.781784 g / cm^3
# Si number density = 27.881295 Si / 1000 Ang^3
#
#
#
# Elastic Constant Matrix: (Units=GPa)
#
#
# Indices 1 2 3 4 5 6 
#
# 1 82.7877 10.7269 20.9969 1.0634 7.5062 6.8649
# 2 10.7269 187.6462 38.1643 15.6961 -13.1545 2.6825
# 3 20.9969 38.1643 199.5997 17.8541 8.4911 3.9129
# 4 1.0634 15.6961 17.8541 47.3917 -3.5216 -12.3938
# 5 7.5062 -13.1545 8.4911 -3.5216 32.1034 -11.0753
# 6 6.8649 2.6825 3.9129 -12.3938 -11.0753 19.8303
#
#
#
# Elastic Compliance Matrix: (Units=1/GPa)
#
#
# Indices 1 2 3 4 5 6 
#
# 1 0.013939 -0.000800 -0.000484 -0.003282 -0.007582 -0.010908
# 2 -0.000800 0.005889 -0.001081 -0.001133 0.002987 0.000654
# 3 -0.000484 -0.001081 0.005866 -0.003550 -0.004121 -0.005364
# 4 -0.003282 -0.001133 -0.003550 0.032007 0.015286 0.030532
# 5 -0.007582 0.002987 -0.004121 0.015286 0.051102 0.041129
# 6 -0.010908 0.000654 -0.005364 0.030532 0.041129 0.097227
#
#
# Mechanical properties :
#
#
# Convention : Reuss Voigt Hill
#
# Bulk Modulus (GPa) = 47.69400 67.75664 57.72532
# Shear Modulus (GPa) = 22.96243 46.54143 34.75193
#
# Velocity S-wave (km/s) = 2.87292 4.09010 3.53430
# Velocity P-wave (km/s) = 5.30548 6.83080 6.11588
#
# Compressibility (1/GPa) = 0.02096700
#
# Stress axis : x y z
#
# Youngs Moduli (GPa) = 71.73905 169.79465 170.48732
#
# Poissons Ratio (x) = 0.13576 0.08244
# Poissons Ratio (y) = 0.05736 0.18422
# Poissons Ratio (z) = 0.03469 0.18348
#
# Static dielectric constant tensor:
#      x y z
#    x 2.175750 0.006190 0.054630 
#    y 0.006190 2.277590 0.129300 
#    z 0.054630 0.129300 2.342730 
# 
# From -- ./inp_files/463775.got.cif
#   From: 2010.05.17/outbox.cif.g08.bks.cpg/sg2_232_cif.got.tgz:463775.got - 2010.06.03 11:33:40.
