data_PCOD9013721
_publ_section_title
;
Structure prediction by ZEFSAII (Michael W. Deem and Ramdas Pophale) SiO2 
 PCOD9013721
Probable space group: P -1
;
_chemical_formula_sum "Si O2"
_cell_formula_units_Z 16
_cell_length_a 20.634931
_cell_length_b 8.926673
_cell_length_c 10.111184
_cell_angle_alpha 117.622884
_cell_angle_beta 115.631108
_cell_angle_gamma 29.146241
_cell_volume 802.066132
_symmetry_space_group_name_H-M "P -1"
_symmetry_group_IT_number 2
_symmetry_cell_setting 'triclinic'
loop_
_space_group_symop_operation_xyz
x,y,z
-x,-y,-z
loop_
_atom_site_type_symbol
_atom_site_label
_atom_site_fract_x
_atom_site_fract_y
_atom_site_fract_z
Si Si1 0.109558 0.191896 0.881371
Si Si2 0.095400 0.336379 0.642202
Si Si3 0.697171 0.894266 0.919584
Si Si4 0.519814 0.758417 0.925008
Si Si5 0.588622 0.316700 0.373668
Si Si6 0.881638 0.361516 0.075729
Si Si7 0.267139 0.587574 0.858599
Si Si8 0.511694 0.808158 0.340887
O O1 0.079711 0.249484 0.722438
O O2 0.139045 0.943226 0.845137
O O3 0.239721 0.046527 0.975220
O O4 0.000000 0.500000 0.000000
O O5 0.065504 0.573738 0.783959
O O6 0.000000 0.500000 0.500000
O O7 0.251310 0.014754 0.607038
O O8 0.635237 0.949870 0.750386
O O9 0.800952 0.566520 0.954186
O O10 0.565420 0.149434 0.994570
O O11 0.466272 0.752370 0.759020
O O12 0.671508 0.436091 0.969802
O O13 0.500000 0.000000 0.000000
O O14 0.500000 0.500000 0.500000
O O15 0.559618 0.542485 0.351184
O O16 0.780359 0.491085 0.150142
O O17 0.000000 0.000000 0.000000
O O18 0.377868 0.366822 0.748950
O O19 0.500000 0.000000 0.500000
#
# Coordination Sequence:
#
# PCOD9013721 Si02
#       8
#     2   2   2   2   2   2   2   2
#     4  11  22  43  68  92 126 175 225 276 327 400
#     4  11  25  47  64  95 139 177 221 280 338 401
#     4  10  21  41  65  94 132 161 225 263 328 394
#     4  11  20  39  70  97 125 168 212 276 329 390
#     4  12  26  43  68  98 135 175 224 276 343 405
#     4  11  23  42  69  96 128 177 223 266 322 411
#     4  11  21  39  68  95 128 162 219 267 334 384
#     4  11  26  40  65  99 137 169 211 280 339 395
#
# _framework density 19.948481000000001
#
# number of rings (size 3 to 8) (size 9 to 14) (size 15 to 20)
#    0.000    1.000    5.000    2.250    5.250    6.000 
#    0.000    0.625    0.000    0.000    0.000    0.000 
#    0.000    0.000    0.000    0.000    0.000    0.000 
#
# Total GULP energy -89103.864928 kJ/mol
# GULP energy per Si atom -5568.991558 kJ/mol
# Density = 1.990308 g / cm^3
# Si number density = 19.948481 Si / 1000 Ang^3
#
#
#
# Elastic Constant Matrix: (Units=GPa)
#
#
# Indices 1 2 3 4 5 6 
#
# 1 68.3191 9.1062 21.0343 -5.6558 -2.3877 14.6411
# 2 9.1062 104.6090 65.5671 -11.7766 -0.2322 18.4803
# 3 21.0343 65.5671 129.4061 -17.8650 8.9389 0.6454
# 4 -5.6558 -11.7766 -17.8650 37.2877 -5.4281 -3.2886
# 5 -2.3877 -0.2322 8.9389 -5.4281 29.4269 6.7125
# 6 14.6411 18.4803 0.6454 -3.2886 6.7125 28.0120
#
#
#
# Elastic Compliance Matrix: (Units=1/GPa)
#
#
# Indices 1 2 3 4 5 6 
#
# 1 0.019214 0.004596 -0.005664 0.001379 0.006861 -0.014427
# 2 0.004596 0.018800 -0.010546 0.001264 0.007665 -0.016251
# 3 -0.005664 -0.010546 0.014829 0.002898 -0.007167 0.011634
# 4 0.001379 0.001264 0.002898 0.029540 0.004516 0.000764
# 5 0.006861 0.007665 -0.007167 0.004516 0.041702 -0.017941
# 6 -0.014427 -0.016251 0.011634 0.000764 -0.017941 0.058081
#
#
# Mechanical properties :
#
#
# Convention : Reuss Voigt Hill
#
# Bulk Modulus (GPa) = 33.76632 54.86104 44.31368
# Shear Modulus (GPa) = 23.22715 32.72043 27.97379
#
# Velocity S-wave (km/s) = 3.41597 4.05439 3.74879
# Velocity P-wave (km/s) = 5.70280 7.03410 6.40314
#
# Compressibility (1/GPa) = 0.02961531
#
# Stress axis : x y z
#
# Youngs Moduli (GPa) = 52.04555 53.19199 67.43595
#
# Poissons Ratio (x) = -0.24449 0.38193
# Poissons Ratio (y) = -0.23922 0.71121
# Poissons Ratio (z) = 0.29477 0.56099
#
# Static dielectric constant tensor:
#      x y z
#    x 1.762410 -0.000280 0.030990 
#    y -0.000280 1.736930 -0.040560 
#    z 0.030990 -0.040560 1.875300 
# 
# From -- ./inp_files/343784.got.cif
#   From: 2010.05.17/outbox.cif.g08.bks.cpg/sg2_172_cif.got.tgz:343784.got - 2010.06.03 11:33:40.
