data_PCOD9013419
_publ_section_title
;
Structure prediction by ZEFSAII (Michael W. Deem and Ramdas Pophale) SiO2 
 PCOD9013419
Probable space group: P -1
;
_chemical_formula_sum "Si O2"
_cell_formula_units_Z 14
_cell_length_a 12.797708
_cell_length_b 5.176948
_cell_length_c 12.192444
_cell_angle_alpha 76.006288
_cell_angle_beta 119.817847
_cell_angle_gamma 67.417172
_cell_volume 544.554606
_symmetry_space_group_name_H-M "P -1"
_symmetry_group_IT_number 2
_symmetry_cell_setting 'triclinic'
loop_
_space_group_symop_operation_xyz
x,y,z
-x,-y,-z
loop_
_atom_site_type_symbol
_atom_site_label
_atom_site_fract_x
_atom_site_fract_y
_atom_site_fract_z
Si Si1 0.018003 0.918417 0.253458
Si Si2 0.744524 0.652247 0.444706
Si Si3 0.733979 0.072920 0.736770
Si Si4 0.766780 0.941217 0.001901
Si Si5 0.574941 0.295776 0.416936
Si Si6 0.465199 0.343366 0.904890
Si Si7 0.847730 0.420818 0.287837
O O1 0.121058 0.527928 0.377481
O O2 0.120859 0.973633 0.230208
O O3 0.870987 0.038640 0.094393
O O4 0.986219 0.079834 0.342641
O O5 0.657267 0.480107 0.429437
O O6 0.827025 0.589910 0.376773
O O7 0.623259 0.038499 0.369828
O O8 0.650027 0.061517 0.589273
O O9 0.601323 0.444090 0.673875
O O10 0.788017 0.842985 0.896035
O O11 0.806216 0.662442 0.138670
O O12 0.588988 0.230572 0.889802
O O13 0.289833 0.601045 0.767441
O O14 0.500000 0.500000 0.000000
O O15 0.500000 0.000000 0.000000
#
# Coordination Sequence:
#
# PCOD9013419 Si02
#       7
#     2   2   2   2   2   2   2
#     4  11  25  44  67 107 145 190 230 290 359 429
#     4  11  26  47  77 103 141 186 244 294 353 416
#     4  10  24  47  72 103 142 188 242 289 351 425
#     4  11  24  43  70 103 144 188 230 294 358 421
#     4  10  25  51  75 105 134 192 245 297 340 414
#     4  10  21  41  64  94 135 174 227 279 337 410
#     4  11  25  44  70 108 142 185 234 295 360 421
#
# _framework density 25.709085000000002
#
# number of rings (size 3 to 8) (size 9 to 14) (size 15 to 20)
#    0.000    1.429    1.429    1.714    6.000    8.571 
#    7.714    0.000    0.000    0.000    0.000    0.000 
#    0.000    0.000    0.000    0.000    0.000    0.000 
#
# Total GULP energy -78193.580335 kJ/mol
# GULP energy per Si atom -5585.255738 kJ/mol
# Density = 2.565057 g / cm^3
# Si number density = 25.709085 Si / 1000 Ang^3
#
#
#
# Elastic Constant Matrix: (Units=GPa)
#
#
# Indices 1 2 3 4 5 6 
#
# 1 110.3229 38.8604 30.0193 1.6024 12.3611 -30.5115
# 2 38.8604 128.5908 7.5786 -7.4036 -8.7689 -19.5888
# 3 30.0193 7.5786 62.8190 9.7990 -8.6440 -14.0821
# 4 1.6024 -7.4036 9.7990 31.5669 -11.5412 3.7848
# 5 12.3611 -8.7689 -8.6440 -11.5412 45.7395 4.6806
# 6 -30.5115 -19.5888 -14.0821 3.7848 4.6806 45.4472
#
#
#
# Elastic Compliance Matrix: (Units=1/GPa)
#
#
# Indices 1 2 3 4 5 6 
#
# 1 0.014877 -0.003709 -0.005377 -0.003617 -0.007458 0.007792
# 2 -0.003709 0.009475 0.000889 0.003345 0.003707 0.001209
# 3 -0.005377 0.000889 0.020356 -0.004759 0.003955 0.003069
# 4 -0.003617 0.003345 -0.004759 0.039074 0.011282 -0.006877
# 5 -0.007458 0.003707 0.003955 0.011282 0.028807 -0.006090
# 6 0.007792 0.001209 0.003069 -0.006877 -0.006090 0.029907
#
#
# Mechanical properties :
#
#
# Convention : Reuss Voigt Hill
#
# Bulk Modulus (GPa) = 35.31947 50.51659 42.91803
# Shear Modulus (GPa) = 29.70412 39.56901 34.63657
#
# Velocity S-wave (km/s) = 3.40280 3.92740 3.67447
# Velocity P-wave (km/s) = 5.40432 6.34491 5.89341
#
# Compressibility (1/GPa) = 0.02831300
#
# Stress axis : x y z
#
# Youngs Moduli (GPa) = 67.21764 105.54619 49.12605
#
# Poissons Ratio (x) = 0.39144 0.26415
# Poissons Ratio (y) = 0.24929 -0.04365
# Poissons Ratio (z) = 0.36143 -0.09378
#
# Static dielectric constant tensor:
#      x y z
#    x 2.046190 -0.001870 -0.024700 
#    y -0.001870 2.113660 0.007770 
#    z -0.024700 0.007770 2.146770 
# 
# From -- ./inp_files/410309.got.cif
#   From: 2010.05.17/outbox.cif.g08.bks.cpg/sg2_206_cif.got.tgz:410309.got - 2010.06.03 11:33:40.
