data_PCOD9013406
_publ_section_title
;
Structure prediction by ZEFSAII (Michael W. Deem and Ramdas Pophale) SiO2 
 PCOD9013406
Probable space group: P -1
;
_chemical_formula_sum "Si O2"
_cell_formula_units_Z 16
_cell_length_a 12.119610
_cell_length_b 14.082004
_cell_length_c 8.648300
_cell_angle_alpha 107.856879
_cell_angle_beta 64.090643
_cell_angle_gamma 149.904351
_cell_volume 657.340724
_symmetry_space_group_name_H-M "P -1"
_symmetry_group_IT_number 2
_symmetry_cell_setting 'triclinic'
loop_
_space_group_symop_operation_xyz
x,y,z
-x,-y,-z
loop_
_atom_site_type_symbol
_atom_site_label
_atom_site_fract_x
_atom_site_fract_y
_atom_site_fract_z
Si Si1 0.844019 0.062145 0.707330
Si Si2 0.205079 0.047553 0.796780
Si Si3 0.319628 0.396137 0.422944
Si Si4 0.303931 0.618696 0.475452
Si Si5 0.057776 0.768337 0.940733
Si Si6 0.916172 0.477858 0.758458
Si Si7 0.437253 0.949496 0.192906
Si Si8 0.256337 0.183266 0.149292
O O1 0.695840 0.040009 0.691029
O O2 0.064159 0.182812 0.531321
O O3 0.704875 0.872147 0.768843
O O4 0.938163 0.183788 0.866036
O O5 0.427531 0.166739 0.621707
O O6 0.038084 0.844823 0.869295
O O7 0.320758 0.183448 0.942796
O O8 0.026574 0.995522 0.789768
O O9 0.500000 0.500000 0.500000
O O10 0.306590 0.504903 0.460946
O O11 0.374489 0.367680 0.224482
O O12 0.142187 0.516827 0.370574
O O13 0.168712 0.597150 0.666028
O O14 0.897874 0.559645 0.923378
O O15 0.317253 0.905763 0.805971
O O16 0.731254 0.261711 0.789324
O O17 0.500000 0.000000 0.000000
#
# Coordination Sequence:
#
# PCOD9013406 Si02
#       8
#     2   2   2   2   2   2   2   2
#     4  10  22  42  60  90 128 163 217 262 321 387
#     4  10  21  43  67  95 123 171 221 266 330 376
#     4  12  25  41  60  95 130 170 215 267 324 382
#     4  11  24  41  62  94 135 164 215 269 320 393
#     4  10  22  40  69  94 125 170 211 265 327 389
#     4  11  23  42  65  97 131 167 211 270 323 388
#     4  10  21  41  64  94 129 161 211 264 320 393
#     4  10  23  41  67  89 124 171 221 273 318 382
#
# _framework density 24.340496000000002
#
# number of rings (size 3 to 8) (size 9 to 14) (size 15 to 20)
#    0.000    1.500    2.500    1.875    0.000    6.000 
#    0.000    0.000    0.000    0.000    0.000    0.000 
#    0.000    0.000    0.000    0.000    0.000    0.000 
#
# Total GULP energy -89506.250637 kJ/mol
# GULP energy per Si atom -5594.140665 kJ/mol
# Density = 2.428510 g / cm^3
# Si number density = 24.340496 Si / 1000 Ang^3
#
#
#
# Elastic Constant Matrix: (Units=GPa)
#
#
# Indices 1 2 3 4 5 6 
#
# 1 135.0001 33.3850 14.2546 8.6361 1.2472 -25.1875
# 2 33.3850 50.6655 26.8247 15.1969 -1.3295 -12.6471
# 3 14.2546 26.8247 58.0235 14.9992 -6.1550 -20.2338
# 4 8.6361 15.1969 14.9992 29.8871 -8.8244 -14.1953
# 5 1.2472 -1.3295 -6.1550 -8.8244 24.2248 -5.4060
# 6 -25.1875 -12.6471 -20.2338 -14.1953 -5.4060 33.4638
#
#
#
# Elastic Compliance Matrix: (Units=1/GPa)
#
#
# Indices 1 2 3 4 5 6 
#
# 1 0.010406 -0.007662 0.003549 0.004925 0.003928 0.009806
# 2 -0.007662 0.034320 -0.014254 -0.015120 -0.008920 -0.009270
# 3 0.003549 -0.014254 0.029868 0.003859 0.012261 0.018961
# 4 0.004925 -0.015120 0.003859 0.061039 0.029029 0.030909
# 5 0.003928 -0.008920 0.012261 0.029029 0.060779 0.029132
# 6 0.009806 -0.009270 0.018961 0.030909 0.029132 0.063043
#
#
# Mechanical properties :
#
#
# Convention : Reuss Voigt Hill
#
# Bulk Modulus (GPa) = 26.41448 43.62417 35.01932
# Shear Modulus (GPa) = 16.19126 28.79680 22.49403
#
# Velocity S-wave (km/s) = 2.58194 3.44333 3.04327
# Velocity P-wave (km/s) = 4.44569 5.81120 5.17369
#
# Compressibility (1/GPa) = 0.03785803
#
# Stress axis : x y z
#
# Youngs Moduli (GPa) = 96.10150 29.13749 33.48118
#
# Poissons Ratio (x) = 0.22325 -0.11882
# Poissons Ratio (y) = 0.73633 0.47726
# Poissons Ratio (z) = -0.34105 0.41534
#
# Static dielectric constant tensor:
#      x y z
#    x 1.959690 0.000760 -0.031890 
#    y 0.000760 1.942730 0.023810 
#    z -0.031890 0.023810 1.940800 
# 
# From -- ./inp_files/273369.got.cif
#   From: 2010.05.17/outbox.cif.g08.bks.cpg/sg2_137_cif.got.tgz:273369.got - 2010.06.03 11:33:40.
