data_PCOD9013456
_publ_section_title
;
Structure prediction by ZEFSAII (Michael W. Deem and Ramdas Pophale) SiO2 
 PCOD9013456
Probable space group: P -1
;
_chemical_formula_sum "Si O2"
_cell_formula_units_Z 16
_cell_length_a 10.414815
_cell_length_b 12.597322
_cell_length_c 9.919826
_cell_angle_alpha 111.756837
_cell_angle_beta 126.557703
_cell_angle_gamma 110.658107
_cell_volume 620.879198
_symmetry_space_group_name_H-M "P -1"
_symmetry_group_IT_number 2
_symmetry_cell_setting 'triclinic'
loop_
_space_group_symop_operation_xyz
x,y,z
-x,-y,-z
loop_
_atom_site_type_symbol
_atom_site_label
_atom_site_fract_x
_atom_site_fract_y
_atom_site_fract_z
Si Si1 0.095272 0.109276 0.751016
Si Si2 0.021202 0.150266 0.246520
Si Si3 0.442172 0.597876 0.235097
Si Si4 0.064491 0.738793 0.331048
Si Si5 0.330704 0.794140 0.286297
Si Si6 0.837242 0.604459 0.755864
Si Si7 0.351990 0.610764 0.735381
Si Si8 0.193327 0.768435 0.709447
O O1 0.944241 0.143186 0.689751
O O2 0.389286 0.296500 0.006374
O O3 0.000000 0.000000 0.500000
O O4 0.074499 0.019783 0.829853
O O5 0.285873 0.306600 0.566137
O O6 0.104376 0.235051 0.188597
O O7 0.817545 0.133967 0.148151
O O8 0.465807 0.748569 0.325920
O O9 0.323037 0.490270 0.252611
O O10 0.226412 0.452939 0.925555
O O11 0.215869 0.831758 0.605414
O O12 0.188808 0.711884 0.302631
O O13 0.500000 0.000000 0.500000
O O14 0.105456 0.693122 0.993585
O O15 0.695776 0.457501 0.480246
O O16 0.090624 0.435048 0.557740
O O17 0.368360 0.756698 0.831068
#
# Coordination Sequence:
#
# PCOD9013456 Si02
#       8
#     2   2   2   2   2   2   2   2
#     4  12  26  44  62 102 140 176 221 283 344 388
#     4  11  24  41  62  99 133 177 221 278 341 383
#     4  11  23  42  72  97 133 182 226 270 323 410
#     4  11  22  42  68  95 136 178 229 266 333 403
#     4  11  24  44  69 105 133 173 219 281 341 391
#     4  10  22  45  67  98 131 180 231 269 330 406
#     4  10  23  42  68  95 133 174 228 272 338 401
#     4  10  21  41  64  96 125 178 225 270 326 405
#
# _framework density 25.769908999999998
#
# number of rings (size 3 to 8) (size 9 to 14) (size 15 to 20)
#    0.000    1.250    1.250    5.625    1.750    4.500 
#    6.750    3.750    0.000    0.000    0.000    0.000 
#    0.000    0.000    0.000    0.000    0.000    0.000 
#
# Total GULP energy -89497.815975 kJ/mol
# GULP energy per Si atom -5593.613498 kJ/mol
# Density = 2.571126 g / cm^3
# Si number density = 25.769909 Si / 1000 Ang^3
#
#
#
# Elastic Constant Matrix: (Units=GPa)
#
#
# Indices 1 2 3 4 5 6 
#
# 1 63.2052 8.4667 18.9306 -10.0433 2.7179 -25.7984
# 2 8.4667 123.0386 -16.0735 8.6767 5.4114 -16.8640
# 3 18.9306 -16.0735 85.9866 15.8254 5.7557 5.3677
# 4 -10.0433 8.6767 15.8254 35.8009 1.4653 1.0914
# 5 2.7179 5.4114 5.7557 1.4653 39.5846 -3.7325
# 6 -25.7984 -16.8640 5.3677 1.0914 -3.7325 36.6056
#
#
#
# Elastic Compliance Matrix: (Units=1/GPa)
#
#
# Indices 1 2 3 4 5 6 
#
# 1 0.030147 -0.001432 -0.010718 0.012822 0.001275 0.021906
# 2 -0.001432 0.009292 0.002662 -0.003871 -0.001144 0.002880
# 3 -0.010718 0.002662 0.017210 -0.010887 -0.002556 -0.008787
# 4 0.012822 -0.003871 -0.010887 0.037017 0.000598 0.007807
# 5 0.001275 -0.001144 -0.002556 0.000598 0.025999 0.003380
# 6 0.021906 0.002880 -0.008787 0.007807 0.003380 0.045484
#
#
# Mechanical properties :
#
#
# Convention : Reuss Voigt Hill
#
# Bulk Modulus (GPa) = 26.54464 32.76422 29.65443
# Shear Modulus (GPa) = 25.42140 39.79199 32.60670
#
# Velocity S-wave (km/s) = 3.14423 3.93380 3.56097
# Velocity P-wave (km/s) = 4.84815 5.77709 5.33289
#
# Compressibility (1/GPa) = 0.03767239
#
# Stress axis : x y z
#
# Youngs Moduli (GPa) = 33.17026 107.62154 58.10553
#
# Poissons Ratio (x) = 0.15416 0.62275
# Poissons Ratio (y) = 0.04751 -0.15465
# Poissons Ratio (z) = 0.35551 -0.28644
#
# Static dielectric constant tensor:
#      x y z
#    x 1.975960 0.010410 -0.024380 
#    y 0.010410 2.097930 0.074780 
#    z -0.024380 0.074780 1.993770 
# 
# From -- ./inp_files/428611.got.cif
#   From: 2010.05.17/outbox.cif.g08.bks.cpg/sg2_215_cif.got.tgz:428611.got - 2010.06.03 11:33:40.
