data_PCOD9013871
_publ_section_title
;
Structure prediction by ZEFSAII (Michael W. Deem and Ramdas Pophale) SiO2 
 PCOD9013871
Probable space group: P -1
;
_chemical_formula_sum "Si O2"
_cell_formula_units_Z 16
_cell_length_a 10.123204
_cell_length_b 15.212027
_cell_length_c 13.433736
_cell_angle_alpha 131.475179
_cell_angle_beta 146.831870
_cell_angle_gamma 70.657707
_cell_volume 711.284644
_symmetry_space_group_name_H-M "P -1"
_symmetry_group_IT_number 2
_symmetry_cell_setting 'triclinic'
loop_
_space_group_symop_operation_xyz
x,y,z
-x,-y,-z
loop_
_atom_site_type_symbol
_atom_site_label
_atom_site_fract_x
_atom_site_fract_y
_atom_site_fract_z
Si Si1 0.867179 0.334864 0.275079
Si Si2 0.323275 0.649008 0.186428
Si Si3 0.807893 0.723542 0.394332
Si Si4 0.401350 0.297381 0.219715
Si Si5 0.749713 0.904903 0.348732
Si Si6 0.952495 0.348449 0.677016
Si Si7 0.319326 0.391492 0.449414
Si Si8 0.168285 0.836055 0.342371
O O1 0.000000 0.500000 0.500000
O O2 0.986282 0.280452 0.396041
O O3 0.011310 0.330476 0.259589
O O4 0.523235 0.236975 0.975517
O O5 0.516561 0.680753 0.235272
O O6 0.484554 0.623816 0.358300
O O7 0.282666 0.770937 0.287274
O O8 0.025548 0.500740 0.869886
O O9 0.888287 0.863910 0.493113
O O10 0.804317 0.631603 0.230659
O O11 0.652432 0.270038 0.370672
O O12 0.311489 0.316358 0.287092
O O13 0.536454 0.445378 0.360229
O O14 0.121845 0.186022 0.901522
O O15 0.635228 0.001203 0.386185
O O16 0.000000 0.000000 0.500000
O O17 0.916426 0.258768 0.683344
#
# Coordination Sequence:
#
# PCOD9013871 Si02
#       8
#     2   2   2   2   2   2   2   2
#     4  11  28  48  76 109 147 187 246 313 361 439
#     4  11  23  44  70 110 145 191 242 313 361 424
#     4  11  28  45  75 106 145 193 244 302 370 427
#     4  11  23  38  71 107 140 194 229 300 363 428
#     4  12  30  50  71 106 149 201 246 295 370 447
#     4  12  23  42  72 109 146 188 247 304 361 432
#     4  10  21  41  66 109 145 176 248 293 364 423
#     4  12  26  46  69 101 154 189 246 294 364 444
#
# _framework density 22.494509000000001
#
# number of rings (size 3 to 8) (size 9 to 14) (size 15 to 20)
#    0.000    0.750    3.750    3.000   12.250    2.000 
#    0.000    1.250    0.000    0.000    0.000    0.000 
#    0.000    0.000    0.000    0.000    0.000    0.000 
#
# Total GULP energy -89528.852991 kJ/mol
# GULP energy per Si atom -5595.553312 kJ/mol
# Density = 2.244331 g / cm^3
# Si number density = 22.494509 Si / 1000 Ang^3
#
#
#
# Elastic Constant Matrix: (Units=GPa)
#
#
# Indices 1 2 3 4 5 6 
#
# 1 134.7855 40.8023 24.4826 15.9269 9.2735 -4.2410
# 2 40.8023 124.1441 43.0506 2.1267 -0.0526 4.6950
# 3 24.4826 43.0506 93.2760 -1.1488 11.3823 -4.4439
# 4 15.9269 2.1267 -1.1488 31.9180 -9.7284 -1.3197
# 5 9.2735 -0.0526 11.3823 -9.7284 23.8694 7.3854
# 6 -4.2410 4.6950 -4.4439 -1.3197 7.3854 35.7385
#
#
#
# Elastic Compliance Matrix: (Units=1/GPa)
#
#
# Indices 1 2 3 4 5 6 
#
# 1 0.009812 -0.003162 -0.000161 -0.006830 -0.007404 0.002837
# 2 -0.003162 0.010944 -0.005054 0.002250 0.005672 -0.003531
# 3 -0.000161 -0.005054 0.014338 -0.001548 -0.008707 0.004170
# 4 -0.006830 0.002250 -0.001548 0.040868 0.021353 -0.004202
# 5 -0.007404 0.005672 -0.008707 0.021353 0.062209 -0.014774
# 6 0.002837 -0.003531 0.004170 -0.004202 -0.014774 0.032198
#
#
# Mechanical properties :
#
#
# Convention : Reuss Voigt Hill
#
# Bulk Modulus (GPa) = 54.52876 63.20852 58.86864
# Shear Modulus (GPa) = 25.87503 34.56320 30.21911
#
# Velocity S-wave (km/s) = 3.39526 3.92410 3.66922
# Velocity P-wave (km/s) = 6.29793 6.97796 6.64665
#
# Compressibility (1/GPa) = 0.01833895
#
# Stress axis : x y z
#
# Youngs Moduli (GPa) = 101.92088 91.37022 69.74547
#
# Poissons Ratio (x) = 0.28894 0.01125
# Poissons Ratio (y) = 0.32230 0.35249
# Poissons Ratio (z) = 0.01643 0.46178
#
# Static dielectric constant tensor:
#      x y z
#    x 1.865980 -0.027050 -0.008110 
#    y -0.027050 1.816790 -0.011170 
#    z -0.008110 -0.011170 1.819180 
# 
# From -- ./inp_files/522455.got.cif
#   From: 2010.05.17/outbox.cif.g08.bks.cpg/sg2_262_cif.got.tgz:522455.got - 2010.06.03 11:33:40.
