data_PCOD9013624
_publ_section_title
;
Structure prediction by ZEFSAII (Michael W. Deem and Ramdas Pophale) SiO2 
 PCOD9013624
Probable space group: P -1
;
_chemical_formula_sum "Si O2"
_cell_formula_units_Z 16
_cell_length_a 16.023436
_cell_length_b 16.276218
_cell_length_c 16.226047
_cell_angle_alpha 142.167435
_cell_angle_beta 17.358351
_cell_angle_gamma 143.068469
_cell_volume 750.045529
_symmetry_space_group_name_H-M "P -1"
_symmetry_group_IT_number 2
_symmetry_cell_setting 'triclinic'
loop_
_space_group_symop_operation_xyz
x,y,z
-x,-y,-z
loop_
_atom_site_type_symbol
_atom_site_label
_atom_site_fract_x
_atom_site_fract_y
_atom_site_fract_z
Si Si1 0.045645 0.930021 0.314585
Si Si2 0.581045 0.527380 0.850222
Si Si3 0.483555 0.035667 0.238600
Si Si4 0.248305 0.872206 0.605545
Si Si5 0.840842 0.615327 0.209175
Si Si6 0.704004 0.347195 0.323570
Si Si7 0.040484 0.616982 0.714506
Si Si8 0.654653 0.836960 0.052332
O O1 0.853754 0.998249 0.488662
O O2 0.919809 0.761228 0.300950
O O3 0.351061 0.954190 0.997943
O O4 0.000000 0.000000 0.500000
O O5 0.858308 0.477615 0.523206
O O6 0.648666 0.690194 0.901588
O O7 0.500000 0.500000 0.000000
O O8 0.300927 0.438105 0.995477
O O9 0.545721 0.186173 0.340808
O O10 0.579701 0.935487 0.131983
O O11 0.131556 0.769237 0.709646
O O12 0.964757 0.901477 0.853577
O O13 0.500000 0.000000 0.500000
O O14 0.411231 0.807853 0.329966
O O15 0.500964 0.576796 0.475817
O O16 0.000000 0.500000 0.000000
O O17 0.997120 0.648252 0.000139
O O18 0.784126 0.394633 0.377512
#
# Coordination Sequence:
#
# PCOD9013624 Si02
#       8
#     2   2   2   2   2   2   2   2
#     4  10  21  41  66  92 125 164 201 252 322 388
#     4  12  23  42  62  83 128 176 206 258 316 371
#     4  10  22  41  64  90 126 161 202 261 314 369
#     4  12  24  38  63  91 121 162 211 264 304 370
#     4  10  21  41  65  91 125 160 200 255 322 384
#     4  10  22  40  64  90 123 159 203 260 315 364
#     4  12  23  41  62  89 124 166 217 255 313 376
#     4  12  24  41  61  89 127 164 213 252 317 371
#
# _framework density 21.332037
#
# number of rings (size 3 to 8) (size 9 to 14) (size 15 to 20)
#    0.000    1.000    2.500    4.500    0.000    3.000 
#    6.750    0.000    0.000    0.000    0.000    0.000 
#    0.000    0.000    0.000    0.000    0.000    0.000 
#
# Total GULP energy -89334.946918 kJ/mol
# GULP energy per Si atom -5583.434182 kJ/mol
# Density = 2.128348 g / cm^3
# Si number density = 21.332037 Si / 1000 Ang^3
#
#
#
# Elastic Constant Matrix: (Units=GPa)
#
#
# Indices 1 2 3 4 5 6 
#
# 1 97.7602 36.4117 20.1095 12.1068 -11.8183 3.0413
# 2 36.4117 77.8345 9.6019 15.5245 -18.7198 -3.2034
# 3 20.1095 9.6019 96.3619 -0.4033 -13.7458 12.3202
# 4 12.1068 15.5245 -0.4033 34.0106 0.7411 -7.1919
# 5 -11.8183 -18.7198 -13.7458 0.7411 40.0553 11.4250
# 6 3.0413 -3.2034 12.3202 -7.1919 11.4250 19.8470
#
#
#
# Elastic Compliance Matrix: (Units=1/GPa)
#
#
# Indices 1 2 3 4 5 6 
#
# 1 0.013222 -0.004885 -0.001302 -0.003564 0.002606 -0.004797
# 2 -0.004885 0.018616 0.001118 -0.008046 0.009273 -0.005194
# 3 -0.001302 0.001118 0.013647 -0.003125 0.008986 -0.014397
# 4 -0.003564 -0.008046 -0.003125 0.039477 -0.013201 0.023091
# 5 0.002606 0.009273 0.008986 -0.013201 0.043118 -0.034085
# 6 -0.004797 -0.005194 -0.014397 0.023091 -0.034085 0.087208
#
#
# Mechanical properties :
#
#
# Convention : Reuss Voigt Hill
#
# Bulk Modulus (GPa) = 28.29140 44.91141 36.60141
# Shear Modulus (GPa) = 21.07842 32.50481 26.79162
#
# Velocity S-wave (km/s) = 3.14683 3.90777 3.54776
# Velocity P-wave (km/s) = 5.14729 6.43895 5.82901
#
# Compressibility (1/GPa) = 0.03534642
#
# Stress axis : x y z
#
# Youngs Moduli (GPa) = 75.63199 53.71646 73.27438
#
# Poissons Ratio (x) = 0.26239 0.09543
# Poissons Ratio (y) = 0.36944 -0.08189
# Poissons Ratio (z) = 0.09850 -0.06003
#
# Static dielectric constant tensor:
#      x y z
#    x 1.803960 0.032300 -0.012310 
#    y 0.032300 1.802620 0.001670 
#    z -0.012310 0.001670 1.762680 
# 
# From -- ./inp_files/439291.got.cif
#   From: 2010.05.17/outbox.cif.g08.bks.cpg/sg2_220_cif.got.tgz:439291.got - 2010.06.03 11:33:40.
