data_PCOD9013094
_publ_section_title
;
Structure prediction by ZEFSAII (Michael W. Deem and Ramdas Pophale) SiO2 
 PCOD9013094
Probable space group: P -1
;
_chemical_formula_sum "Si O2"
_cell_formula_units_Z 14
_cell_length_a 7.581457
_cell_length_b 6.589074
_cell_length_c 16.273307
_cell_angle_alpha 103.286672
_cell_angle_beta 69.644683
_cell_angle_gamma 63.295434
_cell_volume 604.190967
_symmetry_space_group_name_H-M "P -1"
_symmetry_group_IT_number 2
_symmetry_cell_setting 'triclinic'
loop_
_space_group_symop_operation_xyz
x,y,z
-x,-y,-z
loop_
_atom_site_type_symbol
_atom_site_label
_atom_site_fract_x
_atom_site_fract_y
_atom_site_fract_z
Si Si1 0.925409 0.895993 0.198862
Si Si2 0.482604 0.675675 0.592315
Si Si3 0.790057 0.260953 0.645132
Si Si4 0.405620 0.649415 0.132494
Si Si5 0.745903 0.673513 0.888304
Si Si6 0.646796 0.896989 0.095619
Si Si7 0.163327 0.218560 0.487339
O O1 0.786359 0.940815 0.142178
O O2 0.163672 0.869719 0.148586
O O3 0.018531 0.606342 0.185078
O O4 0.765633 0.112810 0.310310
O O5 0.500000 0.500000 0.500000
O O6 0.627099 0.480853 0.625856
O O7 0.594530 0.818792 0.554813
O O8 0.676823 0.338359 0.759388
O O9 0.035922 0.220052 0.590231
O O10 0.822072 0.999134 0.590051
O O11 0.438482 0.396620 0.067290
O O12 0.613296 0.676643 0.105128
O O13 0.618221 0.856103 0.848847
O O14 0.753902 0.814796 0.979554
O O15 0.000000 0.500000 0.500000
#
# Coordination Sequence:
#
# PCOD9013094 Si02
#       7
#     2   2   2   2   2   2   2
#     4  10  24  42  64  99 131 165 222 266 317 396
#     4  11  24  43  60  93 131 171 222 272 320 383
#     4  10  21  41  63  89 126 172 217 267 330 381
#     4  10  23  40  64  96 130 167 213 263 323 391
#     4   9  23  41  69 100 125 171 218 261 325 396
#     4  11  20  47  68  92 138 168 207 274 327 379
#     4   9  21  38  65  84 116 171 215 273 320 373
#
# _framework density 23.171482999999998
#
# number of rings (size 3 to 8) (size 9 to 14) (size 15 to 20)
#    0.857    1.143    0.000    2.571    6.000    1.714 
#   10.286    1.429    0.000    0.000    0.000    0.000 
#    0.000    0.000    0.000    0.000    0.000    0.000 
#
# Total GULP energy -78073.821355 kJ/mol
# GULP energy per Si atom -5576.701525 kJ/mol
# Density = 2.311874 g / cm^3
# Si number density = 23.171483 Si / 1000 Ang^3
#
#
#
# Elastic Constant Matrix: (Units=GPa)
#
#
# Indices 1 2 3 4 5 6 
#
# 1 91.3558 23.8877 31.7802 -8.8417 11.9034 2.1482
# 2 23.8877 80.3845 26.1081 11.8125 6.2962 -1.5429
# 3 31.7802 26.1081 111.8586 13.2941 11.6038 -14.8366
# 4 -8.8417 11.8125 13.2941 40.1464 -10.3431 -2.5012
# 5 11.9034 6.2962 11.6038 -10.3431 33.5542 -4.5421
# 6 2.1482 -1.5429 -14.8366 -2.5012 -4.5421 45.3823
#
#
#
# Elastic Compliance Matrix: (Units=1/GPa)
#
#
# Indices 1 2 3 4 5 6 
#
# 1 0.013913 -0.003509 -0.003774 0.004773 -0.001762 -0.001925
# 2 -0.003509 0.015011 -0.001643 -0.005372 -0.002718 -0.000429
# 3 -0.003774 -0.001643 0.011791 -0.004945 -0.003501 0.003355
# 4 0.004773 -0.005372 -0.004945 0.032071 0.011026 0.000846
# 5 -0.001762 -0.002718 -0.003501 0.011026 0.035960 0.003053
# 6 -0.001925 -0.000429 0.003355 0.000846 0.003053 0.023560
#
#
# Mechanical properties :
#
#
# Convention : Reuss Voigt Hill
#
# Bulk Modulus (GPa) = 43.73753 49.68345 46.71049
# Shear Modulus (GPa) = 31.68964 37.27145 34.48055
#
# Velocity S-wave (km/s) = 3.70214 4.01497 3.86172
# Velocity P-wave (km/s) = 6.09844 6.55603 6.33137
#
# Compressibility (1/GPa) = 0.02286366
#
# Stress axis : x y z
#
# Youngs Moduli (GPa) = 71.87397 66.61881 84.80828
#
# Poissons Ratio (x) = 0.23378 0.32003
# Poissons Ratio (y) = 0.25222 0.13934
# Poissons Ratio (z) = 0.27122 0.10946
#
# Static dielectric constant tensor:
#      x y z
#    x 1.876900 -0.020000 -0.005190 
#    y -0.020000 1.959420 -0.007950 
#    z -0.005190 -0.007950 1.877840 
# 
# From -- ./inp_files/552925.got.cif
#   From: 2010.05.17/outbox.cif.g08.bks.cpg/sg2_277_cif.got.tgz:552925.got - 2010.06.03 11:33:40.
