data_PCOD9013612
_publ_section_title
;
Structure prediction by ZEFSAII (Michael W. Deem and Ramdas Pophale) SiO2 
 PCOD9013612
Probable space group: P -1
;
_chemical_formula_sum "Si O2"
_cell_formula_units_Z 14
_cell_length_a 15.006224
_cell_length_b 10.379254
_cell_length_c 8.428282
_cell_angle_alpha 121.929608
_cell_angle_beta 147.548696
_cell_angle_gamma 55.264170
_cell_volume 575.411142
_symmetry_space_group_name_H-M "P -1"
_symmetry_group_IT_number 2
_symmetry_cell_setting 'triclinic'
loop_
_space_group_symop_operation_xyz
x,y,z
-x,-y,-z
loop_
_atom_site_type_symbol
_atom_site_label
_atom_site_fract_x
_atom_site_fract_y
_atom_site_fract_z
Si Si1 0.263305 0.659730 0.800169
Si Si2 0.820284 0.955709 0.740579
Si Si3 0.606722 0.531657 0.418256
Si Si4 0.804546 0.048912 0.299577
Si Si5 0.342336 0.125762 0.255931
Si Si6 0.004336 0.323973 0.342155
Si Si7 0.256765 0.752263 0.343939
O O1 0.258685 0.548833 0.571576
O O2 0.306845 0.808841 0.885348
O O3 0.089964 0.725976 0.681129
O O4 0.414662 0.567020 0.081217
O O5 0.806165 0.892666 0.854018
O O6 0.821798 0.809194 0.530167
O O7 0.688468 0.127474 0.618970
O O8 0.000000 0.000000 0.000000
O O9 0.642479 0.697645 0.612505
O O10 0.622799 0.403929 0.497665
O O11 0.797429 0.126297 0.511020
O O12 0.000000 0.000000 0.500000
O O13 0.712301 0.916026 0.028625
O O14 0.500000 0.000000 0.500000
O O15 0.000000 0.500000 0.500000
O O16 0.883641 0.316591 0.004099
#
# Coordination Sequence:
#
# PCOD9013612 Si02
#       7
#     2   2   2   2   2   2   2
#     4  10  21  41  65  90 134 185 207 269 350 398
#     4  10  22  43  66  96 136 177 216 271 342 400
#     4  10  23  41  66  98 134 169 231 273 329 400
#     4  11  21  39  67  96 132 174 223 272 334 395
#     4  12  24  43  70  99 131 180 229 271 332 404
#     4  11  22  40  67  96 132 177 223 272 339 395
#     4  10  23  40  64  97 133 173 218 278 331 396
#
# _framework density 24.330428000000001
#
# number of rings (size 3 to 8) (size 9 to 14) (size 15 to 20)
#    0.000    1.429    1.429    5.143    0.000    2.857 
#    0.000    7.857    0.000    0.000    0.000    0.000 
#    0.000    0.000    0.000    0.000    0.000    0.000 
#
# Total GULP energy -78101.870466 kJ/mol
# GULP energy per Si atom -5578.705033 kJ/mol
# Density = 2.427505 g / cm^3
# Si number density = 24.330428 Si / 1000 Ang^3
#
#
#
# Elastic Constant Matrix: (Units=GPa)
#
#
# Indices 1 2 3 4 5 6 
#
# 1 71.2041 24.2600 10.7852 12.0088 -20.4029 -11.9911
# 2 24.2600 163.7743 57.8608 23.0876 -26.0100 17.5968
# 3 10.7852 57.8608 97.0172 29.6972 -27.5997 -9.9679
# 4 12.0088 23.0876 29.6972 55.8480 -3.4287 -14.0814
# 5 -20.4029 -26.0100 -27.5997 -3.4287 23.8937 1.7357
# 6 -11.9911 17.5968 -9.9679 -14.0814 1.7357 45.3385
#
#
#
# Elastic Compliance Matrix: (Units=1/GPa)
#
#
# Indices 1 2 3 4 5 6 
#
# 1 0.022688 -0.002137 0.008185 -0.005276 0.025308 0.006022
# 2 -0.002137 0.009529 -0.004232 -0.002545 0.003739 -0.006127
# 3 0.008185 -0.004232 0.023065 -0.009355 0.027324 0.004927
# 4 -0.005276 -0.002545 -0.009355 0.025690 -0.014837 0.006082
# 5 0.025308 0.003739 0.027324 -0.014837 0.096753 0.002937
# 6 0.006022 -0.006127 0.004927 0.006082 0.002937 0.028887
#
#
# Mechanical properties :
#
#
# Convention : Reuss Voigt Hill
#
# Bulk Modulus (GPa) = 16.97381 57.53419 37.25400
# Shear Modulus (GPa) = 22.46027 40.95537 31.70782
#
# Velocity S-wave (km/s) = 3.04161 4.10725 3.61393
# Velocity P-wave (km/s) = 4.39621 6.79640 5.72354
#
# Compressibility (1/GPa) = 0.05891429
#
# Stress axis : x y z
#
# Youngs Moduli (GPa) = 44.07640 104.94699 43.35629
#
# Poissons Ratio (x) = 0.22424 -0.35489
# Poissons Ratio (y) = 0.09418 0.18349
# Poissons Ratio (z) = -0.36078 0.44415
#
# Static dielectric constant tensor:
#      x y z
#    x 2.034800 -0.050810 0.023190 
#    y -0.050810 2.062650 -0.053290 
#    z 0.023190 -0.053290 1.987110 
# 
# From -- ./inp_files/209127.got.cif
#   From: 2010.05.17/outbox.cif.g08.bks.cpg/sg2_105_cif.got.tgz:209127.got - 2010.06.03 11:33:40.
