data_PCOD9013069
_publ_section_title
;
Structure prediction by ZEFSAII (Michael W. Deem and Ramdas Pophale) SiO2 
 PCOD9013069
Probable space group: P -1
;
_chemical_formula_sum "Si O2"
_cell_formula_units_Z 16
_cell_length_a 5.225647
_cell_length_b 11.145349
_cell_length_c 13.037420
_cell_angle_alpha 64.167887
_cell_angle_beta 61.597583
_cell_angle_gamma 76.233135
_cell_volume 600.725834
_symmetry_space_group_name_H-M "P -1"
_symmetry_group_IT_number 2
_symmetry_cell_setting 'triclinic'
loop_
_space_group_symop_operation_xyz
x,y,z
-x,-y,-z
loop_
_atom_site_type_symbol
_atom_site_label
_atom_site_fract_x
_atom_site_fract_y
_atom_site_fract_z
Si Si1 0.477194 0.597019 0.565705
Si Si2 0.378371 0.725854 0.170513
Si Si3 0.142251 0.341983 0.364303
Si Si4 0.394872 0.700021 0.875398
Si Si5 0.750973 0.572753 0.004154
Si Si6 0.030683 0.148764 0.967243
Si Si7 0.839676 0.140763 0.642492
Si Si8 0.573447 0.920299 0.410195
O O1 0.500000 0.500000 0.500000
O O2 0.736024 0.560963 0.608436
O O3 0.531854 0.756510 0.479063
O O4 0.136363 0.593006 0.666198
O O5 0.105446 0.756837 0.134936
O O6 0.284365 0.745305 0.299350
O O7 0.634631 0.830524 0.079866
O O8 0.566117 0.600338 0.134155
O O9 0.427543 0.299700 0.262689
O O10 0.014807 0.214062 0.491524
O O11 0.666206 0.704499 0.903365
O O12 0.118701 0.591420 0.946302
O O13 0.178137 0.814239 0.913095
O O14 0.500000 0.500000 0.000000
O O15 0.000000 0.000000 0.000000
O O16 0.626133 0.044388 0.662083
O O17 0.091072 0.060764 0.684432
O O18 0.500000 0.000000 0.500000
#
# Coordination Sequence:
#
# PCOD9013069 Si02
#       8
#     2   2   2   2   2   2   2   2
#     4  10  22  40  62  89 133 175 217 265 326 397
#     4  11  23  43  70  98 133 174 224 277 337 397
#     4  10  23  41  64 101 137 172 217 272 336 407
#     4  10  23  41  66 100 133 175 223 278 337 393
#     4  10  21  41  68  94 132 173 225 279 331 391
#     4  11  24  45  68  96 132 176 229 280 331 391
#     4  10  22  43  65 100 134 175 218 269 336 406
#     4  10  21  41  63  87 133 176 221 263 316 403
#
# _framework density 26.634444999999999
#
# number of rings (size 3 to 8) (size 9 to 14) (size 15 to 20)
#    0.000    1.750    1.250    1.875    1.750    4.000 
#   13.500    0.000    0.000    0.000    0.000    0.000 
#    0.000    0.000    0.000    0.000    0.000    0.000 
#
# Total GULP energy -89181.127472 kJ/mol
# GULP energy per Si atom -5573.820467 kJ/mol
# Density = 2.657382 g / cm^3
# Si number density = 26.634445 Si / 1000 Ang^3
#
#
#
# Elastic Constant Matrix: (Units=GPa)
#
#
# Indices 1 2 3 4 5 6 
#
# 1 160.6007 17.3995 19.7315 -7.4464 -14.8381 24.5354
# 2 17.3995 145.0904 39.6383 38.0716 2.9179 14.0255
# 3 19.7315 39.6383 117.9141 27.0428 -13.6601 -2.9944
# 4 -7.4464 38.0716 27.0428 43.3683 -1.4263 -0.0448
# 5 -14.8381 2.9179 -13.6601 -1.4263 34.0675 7.8632
# 6 24.5354 14.0255 -2.9944 -0.0448 7.8632 35.1843
#
#
#
# Elastic Compliance Matrix: (Units=1/GPa)
#
#
# Indices 1 2 3 4 5 6 
#
# 1 0.008051 -0.000891 -0.001404 0.003186 0.004633 -0.006409
# 2 -0.000891 0.009822 -0.001609 -0.007824 -0.001485 -0.003109
# 3 -0.001404 -0.001609 0.010954 -0.005550 0.003267 0.001816
# 4 0.003186 -0.007824 -0.005550 0.033975 0.001210 0.000198
# 5 0.004633 -0.001485 0.003267 0.001210 0.035220 -0.010230
# 6 -0.006409 -0.003109 0.001816 0.000198 -0.010230 0.036572
#
#
# Mechanical properties :
#
#
# Convention : Reuss Voigt Hill
#
# Bulk Modulus (GPa) = 47.58067 64.12707 55.85387
# Shear Modulus (GPa) = 33.46509 45.64640 39.55575
#
# Velocity S-wave (km/s) = 3.54850 4.14431 3.85793
# Velocity P-wave (km/s) = 5.89001 6.85780 6.39225
#
# Compressibility (1/GPa) = 0.02101694
#
# Stress axis : x y z
#
# Youngs Moduli (GPa) = 124.21312 101.80945 91.29012
#
# Poissons Ratio (x) = 0.09076 0.12821
# Poissons Ratio (y) = 0.11073 0.14691
# Poissons Ratio (z) = 0.17444 0.16383
#
# Static dielectric constant tensor:
#      x y z
#    x 2.245730 0.063670 0.055500 
#    y 0.063670 2.025250 -0.034790 
#    z 0.055500 -0.034790 2.169200 
# 
# From -- ./inp_files/482174.got.cif
#   From: 2010.05.17/outbox.cif.g08.bks.cpg/sg2_242_cif.got.tgz:482174.got - 2010.06.03 11:33:40.
