data_PCOD9013866
_publ_section_title
;
Structure prediction by ZEFSAII (Michael W. Deem and Ramdas Pophale) SiO2 
 PCOD9013866
Probable space group: P -1
;
_chemical_formula_sum "Si O2"
_cell_formula_units_Z 14
_cell_length_a 9.930330
_cell_length_b 9.829411
_cell_length_c 12.667850
_cell_angle_alpha 127.085103
_cell_angle_beta 128.381359
_cell_angle_gamma 45.286225
_cell_volume 657.448314
_symmetry_space_group_name_H-M "P -1"
_symmetry_group_IT_number 2
_symmetry_cell_setting 'triclinic'
loop_
_space_group_symop_operation_xyz
x,y,z
-x,-y,-z
loop_
_atom_site_type_symbol
_atom_site_label
_atom_site_fract_x
_atom_site_fract_y
_atom_site_fract_z
Si Si1 0.669603 0.056059 0.598976
Si Si2 0.455013 0.480257 0.588876
Si Si3 0.071450 0.872769 0.085083
Si Si4 0.992849 0.639410 0.468865
Si Si5 0.992156 0.534219 0.821085
Si Si6 0.428627 0.226115 0.187009
Si Si7 0.185746 0.136645 0.858783
O O1 0.572862 0.253295 0.574342
O O2 0.747619 0.107481 0.768623
O O3 0.500000 0.000000 0.500000
O O4 0.852015 0.867968 0.540291
O O5 0.500000 0.500000 0.500000
O O6 0.218111 0.586979 0.536986
O O7 0.538196 0.597558 0.747820
O O8 0.918748 0.937601 0.143005
O O9 0.093482 0.658615 0.967006
O O10 0.000000 0.000000 0.000000
O O11 0.927622 0.570004 0.300814
O O12 0.000000 0.500000 0.500000
O O13 0.748198 0.693108 0.773086
O O14 0.031655 0.349248 0.828705
O O15 0.654246 0.033758 0.223590
O O16 0.323900 0.183345 0.020754
#
# Coordination Sequence:
#
# PCOD9013866 Si02
#       7
#     2   2   2   2   2   2   2
#     4  12  27  48  72 102 149 195 239 290 365 433
#     4  12  25  42  73 104 141 183 244 291 356 425
#     4  11  24  45  74 102 144 188 235 295 362 423
#     4  12  26  46  69 104 149 190 233 299 366 422
#     4  11  23  43  73  97 138 183 236 292 352 422
#     4  10  21  41  66 105 132 172 232 297 346 414
#     4  10  22  42  72  98 136 176 236 291 356 415
#
# _framework density 21.294450000000001
#
# number of rings (size 3 to 8) (size 9 to 14) (size 15 to 20)
#    0.000    0.857    2.857    5.143    2.000    0.571 
#    2.571    0.714    0.000    0.000    0.000    0.000 
#    0.000    0.000    0.000    0.000    0.000    0.000 
#
# Total GULP energy -78138.557732 kJ/mol
# GULP energy per Si atom -5581.325552 kJ/mol
# Density = 2.124598 g / cm^3
# Si number density = 21.294450 Si / 1000 Ang^3
#
#
#
# Elastic Constant Matrix: (Units=GPa)
#
#
# Indices 1 2 3 4 5 6 
#
# 1 118.3437 58.3960 52.0325 -2.5084 14.8725 7.3420
# 2 58.3960 141.7097 40.6747 10.0576 1.1784 0.0724
# 3 52.0325 40.6747 116.3445 6.8816 16.1710 3.7669
# 4 -2.5084 10.0576 6.8816 36.3566 7.8376 -4.1814
# 5 14.8725 1.1784 16.1710 7.8376 38.4907 1.1698
# 6 7.3420 0.0724 3.7669 -4.1814 1.1698 37.1599
#
#
#
# Elastic Compliance Matrix: (Units=1/GPa)
#
#
# Indices 1 2 3 4 5 6 
#
# 1 0.013034 -0.004477 -0.003871 0.003530 -0.003941 -0.001653
# 2 -0.004477 0.009547 -0.001544 -0.003176 0.002715 0.000580
# 3 -0.003871 -0.001544 0.011372 -0.001412 -0.002933 -0.000451
# 4 0.003530 -0.003176 -0.001412 0.030772 -0.007035 0.003136
# 5 -0.003941 0.002715 -0.002933 -0.007035 0.030105 -0.000669
# 6 -0.001653 0.000580 -0.000451 0.003136 -0.000669 0.027656
#
#
# Mechanical properties :
#
#
# Convention : Reuss Voigt Hill
#
# Bulk Modulus (GPa) = 70.57678 75.40047 72.98862
# Shear Modulus (GPa) = 34.01514 37.42108 35.71811
#
# Velocity S-wave (km/s) = 4.00105 4.19658 4.09998
# Velocity P-wave (km/s) = 7.38646 7.67901 7.53415
#
# Compressibility (1/GPa) = 0.01416897
#
# Stress axis : x y z
#
# Youngs Moduli (GPa) = 76.72360 104.74324 87.93354
#
# Poissons Ratio (x) = 0.46890 0.34043
# Poissons Ratio (y) = 0.34347 0.13576
# Poissons Ratio (z) = 0.29703 0.16172
#
# Static dielectric constant tensor:
#      x y z
#    x 1.771350 -0.017950 -0.000720 
#    y -0.017950 1.782270 0.047280 
#    z -0.000720 0.047280 1.857060 
# 
# From -- ./inp_files/320561.got.cif
#   From: 2010.05.17/outbox.cif.g08.bks.cpg/sg2_161_cif.got.tgz:320561.got - 2010.06.03 11:33:40.
