data_PCOD9013846
_publ_section_title
;
Structure prediction by ZEFSAII (Michael W. Deem and Ramdas Pophale) SiO2 
 PCOD9013846
Probable space group: P -1
;
_chemical_formula_sum "Si O2"
_cell_formula_units_Z 14
_cell_length_a 10.650188
_cell_length_b 8.158353
_cell_length_c 8.381445
_cell_angle_alpha 52.330892
_cell_angle_beta 84.407627
_cell_angle_gamma 86.980676
_cell_volume 573.680606
_symmetry_space_group_name_H-M "P -1"
_symmetry_group_IT_number 2
_symmetry_cell_setting 'triclinic'
loop_
_space_group_symop_operation_xyz
x,y,z
-x,-y,-z
loop_
_atom_site_type_symbol
_atom_site_label
_atom_site_fract_x
_atom_site_fract_y
_atom_site_fract_z
Si Si1 0.508565 0.310902 0.738366
Si Si2 0.622554 0.889368 0.847278
Si Si3 0.087157 0.030728 0.820821
Si Si4 0.851869 0.556148 0.512680
Si Si5 0.852906 0.156365 0.580039
Si Si6 0.325768 0.435771 0.183294
Si Si7 0.867487 0.372737 0.109061
O O1 0.500000 0.500000 0.500000
O O2 0.598087 0.398157 0.819587
O O3 0.548756 0.104435 0.759364
O O4 0.393227 0.230680 0.912032
O O5 0.585647 0.749504 0.780301
O O6 0.762947 0.962701 0.737010
O O7 0.992256 0.087818 0.654796
O O8 0.171022 0.235369 0.707463
O O9 0.000000 0.000000 0.000000
O O10 0.144479 0.811466 0.909051
O O11 0.796177 0.340476 0.586724
O O12 0.794468 0.610680 0.658536
O O13 0.000000 0.500000 0.500000
O O14 0.859977 0.259771 0.345824
O O15 0.256861 0.500748 0.990115
O O16 0.000000 0.500000 0.000000
#
# Coordination Sequence:
#
# PCOD9013846 Si02
#       7
#     2   2   2   2   2   2   2
#     4  11  28  54  79 106 144 188 249 326 382 444
#     4  11  26  50  76 110 144 185 255 314 378 442
#     4  11  22  37  62  99 143 196 244 295 359 436
#     4  10  21  41  66 100 147 190 240 297 356 438
#     4  11  22  42  66 100 148 192 245 301 366 436
#     4  12  25  47  74 108 146 193 246 301 373 445
#     4  12  24  41  67 107 152 196 245 296 358 448
#
# _framework density 24.403822999999999
#
# number of rings (size 3 to 8) (size 9 to 14) (size 15 to 20)
#    0.000    0.857    1.429    6.857    2.000    1.714 
#    7.714    0.000    0.000    0.000    0.000    0.000 
#    0.000    0.000    0.000    0.000    0.000    0.000 
#
# Total GULP energy -78128.478679 kJ/mol
# GULP energy per Si atom -5580.605620 kJ/mol
# Density = 2.434828 g / cm^3
# Si number density = 24.403823 Si / 1000 Ang^3
#
#
#
# Elastic Constant Matrix: (Units=GPa)
#
#
# Indices 1 2 3 4 5 6 
#
# 1 64.9655 12.4665 42.9775 7.4974 2.3362 3.0804
# 2 12.4665 183.1206 23.8176 -1.5517 -0.2123 -27.3845
# 3 42.9775 23.8176 166.2811 2.6813 -11.3897 -1.6228
# 4 7.4974 -1.5517 2.6813 43.4338 -0.1474 -9.1073
# 5 2.3362 -0.2123 -11.3897 -0.1474 31.2310 6.7660
# 6 3.0804 -27.3845 -1.6228 -9.1073 6.7660 32.2826
#
#
#
# Elastic Compliance Matrix: (Units=1/GPa)
#
#
# Indices 1 2 3 4 5 6 
#
# 1 0.019712 -0.001291 -0.005056 -0.003945 -0.002519 -0.003815
# 2 -0.001291 0.006634 -0.000687 0.001873 -0.001522 0.006563
# 3 -0.005056 -0.000687 0.007632 0.000325 0.003223 -0.000300
# 4 -0.003945 0.001873 0.000325 0.025752 -0.001525 0.009566
# 5 -0.002519 -0.001522 0.003223 -0.001525 0.035252 -0.008707
# 6 -0.003815 0.006563 -0.000300 0.009566 -0.008707 0.041417
#
#
# Mechanical properties :
#
#
# Convention : Reuss Voigt Hill
#
# Bulk Modulus (GPa) = 50.22793 63.65449 56.94121
# Shear Modulus (GPa) = 31.82614 43.72987 37.77800
#
# Velocity S-wave (km/s) = 3.61521 4.23771 3.93878
# Velocity P-wave (km/s) = 6.16871 7.07705 6.63844
#
# Compressibility (1/GPa) = 0.01990924
#
# Stress axis : x y z
#
# Youngs Moduli (GPa) = 50.72992 150.74437 131.03187
#
# Poissons Ratio (x) = 0.19465 0.66251
# Poissons Ratio (y) = 0.06551 0.09000
# Poissons Ratio (z) = 0.25650 0.10354
#
# Static dielectric constant tensor:
#      x y z
#    x 2.074850 0.029690 -0.057060 
#    y 0.029690 2.073930 -0.085090 
#    z -0.057060 -0.085090 1.952640 
# 
# From -- ./inp_files/241982.got.cif
#   From: 2010.05.17/outbox.cif.g08.bks.cpg/sg2_121_cif.got.tgz:241982.got - 2010.06.03 11:33:40.
