data_PCOD9013119
_publ_section_title
;
Structure prediction by ZEFSAII (Michael W. Deem and Ramdas Pophale) SiO2 
 PCOD9013119
Probable space group: P -1
;
_chemical_formula_sum "Si O2"
_cell_formula_units_Z 14
_cell_length_a 10.866999
_cell_length_b 8.197808
_cell_length_c 6.620572
_cell_angle_alpha 82.079529
_cell_angle_beta 78.332808
_cell_angle_gamma 93.472512
_cell_volume 569.718560
_symmetry_space_group_name_H-M "P -1"
_symmetry_group_IT_number 2
_symmetry_cell_setting 'triclinic'
loop_
_space_group_symop_operation_xyz
x,y,z
-x,-y,-z
loop_
_atom_site_type_symbol
_atom_site_label
_atom_site_fract_x
_atom_site_fract_y
_atom_site_fract_z
Si Si1 0.952053 0.724503 0.547522
Si Si2 0.243478 0.901689 0.040555
Si Si3 0.405464 0.437009 0.360655
Si Si4 0.521648 0.261175 0.966782
Si Si5 0.078260 0.571735 0.149213
Si Si6 0.307055 0.162037 0.721911
Si Si7 0.183673 0.945720 0.514431
O O1 0.871215 0.590112 0.734145
O O2 0.991380 0.640329 0.341693
O O3 0.082467 0.788871 0.611749
O O4 0.891489 0.891209 0.484898
O O5 0.170922 0.729082 0.028383
O O6 0.224025 0.922333 0.278365
O O7 0.391108 0.878969 0.974769
O O8 0.200373 0.065965 0.918145
O O9 0.500000 0.500000 0.500000
O O10 0.465459 0.330353 0.180939
O O11 0.305727 0.318739 0.545997
O O12 0.385724 0.601167 0.210135
O O13 0.413239 0.215385 0.844703
O O14 0.000000 0.500000 0.000000
O O15 0.306803 0.002113 0.597965
#
# Coordination Sequence:
#
# PCOD9013119 Si02
#       7
#     2   2   2   2   2   2   2
#     4   9  21  42  63  88 126 163 204 255 309 370
#     4  11  24  38  63  93 127 159 208 259 306 364
#     4   9  21  41  60  83 127 164 206 249 311 362
#     4  10  22  41  60  91 126 163 207 257 301 372
#     4  10  21  41  63  91 123 161 207 256 308 366
#     4  11  22  38  62  91 122 164 204 251 308 369
#     4  10  22  40  63  92 125 164 205 255 313 364
#
# _framework density 24.573535
#
# number of rings (size 3 to 8) (size 9 to 14) (size 15 to 20)
#    0.000    2.000    0.000    2.143    2.000    4.571 
#    7.714    4.286    0.000    0.000    0.000    0.000 
#    0.000    0.000    0.000    0.000    0.000    0.000 
#
# Total GULP energy -77969.048953 kJ/mol
# GULP energy per Si atom -5569.217782 kJ/mol
# Density = 2.451760 g / cm^3
# Si number density = 24.573535 Si / 1000 Ang^3
#
#
#
# Elastic Constant Matrix: (Units=GPa)
#
#
# Indices 1 2 3 4 5 6 
#
# 1 46.6087 41.2409 46.4521 4.3289 23.3565 18.5907
# 2 41.2409 124.0586 54.6559 -1.4259 9.9275 33.2340
# 3 46.4521 54.6559 110.6129 -3.0488 40.2930 9.5996
# 4 4.3289 -1.4259 -3.0488 59.0345 16.1624 6.2084
# 5 23.3565 9.9275 40.2930 16.1624 28.2474 3.1373
# 6 18.5907 33.2340 9.5996 6.2084 3.1373 56.2403
#
#
#
# Elastic Compliance Matrix: (Units=1/GPa)
#
#
# Indices 1 2 3 4 5 6 
#
# 1 0.063333 -0.014455 0.002047 0.011470 -0.055557 -0.010909
# 2 -0.014455 0.017006 -0.012008 -0.006133 0.027064 -0.004054
# 3 0.002047 -0.012008 0.035788 0.017273 -0.058590 0.001672
# 4 0.011470 -0.006133 0.017273 0.030682 -0.049105 -0.003764
# 5 -0.055557 0.027064 -0.058590 -0.049105 0.182654 0.007605
# 6 -0.010909 -0.004054 0.001672 -0.003764 0.007605 0.023489
#
#
# Mechanical properties :
#
#
# Convention : Reuss Voigt Hill
#
# Bulk Modulus (GPa) = 14.86025 62.88646 38.87335
# Shear Modulus (GPa) = 11.78641 37.96653 24.87647
#
# Velocity S-wave (km/s) = 2.19244 3.93493 3.18516
# Velocity P-wave (km/s) = 3.53121 6.80380 5.42038
#
# Compressibility (1/GPa) = 0.06729360
#
# Stress axis : x y z
#
# Youngs Moduli (GPa) = 15.78961 58.80111 27.94211
#
# Poissons Ratio (x) = 0.84999 -0.05719
# Poissons Ratio (y) = 0.22824 0.33554
# Poissons Ratio (z) = -0.03232 0.70611
#
# Static dielectric constant tensor:
#      x y z
#    x 2.036280 0.056480 0.043660 
#    y 0.056480 2.005230 -0.060670 
#    z 0.043660 -0.060670 2.024540 
# 
# From -- ./inp_files/60357.got.cif
#   From: 2010.05.17/outbox.cif.g08.bks.cpg/sg2_31_cif.got.tgz:60357.got - 2010.06.03 11:33:40.
