data_PCOD9013266
_publ_section_title
;
Structure prediction by ZEFSAII (Michael W. Deem and Ramdas Pophale) SiO2 
 PCOD9013266
Probable space group: P -1
;
_chemical_formula_sum "Si O2"
_cell_formula_units_Z 14
_cell_length_a 13.735267
_cell_length_b 26.746480
_cell_length_c 21.776965
_cell_angle_alpha 11.222921
_cell_angle_beta 21.629480
_cell_angle_gamma 23.603872
_cell_volume 572.791832
_symmetry_space_group_name_H-M "P -1"
_symmetry_group_IT_number 2
_symmetry_cell_setting 'triclinic'
loop_
_space_group_symop_operation_xyz
x,y,z
-x,-y,-z
loop_
_atom_site_type_symbol
_atom_site_label
_atom_site_fract_x
_atom_site_fract_y
_atom_site_fract_z
Si Si1 0.628717 0.362488 0.199234
Si Si2 0.350914 0.460139 0.898191
Si Si3 0.830431 0.980514 0.705312
Si Si4 0.253406 0.957611 0.859387
Si Si5 0.865301 0.155744 0.597362
Si Si6 0.534830 0.401123 0.668344
Si Si7 0.936183 0.820436 0.413330
O O1 0.514608 0.442446 0.235994
O O2 0.430304 0.200202 0.473428
O O3 0.728310 0.615712 0.802654
O O4 0.893907 0.176919 0.279422
O O5 0.194597 0.714017 0.657550
O O6 0.138458 0.262809 0.283558
O O7 0.563154 0.301404 0.922936
O O8 0.786774 0.947099 0.844854
O O9 0.617743 0.860724 0.930144
O O10 0.183129 0.959157 0.826490
O O11 0.000000 0.000000 0.000000
O O12 0.638948 0.386171 0.449297
O O13 0.924915 0.087437 0.716076
O O14 0.500000 0.500000 0.500000
O O15 0.843601 0.330249 0.577420
#
# Coordination Sequence:
#
# PCOD9013266 Si02
#       7
#     2   2   2   2   2   2   2
#     4  11  24  47  73 101 135 184 229 283 348 393
#     4  11  25  42  69 105 138 181 227 281 348 408
#     4  12  22  39  73 107 136 172 223 286 350 403
#     4  12  29  48  70  97 140 187 233 280 338 411
#     4  10  22  40  70 104 135 179 225 281 350 396
#     4  10  21  41  64 102 139 168 226 281 338 392
#     4  10  24  48  68 100 144 179 228 283 330 417
#
# _framework density 24.441690000000001
#
# number of rings (size 3 to 8) (size 9 to 14) (size 15 to 20)
#    0.000    1.143    5.714    1.286    4.000    5.143 
#    2.571    0.000    0.000    0.000    0.000    0.000 
#    0.000    0.000    0.000    0.000    0.000    0.000 
#
# Total GULP energy -78294.627317 kJ/mol
# GULP energy per Si atom -5592.473380 kJ/mol
# Density = 2.438606 g / cm^3
# Si number density = 24.441690 Si / 1000 Ang^3
#
#
#
# Elastic Constant Matrix: (Units=GPa)
#
#
# Indices 1 2 3 4 5 6 
#
# 1 102.9460 9.8487 14.9289 -8.0975 6.0159 10.7478
# 2 9.8487 103.9287 19.1255 -5.6542 7.0212 23.5072
# 3 14.9289 19.1255 60.1920 -3.8101 9.0465 -1.1184
# 4 -8.0975 -5.6542 -3.8101 31.2092 -2.4809 -0.4024
# 5 6.0159 7.0212 9.0465 -2.4809 36.3146 -12.5539
# 6 10.7478 23.5072 -1.1184 -0.4024 -12.5539 36.8695
#
#
#
# Elastic Compliance Matrix: (Units=1/GPa)
#
#
# Indices 1 2 3 4 5 6 
#
# 1 0.010830 0.000798 -0.002457 0.002373 -0.002786 -0.004663
# 2 0.000798 0.013007 -0.003639 0.001570 -0.005228 -0.010399
# 3 -0.002457 -0.003639 0.018872 0.000837 -0.002587 0.002737
# 4 0.002373 0.001570 0.000837 0.033113 0.001027 -0.000956
# 5 -0.002786 -0.005228 -0.002587 0.001027 0.035288 0.016094
# 6 -0.004663 -0.010399 0.002737 -0.000956 0.016094 0.040664
#
#
# Mechanical properties :
#
#
# Convention : Reuss Voigt Hill
#
# Bulk Modulus (GPa) = 31.14070 39.43033 35.28551
# Shear Modulus (GPa) = 28.88932 35.75625 32.32278
#
# Velocity S-wave (km/s) = 3.44171 3.82896 3.64049
# Velocity P-wave (km/s) = 5.34437 5.97623 5.66911
#
# Compressibility (1/GPa) = 0.03211232
#
# Stress axis : x y z
#
# Youngs Moduli (GPa) = 92.33473 76.88385 52.98906
#
# Poissons Ratio (x) = -0.06135 0.13021
# Poissons Ratio (y) = -0.07368 0.19282
# Poissons Ratio (z) = 0.22690 0.27976
#
# Static dielectric constant tensor:
#      x y z
#    x 2.007150 -0.009420 -0.004470 
#    y -0.009420 1.977850 0.031890 
#    z -0.004470 0.031890 1.985820 
# 
# From -- ./inp_files/612468.got.cif
#   From: 2010.05.17/outbox.cif.g08.bks.cpg/sg2_307_cif.got.tgz:612468.got - 2010.06.03 11:33:40.
