data_PCOD9013084
_publ_section_title
;
Structure prediction by ZEFSAII (Michael W. Deem and Ramdas Pophale) SiO2 
 PCOD9013084
Probable space group: P -1
;
_chemical_formula_sum "Si O2"
_cell_formula_units_Z 16
_cell_length_a 12.139370
_cell_length_b 11.931451
_cell_length_c 5.357624
_cell_angle_alpha 60.134132
_cell_angle_beta 76.166473
_cell_angle_gamma 101.000780
_cell_volume 607.564307
_symmetry_space_group_name_H-M "P -1"
_symmetry_group_IT_number 2
_symmetry_cell_setting 'triclinic'
loop_
_space_group_symop_operation_xyz
x,y,z
-x,-y,-z
loop_
_atom_site_type_symbol
_atom_site_label
_atom_site_fract_x
_atom_site_fract_y
_atom_site_fract_z
Si Si1 0.369960 0.701731 0.887996
Si Si2 0.445092 0.618199 0.444138
Si Si3 0.391553 0.058256 0.000837
Si Si4 0.048057 0.143802 0.158595
Si Si5 0.645006 0.897907 0.522311
Si Si6 0.958833 0.579743 0.643357
Si Si7 0.134099 0.713770 0.783438
Si Si8 0.181108 0.244908 0.479529
O O1 0.386201 0.604276 0.764922
O O2 0.498179 0.834849 0.683993
O O3 0.267988 0.755965 0.779959
O O4 0.361117 0.632682 0.242361
O O5 0.500000 0.500000 0.500000
O O6 0.549424 0.773631 0.221299
O O7 0.317644 0.008005 0.844922
O O8 0.309492 0.028632 0.322508
O O9 0.500000 0.000000 0.000000
O O10 0.140341 0.234614 0.221478
O O11 0.945670 0.212799 0.107039
O O12 0.108403 0.138965 0.861481
O O13 0.000000 0.000000 0.500000
O O14 0.690784 0.771771 0.593520
O O15 0.850424 0.625767 0.558014
O O16 0.000000 0.500000 0.500000
O O17 0.074352 0.708872 0.544765
O O18 0.896320 0.453277 0.005490
#
# Coordination Sequence:
#
# PCOD9013084 Si02
#       8
#     2   2   2   2   2   2   2   2
#     4  10  23  41  64 101 136 174 219 274 338 413
#     4  10  22  40  62  90 135 176 219 267 332 404
#     4  10  21  41  63  88 133 175 224 266 319 407
#     4  11  24  45  68  96 131 177 232 281 336 398
#     4  10  22  43  65 100 133 175 219 273 339 407
#     4  10  21  41  68  96 133 174 228 283 338 402
#     4  10  23  41  66 100 133 176 226 282 342 399
#     4  11  23  43  70  98 133 175 225 281 342 404
#
# _framework density 26.334658999999998
#
# number of rings (size 3 to 8) (size 9 to 14) (size 15 to 20)
#    0.000    1.750    1.250    1.875    1.750    4.000 
#   13.500    0.000    0.000    0.000    0.000    0.000 
#    0.000    0.000    0.000    0.000    0.000    0.000 
#
# Total GULP energy -89218.800191 kJ/mol
# GULP energy per Si atom -5576.175012 kJ/mol
# Density = 2.627472 g / cm^3
# Si number density = 26.334659 Si / 1000 Ang^3
#
#
#
# Elastic Constant Matrix: (Units=GPa)
#
#
# Indices 1 2 3 4 5 6 
#
# 1 150.6496 35.9360 23.0962 6.7545 18.0298 -21.6544
# 2 35.9360 105.2229 27.9382 14.0902 13.4097 -23.6023
# 3 23.0962 27.9382 95.9864 25.6431 28.9780 1.6882
# 4 6.7545 14.0902 25.6431 65.1053 3.3247 12.0821
# 5 18.0298 13.4097 28.9780 3.3247 31.4309 -5.3208
# 6 -21.6544 -23.6023 1.6882 12.0821 -5.3208 42.0848
#
#
#
# Elastic Compliance Matrix: (Units=1/GPa)
#
#
# Indices 1 2 3 4 5 6 
#
# 1 0.007872 -0.001388 -0.000473 -0.000768 -0.002873 0.003148
# 2 -0.001388 0.012771 -0.002472 -0.002957 -0.000826 0.007292
# 3 -0.000473 -0.002472 0.016870 -0.004833 -0.014175 -0.002711
# 4 -0.000768 -0.002957 -0.004833 0.019127 0.002954 -0.006977
# 5 -0.002873 -0.000826 -0.014175 0.002954 0.047207 0.003747
# 6 0.003148 0.007292 -0.002711 -0.006977 0.003747 0.032057
#
#
# Mechanical properties :
#
#
# Convention : Reuss Voigt Hill
#
# Bulk Modulus (GPa) = 34.66550 58.42219 46.54384
# Shear Modulus (GPa) = 32.42850 45.38342 38.90596
#
# Velocity S-wave (km/s) = 3.51294 4.15581 3.84782
# Velocity P-wave (km/s) = 5.44484 6.72758 6.11991
#
# Compressibility (1/GPa) = 0.02884713
#
# Stress axis : x y z
#
# Youngs Moduli (GPa) = 127.02680 78.30326 59.27756
#
# Poissons Ratio (x) = 0.10867 0.02805
# Poissons Ratio (y) = 0.17629 0.14653
# Poissons Ratio (z) = 0.06011 0.19356
#
# Static dielectric constant tensor:
#      x y z
#    x 2.234400 0.110200 0.073060 
#    y 0.110200 2.233280 -0.086650 
#    z 0.073060 -0.086650 2.526180 
# 
# From -- ./inp_files/68457.got.cif
#   From: 2010.05.17/outbox.cif.g08.bks.cpg/sg2_35_cif.got.tgz:68457.got - 2010.06.03 11:33:40.
