data_PCOD9013861
_publ_section_title
;
Structure prediction by ZEFSAII (Michael W. Deem and Ramdas Pophale) SiO2 
 PCOD9013861
Probable space group: P -1
;
_chemical_formula_sum "Si O2"
_cell_formula_units_Z 12
_cell_length_a 12.358870
_cell_length_b 11.731012
_cell_length_c 5.282697
_cell_angle_alpha 108.843600
_cell_angle_beta 101.609581
_cell_angle_gamma 122.255107
_cell_volume 542.100430
_symmetry_space_group_name_H-M "P -1"
_symmetry_group_IT_number 2
_symmetry_cell_setting 'triclinic'
loop_
_space_group_symop_operation_xyz
x,y,z
-x,-y,-z
loop_
_atom_site_type_symbol
_atom_site_label
_atom_site_fract_x
_atom_site_fract_y
_atom_site_fract_z
Si Si1 0.869295 0.383392 0.549225
Si Si2 0.550375 0.898578 0.471137
Si Si3 0.928524 0.639586 0.147331
Si Si4 0.370735 0.169006 0.033863
Si Si5 0.667414 0.385141 0.137603
Si Si6 0.078252 0.104254 0.863209
O O1 0.725558 0.311228 0.272877
O O2 0.000000 0.500000 0.500000
O O3 0.914768 0.286644 0.613835
O O4 0.883177 0.493264 0.851931
O O5 0.622746 0.910848 0.774462
O O6 0.500000 0.000000 0.500000
O O7 0.643845 0.922968 0.290567
O O8 0.406980 0.717059 0.225147
O O9 0.805192 0.561732 0.252196
O O10 0.929845 0.758123 0.064963
O O11 0.530639 0.341604 0.194020
O O12 0.242537 0.173096 0.992916
O O13 0.000000 0.000000 0.500000
O O14 0.000000 0.000000 0.000000
#
# Coordination Sequence:
#
# PCOD9013861 Si02
#       6
#     2   2   2   2   2   2
#     4   9  19  40  64 107 130 176 224 285 346 397
#     4  10  21  41  66 102 140 174 220 281 346 405
#     4  10  22  43  70  98 141 178 232 286 342 406
#     4  10  23  45  64 102 134 172 236 274 344 407
#     4   9  21  38  71 100 137 161 234 281 351 389
#     4  12  29  50  68  97 141 191 235 275 345 421
#
# _framework density 22.136120999999999
#
# number of rings (size 3 to 8) (size 9 to 14) (size 15 to 20)
#    1.000    1.000    0.000    2.500    4.667    2.000 
#   18.000    1.667    0.000    0.000    0.000    0.000 
#    0.000    0.000    0.000    0.000    0.000    0.000 
#
# Total GULP energy -66947.535641 kJ/mol
# GULP energy per Si atom -5578.961303 kJ/mol
# Density = 2.208574 g / cm^3
# Si number density = 22.136121 Si / 1000 Ang^3
#
#
#
# Elastic Constant Matrix: (Units=GPa)
#
#
# Indices 1 2 3 4 5 6 
#
# 1 164.2824 73.1316 29.7117 -20.6005 19.3921 -1.9631
# 2 73.1316 112.5041 37.1984 -31.9515 12.9931 -18.6597
# 3 29.7117 37.1984 61.4500 -35.4359 -3.0092 15.5720
# 4 -20.6005 -31.9515 -35.4359 34.6420 1.8967 6.5162
# 5 19.3921 12.9931 -3.0092 1.8967 29.4784 -1.8602
# 6 -1.9631 -18.6597 15.5720 6.5162 -1.8602 31.3922
#
#
#
# Elastic Compliance Matrix: (Units=1/GPa)
#
#
# Indices 1 2 3 4 5 6 
#
# 1 0.009247 -0.006371 0.002649 0.003558 -0.003579 -0.005473
# 2 -0.006371 0.024285 -0.032515 -0.020715 -0.006348 0.034089
# 3 0.002649 -0.032515 0.161756 0.161362 0.010372 -0.132280
# 4 0.003558 -0.020715 0.161362 0.202036 0.001809 -0.133964
# 5 -0.003579 -0.006348 0.010372 0.001809 0.039565 -0.007173
# 6 -0.005473 0.034089 -0.132280 -0.133964 -0.007173 0.144775
#
#
# Mechanical properties :
#
#
# Convention : Reuss Voigt Hill
#
# Bulk Modulus (GPa) = 8.14240 68.70220 38.42230
# Shear Modulus (GPa) = 7.19346 32.31552 19.75449
#
# Velocity S-wave (km/s) = 1.80463 3.82495 2.99056
# Velocity P-wave (km/s) = 2.83348 7.11411 5.41476
#
# Compressibility (1/GPa) = 0.12281397
#
# Stress axis : x y z
#
# Youngs Moduli (GPa) = 108.14016 41.17839 6.18216
#
# Poissons Ratio (x) = 0.26234 -0.01638
# Poissons Ratio (y) = 0.68894 0.20101
# Poissons Ratio (z) = -0.28645 1.33891
#
# Static dielectric constant tensor:
#      x y z
#    x 1.836870 0.047640 0.023200 
#    y 0.047640 1.845630 -0.006140 
#    z 0.023200 -0.006140 1.845070 
# 
# From -- ./inp_files/67551.got.cif
#   From: 2010.05.17/outbox.cif.g08.bks.cpg/sg2_34_cif.got.tgz:67551.got - 2010.06.03 11:33:40.
