data_PCOD9013333
_publ_section_title
;
Structure prediction by ZEFSAII (Michael W. Deem and Ramdas Pophale) SiO2 
 PCOD9013333
Probable space group: P -1
;
_chemical_formula_sum "Si O2"
_cell_formula_units_Z 16
_cell_length_a 10.318744
_cell_length_b 13.050460
_cell_length_c 12.107638
_cell_angle_alpha 146.255076
_cell_angle_beta 88.480753
_cell_angle_gamma 67.706884
_cell_volume 625.651142
_symmetry_space_group_name_H-M "P -1"
_symmetry_group_IT_number 2
_symmetry_cell_setting 'triclinic'
loop_
_space_group_symop_operation_xyz
x,y,z
-x,-y,-z
loop_
_atom_site_type_symbol
_atom_site_label
_atom_site_fract_x
_atom_site_fract_y
_atom_site_fract_z
Si Si1 0.330742 0.860242 0.953051
Si Si2 0.155495 0.674134 0.039186
Si Si3 0.889708 0.859134 0.557978
Si Si4 0.385209 0.386878 0.571094
Si Si5 0.259199 0.541104 0.368462
Si Si6 0.761567 0.021072 0.298510
Si Si7 0.042108 0.657392 0.684511
Si Si8 0.720447 0.808836 0.318987
O O1 0.375095 0.598610 0.707373
O O2 0.536437 0.742161 0.852306
O O3 0.226686 0.004381 0.202111
O O4 0.172014 0.055652 0.038270
O O5 0.124229 0.917800 0.291771
O O6 0.338244 0.467770 0.773506
O O7 0.178714 0.493788 0.969393
O O8 0.982640 0.802592 0.076216
O O9 0.795834 0.813339 0.436359
O O10 0.108418 0.589424 0.338010
O O11 0.595913 0.096984 0.300137
O O12 0.213498 0.455880 0.584050
O O13 0.289769 0.707938 0.459063
O O14 0.134697 0.687233 0.612995
O O15 0.757590 0.919920 0.324042
O O16 0.000000 0.500000 0.500000
O O17 0.500000 0.000000 0.500000
#
# Coordination Sequence:
#
# PCOD9013333 Si02
#       8
#     2   2   2   2   2   2   2   2
#     4   9  20  41  65  91 121 170 210 255 324 376
#     4  10  22  42  65  93 128 171 214 261 319 369
#     4   9  22  43  64  92 135 168 209 265 313 375
#     4  10  21  41  64  91 126 166 211 263 313 379
#     4   9  21  42  64  93 125 165 215 257 316 385
#     4  10  22  42  63  94 127 163 218 261 311 378
#     4  11  24  38  63  94 131 161 207 266 319 380
#     4  12  24  42  66  96 132 169 215 263 313 378
#
# _framework density 25.573356
#
# number of rings (size 3 to 8) (size 9 to 14) (size 15 to 20)
#    0.000    2.000    1.250    1.500    3.500    6.000 
#    6.750    0.000    0.000    0.000    0.000    0.000 
#    0.000    0.000    0.000    0.000    0.000    0.000 
#
# Total GULP energy -89324.045903 kJ/mol
# GULP energy per Si atom -5582.752869 kJ/mol
# Density = 2.551515 g / cm^3
# Si number density = 25.573356 Si / 1000 Ang^3
#
#
#
# Elastic Constant Matrix: (Units=GPa)
#
#
# Indices 1 2 3 4 5 6 
#
# 1 123.4157 31.1285 51.1619 10.6542 -26.8384 -40.1427
# 2 31.1285 77.2227 28.3157 22.2343 -8.4684 -6.9756
# 3 51.1619 28.3157 80.8629 34.1212 -28.9964 -11.3952
# 4 10.6542 22.2343 34.1212 44.7619 -5.8819 -13.7010
# 5 -26.8384 -8.4684 -28.9964 -5.8819 53.6056 10.3785
# 6 -40.1427 -6.9756 -11.3952 -13.7010 10.3785 53.3649
#
#
#
# Elastic Compliance Matrix: (Units=1/GPa)
#
#
# Indices 1 2 3 4 5 6 
#
# 1 0.017842 -0.004734 -0.012774 0.011861 0.000038 0.013112
# 2 -0.004734 0.016926 0.000223 -0.008505 0.000172 -0.003518
# 3 -0.012774 0.000223 0.032887 -0.024028 0.010892 -0.010845
# 4 0.011861 -0.008505 -0.024028 0.046036 -0.006399 0.015744
# 5 0.000038 0.000172 0.010892 -0.006399 0.024678 -0.004066
# 6 0.013112 -0.003518 -0.010845 0.015744 -0.004066 0.030660
#
#
# Mechanical properties :
#
#
# Convention : Reuss Voigt Hill
#
# Bulk Modulus (GPa) = 30.22577 55.85703 43.04140
# Shear Modulus (GPa) = 23.29629 41.73947 32.51788
#
# Velocity S-wave (km/s) = 3.02148 4.04437 3.56975
# Velocity P-wave (km/s) = 4.90075 6.61048 5.81876
#
# Compressibility (1/GPa) = 0.03308436
#
# Stress axis : x y z
#
# Youngs Moduli (GPa) = 56.04895 59.08045 30.40711
#
# Poissons Ratio (x) = 0.27972 0.38842
# Poissons Ratio (y) = 0.26536 -0.00679
# Poissons Ratio (z) = 0.71597 -0.01320
#
# Static dielectric constant tensor:
#      x y z
#    x 2.044900 0.005310 -0.024190 
#    y 0.005310 2.069830 0.021060 
#    z -0.024190 0.021060 2.035330 
# 
# From -- ./inp_files/505826.got.cif
#   From: 2010.05.17/outbox.cif.g08.bks.cpg/sg2_253_cif.got.tgz:505826.got - 2010.06.03 11:33:40.
