data_PCOD9013480
_publ_section_title
;
Structure prediction by ZEFSAII (Michael W. Deem and Ramdas Pophale) SiO2 
 PCOD9013480
Probable space group: P -1
;
_chemical_formula_sum "Si O2"
_cell_formula_units_Z 16
_cell_length_a 8.143227
_cell_length_b 8.924980
_cell_length_c 18.055828
_cell_angle_alpha 142.240748
_cell_angle_beta 63.979994
_cell_angle_gamma 96.330079
_cell_volume 651.976715
_symmetry_space_group_name_H-M "P -1"
_symmetry_group_IT_number 2
_symmetry_cell_setting 'triclinic'
loop_
_space_group_symop_operation_xyz
x,y,z
-x,-y,-z
loop_
_atom_site_type_symbol
_atom_site_label
_atom_site_fract_x
_atom_site_fract_y
_atom_site_fract_z
Si Si1 0.183044 0.400729 0.488976
Si Si2 0.242897 0.066665 0.673501
Si Si3 0.740949 0.690030 0.902636
Si Si4 0.158549 0.635217 0.863480
Si Si5 0.991665 0.032924 0.190656
Si Si6 0.898525 0.083999 0.632972
Si Si7 0.513797 0.526221 0.642601
Si Si8 0.659419 0.869929 0.822529
O O1 0.123437 0.637307 0.655261
O O2 0.401678 0.366024 0.401929
O O3 0.000000 0.500000 0.500000
O O4 0.192889 0.124658 0.409959
O O5 0.273399 0.335178 0.758495
O O6 0.071546 0.063189 0.649376
O O7 0.149088 0.065627 0.772427
O O8 0.432933 0.783275 0.507661
O O9 0.739778 0.398487 0.786007
O O10 0.702510 0.832148 0.886154
O O11 0.957929 0.646551 0.870211
O O12 0.558987 0.906958 0.070387
O O13 0.924829 0.142130 0.967997
O O14 0.303981 0.662372 0.782005
O O15 0.188968 0.008928 0.188111
O O16 0.000000 0.000000 0.500000
O O17 0.668352 0.577361 0.687884
#
# Coordination Sequence:
#
# PCOD9013480 Si02
#       8
#     2   2   2   2   2   2   2   2
#     4  11  20  42  71 102 137 179 227 281 339 401
#     4  10  21  41  64  97 141 184 218 277 346 408
#     4  10  24  39  62  98 137 172 223 293 332 397
#     4  11  24  39  63 103 141 175 228 280 337 410
#     4  11  21  39  71  97 133 183 229 272 346 410
#     4  11  20  37  68 102 132 171 238 287 327 393
#     4  11  21  39  71  97 130 183 231 271 340 413
#     4  11  21  41  68  93 123 180 235 274 347 395
#
# _framework density 24.540752000000001
#
# number of rings (size 3 to 8) (size 9 to 14) (size 15 to 20)
#    0.000    1.250    3.750    3.750    0.000    2.000 
#    0.000    5.625    0.000   46.500    0.000    1.750 
#    0.000    0.000    0.000    0.000    0.000    0.000 
#
# Total GULP energy -89320.034143 kJ/mol
# GULP energy per Si atom -5582.502134 kJ/mol
# Density = 2.448490 g / cm^3
# Si number density = 24.540752 Si / 1000 Ang^3
#
#
#
# Elastic Constant Matrix: (Units=GPa)
#
#
# Indices 1 2 3 4 5 6 
#
# 1 60.0068 39.8121 40.2441 -8.3544 4.4105 16.2692
# 2 39.8121 120.9691 96.6345 9.8880 6.9628 29.2707
# 3 40.2441 96.6345 195.6566 -10.5346 14.9375 22.4448
# 4 -8.3544 9.8880 -10.5346 50.7773 5.9691 4.2864
# 5 4.4105 6.9628 14.9375 5.9691 40.4987 -1.6311
# 6 16.2692 29.2707 22.4448 4.2864 -1.6311 32.6995
#
#
#
# Elastic Compliance Matrix: (Units=1/GPa)
#
#
# Indices 1 2 3 4 5 6 
#
# 1 0.023991 -0.006016 -0.000656 0.005865 -0.002483 -0.006994
# 2 -0.006016 0.018331 -0.007287 -0.005507 0.000695 -0.007657
# 3 -0.000656 -0.007287 0.009246 0.003544 -0.002612 -0.000092
# 4 0.005865 -0.005507 0.003544 0.023318 -0.004585 -0.003707
# 5 -0.002483 0.000695 -0.002612 -0.004585 0.026657 0.004337
# 6 -0.006994 -0.007657 -0.000092 -0.003707 0.004337 0.041680
#
#
# Mechanical properties :
#
#
# Convention : Reuss Voigt Hill
#
# Bulk Modulus (GPa) = 42.28412 81.11265 61.69838
# Shear Modulus (GPa) = 27.92906 38.12455 33.02680
#
# Velocity S-wave (km/s) = 3.37719 3.94575 3.67249
# Velocity P-wave (km/s) = 5.69866 7.34047 6.57105
#
# Compressibility (1/GPa) = 0.02364954
#
# Stress axis : x y z
#
# Youngs Moduli (GPa) = 41.68189 54.55320 108.15731
#
# Poissons Ratio (x) = 0.32820 0.07091
# Poissons Ratio (y) = 0.25077 0.78817
# Poissons Ratio (z) = 0.02733 0.39754
#
# Static dielectric constant tensor:
#      x y z
#    x 2.000240 -0.014240 -0.028870 
#    y -0.014240 1.994090 -0.074810 
#    z -0.028870 -0.074810 2.060070 
# 
# From -- ./inp_files/222615.got.cif
#   From: 2010.05.17/outbox.cif.g08.bks.cpg/sg2_112_cif.got.tgz:222615.got - 2010.06.03 11:33:40.
