data_PCOD9013727
_publ_section_title
;
Structure prediction by ZEFSAII (Michael W. Deem and Ramdas Pophale) SiO2 
 PCOD9013727
Probable space group: P -1
;
_chemical_formula_sum "Si O2"
_cell_formula_units_Z 16
_cell_length_a 14.705194
_cell_length_b 11.024764
_cell_length_c 8.217310
_cell_angle_alpha 108.098530
_cell_angle_beta 96.337791
_cell_angle_gamma 134.974482
_cell_volume 780.536690
_symmetry_space_group_name_H-M "P -1"
_symmetry_group_IT_number 2
_symmetry_cell_setting 'triclinic'
loop_
_space_group_symop_operation_xyz
x,y,z
-x,-y,-z
loop_
_atom_site_type_symbol
_atom_site_label
_atom_site_fract_x
_atom_site_fract_y
_atom_site_fract_z
Si Si1 0.181664 0.265046 0.074670
Si Si2 0.265400 0.753259 0.011130
Si Si3 0.719531 0.042190 0.600109
Si Si4 0.998536 0.616570 0.421114
Si Si5 0.448740 0.728381 0.199578
Si Si6 0.354860 0.264590 0.333238
Si Si7 0.653890 0.929734 0.031850
Si Si8 0.034211 0.862515 0.774907
O O1 0.324124 0.491286 0.127372
O O2 0.239256 0.232648 0.213422
O O3 0.072206 0.243616 0.133666
O O4 0.096182 0.075164 0.856593
O O5 0.238917 0.823581 0.182718
O O6 0.364503 0.751678 0.106293
O O7 0.117866 0.538093 0.809565
O O8 0.344946 0.921361 0.954686
O O9 0.840284 0.195035 0.548771
O O10 0.554458 0.887208 0.435004
O O11 0.714860 0.891170 0.598288
O O12 0.960084 0.706022 0.546095
O O13 0.000000 0.500000 0.500000
O O14 0.562585 0.798259 0.118604
O O15 0.500000 0.500000 0.500000
O O16 0.406042 0.215617 0.191694
O O17 0.822718 0.068351 0.135892
#
# Coordination Sequence:
#
# PCOD9013727 Si02
#       8
#     2   2   2   2   2   2   2   2
#     4  10  24  41  69 100 129 178 218 285 330 399
#     4  11  25  41  63 102 138 175 225 275 336 404
#     4  11  24  43  68  99 136 179 223 278 340 401
#     4  12  24  43  70  98 134 184 225 272 336 404
#     4  12  23  42  69 102 131 174 228 279 341 390
#     4  10  21  41  65  94 133 171 222 273 343 395
#     4  10  22  42  66  93 135 176 218 283 329 402
#     4  10  22  44  66  92 136 172 221 269 335 396
#
# _framework density 20.498716999999999
#
# number of rings (size 3 to 8) (size 9 to 14) (size 15 to 20)
#    0.000    1.250    3.750    1.125    1.750    8.000 
#    2.250    1.250    0.000    0.000    0.000    0.000 
#    0.000    0.000    0.000    0.000    0.000    0.000 
#
# Total GULP energy -89331.248050 kJ/mol
# GULP energy per Si atom -5583.203003 kJ/mol
# Density = 2.045206 g / cm^3
# Si number density = 20.498717 Si / 1000 Ang^3
#
#
#
# Elastic Constant Matrix: (Units=GPa)
#
#
# Indices 1 2 3 4 5 6 
#
# 1 85.8743 52.6582 26.2165 1.9102 7.3465 -3.9776
# 2 52.6582 160.1673 54.7001 7.5318 -0.3432 2.6269
# 3 26.2165 54.7001 121.1757 25.1917 -15.4009 -4.5889
# 4 1.9102 7.5318 25.1917 31.2377 -6.3442 -0.7749
# 5 7.3465 -0.3432 -15.4009 -6.3442 29.0184 -4.0441
# 6 -3.9776 2.6269 -4.5889 -0.7749 -4.0441 19.7894
#
#
#
# Elastic Compliance Matrix: (Units=1/GPa)
#
#
# Indices 1 2 3 4 5 6 
#
# 1 0.015488 -0.004504 -0.001984 0.000883 -0.004505 0.002365
# 2 -0.004504 0.008902 -0.003394 0.000621 -0.000841 -0.003022
# 3 -0.001984 -0.003394 0.012808 -0.008064 0.006046 0.003942
# 4 0.000883 0.000621 -0.008064 0.039170 0.004153 0.000608
# 5 -0.004505 -0.000841 0.006046 0.004153 0.040983 0.009146
# 6 0.002365 -0.003022 0.003942 0.000608 0.009146 0.054215
#
#
# Mechanical properties :
#
#
# Convention : Reuss Voigt Hill
#
# Bulk Modulus (GPa) = 57.36344 70.48519 63.92431
# Shear Modulus (GPa) = 25.36226 31.58526 28.47376
#
# Velocity S-wave (km/s) = 3.52129 3.92961 3.73104
# Velocity P-wave (km/s) = 6.67662 7.41950 7.05784
#
# Compressibility (1/GPa) = 0.01743271
#
# Stress axis : x y z
#
# Youngs Moduli (GPa) = 64.56626 112.33187 78.07562
#
# Poissons Ratio (x) = 0.50598 0.15490
# Poissons Ratio (y) = 0.29083 0.26502
# Poissons Ratio (z) = 0.12810 0.38130
#
# Static dielectric constant tensor:
#      x y z
#    x 1.732310 -0.009060 -0.007680 
#    y -0.009060 1.729120 0.003890 
#    z -0.007680 0.003890 1.801860 
# 
# From -- ./inp_files/308043.got.cif
#   From: 2010.05.17/outbox.cif.g08.bks.cpg/sg2_155_cif.got.tgz:308043.got - 2010.06.03 11:33:40.
