data_PCOD9013696
_publ_section_title
;
Structure prediction by ZEFSAII (Michael W. Deem and Ramdas Pophale) SiO2 
 PCOD9013696
Probable space group: P -1
;
_chemical_formula_sum "Si O2"
_cell_formula_units_Z 14
_cell_length_a 7.442164
_cell_length_b 16.719614
_cell_length_c 11.646943
_cell_angle_alpha 140.593179
_cell_angle_beta 57.630205
_cell_angle_gamma 133.391924
_cell_volume 668.507834
_symmetry_space_group_name_H-M "P -1"
_symmetry_group_IT_number 2
_symmetry_cell_setting 'triclinic'
loop_
_space_group_symop_operation_xyz
x,y,z
-x,-y,-z
loop_
_atom_site_type_symbol
_atom_site_label
_atom_site_fract_x
_atom_site_fract_y
_atom_site_fract_z
Si Si1 0.513882 0.142193 0.709632
Si Si2 0.447953 0.383966 0.487667
Si Si3 0.196479 0.161479 0.656472
Si Si4 0.000844 0.404094 0.722550
Si Si5 0.700279 0.330068 0.521389
Si Si6 0.827950 0.268509 0.945269
Si Si7 0.372730 0.827556 0.846862
O O1 0.286591 0.149978 0.741099
O O2 0.758051 0.286517 0.740285
O O3 0.576837 0.154191 0.836295
O O4 0.500000 0.000000 0.500000
O O5 0.500000 0.500000 0.500000
O O6 0.657766 0.438311 0.574609
O O7 0.445166 0.239905 0.282798
O O8 0.195771 0.350640 0.595114
O O9 0.441441 0.233152 0.571915
O O10 0.055421 0.251730 0.805920
O O11 0.000000 0.000000 0.500000
O O12 0.914584 0.404545 0.622158
O O13 0.118418 0.568029 0.909073
O O14 0.740771 0.230898 0.305498
O O15 0.799473 0.236082 0.054335
O O16 0.500000 0.000000 0.000000
#
# Coordination Sequence:
#
# PCOD9013696 Si02
#       7
#     2   2   2   2   2   2   2
#     4  11  25  40  67  98 132 172 222 270 334 394
#     4  10  21  41  65  93 133 175 212 269 334 381
#     4  11  22  42  68  91 130 177 214 271 342 381
#     4  11  23  43  67 100 131 178 219 272 331 397
#     4   9  23  41  66  92 136 169 218 269 337 385
#     4  12  24  41  67  97 134 169 225 274 320 400
#     4  10  23  42  66  95 132 172 223 272 323 395
#
# _framework density 20.942162
#
# number of rings (size 3 to 8) (size 9 to 14) (size 15 to 20)
#    0.857    0.571    2.857    2.143    2.000    5.714 
#    2.571    0.714    0.000    0.000    0.000    0.000 
#    0.000    0.000    0.000    0.000    0.000    0.000 
#
# Total GULP energy -78108.945174 kJ/mol
# GULP energy per Si atom -5579.210370 kJ/mol
# Density = 2.089450 g / cm^3
# Si number density = 20.942162 Si / 1000 Ang^3
#
#
#
# Elastic Constant Matrix: (Units=GPa)
#
#
# Indices 1 2 3 4 5 6 
#
# 1 106.1413 -11.5218 41.3703 2.8837 10.5066 -7.4479
# 2 -11.5218 59.2859 33.5856 6.2103 -2.6078 -6.0251
# 3 41.3703 33.5856 126.4688 8.1398 10.5199 2.5541
# 4 2.8837 6.2103 8.1398 38.2270 -6.6799 1.0723
# 5 10.5066 -2.6078 10.5199 -6.6799 40.8203 -0.7099
# 6 -7.4479 -6.0251 2.5541 1.0723 -0.7099 28.5422
#
#
#
# Elastic Compliance Matrix: (Units=1/GPa)
#
#
# Indices 1 2 3 4 5 6 
#
# 1 0.012948 0.006419 -0.005844 -0.001188 -0.001519 0.005264
# 2 0.006419 0.024142 -0.008663 -0.002453 0.001855 0.007685
# 3 -0.005844 -0.008663 0.012493 -0.001128 -0.002532 -0.004492
# 4 -0.001188 -0.002453 -0.001128 0.027801 0.004961 -0.001648
# 5 -0.001519 0.001855 -0.002532 0.004961 0.026484 0.000694
# 6 0.005264 0.007685 -0.004492 -0.001648 0.000694 0.038513
#
#
# Mechanical properties :
#
#
# Convention : Reuss Voigt Hill
#
# Bulk Modulus (GPa) = 29.93207 46.52937 38.23072
# Shear Modulus (GPa) = 29.46535 36.74870 33.10703
#
# Velocity S-wave (km/s) = 3.75505 4.19354 3.98034
# Velocity P-wave (km/s) = 5.75537 6.76121 6.27847
#
# Compressibility (1/GPa) = 0.03340898
#
# Stress axis : x y z
#
# Youngs Moduli (GPa) = 77.23229 41.42157 80.04393
#
# Poissons Ratio (x) = -0.26590 0.46775
# Poissons Ratio (y) = -0.49578 0.69340
# Poissons Ratio (z) = 0.45132 0.35883
#
# Static dielectric constant tensor:
#      x y z
#    x 1.693490 -0.003440 0.064100 
#    y -0.003440 1.760320 -0.069330 
#    z 0.064100 -0.069330 1.755850 
# 
# From -- ./inp_files/401409.got.cif
#   From: 2010.05.17/outbox.cif.g08.bks.cpg/sg2_201_cif.got.tgz:401409.got - 2010.06.03 11:33:40.
