data_PCOD9013711
_publ_section_title
;
Structure prediction by ZEFSAII (Michael W. Deem and Ramdas Pophale) SiO2 
 PCOD9013711
Probable space group: P -1
;
_chemical_formula_sum "Si O2"
_cell_formula_units_Z 12
_cell_length_a 6.218716
_cell_length_b 13.445605
_cell_length_c 6.812573
_cell_angle_alpha 72.073437
_cell_angle_beta 68.470261
_cell_angle_gamma 85.028147
_cell_volume 503.937166
_symmetry_space_group_name_H-M "P -1"
_symmetry_group_IT_number 2
_symmetry_cell_setting 'triclinic'
loop_
_space_group_symop_operation_xyz
x,y,z
-x,-y,-z
loop_
_atom_site_type_symbol
_atom_site_label
_atom_site_fract_x
_atom_site_fract_y
_atom_site_fract_z
Si Si1 0.339048 0.266064 0.622228
Si Si2 0.317169 0.876781 0.585056
Si Si3 0.825381 0.575837 0.744487
Si Si4 0.892634 0.743089 0.923174
Si Si5 0.588903 0.943056 0.812927
Si Si6 0.664189 0.421880 0.608877
O O1 0.442259 0.163092 0.560540
O O2 0.294549 0.341796 0.409677
O O3 0.535245 0.311931 0.678929
O O4 0.112325 0.259830 0.837356
O O5 0.373824 0.916336 0.759068
O O6 0.133234 0.781805 0.722660
O O7 0.253472 0.972051 0.409978
O O8 0.823936 0.629349 0.925209
O O9 0.706715 0.464511 0.790490
O O10 0.089766 0.571768 0.586087
O O11 0.721177 0.836680 0.872288
O O12 0.500000 0.000000 0.000000
O O13 0.500000 0.500000 0.500000
#
# Coordination Sequence:
#
# PCOD9013711 Si02
#       6
#     2   2   2   2   2   2
#     4  11  22  40  64  96 126 164 212 255 307 374
#     4  11  24  42  63  92 130 161 212 265 302 370
#     4  10  21  41  65  94 128 166 205 259 312 364
#     4  12  24  39  68  95 124 170 211 250 316 372
#     4  11  24  44  64  91 128 169 208 258 317 364
#     4   9  20  41  67  90 131 164 202 262 310 368
#
# _framework density 23.812494000000001
#
# number of rings (size 3 to 8) (size 9 to 14) (size 15 to 20)
#    0.000    1.333    5.000    0.500    0.000    4.000 
#    0.000    7.500    0.000    0.000    0.000    0.000 
#    0.000    0.000    0.000    0.000    0.000    0.000 
#
# Total GULP energy -67065.223445 kJ/mol
# GULP energy per Si atom -5588.768620 kJ/mol
# Density = 2.375830 g / cm^3
# Si number density = 23.812494 Si / 1000 Ang^3
#
#
#
# Elastic Constant Matrix: (Units=GPa)
#
#
# Indices 1 2 3 4 5 6 
#
# 1 50.9394 19.7747 1.2512 17.1042 -8.5114 0.6442
# 2 19.7747 94.4382 16.5580 36.5623 3.4425 4.4435
# 3 1.2512 16.5580 73.1273 30.1847 4.5136 9.1806
# 4 17.1042 36.5623 30.1847 47.4188 1.5163 -3.3310
# 5 -8.5114 3.4425 4.5136 1.5163 20.1007 0.1042
# 6 0.6442 4.4435 9.1806 -3.3310 0.1042 36.2392
#
#
#
# Elastic Compliance Matrix: (Units=1/GPa)
#
#
# Indices 1 2 3 4 5 6 
#
# 1 0.025927 -0.002317 0.004069 -0.010672 0.011278 -0.002221
# 2 -0.002317 0.016107 0.002609 -0.013407 -0.003294 -0.003818
# 3 0.004069 0.002609 0.021290 -0.017482 -0.002148 -0.007387
# 4 -0.010672 -0.013407 -0.017482 0.047211 -0.001913 0.010607
# 5 0.011278 -0.003294 -0.002148 -0.001913 0.055714 0.000412
# 6 -0.002221 -0.003818 -0.007387 0.010607 0.000412 0.030947
#
#
# Mechanical properties :
#
#
# Convention : Reuss Voigt Hill
#
# Bulk Modulus (GPa) = 13.88002 32.63030 23.25516
# Shear Modulus (GPa) = 23.53065 32.81316 28.17190
#
# Velocity S-wave (km/s) = 3.14692 3.71614 3.44331
# Velocity P-wave (km/s) = 4.36413 5.66972 5.05922
#
# Compressibility (1/GPa) = 0.07204600
#
# Stress axis : x y z
#
# Youngs Moduli (GPa) = 38.57032 62.08446 46.96964
#
# Poissons Ratio (x) = 0.14386 -0.19111
# Poissons Ratio (y) = 0.08937 -0.12256
# Poissons Ratio (z) = -0.15694 -0.16200
#
# Static dielectric constant tensor:
#      x y z
#    x 1.901810 0.042080 -0.020130 
#    y 0.042080 1.930030 -0.000500 
#    z -0.020130 -0.000500 1.930790 
# 
# From -- ./inp_files/3420.got.cif
#   From: 2010.05.17/outbox.cif.g08.bks.cpg/sg2_2_cif.got.tgz:3420.got - 2010.06.03 11:33:40.
