data_PCOD9013773
_publ_section_title
;
Structure prediction by ZEFSAII (Michael W. Deem and Ramdas Pophale) SiO2 
 PCOD9013773
Probable space group: P -1
;
_chemical_formula_sum "Si O2"
_cell_formula_units_Z 16
_cell_length_a 17.431723
_cell_length_b 11.895488
_cell_length_c 7.944865
_cell_angle_alpha 107.794088
_cell_angle_beta 114.895512
_cell_angle_gamma 26.530301
_cell_volume 657.144241
_symmetry_space_group_name_H-M "P -1"
_symmetry_group_IT_number 2
_symmetry_cell_setting 'triclinic'
loop_
_space_group_symop_operation_xyz
x,y,z
-x,-y,-z
loop_
_atom_site_type_symbol
_atom_site_label
_atom_site_fract_x
_atom_site_fract_y
_atom_site_fract_z
Si Si1 0.121388 0.664370 0.623969
Si Si2 0.466357 0.343524 0.616768
Si Si3 0.500948 0.454683 0.176977
Si Si4 0.582609 0.103463 0.257094
Si Si5 0.039625 0.368564 0.711344
Si Si6 0.208103 0.509589 0.018259
Si Si7 0.841575 0.814643 0.881703
Si Si8 0.863059 0.154406 0.788965
O O1 0.296234 0.481202 0.591380
O O2 0.022421 0.673896 0.456218
O O3 0.201412 0.547634 0.832199
O O4 0.969768 0.953829 0.650571
O O5 0.394872 0.567018 0.646479
O O6 0.546322 0.202914 0.450764
O O7 0.644880 0.112684 0.796916
O O8 0.567770 0.238768 0.181421
O O9 0.307354 0.697823 0.209855
O O10 0.500000 0.500000 0.000000
O O11 0.418285 0.216293 0.116235
O O12 0.785012 0.798013 0.301750
O O13 0.868495 0.664611 0.724680
O O14 0.128447 0.245852 0.922300
O O15 0.187108 0.646754 0.190597
O O16 0.024649 0.662261 0.940569
O O17 0.000000 0.000000 0.000000
#
# Coordination Sequence:
#
# PCOD9013773 Si02
#       8
#     2   2   2   2   2   2   2   2
#     4  11  23  40  66  95 131 172 218 267 321 384
#     4  12  24  41  63  94 131 174 217 266 323 382
#     4  11  21  38  64  95 133 171 211 264 325 385
#     4  11  24  41  65  97 132 168 215 263 324 394
#     4  11  25  45  66  96 127 170 222 270 325 385
#     4  10  21  41  65  96 129 168 212 265 327 385
#     4  11  25  45  69  92 129 171 219 274 324 384
#     4   9  18  35  60  95 131 167 210 260 322 387
#
# _framework density 24.347773
#
# number of rings (size 3 to 8) (size 9 to 14) (size 15 to 20)
#    0.000    1.250    0.000    7.875    0.000    5.000 
#    0.000    3.750    0.000    0.000    0.000    0.000 
#    0.000    0.000    0.000    0.000    0.000    0.000 
#
# Total GULP energy -89328.249848 kJ/mol
# GULP energy per Si atom -5583.015615 kJ/mol
# Density = 2.429236 g / cm^3
# Si number density = 24.347773 Si / 1000 Ang^3
#
#
#
# Elastic Constant Matrix: (Units=GPa)
#
#
# Indices 1 2 3 4 5 6 
#
# 1 49.1810 26.2827 26.4351 10.6431 -3.7717 -22.9714
# 2 26.2827 125.6788 42.9936 17.0220 14.7505 -13.0891
# 3 26.4351 42.9936 124.0746 22.3185 -0.5790 -0.9785
# 4 10.6431 17.0220 22.3185 49.1434 -7.4782 2.6700
# 5 -3.7717 14.7505 -0.5790 -7.4782 48.0057 1.1725
# 6 -22.9714 -13.0891 -0.9785 2.6700 1.1725 36.2298
#
#
#
# Elastic Compliance Matrix: (Units=1/GPa)
#
#
# Indices 1 2 3 4 5 6 
#
# 1 0.036728 -0.002989 -0.005667 -0.005198 0.002380 0.022360
# 2 -0.002989 0.010479 -0.002538 -0.002544 -0.003934 0.002137
# 3 -0.005667 -0.002538 0.010554 -0.002439 0.000181 -0.004051
# 4 -0.005198 -0.002544 -0.002439 0.024457 0.004306 -0.006223
# 5 0.002380 -0.003934 0.000181 0.004306 0.022923 -0.000967
# 6 0.022360 0.002137 -0.004051 -0.006223 -0.000967 0.042932
#
#
# Mechanical properties :
#
#
# Convention : Reuss Voigt Hill
#
# Bulk Modulus (GPa) = 28.26995 54.48413 41.37704
# Shear Modulus (GPa) = 27.43467 40.22399 33.82933
#
# Velocity S-wave (km/s) = 3.36040 4.06896 3.73154
# Velocity P-wave (km/s) = 5.16648 6.67093 5.96632
#
# Compressibility (1/GPa) = 0.03537325
#
# Stress axis : x y z
#
# Youngs Moduli (GPa) = 27.22738 95.42930 94.74854
#
# Poissons Ratio (x) = 0.28520 0.53695
# Poissons Ratio (y) = 0.08137 0.24049
# Poissons Ratio (z) = 0.15430 0.24222
#
# Static dielectric constant tensor:
#      x y z
#    x 2.153160 -0.015510 -0.072020 
#    y -0.015510 2.091690 0.035400 
#    z -0.072020 0.035400 1.991530 
# 
# From -- ./inp_files/347662.got.cif
#   From: 2010.05.17/outbox.cif.g08.bks.cpg/sg2_174_cif.got.tgz:347662.got - 2010.06.03 11:33:40.
