data_PCOD9013368
_publ_section_title
;
Structure prediction by ZEFSAII (Michael W. Deem and Ramdas Pophale) SiO2 
 PCOD9013368
Probable space group: P -1
;
_chemical_formula_sum "Si O2"
_cell_formula_units_Z 16
_cell_length_a 8.434515
_cell_length_b 17.508381
_cell_length_c 6.900912
_cell_angle_alpha 119.794557
_cell_angle_beta 53.640209
_cell_angle_gamma 107.625977
_cell_volume 712.150305
_symmetry_space_group_name_H-M "P -1"
_symmetry_group_IT_number 2
_symmetry_cell_setting 'triclinic'
loop_
_space_group_symop_operation_xyz
x,y,z
-x,-y,-z
loop_
_atom_site_type_symbol
_atom_site_label
_atom_site_fract_x
_atom_site_fract_y
_atom_site_fract_z
Si Si1 0.992830 0.486670 0.716385
Si Si2 0.147074 0.631388 0.016200
Si Si3 0.430362 0.293784 0.104671
Si Si4 0.371975 0.410237 0.942334
Si Si5 0.610310 0.001879 0.127564
Si Si6 0.770161 0.739868 0.388994
Si Si7 0.645354 0.127417 0.588532
Si Si8 0.053251 0.084366 0.433558
O O1 0.937980 0.395629 0.743008
O O2 0.000000 0.500000 0.500000
O O3 0.807282 0.545849 0.982009
O O4 0.163275 0.542028 0.765346
O O5 0.985635 0.698553 0.137980
O O6 0.364014 0.668748 0.916965
O O7 0.292240 0.267307 0.349334
O O8 0.337299 0.367442 0.125340
O O9 0.509884 0.212058 0.819716
O O10 0.391983 0.320812 0.684945
O O11 0.500000 0.500000 0.000000
O O12 0.468394 0.946154 0.297594
O O13 0.653317 0.094219 0.319557
O O14 0.815073 0.953321 0.882818
O O15 0.500000 0.000000 0.000000
O O16 0.811670 0.843792 0.458150
O O17 0.861260 0.130694 0.537398
O O18 0.000000 0.000000 0.500000
#
# Coordination Sequence:
#
# PCOD9013368 Si02
#       8
#     2   2   2   2   2   2   2   2
#     4  10  21  41  64  92 130 170 224 276 333 396
#     4  10  22  41  64  94 129 174 222 275 331 402
#     4  12  24  42  69  95 136 178 223 277 341 393
#     4  11  25  43  65 102 134 174 228 277 331 406
#     4  11  24  45  71 100 134 176 226 282 339 409
#     4  11  26  44  66 100 141 175 228 283 334 400
#     4  11  25  43  69  99 135 179 228 276 343 410
#     4  12  24  46  72 101 139 182 228 282 348 405
#
# _framework density 22.467168000000001
#
# number of rings (size 3 to 8) (size 9 to 14) (size 15 to 20)
#    0.000    1.000    5.000    1.125    3.500    0.500 
#    2.250    1.250    0.000    0.000    0.000    0.000 
#    0.000    0.000    0.000    0.000    0.000    0.000 
#
# Total GULP energy -89109.282214 kJ/mol
# GULP energy per Si atom -5569.330138 kJ/mol
# Density = 2.241603 g / cm^3
# Si number density = 22.467168 Si / 1000 Ang^3
#
#
#
# Elastic Constant Matrix: (Units=GPa)
#
#
# Indices 1 2 3 4 5 6 
#
# 1 43.1438 19.4476 19.0782 15.2565 10.4527 4.0710
# 2 19.4476 108.5558 24.3215 13.5877 23.7178 16.3322
# 3 19.0782 24.3215 75.2803 1.9465 17.3844 10.3570
# 4 15.2565 13.5877 1.9465 27.1396 -1.2246 7.6619
# 5 10.4527 23.7178 17.3844 -1.2246 33.7011 1.9611
# 6 4.0710 16.3322 10.3570 7.6619 1.9611 35.6627
#
#
#
# Elastic Compliance Matrix: (Units=1/GPa)
#
#
# Indices 1 2 3 4 5 6 
#
# 1 0.035289 -0.001122 -0.006746 -0.020028 -0.007588 0.003165
# 2 -0.001122 0.012589 -0.001342 -0.004861 -0.007776 -0.003776
# 3 -0.006746 -0.001342 0.017146 0.004174 -0.005412 -0.004194
# 4 -0.020028 -0.004861 0.004174 0.053132 0.009914 -0.008660
# 5 -0.007588 -0.007776 -0.005412 0.009914 0.040555 0.001639
# 6 0.003165 -0.003776 -0.004194 -0.008660 0.001639 0.032397
#
#
# Mechanical properties :
#
#
# Convention : Reuss Voigt Hill
#
# Bulk Modulus (GPa) = 21.45754 39.18604 30.32179
# Shear Modulus (GPa) = 22.21606 30.24285 26.22945
#
# Velocity S-wave (km/s) = 3.14797 3.67289 3.42051
# Velocity P-wave (km/s) = 4.77329 5.95535 5.39678
#
# Compressibility (1/GPa) = 0.04660366
#
# Stress axis : x y z
#
# Youngs Moduli (GPa) = 28.33737 79.43423 58.32347
#
# Poissons Ratio (x) = 0.08913 0.39346
# Poissons Ratio (y) = 0.03180 0.07827
# Poissons Ratio (z) = 0.19117 0.10660
#
# Static dielectric constant tensor:
#      x y z
#    x 1.890370 0.057110 0.038640 
#    y 0.057110 1.946540 0.101430 
#    z 0.038640 0.101430 1.928160 
# 
# From -- ./inp_files/48824.got.cif
#   From: 2010.05.17/outbox.cif.g08.bks.cpg/sg2_25_cif.got.tgz:48824.got - 2010.06.03 11:33:40.
