data_PCOD9013187
_publ_section_title
;
Structure prediction by ZEFSAII (Michael W. Deem and Ramdas Pophale) SiO2 
 PCOD9013187
Probable space group: P -1
;
_chemical_formula_sum "Si O2"
_cell_formula_units_Z 14
_cell_length_a 13.832120
_cell_length_b 12.193699
_cell_length_c 18.611274
_cell_angle_alpha 152.612996
_cell_angle_beta 27.326569
_cell_angle_gamma 149.749448
_cell_volume 619.652804
_symmetry_space_group_name_H-M "P -1"
_symmetry_group_IT_number 2
_symmetry_cell_setting 'triclinic'
loop_
_space_group_symop_operation_xyz
x,y,z
-x,-y,-z
loop_
_atom_site_type_symbol
_atom_site_label
_atom_site_fract_x
_atom_site_fract_y
_atom_site_fract_z
Si Si1 0.609290 0.264795 0.369648
Si Si2 0.799073 0.928906 0.245155
Si Si3 0.826441 0.999791 0.427521
Si Si4 0.964332 0.426533 0.339033
Si Si5 0.331544 0.259239 0.929802
Si Si6 0.241425 0.823144 0.064317
Si Si7 0.902049 0.396094 0.118562
O O1 0.753492 0.439544 0.440428
O O2 0.724874 0.391237 0.293582
O O3 0.342664 0.179020 0.506574
O O4 0.644421 0.993544 0.200004
O O5 0.648434 0.768453 0.185651
O O6 0.713038 0.908977 0.371758
O O7 0.878057 0.223930 0.341898
O O8 0.010498 0.834466 0.055173
O O9 0.874562 0.296577 0.581778
O O10 0.068885 0.972047 0.253998
O O11 0.096219 0.296418 0.123762
O O12 0.500000 0.500000 0.000000
O O13 0.132405 0.639901 0.097472
O O14 0.211065 0.651607 0.912977
O O15 0.500000 0.000000 0.000000
#
# Coordination Sequence:
#
# PCOD9013187 Si02
#       7
#     2   2   2   2   2   2   2
#     4  11  22  40  66  97 136 168 217 265 322 390
#     4  10  21  41  63  94 135 175 215 257 318 387
#     4  11  25  41  64 101 133 169 217 276 326 374
#     4  11  21  39  63  99 137 172 215 258 322 387
#     4  11  20  37  66  97 135 182 214 250 317 404
#     4  10  25  46  67  92 123 169 226 271 327 387
#     4  10  21  43  70  89 124 176 219 261 322 390
#
# _framework density 22.593298000000001
#
# number of rings (size 3 to 8) (size 9 to 14) (size 15 to 20)
#    0.000    1.429    4.286    1.286    0.000    8.571 
#    2.571    1.429    0.000    0.000    0.000    0.000 
#    0.000    0.000    0.000    0.000    0.000    0.000 
#
# Total GULP energy -78193.145758 kJ/mol
# GULP energy per Si atom -5585.224697 kJ/mol
# Density = 2.254188 g / cm^3
# Si number density = 22.593298 Si / 1000 Ang^3
#
#
#
# Elastic Constant Matrix: (Units=GPa)
#
#
# Indices 1 2 3 4 5 6 
#
# 1 80.6623 69.7074 36.7683 -10.1516 12.7112 1.0642
# 2 69.7074 145.6272 48.3869 -29.3644 18.8699 9.4103
# 3 36.7683 48.3869 94.4469 -9.0292 6.4075 1.2237
# 4 -10.1516 -29.3644 -9.0292 42.3438 0.7976 -1.6552
# 5 12.7112 18.8699 6.4075 0.7976 30.2816 -7.8030
# 6 1.0642 9.4103 1.2237 -1.6552 -7.8030 42.7132
#
#
#
# Elastic Compliance Matrix: (Units=1/GPa)
#
#
# Indices 1 2 3 4 5 6 
#
# 1 0.022697 -0.009779 -0.003888 -0.002080 -0.002244 0.001210
# 2 -0.009779 0.014924 -0.002691 0.007394 -0.005783 -0.003737
# 3 -0.003888 -0.002691 0.013443 0.000074 0.000568 0.000411
# 4 -0.002080 0.007394 0.000074 0.028299 -0.004848 -0.001368
# 5 -0.002244 -0.005783 0.000568 -0.004848 0.039737 0.008385
# 6 0.001210 -0.003737 0.000411 -0.001368 0.008385 0.025672
#
#
# Mechanical properties :
#
#
# Convention : Reuss Voigt Hill
#
# Bulk Modulus (GPa) = 54.50387 70.05126 62.27757
# Shear Modulus (GPa) = 27.23261 34.12598 30.67929
#
# Velocity S-wave (km/s) = 3.47557 3.89066 3.68896
# Velocity P-wave (km/s) = 6.34684 7.15931 6.76528
#
# Compressibility (1/GPa) = 0.01834732
#
# Stress axis : x y z
#
# Youngs Moduli (GPa) = 44.05961 67.00794 74.38582
#
# Poissons Ratio (x) = 0.65527 0.28922
# Poissons Ratio (y) = 0.43086 0.20018
# Poissons Ratio (z) = 0.17131 0.18032
#
# Static dielectric constant tensor:
#      x y z
#    x 1.867160 0.007670 -0.034530 
#    y 0.007670 1.860860 -0.029450 
#    z -0.034530 -0.029450 1.884210 
# 
# From -- ./inp_files/573502.got.cif
#   From: 2010.05.17/outbox.cif.g08.bks.cpg/sg2_287_cif.got.tgz:573502.got - 2010.06.03 11:33:40.
