data_PCOD9013790
_publ_section_title
;
Structure prediction by ZEFSAII (Michael W. Deem and Ramdas Pophale) SiO2 
 PCOD9013790
Probable space group: P -1
;
_chemical_formula_sum "Si O2"
_cell_formula_units_Z 14
_cell_length_a 9.564162
_cell_length_b 10.982736
_cell_length_c 10.208002
_cell_angle_alpha 128.448568
_cell_angle_beta 88.109371
_cell_angle_gamma 125.356209
_cell_volume 588.431196
_symmetry_space_group_name_H-M "P -1"
_symmetry_group_IT_number 2
_symmetry_cell_setting 'triclinic'
loop_
_space_group_symop_operation_xyz
x,y,z
-x,-y,-z
loop_
_atom_site_type_symbol
_atom_site_label
_atom_site_fract_x
_atom_site_fract_y
_atom_site_fract_z
Si Si1 0.085901 0.912570 0.220097
Si Si2 0.876177 0.046659 0.235176
Si Si3 0.196418 0.560902 0.079092
Si Si4 0.082989 0.464832 0.354445
Si Si5 0.832692 0.209156 0.605017
Si Si6 0.525686 0.235961 0.033616
Si Si7 0.522517 0.172180 0.280006
O O1 0.103924 0.868351 0.341007
O O2 0.295646 0.035443 0.229895
O O3 0.028764 0.044059 0.287360
O O4 0.896834 0.665216 0.002981
O O5 0.803372 0.092831 0.393533
O O6 0.980993 0.221698 0.228950
O O7 0.671781 0.822430 0.030015
O O8 0.313580 0.787347 0.307474
O O9 0.316163 0.604502 0.976948
O O10 0.000000 0.500000 0.000000
O O11 0.031106 0.536940 0.283447
O O12 0.321386 0.652282 0.496005
O O13 0.000000 0.500000 0.500000
O O14 0.470837 0.008655 0.864643
O O15 0.585235 0.299906 0.225592
#
# Coordination Sequence:
#
# PCOD9013790 Si02
#       7
#     2   2   2   2   2   2   2
#     4  11  25  42  68 102 137 170 216 279 338 378
#     4  11  25  42  68 102 137 170 216 279 338 378
#     4  10  22  38  67  96 129 172 223 264 324 392
#     4  10  22  38  67  96 129 172 223 264 324 392
#     4  10  21  41  65  97 128 178 214 273 315 402
#     4  11  23  40  68  97 131 178 225 264 324 405
#     4  11  23  40  68  97 131 178 225 264 324 405
#
# _framework density 23.792074
#
# number of rings (size 3 to 8) (size 9 to 14) (size 15 to 20)
#    0.000    1.429    5.714    0.429   10.000    4.000 
#    0.000    0.000    0.000    0.000    0.000    0.000 
#    0.000    0.000    0.000    0.000    0.000    0.000 
#
# Total GULP energy -77992.120443 kJ/mol
# GULP energy per Si atom -5570.865746 kJ/mol
# Density = 2.373792 g / cm^3
# Si number density = 23.792074 Si / 1000 Ang^3
#
#
#
# Elastic Constant Matrix: (Units=GPa)
#
#
# Indices 1 2 3 4 5 6 
#
# 1 105.3149 63.4988 17.8938 -9.3091 18.7530 -5.9642
# 2 63.4988 130.9517 10.3994 -7.9435 16.2448 -9.5242
# 3 17.8938 10.3994 46.9452 -5.4148 18.9655 2.6676
# 4 -9.3091 -7.9435 -5.4148 36.4188 -0.0124 15.1391
# 5 18.7530 16.2448 18.9655 -0.0124 22.3371 4.6094
# 6 -5.9642 -9.5242 2.6676 15.1391 4.6094 24.5302
#
#
#
# Elastic Compliance Matrix: (Units=1/GPa)
#
#
# Indices 1 2 3 4 5 6 
#
# 1 0.014873 -0.005953 -0.001262 0.001519 -0.007479 0.001910
# 2 -0.005953 0.011346 0.001706 -0.000513 -0.005555 0.004133
# 3 -0.001262 0.001706 0.033621 0.005636 -0.028427 -0.001437
# 4 0.001519 -0.000513 0.005636 0.038608 -0.000684 -0.024142
# 5 -0.007479 -0.005555 -0.028427 -0.000684 0.082519 -0.015968
# 6 0.001910 0.004133 -0.001437 -0.024142 -0.015968 0.060891
#
#
# Mechanical properties :
#
#
# Convention : Reuss Voigt Hill
#
# Bulk Modulus (GPa) = 20.48282 51.86621 36.17452
# Shear Modulus (GPa) = 18.57697 29.41855 23.99776
#
# Velocity S-wave (km/s) = 2.79732 3.52018 3.17936
# Velocity P-wave (km/s) = 4.36590 6.19430 5.35866
#
# Compressibility (1/GPa) = 0.04882139
#
# Stress axis : x y z
#
# Youngs Moduli (GPa) = 67.23443 88.13535 29.74357
#
# Poissons Ratio (x) = 0.52467 0.03755
# Poissons Ratio (y) = 0.40025 -0.05074
# Poissons Ratio (z) = 0.08487 -0.15035
#
# Static dielectric constant tensor:
#      x y z
#    x 1.892540 0.023760 0.008110 
#    y 0.023760 2.030310 -0.068830 
#    z 0.008110 -0.068830 2.208630 
# 
# From -- ./inp_files/391354.got.cif
#   From: 2010.05.17/outbox.cif.g08.bks.cpg/sg2_196_cif.got.tgz:391354.got - 2010.06.03 11:33:40.
