data_PCOD9013521
_publ_section_title
;
Structure prediction by ZEFSAII (Michael W. Deem and Ramdas Pophale) SiO2 
 PCOD9013521
Probable space group: P -1
;
_chemical_formula_sum "Si O2"
_cell_formula_units_Z 14
_cell_length_a 12.446818
_cell_length_b 5.589360
_cell_length_c 11.179864
_cell_angle_alpha 119.245312
_cell_angle_beta 66.790572
_cell_angle_gamma 123.148756
_cell_volume 559.550298
_symmetry_space_group_name_H-M "P -1"
_symmetry_group_IT_number 2
_symmetry_cell_setting 'triclinic'
loop_
_space_group_symop_operation_xyz
x,y,z
-x,-y,-z
loop_
_atom_site_type_symbol
_atom_site_label
_atom_site_fract_x
_atom_site_fract_y
_atom_site_fract_z
Si Si1 0.759359 0.771507 0.569252
Si Si2 0.594539 0.369235 0.867992
Si Si3 0.072595 0.092097 0.866588
Si Si4 0.187811 0.037616 0.145086
Si Si5 0.478838 0.363270 0.664771
Si Si6 0.334044 0.699373 0.930048
Si Si7 0.793695 0.173228 0.424094
O O1 0.781011 0.957899 0.727922
O O2 0.603907 0.548881 0.572406
O O3 0.815371 0.521790 0.501089
O O4 0.812477 0.010467 0.496054
O O5 0.743318 0.604603 0.830579
O O6 0.531508 0.268200 0.740167
O O7 0.500000 0.500000 0.000000
O O8 0.607841 0.200027 0.938371
O O9 0.206587 0.379171 0.905498
O O10 0.112367 0.856383 0.724909
O O11 0.965930 0.139493 0.845597
O O12 0.000000 0.000000 0.000000
O O13 0.267650 0.923374 0.991129
O O14 0.426825 0.615077 0.784628
O O15 0.357166 0.059211 0.598922
#
# Coordination Sequence:
#
# PCOD9013521 Si02
#       7
#     2   2   2   2   2   2   2
#     4  11  26  45  70  98 143 187 227 278 343 413
#     4   9  19  37  58  96 131 169 213 280 338 399
#     4  11  24  45  72  99 132 176 231 293 345 405
#     4  11  24  40  67 100 135 182 229 279 344 407
#     4   9  21  41  67 100 134 182 225 287 340 407
#     4  10  21  41  65 101 135 173 229 287 343 401
#     4  11  26  48  67 102 137 183 235 280 339 414
#
# _framework density 25.020088999999999
#
# number of rings (size 3 to 8) (size 9 to 14) (size 15 to 20)
#    0.000    1.714    1.429    1.286    4.000    9.714 
#    5.143    0.000    0.000    0.000    0.000    0.000 
#    0.000    0.000    0.000    0.000    0.000    0.000 
#
# Total GULP energy -78155.084930 kJ/mol
# GULP energy per Si atom -5582.506066 kJ/mol
# Density = 2.496314 g / cm^3
# Si number density = 25.020089 Si / 1000 Ang^3
#
#
#
# Elastic Constant Matrix: (Units=GPa)
#
#
# Indices 1 2 3 4 5 6 
#
# 1 72.6036 28.0493 27.4936 5.0481 -14.4385 -10.4166
# 2 28.0493 68.1891 48.4100 -11.2820 -18.5445 -15.4252
# 3 27.4936 48.4100 109.8967 -1.4803 -24.5198 -19.0935
# 4 5.0481 -11.2820 -1.4803 36.1772 -0.3813 -7.7845
# 5 -14.4385 -18.5445 -24.5198 -0.3813 46.0807 0.9282
# 6 -10.4166 -15.4252 -19.0935 -7.7845 0.9282 24.5367
#
#
#
# Elastic Compliance Matrix: (Units=1/GPa)
#
#
# Indices 1 2 3 4 5 6 
#
# 1 0.017501 -0.006273 -0.000886 -0.004107 0.002426 0.001402
# 2 -0.006273 0.029357 -0.007537 0.012742 0.005667 0.013756
# 3 -0.000886 -0.007537 0.014661 -0.000281 0.004367 0.006040
# 4 -0.004107 0.012742 -0.000281 0.035941 0.003640 0.017313
# 5 0.002426 0.005667 0.004367 0.003640 0.026932 0.008126
# 6 0.001402 0.013756 0.006040 0.017313 0.008126 0.059884
#
#
# Mechanical properties :
#
#
# Convention : Reuss Voigt Hill
#
# Bulk Modulus (GPa) = 31.12473 50.95503 41.03988
# Shear Modulus (GPa) = 22.28407 31.14133 26.71270
#
# Velocity S-wave (km/s) = 2.98761 3.53179 3.27104
# Velocity P-wave (km/s) = 4.93639 6.08615 5.54118
#
# Compressibility (1/GPa) = 0.03212879
#
# Stress axis : x y z
#
# Youngs Moduli (GPa) = 57.13800 34.06338 68.20894
#
# Poissons Ratio (x) = 0.21368 0.06041
# Poissons Ratio (y) = 0.35843 0.51406
# Poissons Ratio (z) = 0.05060 0.25672
#
# Static dielectric constant tensor:
#      x y z
#    x 2.236120 -0.088970 0.003280 
#    y -0.088970 2.031360 0.019600 
#    z 0.003280 0.019600 1.980810 
# 
# From -- ./inp_files/93127.got.cif
#   From: 2010.05.17/outbox.cif.g08.bks.cpg/sg2_47_cif.got.tgz:93127.got - 2010.06.03 11:33:40.
