data_PCOD9013451
_publ_section_title
;
Structure prediction by ZEFSAII (Michael W. Deem and Ramdas Pophale) SiO2 
 PCOD9013451
Probable space group: P -1
;
_chemical_formula_sum "Si O2"
_cell_formula_units_Z 10
_cell_length_a 9.857678
_cell_length_b 14.001451
_cell_length_c 12.989762
_cell_angle_alpha 23.396441
_cell_angle_beta 34.490451
_cell_angle_gamma 33.368857
_cell_volume 377.650617
_symmetry_space_group_name_H-M "P -1"
_symmetry_group_IT_number 2
_symmetry_cell_setting 'triclinic'
loop_
_space_group_symop_operation_xyz
x,y,z
-x,-y,-z
loop_
_atom_site_type_symbol
_atom_site_label
_atom_site_fract_x
_atom_site_fract_y
_atom_site_fract_z
Si Si1 0.651593 0.695470 0.191622
Si Si2 0.408415 0.254108 0.049572
Si Si3 0.720733 0.537621 0.689746
Si Si4 0.938008 0.933189 0.988916
Si Si5 0.108712 0.294750 0.399544
O O1 0.500000 0.500000 0.500000
O O2 0.898165 0.581256 0.224716
O O3 0.729228 0.663699 0.054243
O O4 0.500000 0.000000 0.000000
O O5 0.246195 0.213811 0.285491
O O6 0.529306 0.469511 0.800291
O O7 0.638373 0.983817 0.147534
O O8 0.696633 0.750887 0.579650
O O9 0.000000 0.500000 0.500000
O O10 0.801690 0.304770 0.951873
O O11 0.936805 0.133532 0.704021
O O12 0.000000 0.000000 0.000000
#
# Coordination Sequence:
#
# PCOD9013451 Si02
#       5
#     2   2   2   2   2
#     4  12  26  52  77 101 146 195 238 301 366 428
#     4  11  24  44  70 108 136 186 245 293 359 424
#     4  11  21  43  68 100 147 189 230 294 361 425
#     4  10  21  41  64  95 144 179 233 277 365 405
#     4  12  24  44  72 104 142 185 242 296 355 430
#
# _framework density 26.479500999999999
#
# number of rings (size 3 to 8) (size 9 to 14) (size 15 to 20)
#    0.000    0.800    6.000    2.400    0.000    3.200 
#    7.200    2.000    0.000    0.000    0.000    0.000 
#    0.000    0.000    0.000    0.000    0.000    0.000 
#
# Total GULP energy -55676.341598 kJ/mol
# GULP energy per Si atom -5567.634160 kJ/mol
# Density = 2.641923 g / cm^3
# Si number density = 26.479501 Si / 1000 Ang^3
#
#
#
# Elastic Constant Matrix: (Units=GPa)
#
#
# Indices 1 2 3 4 5 6 
#
# 1 118.0786 -24.4509 9.8461 11.0178 1.3475 15.2514
# 2 -24.4509 102.4386 44.0482 10.8926 3.0882 18.0151
# 3 9.8461 44.0482 111.1939 10.5801 17.7956 15.0507
# 4 11.0178 10.8926 10.5801 53.2686 13.4726 15.4045
# 5 1.3475 3.0882 17.7956 13.4726 38.3798 2.6208
# 6 15.2514 18.0151 15.0507 15.4045 2.6208 31.8039
#
#
#
# Elastic Compliance Matrix: (Units=1/GPa)
#
#
# Indices 1 2 3 4 5 6 
#
# 1 0.010456 0.004501 -0.001922 -0.001168 0.000993 -0.006171
# 2 0.004501 0.014514 -0.005363 -0.001216 0.002095 -0.007426
# 3 -0.001922 -0.005363 0.012320 0.000966 -0.005423 -0.001892
# 4 -0.001168 -0.001216 0.000966 0.024058 -0.008058 -0.010197
# 5 0.000993 0.002095 -0.005423 -0.008058 0.031042 0.002249
# 6 -0.006171 -0.007426 -0.001892 -0.010197 0.002249 0.044257
#
#
# Mechanical properties :
#
#
# Convention : Reuss Voigt Hill
#
# Bulk Modulus (GPa) = 31.52123 43.39977 37.46050
# Shear Modulus (GPa) = 32.72521 44.84165 38.78343
#
# Velocity S-wave (km/s) = 3.51931 4.11962 3.83124
# Velocity P-wave (km/s) = 5.33328 6.24931 5.80938
#
# Compressibility (1/GPa) = 0.03172465
#
# Stress axis : x y z
#
# Youngs Moduli (GPa) = 95.63908 68.89692 81.16910
#
# Poissons Ratio (x) = -0.31014 0.15598
# Poissons Ratio (y) = -0.43052 0.43528
# Poissons Ratio (z) = 0.18378 0.36947
#
# Static dielectric constant tensor:
#      x y z
#    x 2.257340 0.208770 -0.236760 
#    y 0.208770 2.440050 -0.360230 
#    z -0.236760 -0.360230 2.451810 
# 
# From -- ./inp_files/523390.got.cif
#   From: 2010.05.17/outbox.cif.g08.bks.cpg/sg2_262_cif.got.tgz:523390.got - 2010.06.03 11:33:40.
