data_PCOD9013558
_publ_section_title
;
Structure prediction by ZEFSAII (Michael W. Deem and Ramdas Pophale) SiO2 
 PCOD9013558
Probable space group: P -1
;
_chemical_formula_sum "Si O2"
_cell_formula_units_Z 14
_cell_length_a 15.480159
_cell_length_b 9.125482
_cell_length_c 21.056385
_cell_angle_alpha 28.329375
_cell_angle_beta 151.229774
_cell_angle_gamma 146.658277
_cell_volume 652.291052
_symmetry_space_group_name_H-M "P -1"
_symmetry_group_IT_number 2
_symmetry_cell_setting 'triclinic'
loop_
_space_group_symop_operation_xyz
x,y,z
-x,-y,-z
loop_
_atom_site_type_symbol
_atom_site_label
_atom_site_fract_x
_atom_site_fract_y
_atom_site_fract_z
Si Si1 0.693354 0.688658 0.086223
Si Si2 0.060668 0.238181 0.386835
Si Si3 0.670496 0.279871 0.791837
Si Si4 0.359417 0.049292 0.443673
Si Si5 0.050095 0.342669 0.939637
Si Si6 0.894136 0.132034 0.758785
Si Si7 0.657585 0.101088 0.367168
O O1 0.712582 0.469257 0.240304
O O2 0.879650 0.735008 0.146535
O O3 0.500000 0.500000 0.000000
O O4 0.678285 0.047525 0.944438
O O5 0.913373 0.354251 0.201083
O O6 0.170644 0.588917 0.353146
O O7 0.186082 0.072071 0.488028
O O8 0.000000 0.000000 0.500000
O O9 0.613715 0.580692 0.665482
O O10 0.871203 0.377678 0.850031
O O11 0.525588 0.090040 0.717642
O O12 0.500000 0.000000 0.500000
O O13 0.162739 0.898784 0.339456
O O14 0.374433 0.905418 0.576570
O O15 0.000000 0.000000 0.000000
O O16 0.174935 0.224699 0.118119
#
# Coordination Sequence:
#
# PCOD9013558 Si02
#       7
#     2   2   2   2   2   2   2
#     4   9  20  40  65  91 122 162 209 258 312 371
#     4  11  20  38  63  96 118 160 206 260 309 375
#     4  10  21  41  65  88 123 169 212 250 310 377
#     4  12  26  40  61  94 129 167 207 265 311 363
#     4   9  20  35  62  90 118 160 206 254 302 369
#     4  10  22  40  61  94 131 158 211 259 308 374
#     4  11  22  40  64  91 124 165 211 260 312 367
#
# _framework density 21.462812
#
# number of rings (size 3 to 8) (size 9 to 14) (size 15 to 20)
#    0.000    1.714    2.857    1.286    4.000    2.857 
#    0.000    0.714    0.000    0.000    0.000    0.000 
#    0.000    0.000    0.000    0.000    0.000    0.000 
#
# Total GULP energy -77948.723742 kJ/mol
# GULP energy per Si atom -5567.765982 kJ/mol
# Density = 2.141396 g / cm^3
# Si number density = 21.462812 Si / 1000 Ang^3
#
#
#
# Elastic Constant Matrix: (Units=GPa)
#
#
# Indices 1 2 3 4 5 6 
#
# 1 134.8614 28.6596 75.7499 -20.6647 -21.5145 -8.0087
# 2 28.6596 24.7322 24.6210 5.4603 -23.3764 4.9331
# 3 75.7499 24.6210 144.8657 -33.8594 -37.4605 8.3029
# 4 -20.6647 5.4603 -33.8594 28.7887 23.2892 -10.1232
# 5 -21.5145 -23.3764 -37.4605 23.2892 28.5138 3.9911
# 6 -8.0087 4.9331 8.3029 -10.1232 3.9911 22.4883
#
#
#
# Elastic Compliance Matrix: (Units=1/GPa)
#
#
# Indices 1 2 3 4 5 6 
#
# 1 0.009957 0.003263 -0.004979 -0.006497 0.008931 0.000159
# 2 0.003263 -0.000372 -0.003718 0.031034 -0.031170 0.022118
# 3 -0.004979 -0.003718 0.013433 0.007556 0.005152 -0.003430
# 4 -0.006497 0.031034 0.007556 0.003064 0.030189 -0.015890
# 5 0.008931 -0.031170 0.005152 0.030189 -0.004790 0.022556
# 6 0.000159 0.022118 -0.003430 -0.015890 0.022556 0.029783
#
#
# Mechanical properties :
#
#
# Convention : Reuss Voigt Hill
#
# Bulk Modulus (GPa) = 82.29433 62.50224 72.39828
# Shear Modulus (GPa) = 75.76620 27.65342 51.70981
#
# Velocity S-wave (km/s) = 5.94792 3.59337 4.91376
# Velocity P-wave (km/s) = 9.25183 6.81181 8.12395
#
# Compressibility (1/GPa) = 0.01215151
#
# Stress axis : x y z
#
# Youngs Moduli (GPa) = 100.43207 -2689.15517 74.44102
#
# Poissons Ratio (x) = 8.77554 0.37067
# Poissons Ratio (y) = -0.32774 0.27673
# Poissons Ratio (z) = 0.50009 -9.99694
#
# Static dielectric constant tensor:
#      x y z
#    x 1.810180 0.021770 -0.062020 
#    y 0.021770 1.815320 0.062680 
#    z -0.062020 0.062680 1.930220 
# 
# From -- ./inp_files/338696.got.cif
#   From: 2010.05.17/outbox.cif.g08.bks.cpg/sg2_170_cif.got.tgz:338696.got - 2010.06.03 11:33:40.
