data_PCOD9013754
_publ_section_title
;
Structure prediction by ZEFSAII (Michael W. Deem and Ramdas Pophale) SiO2 
 PCOD9013754
Probable space group: P -1
;
_chemical_formula_sum "Si O2"
_cell_formula_units_Z 14
_cell_length_a 12.005568
_cell_length_b 14.825683
_cell_length_c 8.119877
_cell_angle_alpha 146.451920
_cell_angle_beta 72.050450
_cell_angle_gamma 124.681432
_cell_volume 611.384670
_symmetry_space_group_name_H-M "P -1"
_symmetry_group_IT_number 2
_symmetry_cell_setting 'triclinic'
loop_
_space_group_symop_operation_xyz
x,y,z
-x,-y,-z
loop_
_atom_site_type_symbol
_atom_site_label
_atom_site_fract_x
_atom_site_fract_y
_atom_site_fract_z
Si Si1 0.903190 0.776522 0.613388
Si Si2 0.682181 0.100761 0.270636
Si Si3 0.913449 0.934378 0.274231
Si Si4 0.375396 0.107823 0.671182
Si Si5 0.570992 0.535299 0.340642
Si Si6 0.001439 0.333747 0.341960
Si Si7 0.509616 0.799575 0.591019
O O1 0.742691 0.704059 0.539682
O O2 0.001674 0.844901 0.514745
O O3 0.895076 0.601081 0.447854
O O4 0.000000 0.000000 0.000000
O O5 0.839957 0.178379 0.253641
O O6 0.646665 0.258400 0.478414
O O7 0.659250 0.038042 0.378379
O O8 0.568224 0.917600 0.919334
O O9 0.747335 0.851794 0.214047
O O10 0.000000 0.000000 0.500000
O O11 0.942901 0.776558 0.952588
O O12 0.391480 0.067247 0.410569
O O13 0.526774 0.319822 0.972525
O O14 0.500000 0.500000 0.500000
O O15 0.514433 0.613404 0.346569
O O16 0.000000 0.500000 0.500000
#
# Coordination Sequence:
#
# PCOD9013754 Si02
#       7
#     2   2   2   2   2   2   2
#     4  10  21  41  65  95 131 178 227 269 336 418
#     4  11  24  45  68  97 140 181 222 277 352 416
#     4  11  23  43  72  97 133 181 228 281 343 414
#     4  12  24  44  71 101 135 177 236 285 335 409
#     4  12  23  39  68 101 133 175 232 284 334 397
#     4  11  24  41  67  97 134 177 226 280 342 408
#     4  11  25  42  68 100 136 178 222 283 347 403
#
# _framework density 22.898841000000001
#
# number of rings (size 3 to 8) (size 9 to 14) (size 15 to 20)
#    0.000    0.857    2.857    6.000    4.000    0.000 
#    0.000    2.143    0.000    0.000    0.000    0.000 
#    0.000    0.000    0.000    0.000    0.000    0.000 
#
# Total GULP energy -78009.110668 kJ/mol
# GULP energy per Si atom -5572.079333 kJ/mol
# Density = 2.284672 g / cm^3
# Si number density = 22.898841 Si / 1000 Ang^3
#
#
#
# Elastic Constant Matrix: (Units=GPa)
#
#
# Indices 1 2 3 4 5 6 
#
# 1 150.4343 34.7147 25.1578 6.0481 -18.8680 -12.7214
# 2 34.7147 96.6150 23.1114 -7.7576 -0.5569 -31.3280
# 3 25.1578 23.1114 23.5351 1.9895 -2.2026 -8.2480
# 4 6.0481 -7.7576 1.9895 31.2533 -2.1032 -1.7008
# 5 -18.8680 -0.5569 -2.2026 -2.1032 34.1602 6.5203
# 6 -12.7214 -31.3280 -8.2480 -1.7008 6.5203 58.3993
#
#
#
# Elastic Compliance Matrix: (Units=1/GPa)
#
#
# Indices 1 2 3 4 5 6 
#
# 1 0.008841 -0.001645 -0.007499 -0.001376 0.004393 -0.000546
# 2 -0.001645 0.016823 -0.012913 0.005543 -0.002516 0.007285
# 3 -0.007499 -0.012913 0.063739 -0.005837 -0.000668 0.000346
# 4 -0.001376 0.005543 -0.005837 0.034198 0.000528 0.002786
# 5 0.004393 -0.002516 -0.000668 0.000528 0.032430 -0.004093
# 6 -0.000546 0.007285 0.000346 0.002786 -0.004093 0.021499
#
#
# Mechanical properties :
#
#
# Convention : Reuss Voigt Hill
#
# Bulk Modulus (GPa) = 22.08058 48.50578 35.29318
# Shear Modulus (GPa) = 21.12015 37.26925 29.19470
#
# Velocity S-wave (km/s) = 3.04027 4.03868 3.57451
# Velocity P-wave (km/s) = 4.68913 6.55565 5.69932
#
# Compressibility (1/GPa) = 0.04528867
#
# Stress axis : x y z
#
# Youngs Moduli (GPa) = 113.10597 59.44200 15.68900
#
# Poissons Ratio (x) = 0.09779 0.11766
# Poissons Ratio (y) = 0.18607 0.20259
# Poissons Ratio (z) = 0.84823 0.76756
#
# Static dielectric constant tensor:
#      x y z
#    x 1.883750 0.003010 -0.042420 
#    y 0.003010 2.124610 -0.074970 
#    z -0.042420 -0.074970 1.924520 
# 
# From -- ./inp_files/269373.got.cif
#   From: 2010.05.17/outbox.cif.g08.bks.cpg/sg2_135_cif.got.tgz:269373.got - 2010.06.03 11:33:40.
