data_PCOD9013061
_publ_section_title
;
Structure prediction by ZEFSAII (Michael W. Deem and Ramdas Pophale) SiO2 
 PCOD9013061
Probable space group: P -1
;
_chemical_formula_sum "Si O2"
_cell_formula_units_Z 16
_cell_length_a 27.745377
_cell_length_b 7.787494
_cell_length_c 5.845467
_cell_angle_alpha 62.100657
_cell_angle_beta 100.639572
_cell_angle_gamma 141.772851
_cell_volume 650.893124
_symmetry_space_group_name_H-M "P -1"
_symmetry_group_IT_number 2
_symmetry_cell_setting 'triclinic'
loop_
_space_group_symop_operation_xyz
x,y,z
-x,-y,-z
loop_
_atom_site_type_symbol
_atom_site_label
_atom_site_fract_x
_atom_site_fract_y
_atom_site_fract_z
Si Si1 0.592124 0.511178 0.914753
Si Si2 0.161299 0.218199 0.963562
Si Si3 0.713956 0.659907 0.259757
Si Si4 0.741627 0.137282 0.071940
Si Si5 0.592252 0.148412 0.839039
Si Si6 0.985588 0.119389 0.723998
Si Si7 0.874518 0.587091 0.563692
Si Si8 0.597418 0.835971 0.371938
O O1 0.585087 0.349662 0.783208
O O2 0.622861 0.814718 0.646275
O O3 0.650586 0.581776 0.095799
O O4 0.496687 0.212445 0.102216
O O5 0.219581 0.236317 0.905045
O O6 0.215020 0.549417 0.945970
O O7 0.130923 0.243518 0.704934
O O8 0.075807 0.909557 0.220002
O O9 0.661985 0.357755 0.574773
O O10 0.756322 0.961198 0.270658
O O11 0.645810 0.876844 0.189097
O O12 0.783930 0.265635 0.782050
O O13 0.611525 0.097657 0.126006
O O14 0.930446 0.830010 0.672009
O O15 0.076901 0.434661 0.501071
O O16 0.000000 0.000000 0.000000
O O17 0.500000 0.500000 0.500000
#
# Coordination Sequence:
#
# PCOD9013061 Si02
#       8
#     2   2   2   2   2   2   2   2
#     4  10  22  41  62  90 128 172 225 285 330 394
#     4  10  22  39  62  95 129 171 217 265 333 398
#     4  12  24  40  66  95 131 175 220 276 336 394
#     4  11  23  39  59  95 130 167 220 273 324 392
#     4  10  21  42  63  88 128 172 225 283 337 392
#     4   8  16  36  64  96 127 165 216 263 320 397
#     4   9  18  36  67  92 127 174 214 260 330 398
#     4  10  21  41  63  86 131 175 216 279 334 379
#
# _framework density 24.581609
#
# number of rings (size 3 to 8) (size 9 to 14) (size 15 to 20)
#    0.000    2.000    1.250    1.875    1.750    1.000 
#    4.500    1.875    0.000   25.500    0.000    0.000 
#    0.000    0.000    0.000    0.000    0.000    0.000 
#
# Total GULP energy -89184.473790 kJ/mol
# GULP energy per Si atom -5574.029612 kJ/mol
# Density = 2.452566 g / cm^3
# Si number density = 24.581609 Si / 1000 Ang^3
#
#
#
# Elastic Constant Matrix: (Units=GPa)
#
#
# Indices 1 2 3 4 5 6 
#
# 1 148.8155 28.9220 29.0428 -14.8824 -30.6997 3.0472
# 2 28.9220 49.8356 8.5459 6.1817 -1.8063 14.6646
# 3 29.0428 8.5459 105.7205 -14.4921 -12.3834 16.7992
# 4 -14.8824 6.1817 -14.4921 21.5863 19.4988 3.3377
# 5 -30.6997 -1.8063 -12.3834 19.4988 56.9680 -8.4163
# 6 3.0472 14.6646 16.7992 3.3377 -8.4163 37.3658
#
#
#
# Elastic Compliance Matrix: (Units=1/GPa)
#
#
# Indices 1 2 3 4 5 6 
#
# 1 0.009300 -0.006260 -0.001643 0.003199 0.003806 0.003008
# 2 -0.006260 0.027888 -0.000620 -0.011144 -0.000168 -0.009198
# 3 -0.001643 -0.000620 0.012190 0.011005 -0.003021 -0.006767
# 4 0.003199 -0.011144 0.011005 0.086877 -0.028181 -0.014942
# 5 0.003806 -0.000168 -0.003021 -0.028181 0.030127 0.010417
# 6 0.003008 -0.009198 -0.006767 -0.014942 0.010417 0.036850
#
#
# Mechanical properties :
#
#
# Convention : Reuss Voigt Hill
#
# Bulk Modulus (GPa) = 30.92842 48.59922 39.76382
# Shear Modulus (GPa) = 21.63975 39.04139 30.34057
#
# Velocity S-wave (km/s) = 2.97024 3.98959 3.51704
# Velocity P-wave (km/s) = 4.93684 6.40593 5.71875
#
# Compressibility (1/GPa) = 0.03233272
#
# Stress axis : x y z
#
# Youngs Moduli (GPa) = 107.52310 35.85755 82.03343
#
# Poissons Ratio (x) = 0.22446 0.13475
# Poissons Ratio (y) = 0.67307 0.05090
# Poissons Ratio (z) = 0.17662 0.02225
#
# Static dielectric constant tensor:
#      x y z
#    x 1.995130 -0.040760 -0.026000 
#    y -0.040760 2.076650 -0.040940 
#    z -0.026000 -0.040940 2.016230 
# 
# From -- ./inp_files/126375.got.cif
#   From: 2010.05.17/outbox.cif.g08.bks.cpg/sg2_64_cif.got.tgz:126375.got - 2010.06.03 11:33:40.
