data_PCOD9013243
_publ_section_title
;
Structure prediction by ZEFSAII (Michael W. Deem and Ramdas Pophale) SiO2 
 PCOD9013243
Probable space group: P -1
;
_chemical_formula_sum "Si O2"
_cell_formula_units_Z 14
_cell_length_a 18.231573
_cell_length_b 12.489961
_cell_length_c 5.085554
_cell_angle_alpha 87.119652
_cell_angle_beta 57.977930
_cell_angle_gamma 45.747583
_cell_volume 597.875501
_symmetry_space_group_name_H-M "P -1"
_symmetry_group_IT_number 2
_symmetry_cell_setting 'triclinic'
loop_
_space_group_symop_operation_xyz
x,y,z
-x,-y,-z
loop_
_atom_site_type_symbol
_atom_site_label
_atom_site_fract_x
_atom_site_fract_y
_atom_site_fract_z
Si Si1 0.664728 0.371507 0.248204
Si Si2 0.140294 0.167134 0.406684
Si Si3 0.890512 0.678745 0.028435
Si Si4 0.692867 0.708527 0.586885
Si Si5 0.404453 0.024566 0.869944
Si Si6 0.074802 0.028694 0.230331
Si Si7 0.211806 0.624971 0.493490
O O1 0.500000 0.500000 0.500000
O O2 0.703468 0.408243 0.418239
O O3 0.718417 0.387523 0.892896
O O4 0.768248 0.166391 0.121154
O O5 0.142873 0.194882 0.706059
O O6 0.091264 0.099655 0.420326
O O7 0.054397 0.330012 0.351293
O O8 0.296559 0.037031 0.000510
O O9 0.765073 0.714210 0.229821
O O10 0.000000 0.500000 0.000000
O O11 0.769872 0.521521 0.512963
O O12 0.526863 0.849942 0.836173
O O13 0.688909 0.797613 0.817727
O O14 0.500000 0.000000 0.500000
O O15 0.956995 0.183555 0.224220
O O16 0.000000 0.000000 0.500000
#
# Coordination Sequence:
#
# PCOD9013243 Si02
#       7
#     2   2   2   2   2   2   2
#     4  11  26  47  70 104 133 176 236 295 340 404
#     4  11  24  40  66  95 129 182 221 267 344 394
#     4  11  23  40  62  98 134 170 219 274 323 412
#     4  10  23  39  65  97 139 173 225 267 344 407
#     4  10  21  41  63  98 139 179 215 282 332 411
#     4  10  25  48  71  99 140 181 234 289 342 401
#     4  11  25  44  72 100 135 185 224 283 352 405
#
# _framework density 23.416246999999998
#
# number of rings (size 3 to 8) (size 9 to 14) (size 15 to 20)
#    0.000    1.429    1.429    2.143    4.000    8.000 
#    0.000    0.000    0.000    0.000    0.000    0.000 
#    0.000    0.000    0.000    0.000    0.000    0.000 
#
# Total GULP energy -78098.217395 kJ/mol
# GULP energy per Si atom -5578.444100 kJ/mol
# Density = 2.336295 g / cm^3
# Si number density = 23.416247 Si / 1000 Ang^3
#
#
#
# Elastic Constant Matrix: (Units=GPa)
#
#
# Indices 1 2 3 4 5 6 
#
# 1 139.9706 70.8240 29.4432 11.3834 -31.5889 -13.1397
# 2 70.8240 115.8859 39.4354 17.5091 0.5181 11.6926
# 3 29.4432 39.4354 70.0976 -2.0995 -11.2882 -6.5320
# 4 11.3834 17.5091 -2.0995 41.7536 -9.0717 -3.1735
# 5 -31.5889 0.5181 -11.2882 -9.0717 35.9419 -6.9355
# 6 -13.1397 11.6926 -6.5320 -3.1735 -6.9355 42.3281
#
#
#
# Elastic Compliance Matrix: (Units=1/GPa)
#
#
# Indices 1 2 3 4 5 6 
#
# 1 0.025228 -0.023078 0.010127 0.012162 0.033018 0.022091
# 2 -0.023078 0.035131 -0.019165 -0.019525 -0.037015 -0.027355
# 3 0.010127 -0.019165 0.026737 0.013232 0.024297 0.017537
# 4 0.012162 -0.019525 0.013232 0.036994 0.028048 0.018580
# 5 0.033018 -0.037015 0.024297 0.028048 0.079685 0.039383
# 6 0.022091 -0.027355 0.017537 0.018580 0.039383 0.048591
#
#
# Mechanical properties :
#
#
# Convention : Reuss Voigt Hill
#
# Bulk Modulus (GPa) = 43.73856 67.26214 55.50035
# Shear Modulus (GPa) = 15.42169 36.42149 25.92159
#
# Velocity S-wave (km/s) = 2.56908 3.94813 3.33076
# Velocity P-wave (km/s) = 5.24591 7.04063 6.20846
#
# Compressibility (1/GPa) = 0.02286312
#
# Stress axis : x y z
#
# Youngs Moduli (GPa) = 39.63897 28.46529 37.40107
#
# Poissons Ratio (x) = 0.65692 -0.37874
# Poissons Ratio (y) = 0.91479 0.71678
# Poissons Ratio (z) = -0.40141 0.54553
#
# Static dielectric constant tensor:
#      x y z
#    x 2.089180 -0.193380 -0.053570 
#    y -0.193380 2.147610 -0.048940 
#    z -0.053570 -0.048940 2.053150 
# 
# From -- ./inp_files/81227.got.cif
#   From: 2010.05.17/outbox.cif.g08.bks.cpg/sg2_41_cif.got.tgz:81227.got - 2010.06.03 11:33:40.
