data_PCOD9013245
_publ_section_title
;
Structure prediction by ZEFSAII (Michael W. Deem and Ramdas Pophale) SiO2 
 PCOD9013245
Probable space group: P -1
;
_chemical_formula_sum "Si O2"
_cell_formula_units_Z 14
_cell_length_a 10.531024
_cell_length_b 11.193099
_cell_length_c 22.285636
_cell_angle_alpha 22.790994
_cell_angle_beta 33.328637
_cell_angle_gamma 42.345332
_cell_volume 553.065329
_symmetry_space_group_name_H-M "P -1"
_symmetry_group_IT_number 2
_symmetry_cell_setting 'triclinic'
loop_
_space_group_symop_operation_xyz
x,y,z
-x,-y,-z
loop_
_atom_site_type_symbol
_atom_site_label
_atom_site_fract_x
_atom_site_fract_y
_atom_site_fract_z
Si Si1 0.397151 0.261977 0.879570
Si Si2 0.468182 0.673093 0.993440
Si Si3 0.981073 0.716353 0.683295
Si Si4 0.421374 0.703976 0.764738
Si Si5 0.041401 0.169305 0.552451
Si Si6 0.203179 0.295621 0.558630
Si Si7 0.783851 0.821584 0.131499
O O1 0.302280 0.505706 0.848009
O O2 0.600345 0.464669 0.665585
O O3 0.207692 0.131035 0.965603
O O4 0.500000 0.000000 0.000000
O O5 0.193838 0.527016 0.174170
O O6 0.586810 0.530960 0.067882
O O7 0.500000 0.500000 0.000000
O O8 0.449914 0.036244 0.825167
O O9 0.198813 0.538423 0.694790
O O10 0.000000 0.000000 0.500000
O O11 0.915914 0.875455 0.698968
O O12 0.692787 0.787448 0.597504
O O13 0.314930 0.017230 0.673448
O O14 0.048761 0.133941 0.638395
O O15 0.933467 0.493381 0.442306
O O16 0.000000 0.000000 0.000000
#
# Coordination Sequence:
#
# PCOD9013245 Si02
#       7
#     2   2   2   2   2   2   2
#     4  11  21  38  70  97 131 177 216 272 342 400
#     4  11  25  42  60  94 136 172 219 281 340 402
#     4  11  22  40  67  88 125 178 224 266 332 401
#     4  11  21  43  66  92 134 175 223 278 335 393
#     4  10  21  41  63  99 128 163 226 277 326 395
#     4  10  23  38  69  97 130 168 222 280 328 398
#     4  10  23  42  62  93 134 175 216 272 340 398
#
# _framework density 25.313465999999998
#
# number of rings (size 3 to 8) (size 9 to 14) (size 15 to 20)
#    0.000    1.429    2.857    3.429    2.000    1.143 
#    2.571    1.429    0.000   12.000    0.000    0.000 
#    0.000    0.000    0.000    0.000    0.000    0.000 
#
# Total GULP energy -78122.370806 kJ/mol
# GULP energy per Si atom -5580.169343 kJ/mol
# Density = 2.525585 g / cm^3
# Si number density = 25.313466 Si / 1000 Ang^3
#
#
#
# Elastic Constant Matrix: (Units=GPa)
#
#
# Indices 1 2 3 4 5 6 
#
# 1 158.9843 35.5627 33.4345 -25.1445 2.8232 23.1836
# 2 35.5627 150.1053 48.1696 -61.7217 28.4042 -7.8940
# 3 33.4345 48.1696 81.3958 -34.8972 30.8683 -14.6537
# 4 -25.1445 -61.7217 -34.8972 53.9105 -10.7978 7.7267
# 5 2.8232 28.4042 30.8683 -10.7978 44.7592 -25.5617
# 6 23.1836 -7.8940 -14.6537 7.7267 -25.5617 38.6783
#
#
#
# Elastic Compliance Matrix: (Units=1/GPa)
#
#
# Indices 1 2 3 4 5 6 
#
# 1 0.008671 0.000283 -0.002761 0.003230 -0.003123 -0.008894
# 2 0.000283 0.014477 0.000672 0.016173 -0.009439 -0.006429
# 3 -0.002761 0.000672 0.023233 0.011864 -0.014000 -0.001028
# 4 0.003230 0.016173 0.011864 0.045080 -0.015373 -0.013306
# 5 -0.003123 -0.009439 -0.014000 -0.015373 0.053276 0.032922
# 6 -0.008894 -0.006429 -0.001028 -0.013306 0.032922 0.053899
#
#
# Mechanical properties :
#
#
# Convention : Reuss Voigt Hill
#
# Bulk Modulus (GPa) = 23.38143 69.42432 46.40288
# Shear Modulus (GPa) = 23.09412 45.69082 34.39247
#
# Velocity S-wave (km/s) = 3.02375 4.25314 3.69000
# Velocity P-wave (km/s) = 4.63115 7.18361 6.04367
#
# Compressibility (1/GPa) = 0.04276899
#
# Stress axis : x y z
#
# Youngs Moduli (GPa) = 115.33162 69.07284 43.04253
#
# Poissons Ratio (x) = -0.01957 0.11886
# Poissons Ratio (y) = -0.03268 -0.02893
# Poissons Ratio (z) = 0.31847 -0.04642
#
# Static dielectric constant tensor:
#      x y z
#    x 1.738200 0.760770 -0.595620 
#    y 0.760770 0.055410 1.234190 
#    z -0.595620 1.234190 1.410580 
# 
# From -- ./inp_files/269614.got.cif
#   From: 2010.05.17/outbox.cif.g08.bks.cpg/sg2_135_cif.got.tgz:269614.got - 2010.06.03 11:33:40.
