data_PCOD9013594
_publ_section_title
;
Structure prediction by ZEFSAII (Michael W. Deem and Ramdas Pophale) SiO2 
 PCOD9013594
Probable space group: P -1
;
_chemical_formula_sum "Si O2"
_cell_formula_units_Z 16
_cell_length_a 16.092666
_cell_length_b 12.317911
_cell_length_c 9.540904
_cell_angle_alpha 106.252679
_cell_angle_beta 73.873608
_cell_angle_gamma 154.065892
_cell_volume 792.538281
_symmetry_space_group_name_H-M "P -1"
_symmetry_group_IT_number 2
_symmetry_cell_setting 'triclinic'
loop_
_space_group_symop_operation_xyz
x,y,z
-x,-y,-z
loop_
_atom_site_type_symbol
_atom_site_label
_atom_site_fract_x
_atom_site_fract_y
_atom_site_fract_z
Si Si1 0.813715 0.659303 0.244979
Si Si2 0.813817 0.676293 0.924306
Si Si3 0.694383 0.781016 0.059268
Si Si4 0.373043 0.853254 0.646842
Si Si5 0.029510 0.737030 0.369430
Si Si6 0.868747 0.983429 0.324848
Si Si7 0.400947 0.095464 0.911581
Si Si8 0.576334 0.914950 0.780845
O O1 0.588653 0.372008 0.272312
O O2 0.949928 0.732828 0.290113
O O3 0.861388 0.844514 0.325908
O O4 0.837571 0.667966 0.071119
O O5 0.605548 0.386062 0.880060
O O6 0.958562 0.799261 0.786985
O O7 0.823909 0.824988 0.973779
O O8 0.728993 0.942980 0.034099
O O9 0.692546 0.794047 0.232769
O O10 0.500000 0.500000 0.000000
O O11 0.492817 0.920928 0.731089
O O12 0.162780 0.556902 0.611357
O O13 0.500000 0.000000 0.500000
O O14 0.343167 0.940449 0.763766
O O15 0.105949 0.899933 0.521715
O O16 0.211041 0.874802 0.285911
O O17 0.415680 0.057656 0.044967
#
# Coordination Sequence:
#
# PCOD9013594 Si02
#       8
#     2   2   2   2   2   2   2   2
#     4   9  20  41  60  90 129 167 198 257 309 365
#     4   9  19  37  64  93 126 159 208 255 302 367
#     4   9  19  35  60  93 120 156 206 249 297 367
#     4  11  25  46  65  88 126 161 210 269 314 360
#     4  11  25  41  62  95 127 165 210 251 313 377
#     4  11  21  37  61  96 130 164 203 252 310 369
#     4  10  21  41  65  90 122 169 205 258 314 357
#     4  10  24  42  64  90 125 162 214 258 304 378
#
# _framework density 20.188299000000001
#
# number of rings (size 3 to 8) (size 9 to 14) (size 15 to 20)
#    0.000    2.000    0.000    3.750    5.250    1.500 
#    4.500    0.000    0.000    0.000    0.000    0.000 
#    0.000    0.000    0.000    0.000    0.000    0.000 
#
# Total GULP energy -89204.853842 kJ/mol
# GULP energy per Si atom -5575.303365 kJ/mol
# Density = 2.014235 g / cm^3
# Si number density = 20.188299 Si / 1000 Ang^3
#
#
#
# Elastic Constant Matrix: (Units=GPa)
#
#
# Indices 1 2 3 4 5 6 
#
# 1 75.6919 38.1521 23.9458 1.2805 6.2563 4.8150
# 2 38.1521 109.4876 32.8871 -0.0431 -8.3910 10.9496
# 3 23.9458 32.8871 73.3943 8.8359 -12.7525 -5.0583
# 4 1.2805 -0.0431 8.8359 35.5961 -0.9301 -1.1332
# 5 6.2563 -8.3910 -12.7525 -0.9301 22.9135 1.0482
# 6 4.8150 10.9496 -5.0583 -1.1332 1.0482 35.2812
#
#
#
# Elastic Compliance Matrix: (Units=1/GPa)
#
#
# Indices 1 2 3 4 5 6 
#
# 1 0.018626 -0.005475 -0.005513 0.000386 -0.010083 -0.001321
# 2 -0.005475 0.012847 -0.003601 0.001099 0.004416 -0.003852
# 3 -0.005513 -0.003601 0.019721 -0.004284 0.010795 0.004239
# 4 0.000386 0.001099 -0.004284 0.029119 -0.000903 -0.000046
# 5 -0.010083 0.004416 0.010795 -0.000903 0.053987 -0.000080
# 6 -0.001321 -0.003852 0.004239 -0.000046 -0.000080 0.030328
#
#
# Mechanical properties :
#
#
# Convention : Reuss Voigt Hill
#
# Bulk Modulus (GPa) = 45.42156 49.83822 47.62989
# Shear Modulus (GPa) = 24.85772 29.66407 27.26090
#
# Velocity S-wave (km/s) = 3.51279 3.83739 3.67867
# Velocity P-wave (km/s) = 6.24505 6.66141 6.45659
#
# Compressibility (1/GPa) = 0.02201598
#
# Stress axis : x y z
#
# Youngs Moduli (GPa) = 53.68804 77.83964 50.70790
#
# Poissons Ratio (x) = 0.42616 0.27957
# Poissons Ratio (y) = 0.29394 0.18259
# Poissons Ratio (z) = 0.29600 0.28028
#
# Static dielectric constant tensor:
#      x y z
#    x 1.795960 0.042960 0.026790 
#    y 0.042960 1.768610 0.007160 
#    z 0.026790 0.007160 1.686180 
# 
# From -- ./inp_files/307986.got.cif
#   From: 2010.05.17/outbox.cif.g08.bks.cpg/sg2_154_cif.got.tgz:307986.got - 2010.06.03 11:33:40.
