data_PCOD9013146
_publ_section_title
;
Structure prediction by ZEFSAII (Michael W. Deem and Ramdas Pophale) SiO2 
 PCOD9013146
Probable space group: P -1
;
_chemical_formula_sum "Si O2"
_cell_formula_units_Z 15
_cell_length_a 14.102453
_cell_length_b 9.023208
_cell_length_c 7.497316
_cell_angle_alpha 47.554131
_cell_angle_beta 66.768696
_cell_angle_gamma 58.606608
_cell_volume 599.541198
_symmetry_space_group_name_H-M "P -1"
_symmetry_group_IT_number 2
_symmetry_cell_setting 'triclinic'
loop_
_space_group_symop_operation_xyz
x,y,z
-x,-y,-z
loop_
_atom_site_type_symbol
_atom_site_label
_atom_site_fract_x
_atom_site_fract_y
_atom_site_fract_z
Si Si1 0.920763 0.999470 0.765224
Si Si2 0.750565 0.402470 0.345040
Si Si3 0.939903 0.755094 0.605955
Si Si4 0.419024 0.449184 0.356434
Si Si5 0.140390 0.333266 0.749294
Si Si6 0.655086 0.331018 0.122655
Si Si7 0.285447 0.164929 0.448460
Si Si8 0.500000 0.000000 0.500000
O O1 0.831603 0.193683 0.562982
O O2 0.016223 0.088037 0.671440
O O3 0.966749 0.803139 0.748387
O O4 0.866424 0.900226 0.033442
O O5 0.633814 0.463974 0.485637
O O6 0.797489 0.589565 0.202892
O O7 0.742330 0.350968 0.185881
O O8 0.808844 0.820514 0.633682
O O9 0.016234 0.513849 0.689465
O O10 0.535520 0.457678 0.199381
O O11 0.444206 0.192585 0.533619
O O12 0.337454 0.589745 0.145381
O O13 0.211040 0.321125 0.529244
O O14 0.658091 0.082982 0.311923
O O15 0.402317 0.166245 0.295374
#
# Coordination Sequence:
#
# PCOD9013146 Si02
#       8
#     2   2   2   2   2   2   2   1
#     4  10  22  41  63  97 131 167 219 278 324 399
#     4  11  21  42  66  96 133 172 218 277 329 395
#     4  10  22  41  64  92 134 172 216 274 337 385
#     4  10  21  41  63  92 131 173 221 277 322 397
#     4  11  23  39  66  99 131 171 222 270 330 401
#     4  10  22  39  67  91 128 180 223 263 341 387
#     4  11  21  42  63  93 129 173 216 274 330 387
#     4  10  22  40  64  90 136 164 212 284 322 388
#
# _framework density 25.019130000000001
#
# number of rings (size 3 to 8) (size 9 to 14) (size 15 to 20)
#    0.000    1.600    2.667    2.000    0.000    1.600 
#    2.400    0.667    0.000    0.000    0.000    0.000 
#    0.000    0.000    0.000    0.000    0.000    0.000 
#
# Total GULP energy -83535.740234 kJ/mol
# GULP energy per Si atom -5569.049349 kJ/mol
# Density = 2.496218 g / cm^3
# Si number density = 25.019130 Si / 1000 Ang^3
#
#
#
# Elastic Constant Matrix: (Units=GPa)
#
#
# Indices 1 2 3 4 5 6 
#
# 1 87.5767 3.5919 19.1411 0.8330 10.6247 -16.1932
# 2 3.5919 85.8331 13.4723 -3.8027 16.9197 -17.5243
# 3 19.1411 13.4723 89.9915 -6.3243 -9.5038 5.7195
# 4 0.8330 -3.8027 -6.3243 25.0643 1.4716 0.8403
# 5 10.6247 16.9197 -9.5038 1.4716 28.0119 2.9206
# 6 -16.1932 -17.5243 5.7195 0.8403 2.9206 51.7444
#
#
#
# Elastic Compliance Matrix: (Units=1/GPa)
#
#
# Indices 1 2 3 4 5 6 
#
# 1 0.015045 0.003698 -0.005379 -0.000922 -0.010463 0.007161
# 2 0.003698 0.016901 -0.005236 0.001685 -0.014335 0.008242
# 3 -0.005379 -0.005236 0.014716 0.002664 0.010653 -0.005728
# 4 -0.000922 0.001685 0.002664 0.040984 -0.001858 -0.000573
# 5 -0.010463 -0.014335 0.010653 -0.001858 0.053319 -0.012286
# 6 0.007161 0.008242 -0.005728 -0.000573 -0.012286 0.025694
#
#
# Mechanical properties :
#
#
# Convention : Reuss Voigt Hill
#
# Bulk Modulus (GPa) = 30.46074 37.31244 33.88659
# Shear Modulus (GPa) = 26.11855 36.11052 31.11454
#
# Velocity S-wave (km/s) = 3.23452 3.80322 3.53034
# Velocity P-wave (km/s) = 5.11379 5.85081 5.49467
#
# Compressibility (1/GPa) = 0.03282915
#
# Stress axis : x y z
#
# Youngs Moduli (GPa) = 66.46895 59.16881 67.95177
#
# Poissons Ratio (x) = -0.21882 0.36548
# Poissons Ratio (y) = -0.24582 0.35580
# Poissons Ratio (z) = 0.35750 0.30981
#
# Static dielectric constant tensor:
#      x y z
#    x 1.916770 0.133520 0.158670 
#    y 0.133520 1.944450 -0.110780 
#    z 0.158670 -0.110780 1.879840 
# 
# From -- ./inp_files/241936.got.cif
#   From: 2010.05.17/outbox.cif.g08.bks.cpg/sg2_121_cif.got.tgz:241936.got - 2010.06.03 11:33:40.
