data_PCOD9013147
_publ_section_title
;
Structure prediction by ZEFSAII (Michael W. Deem and Ramdas Pophale) SiO2 
 PCOD9013147
Probable space group: P -1
;
_chemical_formula_sum "Si O2"
_cell_formula_units_Z 14
_cell_length_a 25.455744
_cell_length_b 18.088152
_cell_length_c 6.638913
_cell_angle_alpha 126.861997
_cell_angle_beta 136.289449
_cell_angle_gamma 18.391237
_cell_volume 612.371401
_symmetry_space_group_name_H-M "P -1"
_symmetry_group_IT_number 2
_symmetry_cell_setting 'triclinic'
loop_
_space_group_symop_operation_xyz
x,y,z
-x,-y,-z
loop_
_atom_site_type_symbol
_atom_site_label
_atom_site_fract_x
_atom_site_fract_y
_atom_site_fract_z
Si Si1 0.475989 0.348190 0.862560
Si Si2 0.212251 0.977549 0.121625
Si Si3 0.018772 0.904215 0.573158
Si Si4 0.361440 0.194186 0.744890
Si Si5 0.044247 0.557627 0.772846
Si Si6 0.575132 0.803996 0.486166
Si Si7 0.713536 0.202794 0.558592
O O1 0.559394 0.294804 0.794491
O O2 0.443494 0.277635 0.622316
O O3 0.265314 0.623331 0.830891
O O4 0.653587 0.177050 0.230565
O O5 0.193058 0.939691 0.207799
O O6 0.153697 0.151689 0.266044
O O7 0.045002 0.121487 0.743044
O O8 0.869053 0.082135 0.642860
O O9 0.000000 0.000000 0.500000
O O10 0.156126 0.463637 0.723375
O O11 0.430087 0.190082 0.761425
O O12 0.371081 0.092120 0.465615
O O13 0.500000 0.000000 0.000000
O O14 0.000000 0.500000 0.500000
O O15 0.216611 0.382305 0.143087
O O16 0.500000 0.500000 0.500000
#
# Coordination Sequence:
#
# PCOD9013147 Si02
#       7
#     2   2   2   2   2   2   2
#     4  11  24  42  68  94 134 177 220 273 342 396
#     4  11  25  43  67 101 139 174 229 280 334 405
#     4  11  24  45  70  95 134 180 220 278 347 402
#     4   9  21  38  62  91 128 173 226 266 328 394
#     4  11  23  39  63  96 136 176 227 276 333 398
#     4  10  21  41  63  92 132 178 223 275 332 397
#     4  11  26  44  66 103 134 172 230 283 340 405
#
# _framework density 22.861941999999999
#
# number of rings (size 3 to 8) (size 9 to 14) (size 15 to 20)
#    0.000    1.429    1.429    2.571    2.000   12.000 
#    0.000    0.000    0.000    0.000    0.000    0.000 
#    0.000    0.000    0.000    0.000    0.000    0.000 
#
# Total GULP energy -77996.926048 kJ/mol
# GULP energy per Si atom -5571.209003 kJ/mol
# Density = 2.280991 g / cm^3
# Si number density = 22.861942 Si / 1000 Ang^3
#
#
#
# Elastic Constant Matrix: (Units=GPa)
#
#
# Indices 1 2 3 4 5 6 
#
# 1 119.3054 37.0523 37.2743 3.5733 -12.3744 -35.8069
# 2 37.0523 106.3321 13.7589 0.0821 -4.6488 -30.9940
# 3 37.2743 13.7589 98.0251 5.8025 7.4011 -5.7874
# 4 3.5733 0.0821 5.8025 20.8441 0.6581 1.9266
# 5 -12.3744 -4.6488 7.4011 0.6581 36.7539 15.2624
# 6 -35.8069 -30.9940 -5.7874 1.9266 15.2624 46.2701
#
#
#
# Elastic Compliance Matrix: (Units=1/GPa)
#
#
# Indices 1 2 3 4 5 6 
#
# 1 0.012750 -0.001547 -0.004195 -0.001788 0.001731 0.007809
# 2 -0.001547 0.012115 -0.000500 -0.000276 -0.002010 0.007531
# 3 -0.004195 -0.000500 0.012240 -0.002502 -0.003577 -0.000766
# 4 -0.001788 -0.000276 -0.002502 0.049343 0.000716 -0.004173
# 5 0.001731 -0.002010 -0.003577 0.000716 0.032960 -0.011356
# 6 0.007809 0.007531 -0.000766 -0.004173 -0.011356 0.036524
#
#
# Mechanical properties :
#
#
# Convention : Reuss Voigt Hill
#
# Bulk Modulus (GPa) = 40.61293 55.53708 48.07500
# Shear Modulus (GPa) = 28.30921 36.47875 32.39398
#
# Velocity S-wave (km/s) = 3.52272 3.99884 3.76831
# Velocity P-wave (km/s) = 5.86081 6.75767 6.32515
#
# Compressibility (1/GPa) = 0.02462270
#
# Stress axis : x y z
#
# Youngs Moduli (GPa) = 78.43359 82.53900 81.70130
#
# Poissons Ratio (x) = 0.12765 0.34272
# Poissons Ratio (y) = 0.12130 0.04083
# Poissons Ratio (z) = 0.32901 0.04125
#
# Static dielectric constant tensor:
#      x y z
#    x 1.864860 -0.024880 0.013310 
#    y -0.024880 2.262130 -0.214450 
#    z 0.013310 -0.214450 2.011220 
# 
# From -- ./inp_files/124900.got.cif
#   From: 2010.05.17/outbox.cif.g08.bks.cpg/sg2_63_cif.got.tgz:124900.got - 2010.06.03 11:33:40.
