data_PCOD9013507
_publ_section_title
;
Structure prediction by ZEFSAII (Michael W. Deem and Ramdas Pophale) SiO2 
 PCOD9013507
Probable space group: P -1
;
_chemical_formula_sum "Si O2"
_cell_formula_units_Z 15
_cell_length_a 9.485458
_cell_length_b 15.846595
_cell_length_c 13.474466
_cell_angle_alpha 20.562847
_cell_angle_beta 48.002423
_cell_angle_gamma 48.778017
_cell_volume 524.564161
_symmetry_space_group_name_H-M "P -1"
_symmetry_group_IT_number 2
_symmetry_cell_setting 'triclinic'
loop_
_space_group_symop_operation_xyz
x,y,z
-x,-y,-z
loop_
_atom_site_type_symbol
_atom_site_label
_atom_site_fract_x
_atom_site_fract_y
_atom_site_fract_z
Si Si1 0.233596 0.868888 0.694534
Si Si2 0.074898 0.721590 0.660333
Si Si3 0.737177 0.885817 0.179859
Si Si4 0.421743 0.268135 0.840061
Si Si5 0.463512 0.510702 0.757854
Si Si6 0.032801 0.491552 0.725506
Si Si7 0.606138 0.037343 0.286064
Si Si8 0.000000 0.500000 0.500000
O O1 0.259585 0.002127 0.640212
O O2 0.443807 0.859525 0.559990
O O3 0.075244 0.041349 0.519081
O O4 0.155456 0.618742 0.029239
O O5 0.288699 0.724560 0.599017
O O6 0.086267 0.662981 0.601507
O O7 0.000000 0.500000 0.000000
O O8 0.663684 0.615990 0.526487
O O9 0.952319 0.782662 0.170731
O O10 0.704574 0.010565 0.163604
O O11 0.586874 0.041701 0.008339
O O12 0.500000 0.500000 0.500000
O O13 0.403888 0.341026 0.883526
O O14 0.211493 0.273110 0.888667
O O15 0.501763 0.313928 0.042139
O O16 0.012284 0.591333 0.513949
#
# Coordination Sequence:
#
# PCOD9013507 Si02
#       8
#     2   2   2   2   2   2   2   1
#     4  11  23  41  66 101 142 182 231 284 354 419
#     4  11  23  41  67 104 138 175 228 287 344 417
#     4  11  24  44  72  98 138 191 232 294 359 412
#     4  10  23  44  68 100 137 180 240 293 346 417
#     4  10  21  41  64  99 135 178 231 282 356 417
#     4  11  26  44  69 104 139 187 232 290 354 416
#     4  10  23  41  65 100 140 184 230 285 349 428
#     4  12  26  46  68 100 138 184 246 284 342 420
#
# _framework density 28.595168000000001
#
# number of rings (size 3 to 8) (size 9 to 14) (size 15 to 20)
#    0.000    1.333    1.333    3.200    1.867    5.867 
#    0.000   13.333    0.000    0.000    0.000    0.000 
#    0.000    0.000    0.000    0.000    0.000    0.000 
#
# Total GULP energy -83822.821743 kJ/mol
# GULP energy per Si atom -5588.188116 kJ/mol
# Density = 2.853008 g / cm^3
# Si number density = 28.595168 Si / 1000 Ang^3
#
#
#
# Elastic Constant Matrix: (Units=GPa)
#
#
# Indices 1 2 3 4 5 6 
#
# 1 165.4426 29.3554 40.7261 -5.6833 26.3105 27.3617
# 2 29.3554 84.0942 11.0948 -17.2146 19.1666 2.8338
# 3 40.7261 11.0948 104.6199 9.0806 13.8163 -14.0650
# 4 -5.6833 -17.2146 9.0806 44.0641 -20.4008 6.6034
# 5 26.3105 19.1666 13.8163 -20.4008 67.0782 2.0896
# 6 27.3617 2.8338 -14.0650 6.6034 2.0896 44.6980
#
#
#
# Elastic Compliance Matrix: (Units=1/GPa)
#
#
# Indices 1 2 3 4 5 6 
#
# 1 0.008729 -0.001615 -0.004093 0.001699 -0.001393 -0.006715
# 2 -0.001615 0.014015 -0.001197 0.004911 -0.001602 -0.000927
# 3 -0.004093 -0.001197 0.013259 -0.006255 -0.002929 0.007815
# 4 0.001699 0.004911 -0.006255 0.031589 0.009088 -0.008412
# 5 -0.001393 -0.001602 -0.002929 0.009088 0.019349 -0.002215
# 6 -0.006715 -0.000927 0.007815 -0.008412 -0.002215 0.030347
#
#
# Mechanical properties :
#
#
# Convention : Reuss Voigt Hill
#
# Bulk Modulus (GPa) = 45.05969 57.38991 51.22480
# Shear Modulus (GPa) = 36.10243 49.36676 42.73459
#
# Velocity S-wave (km/s) = 3.55707 4.15951 3.87003
# Velocity P-wave (km/s) = 5.71510 6.57130 6.15810
#
# Compressibility (1/GPa) = 0.02219278
#
# Stress axis : x y z
#
# Youngs Moduli (GPa) = 114.55993 71.35312 75.42050
#
# Poissons Ratio (x) = 0.11526 0.30869
# Poissons Ratio (y) = 0.18506 0.09025
# Poissons Ratio (z) = 0.46889 0.08538
#
# Static dielectric constant tensor:
#      x y z
#    x 2.086000 0.108220 0.064490 
#    y 0.108220 2.167360 -0.109030 
#    z 0.064490 -0.109030 2.198040 
# 
# From -- ./inp_files/506895.got.cif
#   From: 2010.05.17/outbox.cif.g08.bks.cpg/sg2_254_cif.got.tgz:506895.got - 2010.06.03 11:33:40.
