data_PCOD9013661
_publ_section_title
;
Structure prediction by ZEFSAII (Michael W. Deem and Ramdas Pophale) SiO2 
 PCOD9013661
Probable space group: P -1
;
_chemical_formula_sum "Si O2"
_cell_formula_units_Z 12
_cell_length_a 6.710533
_cell_length_b 15.588389
_cell_length_c 6.751815
_cell_angle_alpha 121.404678
_cell_angle_beta 61.671761
_cell_angle_gamma 123.145423
_cell_volume 486.640209
_symmetry_space_group_name_H-M "P -1"
_symmetry_group_IT_number 2
_symmetry_cell_setting 'triclinic'
loop_
_space_group_symop_operation_xyz
x,y,z
-x,-y,-z
loop_
_atom_site_type_symbol
_atom_site_label
_atom_site_fract_x
_atom_site_fract_y
_atom_site_fract_z
Si Si1 0.564424 0.150235 0.585487
Si Si2 0.511005 0.498818 0.226701
Si Si3 0.205218 0.144384 0.420498
Si Si4 0.328892 0.009977 0.913504
Si Si5 0.034924 0.687658 0.216530
Si Si6 0.624503 0.353084 0.280775
O O1 0.314252 0.119330 0.541840
O O2 0.480323 0.098976 0.781720
O O3 0.741358 0.276863 0.688764
O O4 0.724492 0.099960 0.319124
O O5 0.787009 0.585280 0.260255
O O6 0.486421 0.386558 0.204922
O O7 0.332844 0.550585 0.466847
O O8 0.500000 0.500000 0.000000
O O9 0.026418 0.204350 0.632963
O O10 0.441565 0.240491 0.325779
O O11 0.140436 0.047128 0.172028
O O12 0.500000 0.000000 0.000000
O O13 0.138110 0.659803 0.932417
#
# Coordination Sequence:
#
# PCOD9013661 Si02
#       6
#     2   2   2   2   2   2
#     4  10  21  41  65  92 130 166 204 262 310 362
#     4  10  24  44  64  90 128 166 207 264 310 368
#     4  10  22  41  63  95 130 163 210 258 301 372
#     4   9  19  41  66  90 132 165 203 262 305 365
#     4  11  23  40  66  95 123 167 213 250 315 376
#     4  10  22  43  61  94 128 157 214 257 305 377
#
# _framework density 24.658874000000001
#
# number of rings (size 3 to 8) (size 9 to 14) (size 15 to 20)
#    0.000    2.000    1.667    0.500    4.667    1.333 
#   12.000    7.500    0.000    0.000    0.000    0.000 
#    0.000    0.000    0.000    0.000    0.000    0.000 
#
# Total GULP energy -67020.773747 kJ/mol
# GULP energy per Si atom -5585.064479 kJ/mol
# Density = 2.460275 g / cm^3
# Si number density = 24.658874 Si / 1000 Ang^3
#
#
#
# Elastic Constant Matrix: (Units=GPa)
#
#
# Indices 1 2 3 4 5 6 
#
# 1 51.4680 9.2476 66.9420 -5.8381 -4.7578 -11.8446
# 2 9.2476 65.2458 31.3563 -16.4791 12.1614 -5.7501
# 3 66.9420 31.3563 214.4561 -3.7659 -21.1157 -19.3421
# 4 -5.8381 -16.4791 -3.7659 33.6772 -11.0134 6.4511
# 5 -4.7578 12.1614 -21.1157 -11.0134 62.6408 -0.9748
# 6 -11.8446 -5.7501 -19.3421 6.4511 -0.9748 39.7039
#
#
#
# Elastic Compliance Matrix: (Units=1/GPa)
#
#
# Indices 1 2 3 4 5 6 
#
# 1 0.034356 0.001857 -0.010538 0.004667 -0.000411 0.004616
# 2 0.001857 0.019556 -0.003611 0.008338 -0.003404 0.000189
# 3 -0.010538 -0.003611 0.008784 -0.001975 0.002530 0.000996
# 4 0.004667 0.008338 -0.001975 0.036620 0.004443 -0.004203
# 5 -0.000411 -0.003404 0.002530 0.004443 0.018233 0.000343
# 6 0.004616 0.000189 0.000996 -0.004203 0.000343 0.027767
#
#
# Mechanical properties :
#
#
# Convention : Reuss Voigt Hill
#
# Bulk Modulus (GPa) = 26.23765 60.69574 43.46669
# Shear Modulus (GPa) = 27.38181 42.11266 34.74723
#
# Velocity S-wave (km/s) = 3.33592 4.13705 3.75789
# Velocity P-wave (km/s) = 5.04987 6.89114 6.04107
#
# Compressibility (1/GPa) = 0.03811317
#
# Stress axis : x y z
#
# Youngs Moduli (GPa) = 29.10741 51.13605 113.83724
#
# Poissons Ratio (x) = -0.09497 1.19958
# Poissons Ratio (y) = -0.05406 0.41103
# Poissons Ratio (z) = 0.30673 0.18464
#
# Static dielectric constant tensor:
#      x y z
#    x 2.023760 -0.020130 -0.018790 
#    y -0.020130 1.940420 0.047660 
#    z -0.018790 0.047660 1.958430 
# 
# From -- ./inp_files/8276.got.cif
#   From: 2010.05.17/outbox.cif.g08.bks.cpg/sg2_5_cif.got.tgz:8276.got - 2010.06.03 11:33:40.
