data_PCOD9013078
_publ_section_title
;
Structure prediction by ZEFSAII (Michael W. Deem and Ramdas Pophale) SiO2 
 PCOD9013078
Probable space group: P -1
;
_chemical_formula_sum "Si O2"
_cell_formula_units_Z 16
_cell_length_a 7.372615
_cell_length_b 14.967971
_cell_length_c 10.317213
_cell_angle_alpha 67.827061
_cell_angle_beta 73.365227
_cell_angle_gamma 36.030248
_cell_volume 619.800969
_symmetry_space_group_name_H-M "P -1"
_symmetry_group_IT_number 2
_symmetry_cell_setting 'triclinic'
loop_
_space_group_symop_operation_xyz
x,y,z
-x,-y,-z
loop_
_atom_site_type_symbol
_atom_site_label
_atom_site_fract_x
_atom_site_fract_y
_atom_site_fract_z
Si Si1 0.233640 0.663156 0.544567
Si Si2 0.307933 0.360086 0.601726
Si Si3 0.741346 0.599720 0.107590
Si Si4 0.861062 0.030105 0.769917
Si Si5 0.240638 0.638877 0.112248
Si Si6 0.450599 0.924797 0.969142
Si Si7 0.771002 0.296793 0.201721
Si Si8 0.149661 0.124205 0.706702
O O1 0.500000 0.500000 0.500000
O O2 0.424126 0.686878 0.500176
O O3 0.143076 0.679011 0.700682
O O4 0.920968 0.790539 0.455468
O O5 0.221740 0.432252 0.726224
O O6 0.519008 0.178336 0.691630
O O7 0.000000 0.500000 0.500000
O O8 0.490490 0.623019 0.096031
O O9 0.630046 0.754707 0.040431
O O10 0.000000 0.500000 0.000000
O O11 0.972530 0.094398 0.732355
O O12 0.858515 0.987062 0.939645
O O13 0.090002 0.866582 0.735939
O O14 0.403373 0.468598 0.179017
O O15 0.009284 0.749240 0.216439
O O16 0.122323 0.699102 0.957682
O O17 0.452474 0.962208 0.801341
O O18 0.500000 0.000000 0.000000
#
# Coordination Sequence:
#
# PCOD9013078 Si02
#       8
#     2   2   2   2   2   2   2   2
#     4  11  22  40  64  89 122 162 204 253 310 366
#     4  10  23  42  60  87 126 166 201 248 314 372
#     4  11  24  41  61  88 126 167 206 253 314 364
#     4  10  21  41  63  88 125 162 204 258 304 365
#     4  11  21  40  64  94 120 166 207 260 301 369
#     4  11  23  38  62  94 122 158 205 259 307 362
#     4  11  23  35  67  97 118 151 217 263 296 361
#     4  11  20  42  65  85 126 165 201 248 322 365
#
# _framework density 25.81474
#
# number of rings (size 3 to 8) (size 9 to 14) (size 15 to 20)
#    0.000    1.250    6.250    1.125    3.500    4.000 
#    2.250    0.000    0.000    2.250    0.000    0.000 
#    0.000    0.000    0.000    0.000    0.000    0.000 
#
# Total GULP energy -89138.177435 kJ/mol
# GULP energy per Si atom -5571.136090 kJ/mol
# Density = 2.575598 g / cm^3
# Si number density = 25.814740 Si / 1000 Ang^3
#
#
#
# Elastic Constant Matrix: (Units=GPa)
#
#
# Indices 1 2 3 4 5 6 
#
# 1 80.1406 17.9551 21.2334 -0.9913 10.5304 -1.0368
# 2 17.9551 181.7591 58.7961 4.4514 9.7169 20.7590
# 3 21.2334 58.7961 205.3382 -1.2210 47.7752 -0.4499
# 4 -0.9913 4.4514 -1.2210 46.6985 -6.7907 2.6563
# 5 10.5304 9.7169 47.7752 -6.7907 34.4448 0.9444
# 6 -1.0368 20.7590 -0.4499 2.6563 0.9444 26.8952
#
#
#
# Elastic Compliance Matrix: (Units=1/GPa)
#
#
# Indices 1 2 3 4 5 6 
#
# 1 0.013289 -0.001239 -0.000197 -0.000209 -0.003526 0.001610
# 2 -0.001239 0.006887 -0.002243 -0.000191 0.001658 -0.005441
# 3 -0.000197 -0.002243 0.008036 -0.001281 -0.010771 0.002363
# 4 -0.000209 -0.000191 -0.001281 0.022455 0.006385 -0.002324
# 5 -0.003526 0.001658 -0.010771 0.006385 0.045945 -0.003840
# 6 0.001610 -0.005441 0.002363 -0.002324 -0.003840 0.041847
#
#
# Mechanical properties :
#
#
# Convention : Reuss Voigt Hill
#
# Bulk Modulus (GPa) = 47.95091 73.68968 60.82029
# Shear Modulus (GPa) = 32.72927 46.22457 39.47692
#
# Velocity S-wave (km/s) = 3.56455 4.23617 3.91479
# Velocity P-wave (km/s) = 5.96295 7.24806 6.63668
#
# Compressibility (1/GPa) = 0.02085466
#
# Stress axis : x y z
#
# Youngs Moduli (GPa) = 75.24795 145.19872 124.43938
#
# Poissons Ratio (x) = 0.17997 0.02448
# Poissons Ratio (y) = 0.09327 0.27909
# Poissons Ratio (z) = 0.01480 0.32565
#
# Static dielectric constant tensor:
#      x y z
#    x 2.126830 -0.084220 0.060430 
#    y -0.084220 2.178140 -0.113640 
#    z 0.060430 -0.113640 2.173060 
# 
# From -- ./inp_files/206941.got.cif
#   From: 2010.05.17/outbox.cif.g08.bks.cpg/sg2_104_cif.got.tgz:206941.got - 2010.06.03 11:33:40.
