data_PCOD9013361
_publ_section_title
;
Structure prediction by ZEFSAII (Michael W. Deem and Ramdas Pophale) SiO2 
 PCOD9013361
Probable space group: P -1
;
_chemical_formula_sum "Si O2"
_cell_formula_units_Z 16
_cell_length_a 12.181775
_cell_length_b 23.989193
_cell_length_c 12.537877
_cell_angle_alpha 21.227961
_cell_angle_beta 143.419483
_cell_angle_gamma 142.810649
_cell_volume 770.715075
_symmetry_space_group_name_H-M "P -1"
_symmetry_group_IT_number 2
_symmetry_cell_setting 'triclinic'
loop_
_space_group_symop_operation_xyz
x,y,z
-x,-y,-z
loop_
_atom_site_type_symbol
_atom_site_label
_atom_site_fract_x
_atom_site_fract_y
_atom_site_fract_z
Si Si1 0.613444 0.391150 0.221337
Si Si2 0.783209 0.974178 0.738055
Si Si3 0.388217 0.362074 0.889341
Si Si4 0.035605 0.526551 0.351936
Si Si5 0.755082 0.168683 0.155767
Si Si6 0.559951 0.631124 0.403928
Si Si7 0.786631 0.958442 0.998893
Si Si8 0.525618 0.053014 0.805800
O O1 0.833489 0.465870 0.245177
O O2 0.604156 0.236517 0.557085
O O3 0.500000 0.500000 0.000000
O O4 0.483195 0.325856 0.136263
O O5 0.801794 0.094317 0.438118
O O6 0.659480 0.800826 0.922683
O O7 0.716539 0.020084 0.721872
O O8 0.996747 0.962825 0.951437
O O9 0.543789 0.515053 0.698139
O O10 0.195573 0.426853 0.630805
O O11 0.000000 0.500000 0.500000
O O12 0.108451 0.702624 0.043626
O O13 0.667612 0.018918 0.280121
O O14 0.597252 0.265548 0.892489
O O15 0.500000 0.500000 0.500000
O O16 0.749345 0.766932 0.299207
O O17 0.674799 0.993534 0.952724
O O18 0.500000 0.000000 0.000000
#
# Coordination Sequence:
#
# PCOD9013361 Si02
#       8
#     2   2   2   2   2   2   2   2
#     4  12  25  41  67  96 127 182 221 271 338 400
#     4  11  22  44  65  99 131 171 233 271 341 398
#     4  11  23  42  66  96 133 173 225 274 335 401
#     4  11  23  43  63  94 143 175 217 280 332 395
#     4  10  24  40  66  97 128 173 219 276 330 400
#     4  10  21  41  64  92 127 170 212 272 331 388
#     4  10  24  41  70  92 136 178 217 286 335 399
#     4  11  24  44  66  95 130 174 225 273 338 399
#
# _framework density 20.759941999999999
#
# number of rings (size 3 to 8) (size 9 to 14) (size 15 to 20)
#    0.000    1.250    3.750    1.500    5.250    3.000 
#    0.000    2.500    0.000    0.000    0.000    0.000 
#    0.000    0.000    0.000    0.000    0.000    0.000 
#
# Total GULP energy -89080.034856 kJ/mol
# GULP energy per Si atom -5567.502178 kJ/mol
# Density = 2.071269 g / cm^3
# Si number density = 20.759942 Si / 1000 Ang^3
#
#
#
# Elastic Constant Matrix: (Units=GPa)
#
#
# Indices 1 2 3 4 5 6 
#
# 1 82.9533 24.4862 22.2507 0.2437 -23.7874 -10.1889
# 2 24.4862 109.1172 19.1085 -7.6083 -6.7160 8.0226
# 3 22.2507 19.1085 62.8516 -14.7451 -27.6957 3.4487
# 4 0.2437 -7.6083 -14.7451 37.2225 -1.0560 -9.8447
# 5 -23.7874 -6.7160 -27.6957 -1.0560 34.0157 -0.5179
# 6 -10.1889 8.0226 3.4487 -9.8447 -0.5179 37.2331
#
#
#
# Elastic Compliance Matrix: (Units=1/GPa)
#
#
# Indices 1 2 3 4 5 6 
#
# 1 0.017058 -0.003477 -0.000092 0.001008 0.011288 0.005849
# 2 -0.003477 0.010526 -0.003052 0.000103 -0.002880 -0.002949
# 3 -0.000092 -0.003052 0.030619 0.012595 0.024676 0.001470
# 4 0.001008 0.000103 0.012595 0.034425 0.012176 0.008359
# 5 0.011288 -0.002880 0.024676 0.012176 0.057275 0.005440
# 6 0.005849 -0.002949 0.001470 0.008359 0.005440 0.031244
#
#
# Mechanical properties :
#
#
# Convention : Reuss Voigt Hill
#
# Bulk Modulus (GPa) = 22.24186 42.95699 32.59942
# Shear Modulus (GPa) = 23.88030 34.29937 29.08983
#
# Velocity S-wave (km/s) = 3.39530 4.06912 3.74739
# Velocity P-wave (km/s) = 5.10958 6.54326 5.87035
#
# Compressibility (1/GPa) = 0.04496027
#
# Stress axis : x y z
#
# Youngs Moduli (GPa) = 58.62219 95.00303 32.65955
#
# Poissons Ratio (x) = 0.33030 0.00302
# Poissons Ratio (y) = 0.20382 0.09969
# Poissons Ratio (z) = 0.00542 0.28998
#
# Static dielectric constant tensor:
#      x y z
#    x 1.811970 0.020800 -0.113300 
#    y 0.020800 1.763580 0.051580 
#    z -0.113300 0.051580 1.854930 
# 
# From -- ./inp_files/240636.got.cif
#   From: 2010.05.17/outbox.cif.g08.bks.cpg/sg2_121_cif.got.tgz:240636.got - 2010.06.03 11:33:40.
