data_PCOD9013638
_publ_section_title
;
Structure prediction by ZEFSAII (Michael W. Deem and Ramdas Pophale) SiO2 
 PCOD9013638
Probable space group: P -1
;
_chemical_formula_sum "Si O2"
_cell_formula_units_Z 14
_cell_length_a 15.480189
_cell_length_b 5.056312
_cell_length_c 11.582306
_cell_angle_alpha 111.318933
_cell_angle_beta 138.428919
_cell_angle_gamma 75.876081
_cell_volume 559.820646
_symmetry_space_group_name_H-M "P -1"
_symmetry_group_IT_number 2
_symmetry_cell_setting 'triclinic'
loop_
_space_group_symop_operation_xyz
x,y,z
-x,-y,-z
loop_
_atom_site_type_symbol
_atom_site_label
_atom_site_fract_x
_atom_site_fract_y
_atom_site_fract_z
Si Si1 0.111492 0.663138 0.285607
Si Si2 0.605299 0.863057 0.666659
Si Si3 0.397079 0.676263 0.585486
Si Si4 0.996016 0.378404 0.607536
Si Si5 0.899045 0.861233 0.967582
Si Si6 0.622139 0.424378 0.185840
Si Si7 0.778393 0.884563 0.276070
O O1 0.255336 0.813426 0.464029
O O2 0.123282 0.457879 0.155111
O O3 0.070426 0.472193 0.326571
O O4 0.985705 0.845325 0.166499
O O5 0.529054 0.848683 0.709820
O O6 0.614971 0.562837 0.563019
O O7 0.754606 0.983752 0.846873
O O8 0.500000 0.000000 0.500000
O O9 0.406767 0.554235 0.704077
O O10 0.146220 0.307889 0.770225
O O11 0.000000 0.500000 0.500000
O O12 0.896951 0.099989 0.467492
O O13 0.000000 0.000000 0.000000
O O14 0.727732 0.661627 0.285590
O O15 0.670575 0.103584 0.164976
O O16 0.500000 0.500000 0.000000
#
# Coordination Sequence:
#
# PCOD9013638 Si02
#       7
#     2   2   2   2   2   2   2
#     4  10  21  41  65  91 131 170 225 276 339 402
#     4  10  22  40  64  94 130 170 222 275 338 407
#     4  10  22  42  66  90 127 179 222 276 339 406
#     4  11  22  42  71 100 136 179 230 289 342 411
#     4  10  22  39  64  98 130 170 218 278 341 405
#     4  12  26  46  69  99 142 184 233 282 344 416
#     4  11  24  44  68 101 136 182 233 281 346 405
#
# _framework density 25.008009000000001
#
# number of rings (size 3 to 8) (size 9 to 14) (size 15 to 20)
#    0.000    1.429    2.857    1.286    2.000    6.857 
#    2.571    0.000    0.000    0.000    0.000    0.000 
#    0.000    0.000    0.000    0.000    0.000    0.000 
#
# Total GULP energy -78033.291748 kJ/mol
# GULP energy per Si atom -5573.806553 kJ/mol
# Density = 2.495109 g / cm^3
# Si number density = 25.008009 Si / 1000 Ang^3
#
#
#
# Elastic Constant Matrix: (Units=GPa)
#
#
# Indices 1 2 3 4 5 6 
#
# 1 188.2192 36.2447 87.9240 -24.6671 38.9408 39.0376
# 2 36.2447 62.2242 26.4838 -20.4538 19.0242 21.8894
# 3 87.9240 26.4838 147.5498 -34.9453 39.4925 21.2554
# 4 -24.6671 -20.4538 -34.9453 36.3448 -6.3342 0.8181
# 5 38.9408 19.0242 39.4925 -6.3342 47.6493 -0.4697
# 6 39.0376 21.8894 21.2554 0.8181 -0.4697 49.0513
#
#
#
# Elastic Compliance Matrix: (Units=1/GPa)
#
#
# Indices 1 2 3 4 5 6 
#
# 1 0.009320 0.001009 -0.002297 0.003854 -0.005673 -0.006991
# 2 0.001009 0.030722 0.005302 0.020868 -0.014882 -0.017301
# 3 -0.002297 0.005302 0.014095 0.013353 -0.010215 -0.006966
# 4 0.003854 0.020868 0.013353 0.052396 -0.015773 -0.019191
# 5 -0.005673 -0.014882 -0.010215 -0.015773 0.038094 0.016210
# 6 -0.006991 -0.017301 -0.006966 -0.019191 0.016210 0.037166
#
#
# Mechanical properties :
#
#
# Convention : Reuss Voigt Hill
#
# Bulk Modulus (GPa) = 16.08585 77.69978 46.89281
# Shear Modulus (GPa) = 25.70881 43.09848 34.40364
#
# Velocity S-wave (km/s) = 3.20976 4.15587 3.71307
# Velocity P-wave (km/s) = 4.49255 7.35974 6.09708
#
# Compressibility (1/GPa) = 0.06216644
#
# Stress axis : x y z
#
# Youngs Moduli (GPa) = 107.29280 32.54980 70.94893
#
# Poissons Ratio (x) = -0.03285 0.16295
# Poissons Ratio (y) = -0.10829 -0.37618
# Poissons Ratio (z) = 0.24643 -0.17258
#
# Static dielectric constant tensor:
#      x y z
#    x 2.053510 -0.151860 0.021340 
#    y -0.151860 1.998390 0.012750 
#    z 0.021340 0.012750 2.086480 
# 
# From -- ./inp_files/100417.got.cif
#   From: 2010.05.17/outbox.cif.g08.bks.cpg/sg2_51_cif.got.tgz:100417.got - 2010.06.03 11:33:40.
