data_PCOD9013001
_publ_section_title
;
Structure prediction by ZEFSAII (Michael W. Deem and Ramdas Pophale) SiO2 
 PCOD9013001
Probable space group: P -1
;
_chemical_formula_sum "Si O2"
_cell_formula_units_Z 16
_cell_length_a 10.501082
_cell_length_b 11.368930
_cell_length_c 12.136201
_cell_angle_alpha 47.661552
_cell_angle_beta 96.134134
_cell_angle_gamma 63.856159
_cell_volume 763.105704
_symmetry_space_group_name_H-M "P -1"
_symmetry_group_IT_number 2
_symmetry_cell_setting 'triclinic'
loop_
_space_group_symop_operation_xyz
x,y,z
-x,-y,-z
loop_
_atom_site_type_symbol
_atom_site_label
_atom_site_fract_x
_atom_site_fract_y
_atom_site_fract_z
Si Si1 0.967718 0.514430 0.733815
Si Si2 0.333901 0.250041 0.855058
Si Si3 0.454665 0.705530 0.013989
Si Si4 0.564268 0.254686 0.261391
Si Si5 0.910869 0.035330 0.085976
Si Si6 0.942701 0.865161 0.602951
Si Si7 0.144033 0.594758 0.013680
Si Si8 0.129690 0.533317 0.457631
O O1 0.163568 0.295772 0.848201
O O2 0.970889 0.703933 0.614227
O O3 0.935897 0.478106 0.875605
O O4 0.830922 0.547839 0.614989
O O5 0.393056 0.309008 0.923493
O O6 0.285164 0.389095 0.652346
O O7 0.500000 0.000000 0.000000
O O8 0.543782 0.457103 0.162828
O O9 0.377315 0.813448 0.818096
O O10 0.295814 0.841378 0.002965
O O11 0.358012 0.377969 0.167978
O O12 0.726015 0.048724 0.479936
O O13 0.900933 0.203972 0.050942
O O14 0.030407 0.786762 0.297848
O O15 0.000000 0.000000 0.000000
O O16 0.000000 0.000000 0.500000
O O17 0.056476 0.704503 0.818441
O O18 0.000000 0.500000 0.500000
#
# Coordination Sequence:
#
# PCOD9013001 Si02
#       8
#     2   2   2   2   2   2   2   2
#     4  11  24  45  65  94 138 174 217 280 342 397
#     4  11  24  39  67  97 131 173 227 275 331 406
#     4  10  21  41  62  94 135 165 220 275 329 391
#     4  10  23  41  65  98 130 179 222 275 329 390
#     4  11  22  42  69  94 133 176 214 276 342 397
#     4  12  25  41  73  99 126 179 234 275 330 398
#     4  11  25  45  66  99 142 173 221 277 342 399
#     4  10  23  40  65  97 126 178 222 259 337 407
#
# _framework density 20.966951000000002
#
# number of rings (size 3 to 8) (size 9 to 14) (size 15 to 20)
#    0.000    1.250    1.250    5.625   10.500    0.500 
#    2.250    0.625    0.000    0.000    0.000    0.000 
#    0.000    0.000    0.000    0.000    0.000    0.000 
#
# Total GULP energy -89261.887792 kJ/mol
# GULP energy per Si atom -5578.867987 kJ/mol
# Density = 2.091923 g / cm^3
# Si number density = 20.966951 Si / 1000 Ang^3
#
#
#
# Elastic Constant Matrix: (Units=GPa)
#
#
# Indices 1 2 3 4 5 6 
#
# 1 70.5168 29.0548 38.9393 -6.7784 -0.3153 -8.9964
# 2 29.0548 87.0579 30.4915 -5.3757 8.4098 -8.0668
# 3 38.9393 30.4915 116.0474 -14.2998 11.6487 -12.8789
# 4 -6.7784 -5.3757 -14.2998 25.0721 -0.7284 -2.3322
# 5 -0.3153 8.4098 11.6487 -0.7284 33.3851 -2.9806
# 6 -8.9964 -8.0668 -12.8789 -2.3322 -2.9806 38.1656
#
#
#
# Elastic Compliance Matrix: (Units=1/GPa)
#
#
# Indices 1 2 3 4 5 6 
#
# 1 0.019429 -0.004694 -0.005188 0.001591 0.003407 0.002200
# 2 -0.004694 0.014051 -0.001591 0.000859 -0.002907 0.001152
# 3 -0.005188 -0.001591 0.012062 0.005272 -0.003513 0.002559
# 4 0.001591 0.000859 0.005272 0.043950 -0.000638 0.004971
# 5 0.003407 -0.002907 -0.003513 -0.000638 0.032061 0.001468
# 6 0.002200 0.001152 0.002559 0.004971 0.001468 0.028246
#
#
# Mechanical properties :
#
#
# Convention : Reuss Voigt Hill
#
# Bulk Modulus (GPa) = 44.25608 52.28814 48.27211
# Shear Modulus (GPa) = 27.73508 31.00031 29.36769
#
# Velocity S-wave (km/s) = 3.64098 3.84934 3.74661
# Velocity P-wave (km/s) = 6.23129 6.68947 6.46444
#
# Compressibility (1/GPa) = 0.02259576
#
# Stress axis : x y z
#
# Youngs Moduli (GPa) = 51.47048 71.16822 82.90317
#
# Poissons Ratio (x) = 0.33408 0.43006
# Poissons Ratio (y) = 0.24161 0.13193
# Poissons Ratio (z) = 0.26701 0.11326
#
# Static dielectric constant tensor:
#      x y z
#    x 1.790630 0.013830 0.015220 
#    y 0.013830 1.824200 0.030420 
#    z 0.015220 0.030420 1.781290 
# 
# From -- ./inp_files/427350.got.cif
#   From: 2010.05.17/outbox.cif.g08.bks.cpg/sg2_214_cif.got.tgz:427350.got - 2010.06.03 11:33:40.
