data_PCOD9013137
_publ_section_title
;
Structure prediction by ZEFSAII (Michael W. Deem and Ramdas Pophale) SiO2 
 PCOD9013137
Probable space group: P -1
;
_chemical_formula_sum "Si O2"
_cell_formula_units_Z 16
_cell_length_a 5.631032
_cell_length_b 20.952955
_cell_length_c 8.618478
_cell_angle_alpha 49.500959
_cell_angle_beta 73.087710
_cell_angle_gamma 63.627018
_cell_volume 692.759856
_symmetry_space_group_name_H-M "P -1"
_symmetry_group_IT_number 2
_symmetry_cell_setting 'triclinic'
loop_
_space_group_symop_operation_xyz
x,y,z
-x,-y,-z
loop_
_atom_site_type_symbol
_atom_site_label
_atom_site_fract_x
_atom_site_fract_y
_atom_site_fract_z
Si Si1 0.728922 0.948006 0.763966
Si Si2 0.149971 0.644129 0.384597
Si Si3 0.477113 0.605427 0.836776
Si Si4 0.879308 0.953364 0.366232
Si Si5 0.611921 0.658823 0.067901
Si Si6 0.814037 0.231968 0.565971
Si Si7 0.998166 0.487564 0.204230
Si Si8 0.328789 0.231717 0.869887
O O1 0.822676 0.940133 0.579022
O O2 0.407939 0.997796 0.737111
O O3 0.771633 0.850914 0.978455
O O4 0.908459 0.994662 0.748887
O O5 0.417139 0.633826 0.260968
O O6 0.060649 0.729667 0.380187
O O7 0.199238 0.556213 0.616977
O O8 0.906227 0.674545 0.265722
O O9 0.247513 0.686401 0.674880
O O10 0.723205 0.589393 0.697828
O O11 0.500000 0.500000 0.000000
O O12 0.521911 0.643167 0.936243
O O13 0.015724 0.859362 0.402811
O O14 0.911351 0.586983 0.126989
O O15 0.587193 0.755341 0.987670
O O16 0.559228 0.220412 0.718310
O O17 0.000000 0.500000 0.000000
#
# Coordination Sequence:
#
# PCOD9013137 Si02
#       8
#     2   2   2   2   2   2   2   2
#     4  10  25  47  72 110 141 181 235 296 363 426
#     4  11  24  44  63 100 137 180 234 286 347 419
#     4  11  24  43  68 100 137 183 235 286 343 416
#     4  10  25  46  76 103 141 185 236 293 355 436
#     4  10  25  41  68  96 133 189 224 289 349 413
#     4  11  25  44  69 103 137 185 231 288 350 420
#     4  10  21  41  63  91 134 178 231 284 337 408
#     4  11  26  44  68 102 142 179 230 293 351 427
#
# _framework density 23.096025999999998
#
# number of rings (size 3 to 8) (size 9 to 14) (size 15 to 20)
#    0.000    1.500    1.250    1.875    8.750    6.500 
#    0.000    0.000    0.000    0.000    0.000    0.000 
#    0.000    0.000    0.000    0.000    0.000    0.000 
#
# Total GULP energy -89188.755310 kJ/mol
# GULP energy per Si atom -5574.297207 kJ/mol
# Density = 2.304346 g / cm^3
# Si number density = 23.096026 Si / 1000 Ang^3
#
#
#
# Elastic Constant Matrix: (Units=GPa)
#
#
# Indices 1 2 3 4 5 6 
#
# 1 77.6354 48.9603 30.5464 2.1464 -2.2474 9.8210
# 2 48.9603 175.5898 39.6156 6.7276 9.9249 9.9402
# 3 30.5464 39.6156 99.8831 -17.0284 1.4862 14.8088
# 4 2.1464 6.7276 -17.0284 17.1022 5.0499 -0.3554
# 5 -2.2474 9.9249 1.4862 5.0499 24.0708 -2.6321
# 6 9.8210 9.9402 14.8088 -0.3554 -2.6321 31.0262
#
#
#
# Elastic Compliance Matrix: (Units=1/GPa)
#
#
# Indices 1 2 3 4 5 6 
#
# 1 0.017749 -0.003721 -0.004997 -0.007199 0.004823 -0.001714
# 2 -0.003721 0.007631 -0.002548 -0.004353 -0.002457 -0.000309
# 3 -0.004997 -0.002548 0.016891 0.019882 -0.005273 -0.005884
# 4 -0.007199 -0.004353 0.019882 0.086338 -0.018922 -0.006433
# 5 0.004823 -0.002457 -0.005273 -0.018922 0.047918 0.005626
# 6 -0.001714 -0.000309 -0.005884 -0.006433 0.005626 0.036084
#
#
# Mechanical properties :
#
#
# Convention : Reuss Voigt Hill
#
# Bulk Modulus (GPa) = 50.66414 65.70585 58.18500
# Shear Modulus (GPa) = 20.68481 30.03889 25.36185
#
# Velocity S-wave (km/s) = 2.99591 3.61031 3.31736
# Velocity P-wave (km/s) = 5.82676 6.77420 6.31827
#
# Compressibility (1/GPa) = 0.01973783
#
# Stress axis : x y z
#
# Youngs Moduli (GPa) = 56.34048 131.04812 59.20345
#
# Poissons Ratio (x) = 0.48769 0.29584
# Poissons Ratio (y) = 0.20967 0.15086
# Poissons Ratio (z) = 0.28153 0.33393
#
# Static dielectric constant tensor:
#      x y z
#    x 2.107580 -0.010060 -0.032530 
#    y -0.010060 1.806370 0.005820 
#    z -0.032530 0.005820 1.875170 
# 
# From -- ./inp_files/141121.got.cif
#   From: 2010.05.17/outbox.cif.g08.bks.cpg/sg2_71_cif.got.tgz:141121.got - 2010.06.03 11:33:40.
