data_PCOD9013153
_publ_section_title
;
Structure prediction by ZEFSAII (Michael W. Deem and Ramdas Pophale) SiO2 
 PCOD9013153
Probable space group: P -1
;
_chemical_formula_sum "Si O2"
_cell_formula_units_Z 14
_cell_length_a 9.336266
_cell_length_b 12.042077
_cell_length_c 13.018967
_cell_angle_alpha 28.982225
_cell_angle_beta 62.141016
_cell_angle_gamma 61.431726
_cell_volume 618.729352
_symmetry_space_group_name_H-M "P -1"
_symmetry_group_IT_number 2
_symmetry_cell_setting 'triclinic'
loop_
_space_group_symop_operation_xyz
x,y,z
-x,-y,-z
loop_
_atom_site_type_symbol
_atom_site_label
_atom_site_fract_x
_atom_site_fract_y
_atom_site_fract_z
Si Si1 0.341193 0.253651 0.588972
Si Si2 0.836252 0.779124 0.776268
Si Si3 0.598064 0.149273 0.419597
Si Si4 0.015145 0.084266 0.811073
Si Si5 0.654869 0.285718 0.691910
Si Si6 0.560750 0.882585 0.925614
Si Si7 0.108020 0.718326 0.898279
O O1 0.461768 0.294867 0.421764
O O2 0.154744 0.248274 0.623919
O O3 0.357009 0.436025 0.527940
O O4 0.410468 0.993035 0.814784
O O5 0.702392 0.716392 0.954355
O O6 0.985074 0.826710 0.760097
O O7 0.729165 0.981683 0.582711
O O8 0.905438 0.553283 0.868886
O O9 0.707915 0.273372 0.206514
O O10 0.500000 0.000000 0.500000
O O11 0.835489 0.206566 0.740551
O O12 0.065437 0.867400 0.893333
O O13 0.000000 0.000000 0.000000
O O14 0.641532 0.110094 0.745255
O O15 0.514019 0.228599 0.862718
#
# Coordination Sequence:
#
# PCOD9013153 Si02
#       7
#     2   2   2   2   2   2   2
#     4  11  23  41  62  92 124 165 209 256 316 371
#     4  10  23  42  69  92 123 173 211 265 318 372
#     4  11  23  41  65  96 127 160 213 267 315 378
#     4  12  24  43  62  93 133 167 211 259 313 385
#     4  11  22  39  64  88 127 170 203 255 315 370
#     4  10  21  41  63  93 124 158 216 258 304 377
#     4  11  23  45  64  93 130 168 215 259 318 376
#
# _framework density 22.627016000000001
#
# number of rings (size 3 to 8) (size 9 to 14) (size 15 to 20)
#    0.000    1.143    4.286    2.143    0.000    1.714 
#    2.571    1.429    0.000    0.000    0.000    0.000 
#    0.000    0.000    0.000    0.000    0.000    0.000 
#
# Total GULP energy -78181.946279 kJ/mol
# GULP energy per Si atom -5584.424734 kJ/mol
# Density = 2.257552 g / cm^3
# Si number density = 22.627016 Si / 1000 Ang^3
#
#
#
# Elastic Constant Matrix: (Units=GPa)
#
#
# Indices 1 2 3 4 5 6 
#
# 1 105.6594 18.3045 20.5772 -6.8986 -17.4020 -5.6559
# 2 18.3045 118.0558 39.1498 -12.6342 -18.4580 11.6063
# 3 20.5772 39.1498 26.3862 -5.8317 -13.8678 -2.3971
# 4 -6.8986 -12.6342 -5.8317 36.0793 2.8598 -9.4878
# 5 -17.4020 -18.4580 -13.8678 2.8598 27.2114 -2.9933
# 6 -5.6559 11.6063 -2.3971 -9.4878 -2.9933 38.6359
#
#
#
# Elastic Compliance Matrix: (Units=1/GPa)
#
#
# Indices 1 2 3 4 5 6 
#
# 1 0.011817 0.002072 -0.009805 0.001389 0.003946 0.001146
# 2 0.002072 0.019146 -0.032262 0.000110 -0.002983 -0.007654
# 3 -0.009805 -0.032262 0.113124 0.007819 0.030829 0.019583
# 4 0.001389 0.000110 0.007819 0.031327 0.002595 0.008549
# 5 0.003946 -0.002983 0.030829 0.002595 0.053587 0.008175
# 6 0.001146 -0.007654 0.019583 0.008549 0.008175 0.032298
#
#
# Mechanical properties :
#
#
# Convention : Reuss Voigt Hill
#
# Bulk Modulus (GPa) = 15.60162 45.12938 30.36550
# Shear Modulus (GPa) = 13.78723 31.85665 22.82194
#
# Velocity S-wave (km/s) = 2.47113 3.75627 3.17931
# Velocity P-wave (km/s) = 3.87970 6.22904 5.18908
#
# Compressibility (1/GPa) = 0.06409590
#
# Stress axis : x y z
#
# Youngs Moduli (GPa) = 84.62528 52.23039 8.83987
#
# Poissons Ratio (x) = -0.10824 0.08668
# Poissons Ratio (y) = -0.17538 0.28519
# Poissons Ratio (z) = 0.82978 1.68507
#
# Static dielectric constant tensor:
#      x y z
#    x 1.836420 -0.006810 -0.004300 
#    y -0.006810 1.827970 -0.010710 
#    z -0.004300 -0.010710 1.896980 
# 
# From -- ./inp_files/68146.got.cif
#   From: 2010.05.17/outbox.cif.g08.bks.cpg/sg2_35_cif.got.tgz:68146.got - 2010.06.03 11:33:40.
