data_PCOD9013899
_publ_section_title
;
Structure prediction by ZEFSAII (Michael W. Deem and Ramdas Pophale) SiO2 
 PCOD9013899
Probable space group: P -1
;
_chemical_formula_sum "Si O2"
_cell_formula_units_Z 14
_cell_length_a 12.952908
_cell_length_b 9.714660
_cell_length_c 13.830281
_cell_angle_alpha 150.691115
_cell_angle_beta 137.349724
_cell_angle_gamma 49.363964
_cell_volume 576.931086
_symmetry_space_group_name_H-M "P -1"
_symmetry_group_IT_number 2
_symmetry_cell_setting 'triclinic'
loop_
_space_group_symop_operation_xyz
x,y,z
-x,-y,-z
loop_
_atom_site_type_symbol
_atom_site_label
_atom_site_fract_x
_atom_site_fract_y
_atom_site_fract_z
Si Si1 0.692118 0.947442 0.893456
Si Si2 0.648337 0.591178 0.453969
Si Si3 0.905763 0.650335 0.158575
Si Si4 0.305907 0.560392 0.263765
Si Si5 0.792304 0.537995 0.319729
Si Si6 0.359747 0.147663 0.763244
Si Si7 0.066192 0.737947 0.508895
O O1 0.684304 0.813507 0.699190
O O2 0.706853 0.704372 0.834806
O O3 0.529712 0.110256 0.895121
O O4 0.806451 0.200523 0.132084
O O5 0.468381 0.542230 0.307848
O O6 0.717350 0.671280 0.446659
O O7 0.755507 0.319780 0.386886
O O8 0.018629 0.571522 0.275991
O O9 0.753312 0.757918 0.173507
O O10 0.841062 0.437939 0.906103
O O11 0.966666 0.933673 0.327857
O O12 0.316660 0.842840 0.506094
O O13 0.954670 0.639177 0.455660
O O14 0.674135 0.631846 0.210963
#
# Coordination Sequence:
#
# PCOD9013899 Si02
#       7
#     2   2   2   2   2   2   2
#     4  11  23  39  64  95 123 159 208 256 306 362
#     4  11  23  41  63  91 127 159 203 261 304 358
#     4  10  21  41  66  89 124 164 204 255 305 359
#     4  11  23  40  69  94 116 161 213 254 306 360
#     4  11  24  39  61  90 128 168 200 244 311 372
#     4  10  22  41  63  95 125 155 207 261 302 361
#     4  10  22  41  61  91 129 164 202 250 306 368
#
# _framework density 24.26633
#
# number of rings (size 3 to 8) (size 9 to 14) (size 15 to 20)
#    0.000    1.429    0.000    6.000    0.000    8.000 
#    0.000   15.714    0.000    0.000    0.000    0.000 
#    0.000    0.000    0.000    0.000    0.000    0.000 
#
# Total GULP energy -78355.487336 kJ/mol
# GULP energy per Si atom -5596.820524 kJ/mol
# Density = 2.421110 g / cm^3
# Si number density = 24.266330 Si / 1000 Ang^3
#
#
#
# Elastic Constant Matrix: (Units=GPa)
#
#
# Indices 1 2 3 4 5 6 
#
# 1 114.4033 12.8960 22.2376 3.0287 0.0114 -1.1095
# 2 12.8960 48.0341 9.8704 0.1059 7.5941 4.0649
# 3 22.2376 9.8704 99.0018 -13.3778 0.6726 14.7575
# 4 3.0287 0.1059 -13.3778 34.2641 -8.3696 9.9885
# 5 0.0114 7.5941 0.6726 -8.3696 26.8656 0.3667
# 6 -1.1095 4.0649 14.7575 9.9885 0.3667 36.3893
#
#
#
# Elastic Compliance Matrix: (Units=1/GPa)
#
#
# Indices 1 2 3 4 5 6 
#
# 1 0.009590 -0.002201 -0.002627 -0.002577 -0.000151 0.002313
# 2 -0.002201 0.023011 -0.001818 -0.001927 -0.007041 -0.001300
# 3 -0.002627 -0.001818 0.013075 0.008214 0.002849 -0.007463
# 4 -0.002577 -0.001927 0.008214 0.039965 0.012986 -0.014295
# 5 -0.000151 -0.007041 0.002849 0.012986 0.043246 -0.004374
# 6 0.002313 -0.001300 -0.007463 -0.014295 -0.004374 0.034691
#
#
# Mechanical properties :
#
#
# Convention : Reuss Voigt Hill
#
# Bulk Modulus (GPa) = 30.88012 39.04970 34.96491
# Shear Modulus (GPa) = 26.64307 33.93284 30.28795
#
# Velocity S-wave (km/s) = 3.31712 3.74351 3.53675
# Velocity P-wave (km/s) = 5.23681 5.90019 5.57837
#
# Compressibility (1/GPa) = 0.03238330
#
# Stress axis : x y z
#
# Youngs Moduli (GPa) = 104.27113 43.45828 76.48082
#
# Poissons Ratio (x) = 0.09566 0.20089
# Poissons Ratio (y) = 0.22953 0.13908
# Poissons Ratio (z) = 0.27389 0.07903
#
# Static dielectric constant tensor:
#      x y z
#    x 1.947460 0.022510 -0.001440 
#    y 0.022510 1.956500 -0.054360 
#    z -0.001440 -0.054360 1.949830 
# 
# From -- ./inp_files/261897.got.cif
#   From: 2010.05.17/outbox.cif.g08.bks.cpg/sg2_131_cif.got.tgz:261897.got - 2010.06.03 11:33:40.
