data_PCOD9013877
_publ_section_title
;
Structure prediction by ZEFSAII (Michael W. Deem and Ramdas Pophale) SiO2 
 PCOD9013877
Probable space group: P -1
;
_chemical_formula_sum "Si O2"
_cell_formula_units_Z 14
_cell_length_a 8.810199
_cell_length_b 15.256532
_cell_length_c 10.300584
_cell_angle_alpha 136.408473
_cell_angle_beta 78.496431
_cell_angle_gamma 133.753465
_cell_volume 548.916931
_symmetry_space_group_name_H-M "P -1"
_symmetry_group_IT_number 2
_symmetry_cell_setting 'triclinic'
loop_
_space_group_symop_operation_xyz
x,y,z
-x,-y,-z
loop_
_atom_site_type_symbol
_atom_site_label
_atom_site_fract_x
_atom_site_fract_y
_atom_site_fract_z
Si Si1 0.383266 0.584439 0.000993
Si Si2 0.419199 0.080034 0.474572
Si Si3 0.139989 0.441743 0.320192
Si Si4 0.396387 0.791681 0.830806
Si Si5 0.866182 0.753602 0.116576
Si Si6 0.082694 0.921857 0.836353
Si Si7 0.892495 0.235048 0.566721
O O1 0.424539 0.715634 0.245437
O O2 0.681957 0.744167 0.085775
O O3 0.252435 0.370628 0.858174
O O4 0.167902 0.484468 0.825682
O O5 0.652711 0.151756 0.447411
O O6 0.250003 0.888350 0.403921
O O7 0.181289 0.979761 0.320739
O O8 0.377158 0.678620 0.595275
O O9 0.904457 0.383584 0.267133
O O10 0.042835 0.273296 0.261475
O O11 0.187106 0.394442 0.133192
O O12 0.500000 0.000000 0.000000
O O13 0.601696 0.873551 0.984443
O O14 0.025732 0.832545 0.605717
O O15 0.000000 0.000000 0.000000
#
# Coordination Sequence:
#
# PCOD9013877 Si02
#       7
#     2   2   2   2   2   2   2
#     4  10  22  38  61  90 121 156 207 264 312 359
#     4  10  21  41  66  86 120 166 206 259 309 366
#     4  10  22  40  65  89 125 167 210 259 310 376
#     4   9  21  42  61  89 119 164 217 253 307 370
#     4  10  22  38  60  93 118 156 210 255 313 370
#     4  11  25  39  60  95 132 170 205 256 317 377
#     4  10  23  40  59  91 124 160 213 249 309 377
#
# _framework density 25.504769
#
# number of rings (size 3 to 8) (size 9 to 14) (size 15 to 20)
#    0.000    2.000    0.000    1.714    4.000    7.429 
#    0.000    0.000    0.000    0.000    0.000    0.000 
#    0.000    0.000    0.000    0.000    0.000    0.000 
#
# Total GULP energy -78210.224171 kJ/mol
# GULP energy per Si atom -5586.444584 kJ/mol
# Density = 2.544672 g / cm^3
# Si number density = 25.504769 Si / 1000 Ang^3
#
#
#
# Elastic Constant Matrix: (Units=GPa)
#
#
# Indices 1 2 3 4 5 6 
#
# 1 99.6900 44.5233 44.4116 8.8813 2.2875 21.6686
# 2 44.5233 93.7224 36.9500 10.3070 -0.6612 11.5624
# 3 44.4116 36.9500 177.7585 -2.4227 -2.8099 15.4719
# 4 8.8813 10.3070 -2.4227 42.7655 12.7541 -13.8925
# 5 2.2875 -0.6612 -2.8099 12.7541 31.1123 -8.8611
# 6 21.6686 11.5624 15.4719 -13.8925 -8.8611 28.7673
#
#
#
# Elastic Compliance Matrix: (Units=1/GPa)
#
#
# Indices 1 2 3 4 5 6 
#
# 1 0.016539 -0.004791 -0.002123 -0.005794 -0.002856 -0.013068
# 2 -0.004791 0.014338 -0.001575 -0.003834 0.001301 -0.002758
# 3 -0.002123 -0.001575 0.006570 0.000886 0.000114 -0.000838
# 4 -0.005794 -0.003834 0.000886 0.034308 -0.008084 0.019506
# 5 -0.002856 0.001301 0.000114 -0.008084 0.038408 0.009494
# 6 -0.013068 -0.002758 -0.000838 0.019506 0.009494 0.058509
#
#
# Mechanical properties :
#
#
# Convention : Reuss Voigt Hill
#
# Bulk Modulus (GPa) = 48.85376 69.21564 59.03470
# Shear Modulus (GPa) = 25.97786 36.88141 31.42964
#
# Velocity S-wave (km/s) = 3.19493 3.80683 3.51423
# Velocity P-wave (km/s) = 5.72769 6.82055 6.29787
#
# Compressibility (1/GPa) = 0.02046925
#
# Stress axis : x y z
#
# Youngs Moduli (GPa) = 60.46476 69.74676 152.20091
#
# Poissons Ratio (x) = 0.33413 0.32311
# Poissons Ratio (y) = 0.28966 0.23972
# Poissons Ratio (z) = 0.12836 0.10985
#
# Static dielectric constant tensor:
#      x y z
#    x 2.089010 -0.027180 0.010010 
#    y -0.027180 2.050860 -0.009060 
#    z 0.010010 -0.009060 1.995710 
# 
# From -- ./inp_files/90283.got.cif
#   From: 2010.05.17/outbox.cif.g08.bks.cpg/sg2_46_cif.got.tgz:90283.got - 2010.06.03 11:33:40.
