data_PCOD9013447
_publ_section_title
;
Structure prediction by ZEFSAII (Michael W. Deem and Ramdas Pophale) SiO2 
 PCOD9013447
Probable space group: P -1
;
_chemical_formula_sum "Si O2"
_cell_formula_units_Z 14
_cell_length_a 20.417890
_cell_length_b 6.258274
_cell_length_c 6.969206
_cell_angle_alpha 108.027404
_cell_angle_beta 45.095763
_cell_angle_gamma 123.241979
_cell_volume 523.003352
_symmetry_space_group_name_H-M "P -1"
_symmetry_group_IT_number 2
_symmetry_cell_setting 'triclinic'
loop_
_space_group_symop_operation_xyz
x,y,z
-x,-y,-z
loop_
_atom_site_type_symbol
_atom_site_label
_atom_site_fract_x
_atom_site_fract_y
_atom_site_fract_z
Si Si1 0.522519 0.565169 0.247012
Si Si2 0.937295 0.700528 0.500897
Si Si3 0.014050 0.341227 0.199990
Si Si4 0.644500 0.301763 0.404771
Si Si5 0.664271 0.975982 0.568966
Si Si6 0.175962 0.175152 0.653263
Si Si7 0.301317 0.553963 0.113754
O O1 0.500000 0.500000 0.500000
O O2 0.476517 0.753745 0.344499
O O3 0.437960 0.296373 0.249637
O O4 0.638551 0.602394 0.990536
O O5 0.998485 0.578216 0.227207
O O6 0.822785 0.621120 0.633568
O O7 0.924171 0.572927 0.701576
O O8 0.000000 0.000000 0.500000
O O9 0.897836 0.087112 0.391503
O O10 0.086138 0.252527 0.912027
O O11 0.653362 0.063485 0.402362
O O12 0.721291 0.536104 0.452291
O O13 0.680560 0.387330 0.135466
O O14 0.662848 0.178991 0.777981
O O15 0.770912 0.957001 0.357172
#
# Coordination Sequence:
#
# PCOD9013447 Si02
#       7
#     2   2   2   2   2   2   2
#     4   9  22  44  67  99 143 169 228 289 333 411
#     4  11  24  42  65 100 134 178 236 275 338 411
#     4  10  22  42  62  91 137 178 226 289 333 387
#     4  10  23  43  67 101 137 177 225 282 341 406
#     4  11  23  42  71 101 132 183 228 271 350 411
#     4  10  21  41  64  95 140 174 227 287 330 404
#     4  11  22  45  68 100 139 176 226 288 334 401
#
# _framework density 26.768471000000002
#
# number of rings (size 3 to 8) (size 9 to 14) (size 15 to 20)
#    0.000    1.714    2.857    0.429    2.000    4.000 
#    0.000   14.286    0.000    0.000    0.000    0.000 
#    0.000    0.000    0.000    0.000    0.000    0.000 
#
# Total GULP energy -78195.507685 kJ/mol
# GULP energy per Si atom -5585.393406 kJ/mol
# Density = 2.670755 g / cm^3
# Si number density = 26.768471 Si / 1000 Ang^3
#
#
#
# Elastic Constant Matrix: (Units=GPa)
#
#
# Indices 1 2 3 4 5 6 
#
# 1 106.4701 28.0669 45.4102 6.4022 -40.5747 12.2869
# 2 28.0669 91.3659 39.5469 29.3518 -19.0408 9.3644
# 3 45.4102 39.5469 122.2638 24.0737 -24.0299 -4.4283
# 4 6.4022 29.3518 24.0737 41.9111 -5.0955 -0.6296
# 5 -40.5747 -19.0408 -24.0299 -5.0955 71.5026 9.7234
# 6 12.2869 9.3644 -4.4283 -0.6296 9.7234 44.4608
#
#
#
# Elastic Compliance Matrix: (Units=1/GPa)
#
#
# Indices 1 2 3 4 5 6 
#
# 1 0.015052 -0.001115 -0.004277 0.001790 0.007754 -0.006021
# 2 -0.001115 0.016523 -0.002647 -0.009608 0.002761 -0.004176
# 3 -0.004277 -0.002647 0.011542 -0.004071 0.000074 0.002815
# 4 0.001790 -0.009608 -0.004071 0.032580 -0.000829 0.001766
# 5 0.007754 0.002761 0.000074 -0.000829 0.020054 -0.007114
# 6 -0.006021 -0.004176 0.002815 0.001766 -0.007114 0.026896
#
#
# Mechanical properties :
#
#
# Convention : Reuss Voigt Hill
#
# Bulk Modulus (GPa) = 36.98244 60.68309 48.83276
# Shear Modulus (GPa) = 33.84362 45.37995 39.61178
#
# Velocity S-wave (km/s) = 3.55957 4.12184 3.85098
# Velocity P-wave (km/s) = 5.54434 6.73584 6.16893
#
# Compressibility (1/GPa) = 0.02703986
#
# Stress axis : x y z
#
# Youngs Moduli (GPa) = 66.43482 60.52050 86.64146
#
# Poissons Ratio (x) = 0.06748 0.37053
# Poissons Ratio (y) = 0.07407 0.22936
# Poissons Ratio (z) = 0.28412 0.16021
#
# Static dielectric constant tensor:
#      x y z
#    x 2.175740 -0.091580 0.079300 
#    y -0.091580 2.184860 -0.050640 
#    z 0.079300 -0.050640 2.138200 
# 
# From -- ./inp_files/49423.got.cif
#   From: 2010.05.17/outbox.cif.g08.bks.cpg/sg2_25_cif.got.tgz:49423.got - 2010.06.03 11:33:40.
