data_PCOD9013780
_publ_section_title
;
Structure prediction by ZEFSAII (Michael W. Deem and Ramdas Pophale) SiO2 
 PCOD9013780
Probable space group: P -1
;
_chemical_formula_sum "Si O2"
_cell_formula_units_Z 16
_cell_length_a 19.060766
_cell_length_b 22.789735
_cell_length_c 13.005355
_cell_angle_alpha 27.153286
_cell_angle_beta 36.342124
_cell_angle_gamma 16.119498
_cell_volume 659.385808
_symmetry_space_group_name_H-M "P -1"
_symmetry_group_IT_number 2
_symmetry_cell_setting 'triclinic'
loop_
_space_group_symop_operation_xyz
x,y,z
-x,-y,-z
loop_
_atom_site_type_symbol
_atom_site_label
_atom_site_fract_x
_atom_site_fract_y
_atom_site_fract_z
Si Si1 0.468636 0.342825 0.534893
Si Si2 0.120889 0.539764 0.379383
Si Si3 0.321036 0.647650 0.580223
Si Si4 0.060734 0.632447 0.948281
Si Si5 0.160955 0.765560 0.885745
Si Si6 0.259075 0.743869 0.018945
Si Si7 0.686018 0.764992 0.553787
Si Si8 0.795635 0.641586 0.205073
O O1 0.516105 0.425428 0.415494
O O2 0.383337 0.480833 0.308645
O O3 0.252340 0.444552 0.667202
O O4 0.763189 0.987857 0.737825
O O5 0.375835 0.244299 0.466850
O O6 0.153188 0.463309 0.577325
O O7 0.845883 0.731998 0.376101
O O8 0.051472 0.750835 0.099021
O O9 0.500000 0.500000 0.500000
O O10 0.269638 0.544934 0.814116
O O11 0.026330 0.001752 0.348062
O O12 0.126018 0.521810 0.159296
O O13 0.020628 0.534348 0.087102
O O14 0.473077 0.432365 0.002069
O O15 0.179811 0.844839 0.836829
O O16 0.000000 0.000000 0.000000
O O17 0.500000 0.000000 0.500000
O O18 0.500000 0.000000 0.000000
#
# Coordination Sequence:
#
# PCOD9013780 Si02
#       8
#     2   2   2   2   2   2   2   2
#     4  11  21  44  69  95 137 184 229 287 356 418
#     4  10  21  41  65  96 131 182 229 285 362 407
#     4  12  26  41  68 107 143 184 238 295 358 425
#     4  10  22  43  67  98 135 185 234 284 357 416
#     4  11  24  43  67  97 140 180 231 299 346 426
#     4  11  24  41  67  98 135 182 232 291 355 416
#     4  10  23  40  66  99 136 180 237 293 342 429
#     4   9  20  41  71  93 130 182 237 282 343 429
#
# _framework density 24.265006
#
# number of rings (size 3 to 8) (size 9 to 14) (size 15 to 20)
#    0.000    1.500    2.500    1.875    3.500    2.000 
#    0.000    0.625    0.000    0.000    0.000    0.000 
#    0.000    0.000    0.000    0.000    0.000    0.000 
#
# Total GULP energy -89069.448326 kJ/mol
# GULP energy per Si atom -5566.840520 kJ/mol
# Density = 2.420978 g / cm^3
# Si number density = 24.265006 Si / 1000 Ang^3
#
#
#
# Elastic Constant Matrix: (Units=GPa)
#
#
# Indices 1 2 3 4 5 6 
#
# 1 106.6800 29.4918 33.2023 27.0414 -17.9598 -24.2946
# 2 29.4918 99.6550 21.1819 25.9651 -19.0820 -3.4847
# 3 33.2023 21.1819 122.5891 32.4973 -12.7521 -23.1043
# 4 27.0414 25.9651 32.4973 46.5134 -25.8818 -12.0040
# 5 -17.9598 -19.0820 -12.7521 -25.8818 46.0395 14.9246
# 6 -24.2946 -3.4847 -23.1043 -12.0040 14.9246 37.4666
#
#
#
# Elastic Compliance Matrix: (Units=1/GPa)
#
#
# Indices 1 2 3 4 5 6 
#
# 1 0.012703 -0.002406 -0.000752 -0.004259 -0.000746 0.006482
# 2 -0.002406 0.012435 -0.000652 -0.004505 0.002562 -0.003270
# 3 -0.000752 -0.000652 0.011094 -0.007488 -0.003402 0.005249
# 4 -0.004259 -0.004505 -0.007488 0.041421 0.018268 -0.001804
# 5 -0.000746 0.002562 -0.003402 0.018268 0.035230 -0.010524
# 6 0.006482 -0.003270 0.005249 -0.001804 -0.010524 0.037441
#
#
# Mechanical properties :
#
#
# Convention : Reuss Voigt Hill
#
# Bulk Modulus (GPa) = 34.94979 55.18621 45.06800
# Shear Modulus (GPa) = 29.85377 42.34043 36.09710
#
# Velocity S-wave (km/s) = 3.51140 4.18175 3.86115
# Velocity P-wave (km/s) = 5.55649 6.79033 6.20416
#
# Compressibility (1/GPa) = 0.02861247
#
# Stress axis : x y z
#
# Youngs Moduli (GPa) = 78.72027 80.41506 90.13756
#
# Poissons Ratio (x) = 0.19348 0.06775
# Poissons Ratio (y) = 0.18941 0.05881
# Poissons Ratio (z) = 0.05917 0.05247
#
# Static dielectric constant tensor:
#      x y z
#    x 2.140380 -0.061340 -0.062520 
#    y -0.061340 1.942210 -0.014020 
#    z -0.062520 -0.014020 1.936420 
# 
# From -- ./inp_files/467040.got.cif
#   From: 2010.05.17/outbox.cif.g08.bks.cpg/sg2_234_cif.got.tgz:467040.got - 2010.06.03 11:33:40.
