data_PCOD9013443
_publ_section_title
;
Structure prediction by ZEFSAII (Michael W. Deem and Ramdas Pophale) SiO2 
 PCOD9013443
Probable space group: P -1
;
_chemical_formula_sum "Si O2"
_cell_formula_units_Z 14
_cell_length_a 10.487202
_cell_length_b 9.616140
_cell_length_c 8.095293
_cell_angle_alpha 76.749332
_cell_angle_beta 90.904822
_cell_angle_gamma 59.301777
_cell_volume 674.634233
_symmetry_space_group_name_H-M "P -1"
_symmetry_group_IT_number 2
_symmetry_cell_setting 'triclinic'
loop_
_space_group_symop_operation_xyz
x,y,z
-x,-y,-z
loop_
_atom_site_type_symbol
_atom_site_label
_atom_site_fract_x
_atom_site_fract_y
_atom_site_fract_z
Si Si1 0.138319 0.954564 0.133601
Si Si2 0.986491 0.504193 0.802517
Si Si3 0.093107 0.152001 0.404874
Si Si4 0.558305 0.125797 0.997733
Si Si5 0.689345 0.650079 0.305960
Si Si6 0.615814 0.996364 0.373353
Si Si7 0.160550 0.652200 0.379292
O O1 0.208092 0.766536 0.255918
O O2 0.073521 0.080171 0.253742
O O3 0.271601 0.958228 0.040865
O O4 0.000000 0.000000 0.000000
O O5 0.885002 0.695396 0.686236
O O6 0.925599 0.398913 0.739935
O O7 0.152699 0.440190 0.759676
O O8 0.000000 0.500000 0.000000
O O9 0.245938 0.010443 0.531265
O O10 0.958570 0.229030 0.513207
O O11 0.552331 0.139005 0.192319
O O12 0.447116 0.288447 0.841803
O O13 0.500000 0.000000 0.000000
O O14 0.675143 0.817256 0.335014
O O15 0.710856 0.517474 0.483004
O O16 0.500000 0.000000 0.500000
#
# Coordination Sequence:
#
# PCOD9013443 Si02
#       7
#     2   2   2   2   2   2   2
#     4  12  26  42  67 100 139 175 221 280 341 395
#     4  11  22  36  69  96 131 178 223 278 325 390
#     4  11  21  40  64  97 129 177 227 266 331 405
#     4  10  24  41  64  95 132 175 222 275 327 398
#     4  10  21  41  64  95 134 172 229 273 324 406
#     4  11  21  37  67  94 130 171 230 273 326 389
#     4  11  22  42  64  97 139 172 217 285 335 391
#
# _framework density 20.751987
#
# number of rings (size 3 to 8) (size 9 to 14) (size 15 to 20)
#    0.000    1.143    2.857    4.714    8.000    0.571 
#    0.000    0.000    0.000    9.429    0.000    0.000 
#    0.000    0.000    0.000    0.000    0.000    0.000 
#
# Total GULP energy -78187.762817 kJ/mol
# GULP energy per Si atom -5584.840201 kJ/mol
# Density = 2.070475 g / cm^3
# Si number density = 20.751987 Si / 1000 Ang^3
#
#
#
# Elastic Constant Matrix: (Units=GPa)
#
#
# Indices 1 2 3 4 5 6 
#
# 1 90.3644 22.1239 50.5723 -0.6832 4.5837 -0.0081
# 2 22.1239 50.3625 33.1225 3.4021 6.0509 7.4676
# 3 50.5723 33.1225 148.7578 4.4958 12.9386 -8.3684
# 4 -0.6832 3.4021 4.4958 36.4134 6.1066 7.5282
# 5 4.5837 6.0509 12.9386 6.1066 39.5772 -12.6924
# 6 -0.0081 7.4676 -8.3684 7.5282 -12.6924 21.1525
#
#
#
# Elastic Compliance Matrix: (Units=1/GPa)
#
#
# Indices 1 2 3 4 5 6 
#
# 1 0.014260 -0.003406 -0.004166 0.001397 -0.000353 -0.001149
# 2 -0.003406 0.028633 -0.005615 0.003265 -0.008641 -0.018678
# 3 -0.004166 -0.005615 0.009795 -0.002387 0.000814 0.007194
# 4 0.001397 0.003265 -0.002387 0.033892 -0.011950 -0.021329
# 5 -0.000353 -0.008641 0.000814 -0.011950 0.037957 0.030401
# 6 -0.001149 -0.018678 0.007194 -0.021329 0.030401 0.082549
#
#
# Mechanical properties :
#
#
# Convention : Reuss Voigt Hill
#
# Bulk Modulus (GPa) = 38.00370 55.68023 46.84197
# Shear Modulus (GPa) = 20.64159 31.67302 26.15730
#
# Velocity S-wave (km/s) = 3.15728 3.91098 3.55416
# Velocity P-wave (km/s) = 5.62532 6.87633 6.28204
#
# Compressibility (1/GPa) = 0.02631323
#
# Stress axis : x y z
#
# Youngs Moduli (GPa) = 70.12693 34.92526 102.09544
#
# Poissons Ratio (x) = 0.11896 0.42528
# Poissons Ratio (y) = 0.23887 0.57328
# Poissons Ratio (z) = 0.29212 0.19611
#
# Static dielectric constant tensor:
#      x y z
#    x 1.703560 0.031850 0.010050 
#    y 0.031850 1.754470 -0.015710 
#    z 0.010050 -0.015710 1.877930 
# 
# From -- ./inp_files/158063.got.cif
#   From: 2010.05.17/outbox.cif.g08.bks.cpg/sg2_80_cif.got.tgz:158063.got - 2010.06.03 11:33:40.
