data_PCOD9013310
_publ_section_title
;
Structure prediction by ZEFSAII (Michael W. Deem and Ramdas Pophale) SiO2 
 PCOD9013310
Probable space group: P -1
;
_chemical_formula_sum "Si O2"
_cell_formula_units_Z 14
_cell_length_a 8.595993
_cell_length_b 11.380209
_cell_length_c 10.790644
_cell_angle_alpha 66.287490
_cell_angle_beta 136.945333
_cell_angle_gamma 91.235332
_cell_volume 593.907920
_symmetry_space_group_name_H-M "P -1"
_symmetry_group_IT_number 2
_symmetry_cell_setting 'triclinic'
loop_
_space_group_symop_operation_xyz
x,y,z
-x,-y,-z
loop_
_atom_site_type_symbol
_atom_site_label
_atom_site_fract_x
_atom_site_fract_y
_atom_site_fract_z
Si Si1 0.521197 0.820726 0.830071
Si Si2 0.732532 0.319129 0.090994
Si Si3 0.759443 0.866953 0.413486
Si Si4 0.758875 0.150407 0.932317
Si Si5 0.770644 0.381426 0.661618
Si Si6 0.944097 0.841403 0.247655
Si Si7 0.828034 0.569488 0.989097
O O1 0.416887 0.717240 0.874378
O O2 0.303811 0.979422 0.628613
O O3 0.717825 0.833812 0.037373
O O4 0.653820 0.739605 0.816317
O O5 0.669537 0.480111 0.956306
O O6 0.024724 0.250531 0.330645
O O7 0.701001 0.237718 0.988347
O O8 0.501360 0.849380 0.266762
O O9 0.860041 0.859779 0.334030
O O10 0.840021 0.242141 0.847646
O O11 0.952314 0.986873 0.143463
O O12 0.500000 0.500000 0.500000
O O13 0.816522 0.307063 0.585025
O O14 0.973622 0.443589 0.779963
O O15 0.000000 0.500000 0.000000
#
# Coordination Sequence:
#
# PCOD9013310 Si02
#       7
#     2   2   2   2   2   2   2
#     4  10  21  41  64  90 125 165 204 258 316 363
#     4  12  22  40  66  95 125 167 206 256 317 366
#     4  11  22  41  66  99 123 155 218 260 305 376
#     4  11  21  42  67  90 129 164 204 263 316 360
#     4  11  24  43  63  90 127 170 211 253 312 371
#     4  10  21  41  67  92 124 166 206 261 313 370
#     4  11  24  42  60  87 130 169 207 249 311 376
#
# _framework density 23.572678
#
# number of rings (size 3 to 8) (size 9 to 14) (size 15 to 20)
#    0.000    1.143    4.286    3.000    0.000    1.143 
#    2.571    2.857    0.000    0.000    0.000    0.000 
#    0.000    0.000    0.000    0.000    0.000    0.000 
#
# Total GULP energy -78255.548472 kJ/mol
# GULP energy per Si atom -5589.682034 kJ/mol
# Density = 2.351903 g / cm^3
# Si number density = 23.572678 Si / 1000 Ang^3
#
#
#
# Elastic Constant Matrix: (Units=GPa)
#
#
# Indices 1 2 3 4 5 6 
#
# 1 60.8652 39.5784 -6.5901 -10.8757 8.2255 0.4778
# 2 39.5784 162.6519 12.8566 -21.5213 16.2812 -11.1020
# 3 -6.5901 12.8566 43.9667 -1.7146 9.3765 -0.2972
# 4 -10.8757 -21.5213 -1.7146 29.8908 -1.0592 12.2388
# 5 8.2255 16.2812 9.3765 -1.0592 19.1815 -5.9613
# 6 0.4778 -11.1020 -0.2972 12.2388 -5.9613 51.6079
#
#
#
# Elastic Compliance Matrix: (Units=1/GPa)
#
#
# Indices 1 2 3 4 5 6 
#
# 1 0.022710 -0.004437 0.007134 0.006711 -0.010303 -0.003905
# 2 -0.004437 0.008325 -0.002141 0.003939 -0.003759 0.000451
# 3 0.007134 -0.002141 0.027877 0.003309 -0.015604 -0.002953
# 4 0.006711 0.003939 0.003309 0.042858 -0.008693 -0.010364
# 5 -0.010303 -0.003759 -0.015604 -0.008693 0.069787 0.009320
# 6 -0.003905 0.000451 -0.002953 -0.010364 0.009320 0.023027
#
#
# Mechanical properties :
#
#
# Convention : Reuss Voigt Hill
#
# Bulk Modulus (GPa) = 16.66025 39.90817 28.28421
# Shear Modulus (GPa) = 23.42135 34.91198 29.16667
#
# Velocity S-wave (km/s) = 3.15553 3.85260 3.52136
# Velocity P-wave (km/s) = 4.51215 6.06272 5.34397
#
# Compressibility (1/GPa) = 0.06002310
#
# Stress axis : x y z
#
# Youngs Moduli (GPa) = 44.03402 120.11544 35.87215
#
# Poissons Ratio (x) = 0.53297 -0.25591
# Poissons Ratio (y) = 0.19539 0.07681
# Poissons Ratio (z) = -0.31414 0.25719
#
# Static dielectric constant tensor:
#      x y z
#    x 1.945620 -0.053010 0.053720 
#    y -0.053010 1.896990 -0.017830 
#    z 0.053720 -0.017830 1.910240 
# 
# From -- ./inp_files/389856.got.cif
#   From: 2010.05.17/outbox.cif.g08.bks.cpg/sg2_195_cif.got.tgz:389856.got - 2010.06.03 11:33:40.
