data_PCOD9013246
_publ_section_title
;
Structure prediction by ZEFSAII (Michael W. Deem and Ramdas Pophale) SiO2 
 PCOD9013246
Probable space group: P -1
;
_chemical_formula_sum "Si O2"
_cell_formula_units_Z 16
_cell_length_a 8.195532
_cell_length_b 9.488273
_cell_length_c 14.296176
_cell_angle_alpha 114.397550
_cell_angle_beta 41.856003
_cell_angle_gamma 91.700041
_cell_volume 600.713072
_symmetry_space_group_name_H-M "P -1"
_symmetry_group_IT_number 2
_symmetry_cell_setting 'triclinic'
loop_
_space_group_symop_operation_xyz
x,y,z
-x,-y,-z
loop_
_atom_site_type_symbol
_atom_site_label
_atom_site_fract_x
_atom_site_fract_y
_atom_site_fract_z
Si Si1 0.372451 0.512236 0.949833
Si Si2 0.599118 0.072524 0.890837
Si Si3 0.043019 0.393125 0.157284
Si Si4 0.790638 0.170443 0.191240
Si Si5 0.141938 0.999638 0.702602
Si Si6 0.483646 0.181732 0.678292
Si Si7 0.864852 0.508427 0.661107
Si Si8 0.233466 0.145987 0.410921
O O1 0.409921 0.357042 0.814942
O O2 0.536481 0.599774 0.844635
O O3 0.500000 0.500000 0.000000
O O4 0.073232 0.539563 0.123859
O O5 0.846342 0.120118 0.817577
O O6 0.754414 0.903718 0.714596
O O7 0.341299 0.218355 0.984806
O O8 0.500000 0.000000 0.000000
O O9 0.997963 0.436914 0.298120
O O10 0.825681 0.336986 0.193019
O O11 0.483759 0.194720 0.328670
O O12 0.898136 0.121120 0.236996
O O13 0.000000 0.000000 0.000000
O O14 0.244271 0.122644 0.747524
O O15 0.365581 0.864127 0.499181
O O16 0.702805 0.021998 0.602810
O O17 0.000000 0.500000 0.500000
O O18 0.951262 0.309070 0.597591
#
# Coordination Sequence:
#
# PCOD9013246 Si02
#       8
#     2   2   2   2   2   2   2   2
#     4  10  22  41  66  90 128 175 214 261 326 392
#     4  12  20  34  62  97 122 165 215 262 317 384
#     4  11  22  39  63  90 128 172 211 263 325 383
#     4  11  20  40  65  96 133 168 215 266 327 391
#     4  10  22  34  62 103 133 161 209 280 322 381
#     4  10  21  41  63  99 130 168 218 270 329 377
#     4  11  26  42  61  95 130 168 217 272 329 383
#     4  11  23  39  67  94 126 175 219 267 322 394
#
# _framework density 26.635012
#
# number of rings (size 3 to 8) (size 9 to 14) (size 15 to 20)
#    0.000    1.250    3.750    2.250    3.500    1.500 
#    0.000    0.000    0.000    3.750    0.000    0.000 
#    0.000    0.000    0.000    0.000    0.000    0.000 
#
# Total GULP energy -89305.636923 kJ/mol
# GULP energy per Si atom -5581.602308 kJ/mol
# Density = 2.657439 g / cm^3
# Si number density = 26.635012 Si / 1000 Ang^3
#
#
#
# Elastic Constant Matrix: (Units=GPa)
#
#
# Indices 1 2 3 4 5 6 
#
# 1 84.7418 13.5798 22.4479 -5.8285 5.6722 25.3042
# 2 13.5798 75.2326 12.6292 -22.8940 11.4283 11.7359
# 3 22.4479 12.6292 106.8470 -6.7994 38.7405 8.0583
# 4 -5.8285 -22.8940 -6.7994 53.0895 0.4188 -4.3835
# 5 5.6722 11.4283 38.7405 0.4188 52.7529 0.9286
# 6 25.3042 11.7359 8.0583 -4.3835 0.9286 37.9851
#
#
#
# Elastic Compliance Matrix: (Units=1/GPa)
#
#
# Indices 1 2 3 4 5 6 
#
# 1 0.015434 -0.000914 -0.002646 0.000177 0.000647 -0.009433
# 2 -0.000914 0.016629 0.000283 0.006830 -0.003701 -0.003710
# 3 -0.002646 0.000283 0.013575 0.001582 -0.009744 -0.000784
# 4 0.000177 0.006830 0.001582 0.022030 -0.002836 0.000048
# 5 0.000647 -0.003701 -0.009744 -0.002836 0.026835 0.001797
# 6 -0.009433 -0.003710 -0.000784 0.000048 0.001797 0.033884
#
#
# Mechanical properties :
#
#
# Convention : Reuss Voigt Hill
#
# Bulk Modulus (GPa) = 25.58753 40.45948 33.02351
# Shear Modulus (GPa) = 33.79088 43.30979 38.55033
#
# Velocity S-wave (km/s) = 3.56570 4.03680 3.80854
# Velocity P-wave (km/s) = 5.15556 6.07873 5.63608
#
# Compressibility (1/GPa) = 0.03908154
#
# Stress axis : x y z
#
# Youngs Moduli (GPa) = 64.79368 60.13615 73.66709
#
# Poissons Ratio (x) = 0.05499 0.19494
# Poissons Ratio (y) = 0.05925 -0.02084
# Poissons Ratio (z) = 0.17145 -0.01701
#
# Static dielectric constant tensor:
#      x y z
#    x 2.151710 0.026160 -0.035160 
#    y 0.026160 2.266920 -0.008180 
#    z -0.035160 -0.008180 2.122250 
# 
# From -- ./inp_files/446844.got.cif
#   From: 2010.05.17/outbox.cif.g08.bks.cpg/sg2_224_cif.got.tgz:446844.got - 2010.06.03 11:33:40.
