data_PCOD9013766
_publ_section_title
;
Structure prediction by ZEFSAII (Michael W. Deem and Ramdas Pophale) SiO2 
 PCOD9013766
Probable space group: P -1
;
_chemical_formula_sum "Si O2"
_cell_formula_units_Z 16
_cell_length_a 6.292279
_cell_length_b 10.931265
_cell_length_c 14.991409
_cell_angle_alpha 52.362683
_cell_angle_beta 62.432723
_cell_angle_gamma 89.721579
_cell_volume 664.783693
_symmetry_space_group_name_H-M "P -1"
_symmetry_group_IT_number 2
_symmetry_cell_setting 'triclinic'
loop_
_space_group_symop_operation_xyz
x,y,z
-x,-y,-z
loop_
_atom_site_type_symbol
_atom_site_label
_atom_site_fract_x
_atom_site_fract_y
_atom_site_fract_z
Si Si1 0.734858 0.743693 0.229455
Si Si2 0.930413 0.749582 0.637613
Si Si3 0.630532 0.339941 0.192552
Si Si4 0.259113 0.055418 0.037969
Si Si5 0.569328 0.161203 0.622920
Si Si6 0.977013 0.561348 0.165646
Si Si7 0.751592 0.042919 0.369679
Si Si8 0.506323 0.181489 0.107920
O O1 0.487517 0.717811 0.350319
O O2 0.792875 0.580581 0.270426
O O3 0.712201 0.814140 0.104653
O O4 0.986711 0.894931 0.155058
O O5 0.155114 0.786099 0.504115
O O6 0.921492 0.580606 0.762648
O O7 0.014633 0.897214 0.631276
O O8 0.642934 0.718720 0.674760
O O9 0.825617 0.508849 0.124659
O O10 0.762980 0.207589 0.240927
O O11 0.541677 0.319827 0.116154
O O12 0.291700 0.141804 0.090389
O O13 0.500000 0.000000 0.000000
O O14 0.341021 0.107007 0.615948
O O15 0.533684 0.993923 0.760430
O O16 0.215632 0.738909 0.030514
O O17 0.500000 0.000000 0.500000
#
# Coordination Sequence:
#
# PCOD9013766 Si02
#       8
#     2   2   2   2   2   2   2   2
#     4  11  23  39  65  91 130 165 205 264 318 362
#     4  10  23  43  61  91 133 169 210 250 313 378
#     4  10  23  40  64  93 129 172 201 257 318 372
#     4  11  21  41  62  97 126 158 211 272 313 362
#     4  10  21  41  65  96 123 163 214 263 306 374
#     4  11  24  43  60  92 137 166 206 258 307 380
#     4   8  18  37  60  89 124 156 206 263 300 358
#     4  11  22  41  70  95 121 160 218 263 315 369
#
# _framework density 24.067979000000001
#
# number of rings (size 3 to 8) (size 9 to 14) (size 15 to 20)
#    0.000    1.750    2.500    1.125    3.500    5.500 
#    6.750    0.625    0.000    0.000    0.000    0.000 
#    0.000    0.000    0.000    0.000    0.000    0.000 
#
# Total GULP energy -89444.700969 kJ/mol
# GULP energy per Si atom -5590.293811 kJ/mol
# Density = 2.401320 g / cm^3
# Si number density = 24.067979 Si / 1000 Ang^3
#
#
#
# Elastic Constant Matrix: (Units=GPa)
#
#
# Indices 1 2 3 4 5 6 
#
# 1 87.2940 27.3641 17.2464 -0.1311 1.4694 14.6167
# 2 27.3641 89.4088 9.3763 29.0954 8.8010 10.0779
# 3 17.2464 9.3763 74.0490 15.6768 -0.5812 3.2509
# 4 -0.1311 29.0954 15.6768 32.8176 3.3622 -1.4735
# 5 1.4694 8.8010 -0.5812 3.3622 28.7580 8.4113
# 6 14.6167 10.0779 3.2509 -1.4735 8.4113 48.3246
#
#
#
# Elastic Compliance Matrix: (Units=1/GPa)
#
#
# Indices 1 2 3 4 5 6 
#
# 1 0.014667 -0.006212 -0.004034 0.007258 0.001050 -0.002831
# 2 -0.006212 0.019297 0.002984 -0.018395 -0.002662 -0.002443
# 3 -0.004034 0.002984 0.016375 -0.010651 0.001171 -0.001033
# 4 0.007258 -0.018395 -0.010651 0.052334 -0.002351 0.004362
# 5 0.001050 -0.002662 0.001171 -0.002351 0.037728 -0.006480
# 6 -0.002831 -0.002443 -0.001033 0.004362 -0.006480 0.023389
#
#
# Mechanical properties :
#
#
# Convention : Reuss Voigt Hill
#
# Bulk Modulus (GPa) = 27.92036 39.85837 33.88937
# Shear Modulus (GPa) = 26.28098 35.09771 30.68934
#
# Velocity S-wave (km/s) = 3.30805 3.82288 3.57474
# Velocity P-wave (km/s) = 5.12023 6.00688 5.58119
#
# Compressibility (1/GPa) = 0.03581616
#
# Stress axis : x y z
#
# Youngs Moduli (GPa) = 68.18033 51.82273 61.06686
#
# Poissons Ratio (x) = 0.32193 0.24632
# Poissons Ratio (y) = 0.42355 -0.18224
# Poissons Ratio (z) = 0.27501 -0.15465
#
# Static dielectric constant tensor:
#      x y z
#    x 1.936100 0.007890 0.000470 
#    y 0.007890 1.921030 0.040430 
#    z 0.000470 0.040430 1.969080 
# 
# From -- ./inp_files/93346.got.cif
#   From: 2010.05.17/outbox.cif.g08.bks.cpg/sg2_47_cif.got.tgz:93346.got - 2010.06.03 11:33:40.
