data_PCOD9013839
_publ_section_title
;
Structure prediction by ZEFSAII (Michael W. Deem and Ramdas Pophale) SiO2 
 PCOD9013839
Probable space group: P -1
;
_chemical_formula_sum "Si O2"
_cell_formula_units_Z 16
_cell_length_a 9.167640
_cell_length_b 11.556422
_cell_length_c 19.909102
_cell_angle_alpha 160.424812
_cell_angle_beta 66.178586
_cell_angle_gamma 111.483393
_cell_volume 645.788412
_symmetry_space_group_name_H-M "P -1"
_symmetry_group_IT_number 2
_symmetry_cell_setting 'triclinic'
loop_
_space_group_symop_operation_xyz
x,y,z
-x,-y,-z
loop_
_atom_site_type_symbol
_atom_site_label
_atom_site_fract_x
_atom_site_fract_y
_atom_site_fract_z
Si Si1 0.471431 0.733040 0.034570
Si Si2 0.817190 0.854129 0.843078
Si Si3 0.234946 0.405875 0.994393
Si Si4 0.857155 0.488169 0.384693
Si Si5 0.824171 0.341189 0.450964
Si Si6 0.386120 0.751674 0.803853
Si Si7 0.343547 0.443920 0.778503
Si Si8 0.029567 0.101860 0.627487
O O1 0.317439 0.685077 0.083772
O O2 0.453978 0.433572 0.817400
O O3 0.626582 0.693382 0.031426
O O4 0.493404 0.077641 0.175492
O O5 0.765554 0.529343 0.631756
O O6 0.716975 0.922837 0.966754
O O7 0.005005 0.819288 0.805830
O O8 0.769727 0.200315 0.999083
O O9 0.189716 0.070378 0.775768
O O10 0.082844 0.568200 0.150197
O O11 0.758077 0.469692 0.461382
O O12 0.737240 0.462338 0.331938
O O13 0.963626 0.811008 0.528932
O O14 0.000000 0.500000 0.500000
O O15 0.432945 0.527268 0.737980
O O16 0.215549 0.157891 0.635747
O O17 0.000000 0.000000 0.500000
#
# Coordination Sequence:
#
# PCOD9013839 Si02
#       8
#     2   2   2   2   2   2   2   2
#     4  11  25  47  68  97 144 192 222 269 356 423
#     4   9  22  38  69 104 130 176 232 285 341 393
#     4  11  27  47  69  97 143 187 224 285 348 411
#     4  11  21  38  70 102 135 175 230 293 339 400
#     4  10  21  41  66 100 131 174 231 279 340 399
#     4  10  21  42  71  96 138 184 224 275 338 416
#     4  10  24  42  71 101 139 175 232 291 338 401
#     4  12  25  42  70 107 132 169 238 296 341 391
#
# _framework density 24.775915999999999
#
# number of rings (size 3 to 8) (size 9 to 14) (size 15 to 20)
#    0.750    0.750    2.500    2.250    7.000    0.500 
#    0.000    7.500    0.000    0.000    0.000    0.000 
#    0.000    0.000    0.000    0.000    0.000    0.000 
#
# Total GULP energy -89352.752594 kJ/mol
# GULP energy per Si atom -5584.547037 kJ/mol
# Density = 2.471952 g / cm^3
# Si number density = 24.775916 Si / 1000 Ang^3
#
#
#
# Elastic Constant Matrix: (Units=GPa)
#
#
# Indices 1 2 3 4 5 6 
#
# 1 82.1843 22.1911 17.0553 -5.8419 31.6129 11.4960
# 2 22.1911 117.1637 32.9189 -2.0310 3.8580 22.0324
# 3 17.0553 32.9189 91.1889 0.8530 18.8686 13.6694
# 4 -5.8419 -2.0310 0.8530 43.2096 4.4187 10.6436
# 5 31.6129 3.8580 18.8686 4.4187 37.6529 -1.5246
# 6 11.4960 22.0324 13.6694 10.6436 -1.5246 40.8386
#
#
#
# Elastic Compliance Matrix: (Units=1/GPa)
#
#
# Indices 1 2 3 4 5 6 
#
# 1 0.021781 -0.002421 0.002135 0.006849 -0.020240 -0.008081
# 2 -0.002421 0.010628 -0.003243 0.001025 0.002280 -0.004149
# 3 0.002135 -0.003243 0.014249 0.001870 -0.009000 -0.004444
# 4 0.006849 0.001025 0.001870 0.027799 -0.010490 -0.010744
# 5 -0.020240 0.002280 -0.009000 -0.010490 0.049548 0.012063
# 6 -0.008081 -0.004149 -0.004444 -0.010744 0.012063 0.033738
#
#
# Mechanical properties :
#
#
# Convention : Reuss Voigt Hill
#
# Bulk Modulus (GPa) = 25.25246 48.31862 36.78554
# Shear Modulus (GPa) = 28.09003 38.89830 33.49417
#
# Velocity S-wave (km/s) = 3.37079 3.96663 3.68079
# Velocity P-wave (km/s) = 5.03628 6.36580 5.73967
#
# Compressibility (1/GPa) = 0.03960011
#
# Stress axis : x y z
#
# Youngs Moduli (GPa) = 45.91173 94.09439 70.18191
#
# Poissons Ratio (x) = 0.22776 -0.14986
# Poissons Ratio (y) = 0.11113 0.22763
# Poissons Ratio (z) = -0.09804 0.30518
#
# Static dielectric constant tensor:
#      x y z
#    x 1.995570 0.001330 -0.037000 
#    y 0.001330 1.994480 -0.022910 
#    z -0.037000 -0.022910 2.040270 
# 
# From -- ./inp_files/589779.got.cif
#   From: 2010.05.17/outbox.cif.g08.bks.cpg/sg2_295_cif.got.tgz:589779.got - 2010.06.03 11:33:40.
