data_PCOD9013306
_publ_section_title
;
Structure prediction by ZEFSAII (Michael W. Deem and Ramdas Pophale) SiO2 
 PCOD9013306
Probable space group: P -1
;
_chemical_formula_sum "Si O2"
_cell_formula_units_Z 14
_cell_length_a 12.038663
_cell_length_b 12.036559
_cell_length_c 13.040829
_cell_angle_alpha 72.051189
_cell_angle_beta 141.764128
_cell_angle_gamma 76.192999
_cell_volume 642.435850
_symmetry_space_group_name_H-M "P -1"
_symmetry_group_IT_number 2
_symmetry_cell_setting 'triclinic'
loop_
_space_group_symop_operation_xyz
x,y,z
-x,-y,-z
loop_
_atom_site_type_symbol
_atom_site_label
_atom_site_fract_x
_atom_site_fract_y
_atom_site_fract_z
Si Si1 0.101062 0.748027 0.048924
Si Si2 0.462137 0.832262 0.754597
Si Si3 0.348214 0.968094 0.853692
Si Si4 0.676310 0.341800 0.330705
Si Si5 0.317902 0.735725 0.410902
Si Si6 0.252048 0.783945 0.944217
Si Si7 0.715889 0.739234 0.749932
O O1 0.086798 0.816665 0.130524
O O2 0.374051 0.504997 0.320208
O O3 0.214095 0.783031 0.038135
O O4 0.824102 0.814222 0.781123
O O5 0.499584 0.865251 0.883044
O O6 0.527432 0.659354 0.853122
O O7 0.659706 0.776888 0.820492
O O8 0.095545 0.039528 0.403645
O O9 0.388296 0.834044 0.992657
O O10 0.976705 0.186831 0.520817
O O11 0.500000 0.000000 0.000000
O O12 0.778442 0.251844 0.547243
O O13 0.473648 0.564460 0.126257
O O14 0.427831 0.814090 0.474509
O O15 0.000000 0.500000 0.000000
#
# Coordination Sequence:
#
# PCOD9013306 Si02
#       7
#     2   2   2   2   2   2   2
#     4   9  17  32  58  87 120 157 197 249 299 364
#     4  10  22  40  62  88 123 161 204 259 302 362
#     4  11  25  41  59  89 127 160 205 260 308 365
#     4   9  19  39  65  87 119 163 204 253 310 365
#     4   8  16  32  56  88 121 156 196 244 305 363
#     4  10  21  41  64  90 119 161 214 249 307 372
#     4   9  18  35  59  90 120 158 201 245 310 371
#
# _framework density 21.792058000000001
#
# number of rings (size 3 to 8) (size 9 to 14) (size 15 to 20)
#    0.000    2.571    0.000    2.571    2.000    3.429 
#    2.571    6.429    0.000    0.000    0.000    0.000 
#    0.000    0.000    0.000    0.000    0.000    0.000 
#
# Total GULP energy -78123.866361 kJ/mol
# GULP energy per Si atom -5580.276169 kJ/mol
# Density = 2.174246 g / cm^3
# Si number density = 21.792058 Si / 1000 Ang^3
#
#
#
# Elastic Constant Matrix: (Units=GPa)
#
#
# Indices 1 2 3 4 5 6 
#
# 1 105.5029 75.1816 15.0343 11.1276 -5.1102 -2.0852
# 2 75.1816 154.9593 23.2355 12.0564 -22.6294 -6.6026
# 3 15.0343 23.2355 38.8428 -1.5181 -10.4277 6.8861
# 4 11.1276 12.0564 -1.5181 39.1953 -9.5475 -4.5098
# 5 -5.1102 -22.6294 -10.4277 -9.5475 15.0514 -5.5861
# 6 -2.0852 -6.6026 6.8861 -4.5098 -5.5861 44.1135
#
#
#
# Elastic Compliance Matrix: (Units=1/GPa)
#
#
# Indices 1 2 3 4 5 6 
#
# 1 0.016806 -0.009509 -0.005280 -0.006608 -0.017438 -0.002688
# 2 -0.009509 0.014239 0.000773 0.004659 0.023532 0.005017
# 3 -0.005280 0.000773 0.036001 0.009925 0.030271 -0.000906
# 4 -0.006608 0.004659 0.009925 0.036275 0.037347 0.007274
# 5 -0.017438 0.023532 0.030271 0.037347 0.148191 0.020556
# 6 -0.002688 0.005017 -0.000906 0.007274 0.020556 0.026781
#
#
# Mechanical properties :
#
#
# Convention : Reuss Voigt Hill
#
# Bulk Modulus (GPa) = 25.63152 58.46753 42.04952
# Shear Modulus (GPa) = 15.65790 32.06227 23.86009
#
# Velocity S-wave (km/s) = 2.68342 3.83989 3.31251
# Velocity P-wave (km/s) = 4.62476 6.82259 5.82821
#
# Compressibility (1/GPa) = 0.03901446
#
# Stress axis : x y z
#
# Youngs Moduli (GPa) = 59.50195 70.23093 27.77722
#
# Poissons Ratio (x) = 0.66784 0.14665
# Poissons Ratio (y) = 0.56581 -0.02148
# Poissons Ratio (z) = 0.31414 -0.05430
#
# Static dielectric constant tensor:
#      x y z
#    x 1.902940 0.012120 0.079560 
#    y 0.012120 1.794270 -0.023870 
#    z 0.079560 -0.023870 1.901000 
# 
# From -- ./inp_files/394925.got.cif
#   From: 2010.05.17/outbox.cif.g08.bks.cpg/sg2_198_cif.got.tgz:394925.got - 2010.06.03 11:33:40.
