data_PCOD9013278
_publ_section_title
;
Structure prediction by ZEFSAII (Michael W. Deem and Ramdas Pophale) SiO2 
 PCOD9013278
Probable space group: P -1
;
_chemical_formula_sum "Si O2"
_cell_formula_units_Z 15
_cell_length_a 22.100886
_cell_length_b 9.463788
_cell_length_c 11.917236
_cell_angle_alpha 33.242205
_cell_angle_beta 23.570515
_cell_angle_gamma 38.347418
_cell_volume 544.606031
_symmetry_space_group_name_H-M "P -1"
_symmetry_group_IT_number 2
_symmetry_cell_setting 'triclinic'
loop_
_space_group_symop_operation_xyz
x,y,z
-x,-y,-z
loop_
_atom_site_type_symbol
_atom_site_label
_atom_site_fract_x
_atom_site_fract_y
_atom_site_fract_z
Si Si1 0.215048 0.172938 0.014842
Si Si2 0.363088 0.618880 0.576358
Si Si3 0.016741 0.216816 0.531441
Si Si4 0.783034 0.438279 0.914223
Si Si5 0.127930 0.354716 0.683609
Si Si6 0.398744 0.180117 0.175502
Si Si7 0.360497 0.688869 0.155551
Si Si8 0.000000 0.500000 0.000000
O O1 0.317714 0.407639 0.706401
O O2 0.089665 0.263720 0.078648
O O3 0.136467 0.096035 0.317296
O O4 0.316473 0.910271 0.992035
O O5 0.500000 0.500000 0.500000
O O6 0.384824 0.910890 0.315616
O O7 0.234568 0.643624 0.874077
O O8 0.115605 0.317950 0.399835
O O9 0.858319 0.192424 0.882655
O O10 0.945579 0.455433 0.412492
O O11 0.639382 0.570342 0.003654
O O12 0.268225 0.206787 0.478435
O O13 0.209066 0.528869 0.529107
O O14 0.991434 0.292234 0.039104
O O15 0.561878 0.186708 0.953097
O O16 0.500000 0.500000 0.000000
#
# Coordination Sequence:
#
# PCOD9013278 Si02
#       8
#     2   2   2   2   2   2   2   1
#     4  10  21  42  63  93 130 161 214 265 316 382
#     4  11  22  40  64  95 130 162 207 273 317 374
#     4   8  17  38  61  86 122 158 207 255 308 381
#     4   9  19  38  62  90 124 164 203 253 330 379
#     4   9  20  41  63  89 126 163 212 261 315 378
#     4  10  21  42  63  92 126 163 215 261 316 383
#     4  10  21  41  64  85 126 173 208 261 311 373
#     4  10  22  42  62  98 128 164 214 258 326 372
#
# _framework density 27.542846000000001
#
# number of rings (size 3 to 8) (size 9 to 14) (size 15 to 20)
#    0.000    2.400    1.333    0.000    0.000    3.733 
#   16.800   24.000    0.000    0.000    0.000    0.000 
#    0.000    0.000    0.000    0.000    0.000    0.000 
#
# Total GULP energy -83507.929204 kJ/mol
# GULP energy per Si atom -5567.195280 kJ/mol
# Density = 2.748016 g / cm^3
# Si number density = 27.542846 Si / 1000 Ang^3
#
#
#
# Elastic Constant Matrix: (Units=GPa)
#
#
# Indices 1 2 3 4 5 6 
#
# 1 104.9136 12.4869 13.9604 9.5646 -9.7219 -5.4274
# 2 12.4869 141.4087 -0.0692 5.3048 -10.4891 -13.1571
# 3 13.9604 -0.0692 78.0006 -4.3981 -5.2928 3.7485
# 4 9.5646 5.3048 -4.3981 26.7353 8.5209 -11.9340
# 5 -9.7219 -10.4891 -5.2928 8.5209 61.2548 13.3768
# 6 -5.4274 -13.1571 3.7485 -11.9340 13.3768 43.4923
#
#
#
# Elastic Compliance Matrix: (Units=1/GPa)
#
#
# Indices 1 2 3 4 5 6 
#
# 1 0.010497 -0.000645 -0.001972 -0.005022 0.002256 -0.000787
# 2 -0.000645 0.007379 0.000061 -0.000777 0.000914 0.001652
# 3 -0.001972 0.000061 0.013398 0.002198 0.000772 -0.001017
# 4 -0.005022 -0.000777 0.002198 0.050622 -0.011348 0.016329
# 5 0.002256 0.000914 0.000772 -0.011348 0.020430 -0.008906
# 6 -0.000787 0.001652 -0.001017 0.016329 -0.008906 0.030702
#
#
# Mechanical properties :
#
#
# Convention : Reuss Voigt Hill
#
# Bulk Modulus (GPa) = 38.22267 41.89769 40.06018
# Shear Modulus (GPa) = 34.04576 46.15949 40.10262
#
# Velocity S-wave (km/s) = 3.51964 4.09824 3.81991
# Velocity P-wave (km/s) = 5.51587 6.13505 5.83368
#
# Compressibility (1/GPa) = 0.02616248
#
# Stress axis : x y z
#
# Youngs Moduli (GPa) = 95.26589 135.51267 74.63544
#
# Poissons Ratio (x) = 0.08746 0.14715
# Poissons Ratio (y) = 0.06149 -0.00454
# Poissons Ratio (z) = 0.18782 -0.00825
#
# Static dielectric constant tensor:
#      x y z
#    x 2.049320 0.067690 -0.029280 
#    y 0.067690 2.527000 -0.150380 
#    z -0.029280 -0.150380 1.959850 
# 
# From -- ./inp_files/469111.got.cif
#   From: 2010.05.17/outbox.cif.g08.bks.cpg/sg2_235_cif.got.tgz:469111.got - 2010.06.03 11:33:40.
