data_PCOD9013568
_publ_section_title
;
Structure prediction by ZEFSAII (Michael W. Deem and Ramdas Pophale) SiO2 
 PCOD9013568
Probable space group: P -1
;
_chemical_formula_sum "Si O2"
_cell_formula_units_Z 16
_cell_length_a 10.185170
_cell_length_b 5.751480
_cell_length_c 12.615313
_cell_angle_alpha 102.089782
_cell_angle_beta 73.479237
_cell_angle_gamma 114.616587
_cell_volume 640.583151
_symmetry_space_group_name_H-M "P -1"
_symmetry_group_IT_number 2
_symmetry_cell_setting 'triclinic'
loop_
_space_group_symop_operation_xyz
x,y,z
-x,-y,-z
loop_
_atom_site_type_symbol
_atom_site_label
_atom_site_fract_x
_atom_site_fract_y
_atom_site_fract_z
Si Si1 0.452739 0.718044 0.775092
Si Si2 0.342348 0.420122 0.975762
Si Si3 0.211009 0.039218 0.571865
Si Si4 0.233417 0.584040 0.633442
Si Si5 0.541553 0.304837 0.594267
Si Si6 0.099613 0.566661 0.144244
Si Si7 0.744536 0.111329 0.674877
Si Si8 0.127007 0.883641 0.955662
O O1 0.365140 0.617953 0.893272
O O2 0.341204 0.752289 0.717712
O O3 0.489780 0.490225 0.693347
O O4 0.617148 0.932584 0.767450
O O5 0.277252 0.126135 0.922458
O O6 0.500000 0.500000 0.000000
O O7 0.224329 0.447665 0.087408
O O8 0.167074 0.274423 0.647322
O O9 0.387101 0.114038 0.561845
O O10 0.148639 0.756259 0.616661
O O11 0.190550 0.010108 0.446059
O O12 0.349697 0.569172 0.515458
O O13 0.644235 0.224724 0.641671
O O14 0.128740 0.696057 0.263558
O O15 0.939263 0.348635 0.135465
O O16 0.126588 0.766675 0.060736
O O17 0.000000 0.000000 0.000000
#
# Coordination Sequence:
#
# PCOD9013568 Si02
#       8
#     2   2   2   2   2   2   2   2
#     4  11  19  29  48  77 118 154 187 233 306 358
#     4  11  23  37  56  91 124 152 192 253 309 365
#     4  10  17  30  48  75 121 154 198 240 297 359
#     4  10  17  31  47  74 115 166 193 237 295 361
#     4  10  17  30  46  76 122 158 189 236 297 358
#     4  10  22  39  62  81 115 159 206 244 298 367
#     4  11  18  29  50  82 110 150 192 243 296 355
#     4   9  21  45  61  75 111 159 207 254 298 354
#
# _framework density 24.977239999999998
#
# number of rings (size 3 to 8) (size 9 to 14) (size 15 to 20)
#    0.000    1.750    3.750    3.000    0.000    4.000 
#    0.000    0.000    0.000    0.000    0.000    7.000 
#    0.000    0.000    0.000    0.000    0.000    0.000 
#
# Total GULP energy -89378.819420 kJ/mol
# GULP energy per Si atom -5586.176214 kJ/mol
# Density = 2.492039 g / cm^3
# Si number density = 24.977240 Si / 1000 Ang^3
#
#
#
# Elastic Constant Matrix: (Units=GPa)
#
#
# Indices 1 2 3 4 5 6 
#
# 1 97.6579 48.2392 35.6334 14.9823 8.6775 15.1339
# 2 48.2392 128.4660 39.4978 6.2509 25.0555 4.2800
# 3 35.6334 39.4978 67.1742 10.4211 34.3152 23.0458
# 4 14.9823 6.2509 10.4211 35.2737 12.0443 -0.2687
# 5 8.6775 25.0555 34.3152 12.0443 37.1418 8.5810
# 6 15.1339 4.2800 23.0458 -0.2687 8.5810 31.7370
#
#
#
# Elastic Compliance Matrix: (Units=1/GPa)
#
#
# Indices 1 2 3 4 5 6 
#
# 1 0.016939 -0.005248 -0.009309 -0.007461 0.011475 -0.003776
# 2 -0.005248 0.011553 -0.003255 0.003127 -0.005700 0.004876
# 3 -0.009309 -0.003255 0.044926 0.002618 -0.033685 -0.018616
# 4 -0.007461 0.003127 0.002618 0.035581 -0.015656 0.005770
# 5 0.011475 -0.005700 -0.033685 -0.015656 0.063734 0.002392
# 6 -0.003776 0.004876 -0.018616 0.005770 0.002392 0.045572
#
#
# Mechanical properties :
#
#
# Convention : Reuss Voigt Hill
#
# Bulk Modulus (GPa) = 26.45829 60.00434 43.23131
# Shear Modulus (GPa) = 18.75991 32.15900 25.45945
#
# Velocity S-wave (km/s) = 2.74356 3.59211 3.19612
# Velocity P-wave (km/s) = 4.54446 6.42496 5.56472
#
# Compressibility (1/GPa) = 0.03779534
#
# Stress axis : x y z
#
# Youngs Moduli (GPa) = 59.03623 86.56017 22.25860
#
# Poissons Ratio (x) = 0.45424 0.20720
# Poissons Ratio (y) = 0.30980 0.07245
# Poissons Ratio (z) = 0.54954 0.28175
#
# Static dielectric constant tensor:
#      x y z
#    x 1.990580 -0.079400 -0.035800 
#    y -0.079400 2.197150 -0.023170 
#    z -0.035800 -0.023170 1.983700 
# 
# From -- ./inp_files/369338.got.cif
#   From: 2010.05.17/outbox.cif.g08.bks.cpg/sg2_185_cif.got.tgz:369338.got - 2010.06.03 11:33:40.
