data_PCOD9013761
_publ_section_title
;
Structure prediction by ZEFSAII (Michael W. Deem and Ramdas Pophale) SiO2 
 PCOD9013761
Probable space group: P -1
;
_chemical_formula_sum "Si O2"
_cell_formula_units_Z 14
_cell_length_a 14.024653
_cell_length_b 8.441468
_cell_length_c 16.488411
_cell_angle_alpha 72.151455
_cell_angle_beta 161.601866
_cell_angle_gamma 100.366484
_cell_volume 545.034431
_symmetry_space_group_name_H-M "P -1"
_symmetry_group_IT_number 2
_symmetry_cell_setting 'triclinic'
loop_
_space_group_symop_operation_xyz
x,y,z
-x,-y,-z
loop_
_atom_site_type_symbol
_atom_site_label
_atom_site_fract_x
_atom_site_fract_y
_atom_site_fract_z
Si Si1 0.704840 0.673981 0.401399
Si Si2 0.746322 0.549266 0.632179
Si Si3 0.499351 0.098891 0.566140
Si Si4 0.707943 0.629885 0.147135
Si Si5 0.872842 0.091183 0.295157
Si Si6 0.176256 0.061695 0.878342
Si Si7 0.073653 0.172617 0.945190
O O1 0.628683 0.596964 0.436965
O O2 0.914462 0.509989 0.535163
O O3 0.960830 0.768340 0.612999
O O4 0.404614 0.852295 0.104765
O O5 0.500000 0.500000 0.500000
O O6 0.797232 0.719121 0.685642
O O7 0.062891 0.371756 0.909778
O O8 0.810105 0.159220 0.798896
O O9 0.500000 0.000000 0.500000
O O10 0.581909 0.970539 0.729741
O O11 0.678410 0.778620 0.030004
O O12 0.500000 0.500000 0.000000
O O13 0.512187 0.782075 0.031897
O O14 0.962752 0.940191 0.322653
O O15 0.000000 0.000000 0.500000
O O16 0.968405 0.118327 0.782827
#
# Coordination Sequence:
#
# PCOD9013761 Si02
#       7
#     2   2   2   2   2   2   2
#     4  11  23  43  67  95 134 173 224 276 328 405
#     4  10  21  41  65  95 134 168 216 272 323 393
#     4  10  22  40  66  91 131 171 212 267 331 384
#     4  10  23  44  66  96 129 173 220 273 336 395
#     4  11  25  44  67  98 134 173 227 277 333 401
#     4  12  23  42  71  94 134 178 218 276 339 386
#     4  10  22  40  63  96 127 168 219 264 323 400
#
# _framework density 25.686451000000002
#
# number of rings (size 3 to 8) (size 9 to 14) (size 15 to 20)
#    0.000    1.429    4.286    0.429    2.000    1.143 
#    5.143    2.857    0.000    0.000    0.000    0.000 
#    0.000    0.000    0.000    0.000    0.000    0.000 
#
# Total GULP energy -77938.784105 kJ/mol
# GULP energy per Si atom -5567.056008 kJ/mol
# Density = 2.562799 g / cm^3
# Si number density = 25.686451 Si / 1000 Ang^3
#
#
#
# Elastic Constant Matrix: (Units=GPa)
#
#
# Indices 1 2 3 4 5 6 
#
# 1 139.2413 48.2655 34.2731 -19.1043 -0.2076 2.6216
# 2 48.2655 126.5091 55.2923 -53.6127 -7.2306 -16.4975
# 3 34.2731 55.2923 59.0763 -33.8116 -2.7723 4.3794
# 4 -19.1043 -53.6127 -33.8116 50.8133 0.2860 10.9937
# 5 -0.2076 -7.2306 -2.7723 0.2860 33.5804 -2.3154
# 6 2.6216 -16.4975 4.3794 10.9937 -2.3154 55.9626
#
#
#
# Elastic Compliance Matrix: (Units=1/GPa)
#
#
# Indices 1 2 3 4 5 6 
#
# 1 0.008752 -0.002626 -0.003621 -0.001757 -0.000836 -0.000590
# 2 -0.002626 0.018684 -0.009603 0.011390 0.003413 0.004286
# 3 -0.003621 -0.009603 0.037382 0.015234 0.000276 -0.008568
# 4 -0.001757 0.011390 0.015234 0.042449 0.002926 -0.005970
# 5 -0.000836 0.003413 0.000276 0.002926 0.030625 0.001716
# 6 -0.000590 0.004286 -0.008568 -0.005970 0.001716 0.021074
#
#
# Mechanical properties :
#
#
# Convention : Reuss Voigt Hill
#
# Bulk Modulus (GPa) = 30.19342 66.72094 48.45718
# Shear Modulus (GPa) = 24.78856 40.53766 32.66311
#
# Velocity S-wave (km/s) = 3.10989 3.97693 3.56983
# Velocity P-wave (km/s) = 4.96743 6.86437 5.99145
#
# Compressibility (1/GPa) = 0.03311980
#
# Stress axis : x y z
#
# Youngs Moduli (GPa) = 114.25927 53.52074 26.75056
#
# Poissons Ratio (x) = 0.14053 0.09686
# Poissons Ratio (y) = 0.30002 0.25688
# Poissons Ratio (z) = 0.41372 0.51395
#
# Static dielectric constant tensor:
#      x y z
#    x 2.125670 0.041690 0.017160 
#    y 0.041690 2.090060 -0.023390 
#    z 0.017160 -0.023390 2.134630 
# 
# From -- ./inp_files/572593.got.cif
#   From: 2010.05.17/outbox.cif.g08.bks.cpg/sg2_287_cif.got.tgz:572593.got - 2010.06.03 11:33:40.
