data_PCOD9013213
_publ_section_title
;
Structure prediction by ZEFSAII (Michael W. Deem and Ramdas Pophale) SiO2 
 PCOD9013213
Probable space group: P -1
;
_chemical_formula_sum "Si O2"
_cell_formula_units_Z 16
_cell_length_a 16.870078
_cell_length_b 9.570050
_cell_length_c 20.189663
_cell_angle_alpha 152.537328
_cell_angle_beta 153.809187
_cell_angle_gamma 39.627255
_cell_volume 658.028075
_symmetry_space_group_name_H-M "P -1"
_symmetry_group_IT_number 2
_symmetry_cell_setting 'triclinic'
loop_
_space_group_symop_operation_xyz
x,y,z
-x,-y,-z
loop_
_atom_site_type_symbol
_atom_site_label
_atom_site_fract_x
_atom_site_fract_y
_atom_site_fract_z
Si Si1 0.224227 0.351168 0.269828
Si Si2 0.749330 0.706337 0.360292
Si Si3 0.617539 0.226304 0.548274
Si Si4 0.844587 0.123175 0.237962
Si Si5 0.859720 0.320261 0.048284
Si Si6 0.628458 0.245836 0.243908
Si Si7 0.794172 0.879088 0.314430
Si Si8 0.321505 0.586011 0.182207
O O1 0.423006 0.348721 0.448648
O O2 0.249862 0.558580 0.311155
O O3 0.069170 0.445737 0.241766
O O4 0.153676 0.994477 0.054316
O O5 0.737298 0.340424 0.203224
O O6 0.760854 0.813614 0.338544
O O7 0.941475 0.821878 0.588315
O O8 0.607081 0.887017 0.367425
O O9 0.684669 0.251736 0.684227
O O10 0.810197 0.257946 0.342328
O O11 0.775493 0.765213 0.031517
O O12 0.762113 0.565936 0.117100
O O13 0.768631 0.265849 0.884776
O O14 0.527989 0.539918 0.300016
O O15 0.664455 0.105200 0.282132
O O16 0.500000 0.000000 0.000000
O O17 0.000000 0.000000 0.500000
#
# Coordination Sequence:
#
# PCOD9013213 Si02
#       8
#     2   2   2   2   2   2   2   2
#     4  10  26  45  66  98 139 177 230 276 336 406
#     4  11  25  41  68 101 139 178 219 279 341 406
#     4  11  26  46  67  99 141 179 220 285 339 396
#     4  10  22  45  64 104 136 171 228 275 342 404
#     4  11  24  47  69 100 132 183 232 274 335 409
#     4  10  21  41  63  96 128 170 219 274 328 389
#     4  12  22  40  71  97 132 179 226 279 334 398
#     4  11  24  43  73  96 134 177 221 283 337 400
#
# _framework density 24.315073000000002
#
# number of rings (size 3 to 8) (size 9 to 14) (size 15 to 20)
#    0.000    1.250    3.750    1.500    8.750    2.500 
#    6.750    3.125    0.000    0.000    0.000    0.000 
#    0.000    0.000    0.000    0.000    0.000    0.000 
#
# Total GULP energy -89565.470695 kJ/mol
# GULP energy per Si atom -5597.841918 kJ/mol
# Density = 2.425973 g / cm^3
# Si number density = 24.315073 Si / 1000 Ang^3
#
#
#
# Elastic Constant Matrix: (Units=GPa)
#
#
# Indices 1 2 3 4 5 6 
#
# 1 99.7790 37.4049 37.7127 6.1513 -13.4063 8.4769
# 2 37.4049 121.3190 18.2241 -1.1301 -1.9308 14.1088
# 3 37.7127 18.2241 63.2758 5.9062 4.2369 10.0053
# 4 6.1513 -1.1301 5.9062 27.1965 9.2662 6.0100
# 5 -13.4063 -1.9308 4.2369 9.2662 30.2913 -2.8714
# 6 8.4769 14.1088 10.0053 6.0100 -2.8714 47.9982
#
#
#
# Elastic Compliance Matrix: (Units=1/GPa)
#
#
# Indices 1 2 3 4 5 6 
#
# 1 0.016481 -0.003768 -0.009114 -0.005696 0.010206 0.001421
# 2 -0.003768 0.009735 -0.000252 0.002581 -0.002047 -0.002589
# 3 -0.009114 -0.000252 0.022322 0.000597 -0.007686 -0.003504
# 4 -0.005696 0.002581 0.000597 0.045242 -0.016901 -0.006553
# 5 0.010206 -0.002047 -0.007686 -0.016901 0.044133 0.005158
# 6 0.001421 -0.002589 -0.003504 -0.006553 0.005158 0.023204
#
#
# Mechanical properties :
#
#
# Convention : Reuss Voigt Hill
#
# Bulk Modulus (GPa) = 44.90615 52.33969 48.62292
# Shear Modulus (GPa) = 25.66620 33.83266 29.74943
#
# Velocity S-wave (km/s) = 3.25247 3.73423 3.50165
# Velocity P-wave (km/s) = 5.71081 6.33759 6.03234
#
# Compressibility (1/GPa) = 0.02226867
#
# Stress axis : x y z
#
# Youngs Moduli (GPa) = 60.67489 102.72174 44.79985
#
# Poissons Ratio (x) = 0.38708 0.40830
# Poissons Ratio (y) = 0.22864 0.01131
# Poissons Ratio (z) = 0.55299 0.02592
#
# Static dielectric constant tensor:
#      x y z
#    x 1.936610 -0.013660 0.054850 
#    y -0.013660 1.925550 0.010720 
#    z 0.054850 0.010720 1.976630 
# 
# From -- ./inp_files/599671.got.cif
#   From: 2010.05.17/outbox.cif.g08.bks.cpg/sg2_300_cif.got.tgz:599671.got - 2010.06.03 11:33:40.
