data_PCOD9013591
_publ_section_title
;
Structure prediction by ZEFSAII (Michael W. Deem and Ramdas Pophale) SiO2 
 PCOD9013591
Probable space group: P -1
;
_chemical_formula_sum "Si O2"
_cell_formula_units_Z 14
_cell_length_a 14.356548
_cell_length_b 9.698245
_cell_length_c 5.454334
_cell_angle_alpha 112.337723
_cell_angle_beta 127.267418
_cell_angle_gamma 60.060911
_cell_volume 520.367430
_symmetry_space_group_name_H-M "P -1"
_symmetry_group_IT_number 2
_symmetry_cell_setting 'triclinic'
loop_
_space_group_symop_operation_xyz
x,y,z
-x,-y,-z
loop_
_atom_site_type_symbol
_atom_site_label
_atom_site_fract_x
_atom_site_fract_y
_atom_site_fract_z
Si Si1 0.743303 0.798513 0.725454
Si Si2 0.387587 0.434195 0.555376
Si Si3 0.347296 0.637334 0.129730
Si Si4 0.351335 0.041608 0.814900
Si Si5 0.036921 0.680898 0.099966
Si Si6 0.922174 0.301028 0.345591
Si Si7 0.883731 0.032256 0.648067
O O1 0.706829 0.656538 0.679975
O O2 0.694530 0.827384 0.388017
O O3 0.681790 0.929811 0.929009
O O4 0.888722 0.768133 0.912553
O O5 0.363049 0.555324 0.367885
O O6 0.532503 0.311508 0.674798
O O7 0.371104 0.513447 0.852582
O O8 0.201868 0.744443 0.926225
O O9 0.262891 0.939393 0.528903
O O10 0.500000 0.000000 0.000000
O O11 0.077477 0.585070 0.350666
O O12 0.105585 0.809924 0.348743
O O13 0.077095 0.612528 0.851218
O O14 0.052099 0.147516 0.481446
O O15 0.000000 0.000000 0.000000
#
# Coordination Sequence:
#
# PCOD9013591 Si02
#       7
#     2   2   2   2   2   2   2
#     4  12  23  44  64  92 134 170 206 269 326 372
#     4  10  23  43  67  88 131 163 210 272 327 373
#     4  10  22  43  66  94 117 169 220 262 321 390
#     4  12  26  41  65  97 134 173 216 257 316 383
#     4  11  22  38  63  91 130 170 206 254 318 380
#     4  11  21  37  65  91 121 161 222 257 305 375
#     4  10  21  41  65  89 136 172 210 259 312 382
#
# _framework density 26.904067000000001
#
# number of rings (size 3 to 8) (size 9 to 14) (size 15 to 20)
#    0.000    1.143    4.286    2.571    0.000    3.429 
#    0.000    4.286    0.000    0.000    0.000    0.000 
#    0.000    0.000    0.000    0.000    0.000    0.000 
#
# Total GULP energy -78038.816657 kJ/mol
# GULP energy per Si atom -5574.201190 kJ/mol
# Density = 2.684283 g / cm^3
# Si number density = 26.904067 Si / 1000 Ang^3
#
#
#
# Elastic Constant Matrix: (Units=GPa)
#
#
# Indices 1 2 3 4 5 6 
#
# 1 150.6364 26.2011 52.6581 -13.4257 22.9636 -19.7996
# 2 26.2011 43.1889 16.5701 -11.4680 13.7977 0.7143
# 3 52.6581 16.5701 137.4213 -26.9720 -1.3440 -21.1918
# 4 -13.4257 -11.4680 -26.9720 28.8056 -3.6607 14.9572
# 5 22.9636 13.7977 -1.3440 -3.6607 87.8078 -12.9332
# 6 -19.7996 0.7143 -21.1918 14.9572 -12.9332 34.4551
#
#
#
# Elastic Compliance Matrix: (Units=1/GPa)
#
#
# Indices 1 2 3 4 5 6 
#
# 1 0.008915 -0.004797 -0.002708 -0.002663 -0.001096 0.004301
# 2 -0.004797 0.032471 -0.001010 0.015743 -0.005092 -0.012797
# 3 -0.002708 -0.001010 0.010158 0.006826 0.001656 0.002371
# 4 -0.002663 0.015743 0.006826 0.058232 -0.002777 -0.023979
# 5 -0.001096 -0.005092 0.001656 -0.002777 0.013375 0.006720
# 6 0.004301 -0.012797 0.002371 -0.023979 0.006720 0.046151
#
#
# Mechanical properties :
#
#
# Convention : Reuss Voigt Hill
#
# Bulk Modulus (GPa) = 28.97490 58.01169 43.49329
# Shear Modulus (GPa) = 25.27361 45.93485 35.60423
#
# Velocity S-wave (km/s) = 3.06828 4.13650 3.64177
# Velocity P-wave (km/s) = 4.83173 6.66509 5.82104
#
# Compressibility (1/GPa) = 0.03451263
#
# Stress axis : x y z
#
# Youngs Moduli (GPa) = 112.17561 30.79711 98.44548
#
# Poissons Ratio (x) = 0.14774 0.26655
# Poissons Ratio (y) = 0.53814 0.09946
# Poissons Ratio (z) = 0.30373 0.03111
#
# Static dielectric constant tensor:
#      x y z
#    x 2.292740 -0.031680 -0.119380 
#    y -0.031680 2.285450 0.082510 
#    z -0.119380 0.082510 2.164210 
# 
# From -- ./inp_files/72075.got.cif
#   From: 2010.05.17/outbox.cif.g08.bks.cpg/sg2_37_cif.got.tgz:72075.got - 2010.06.03 11:33:40.
