data_PCOD9013769
_publ_section_title
;
Structure prediction by ZEFSAII (Michael W. Deem and Ramdas Pophale) SiO2 
 PCOD9013769
Probable space group: P -1
;
_chemical_formula_sum "Si O2"
_cell_formula_units_Z 14
_cell_length_a 5.182998
_cell_length_b 15.917392
_cell_length_c 9.835032
_cell_angle_alpha 113.178501
_cell_angle_beta 71.341822
_cell_angle_gamma 84.573753
_cell_volume 683.675446
_symmetry_space_group_name_H-M "P -1"
_symmetry_group_IT_number 2
_symmetry_cell_setting 'triclinic'
loop_
_space_group_symop_operation_xyz
x,y,z
-x,-y,-z
loop_
_atom_site_type_symbol
_atom_site_label
_atom_site_fract_x
_atom_site_fract_y
_atom_site_fract_z
Si Si1 0.693335 0.267113 0.544320
Si Si2 0.241242 0.859669 0.301087
Si Si3 0.604137 0.557318 0.143101
Si Si4 0.527678 0.271991 0.072992
Si Si5 0.649287 0.790506 0.656794
Si Si6 0.997001 0.384509 0.089013
Si Si7 0.327229 0.056363 0.442461
O O1 0.634145 0.187429 0.606777
O O2 0.644698 0.363255 0.699402
O O3 0.475647 0.277106 0.463711
O O4 0.012004 0.235873 0.416997
O O5 0.916585 0.864946 0.391607
O O6 0.225135 0.968688 0.339511
O O7 0.396763 0.794224 0.113738
O O8 0.773800 0.486447 0.183413
O O9 0.500000 0.500000 0.000000
O O10 0.822592 0.611024 0.074992
O O11 0.468472 0.215954 0.178290
O O12 0.798230 0.313297 0.075888
O O13 0.241566 0.353497 0.140399
O O14 0.549884 0.892417 0.665106
O O15 0.500000 0.000000 0.500000
#
# Coordination Sequence:
#
# PCOD9013769 Si02
#       7
#     2   2   2   2   2   2   2
#     4  11  23  42  68  95 125 178 214 269 320 386
#     4  10  22  38  69  93 127 168 222 267 320 375
#     4  11  23  41  72 103 123 165 230 275 309 374
#     4  12  25  44  64  99 135 176 208 265 331 392
#     4  11  26  43  64  95 140 171 212 263 334 389
#     4  11  24  40  68  97 132 162 218 274 311 382
#     4  10  21  41  65  96 126 167 222 275 309 380
#
# _framework density 20.477551999999999
#
# number of rings (size 3 to 8) (size 9 to 14) (size 15 to 20)
#    0.000    1.143    4.286    0.857   10.000    0.571 
#    0.000    5.000    0.000    0.000    0.000    0.000 
#    0.000    0.000    0.000    0.000    0.000    0.000 
#
# Total GULP energy -78024.407509 kJ/mol
# GULP energy per Si atom -5573.171965 kJ/mol
# Density = 2.043094 g / cm^3
# Si number density = 20.477552 Si / 1000 Ang^3
#
#
#
# Elastic Constant Matrix: (Units=GPa)
#
#
# Indices 1 2 3 4 5 6 
#
# 1 94.3826 22.4266 18.7910 -12.3298 -2.3426 10.2579
# 2 22.4266 88.1743 36.9572 -24.6740 -16.0856 -1.4162
# 3 18.7910 36.9572 76.7055 -25.9565 -13.6279 10.1023
# 4 -12.3298 -24.6740 -25.9565 35.7040 0.7447 -4.9602
# 5 -2.3426 -16.0856 -13.6279 0.7447 20.0062 -7.7147
# 6 10.2579 -1.4162 10.1023 -4.9602 -7.7147 34.5729
#
#
#
# Elastic Compliance Matrix: (Units=1/GPa)
#
#
# Indices 1 2 3 4 5 6 
#
# 1 0.012010 -0.003019 -0.001400 0.000564 -0.003532 -0.003985
# 2 -0.003019 0.019460 -0.003204 0.010817 0.015669 0.007677
# 3 -0.001400 -0.003204 0.021166 0.012221 0.010531 -0.001798
# 4 0.000564 0.010817 0.012221 0.045190 0.018202 0.007250
# 5 -0.003532 0.015669 0.010531 0.018202 0.075646 0.018104
# 6 -0.003985 0.007677 -0.001798 0.007250 0.018104 0.036027
#
#
# Mechanical properties :
#
#
# Convention : Reuss Voigt Hill
#
# Bulk Modulus (GPa) = 26.74266 46.17913 36.46090
# Shear Modulus (GPa) = 21.07850 30.12911 25.60381
#
# Velocity S-wave (km/s) = 3.21182 3.83995 3.53984
# Velocity P-wave (km/s) = 5.18095 6.50079 5.87803
#
# Compressibility (1/GPa) = 0.03739343
#
# Stress axis : x y z
#
# Youngs Moduli (GPa) = 83.26224 51.38650 47.24449
#
# Poissons Ratio (x) = 0.15512 0.06612
# Poissons Ratio (y) = 0.25134 0.15135
# Poissons Ratio (z) = 0.11653 0.16462
#
# Static dielectric constant tensor:
#      x y z
#    x 1.836230 0.013210 0.041270 
#    y 0.013210 1.810780 0.008440 
#    z 0.041270 0.008440 1.705690 
# 
# From -- ./inp_files/135494.got.cif
#   From: 2010.05.17/outbox.cif.g08.bks.cpg/sg2_68_cif.got.tgz:135494.got - 2010.06.03 11:33:40.
