data_PCOD9013902
_publ_section_title
;
Structure prediction by ZEFSAII (Michael W. Deem and Ramdas Pophale) SiO2 
 PCOD9013902
Probable space group: P -1
;
_chemical_formula_sum "Si O2"
_cell_formula_units_Z 12
_cell_length_a 9.719407
_cell_length_b 15.316984
_cell_length_c 8.113492
_cell_angle_alpha 112.816087
_cell_angle_beta 113.276739
_cell_angle_gamma 27.311106
_cell_volume 507.161400
_symmetry_space_group_name_H-M "P -1"
_symmetry_group_IT_number 2
_symmetry_cell_setting 'triclinic'
loop_
_space_group_symop_operation_xyz
x,y,z
-x,-y,-z
loop_
_atom_site_type_symbol
_atom_site_label
_atom_site_fract_x
_atom_site_fract_y
_atom_site_fract_z
Si Si1 0.747918 0.869424 0.184945
Si Si2 0.226138 0.341325 0.131930
Si Si3 0.215970 0.267113 0.415075
Si Si4 0.251187 0.952821 0.277413
Si Si5 0.831999 0.347765 0.496697
Si Si6 0.864016 0.989942 0.123167
O O1 0.009597 0.691928 0.300847
O O2 0.462018 0.057387 0.299313
O O3 0.882714 0.885733 0.164693
O O4 0.693559 0.811154 0.997436
O O5 0.550958 0.214156 0.189992
O O6 0.136382 0.380495 0.309039
O O7 0.000000 0.500000 0.000000
O O8 0.419911 0.202627 0.608664
O O9 0.923331 0.370001 0.410957
O O10 0.190863 0.999953 0.088747
O O11 0.021155 0.148893 0.403701
O O12 0.147827 0.901838 0.221230
O O13 0.500000 0.500000 0.500000
#
# Coordination Sequence:
#
# PCOD9013902 Si02
#       6
#     2   2   2   2   2   2
#     4  10  21  41  66  89 129 175 215 254 321 384
#     4  11  23  39  66  99 131 164 210 274 326 372
#     4  10  21  43  68  89 128 175 217 253 317 393
#     4  10  21  41  69  94 126 173 223 255 311 384
#     4  11  23  39  65  98 133 165 210 272 321 376
#     4  10  21  41  68  94 126 173 221 259 305 394
#
# _framework density 23.661106
#
# number of rings (size 3 to 8) (size 9 to 14) (size 15 to 20)
#    0.000    1.667    0.000    7.000    2.333    6.000 
#    6.000    3.333    3.667    0.000    0.000    0.000 
#    0.000    0.000    0.000    0.000    0.000    0.000 
#
# Total GULP energy -67061.984373 kJ/mol
# GULP energy per Si atom -5588.498698 kJ/mol
# Density = 2.360725 g / cm^3
# Si number density = 23.661106 Si / 1000 Ang^3
#
#
#
# Elastic Constant Matrix: (Units=GPa)
#
#
# Indices 1 2 3 4 5 6 
#
# 1 151.1014 38.0266 45.7829 -5.9762 -7.9538 -24.3221
# 2 38.0266 95.5355 19.2934 -0.6362 -11.7088 -17.7371
# 3 45.7829 19.2934 95.9773 -14.9317 -2.7753 -14.1560
# 4 -5.9762 -0.6362 -14.9317 34.1847 5.7377 -1.6283
# 5 -7.9538 -11.7088 -2.7753 5.7377 37.8024 2.9814
# 6 -24.3221 -17.7371 -14.1560 -1.6283 2.9814 41.8222
#
#
#
# Elastic Compliance Matrix: (Units=1/GPa)
#
#
# Indices 1 2 3 4 5 6 
#
# 1 0.008657 -0.002159 -0.003221 0.000097 0.000666 0.002985
# 2 -0.002159 0.012569 -0.001047 -0.000980 0.003239 0.003452
# 3 -0.003221 -0.001047 0.013368 0.005554 -0.001060 0.002500
# 4 0.000097 -0.000980 0.005554 0.032681 -0.005085 0.003155
# 5 0.000666 0.003239 -0.001060 -0.005085 0.028355 -0.000817
# 6 0.002985 0.003452 0.002500 0.003155 -0.000817 0.028138
#
#
# Mechanical properties :
#
#
# Convention : Reuss Voigt Hill
#
# Bulk Modulus (GPa) = 45.99502 60.97999 53.48750
# Shear Modulus (GPa) = 34.75432 38.72928 36.74180
#
# Velocity S-wave (km/s) = 3.83670 4.05017 3.94488
# Velocity P-wave (km/s) = 6.25366 6.90652 6.58818
#
# Compressibility (1/GPa) = 0.02174148
#
# Stress axis : x y z
#
# Youngs Moduli (GPa) = 115.51878 79.55957 74.80597
#
# Poissons Ratio (x) = 0.17175 0.24094
# Poissons Ratio (y) = 0.24937 0.07829
# Poissons Ratio (z) = 0.37207 0.08326
#
# Static dielectric constant tensor:
#      x y z
#    x 1.907930 0.031890 -0.008130 
#    y 0.031890 1.939090 0.030390 
#    z -0.008130 0.030390 1.969560 
# 
# From -- ./inp_files/153497.got.cif
#   From: 2010.05.17/outbox.cif.g08.bks.cpg/sg2_77_cif.got.tgz:153497.got - 2010.06.03 11:33:40.
