data_PCOD9013127
_publ_section_title
;
Structure prediction by ZEFSAII (Michael W. Deem and Ramdas Pophale) SiO2 
 PCOD9013127
Probable space group: P -1
;
_chemical_formula_sum "Si O2"
_cell_formula_units_Z 16
_cell_length_a 14.871448
_cell_length_b 8.910696
_cell_length_c 21.486949
_cell_angle_alpha 36.357269
_cell_angle_beta 23.673482
_cell_angle_gamma 40.557711
_cell_volume 674.804814
_symmetry_space_group_name_H-M "P -1"
_symmetry_group_IT_number 2
_symmetry_cell_setting 'triclinic'
loop_
_space_group_symop_operation_xyz
x,y,z
-x,-y,-z
loop_
_atom_site_type_symbol
_atom_site_label
_atom_site_fract_x
_atom_site_fract_y
_atom_site_fract_z
Si Si1 0.032329 0.296654 0.374505
Si Si2 0.720679 0.973852 0.117885
Si Si3 0.176451 0.642713 0.389283
Si Si4 0.455169 0.082308 0.123706
Si Si5 0.437676 0.793686 0.731468
Si Si6 0.077707 0.905068 0.237621
Si Si7 0.848972 0.797980 0.287843
Si Si8 0.986651 0.507897 0.929887
O O1 0.265310 0.306598 0.187107
O O2 0.851248 0.492898 0.389221
O O3 0.013875 0.379455 0.430199
O O4 0.000000 0.000000 0.500000
O O5 0.567455 0.994832 0.146969
O O6 0.588266 0.096924 0.219152
O O7 0.811840 0.678218 0.164493
O O8 0.947531 0.116372 0.913232
O O9 0.340820 0.387453 0.362493
O O10 0.065618 0.758223 0.358705
O O11 0.335116 0.855309 0.243591
O O12 0.660729 0.154371 0.928136
O O13 0.377250 0.038012 0.643732
O O14 0.238356 0.615471 0.904861
O O15 0.928110 0.868919 0.283126
O O16 0.030306 0.206586 0.178690
O O17 0.000000 0.500000 0.000000
#
# Coordination Sequence:
#
# PCOD9013127 Si02
#       8
#     2   2   2   2   2   2   2   2
#     4  10  25  43  63  84 131 173 207 253 318 373
#     4  10  22  35  64 100 125 160 205 268 314 362
#     4  11  24  40  63  94 126 171 211 254 309 373
#     4  10  21  41  63  91 127 164 207 257 313 370
#     4  11  22  37  63  97 129 158 210 263 312 372
#     4  11  22  36  69 100 119 163 210 261 311 370
#     4  10  22  40  62  92 126 165 204 258 317 370
#     4  11  17  37  61  95 132 159 199 260 321 365
#
# _framework density 23.710559
#
# number of rings (size 3 to 8) (size 9 to 14) (size 15 to 20)
#    0.000    1.500    5.000    1.875    3.500    5.000 
#    0.000    0.000    0.000    2.250    0.000    0.000 
#    0.000    0.000    0.000    0.000    0.000    0.000 
#
# Total GULP energy -89495.165293 kJ/mol
# GULP energy per Si atom -5593.447831 kJ/mol
# Density = 2.365659 g / cm^3
# Si number density = 23.710559 Si / 1000 Ang^3
#
#
#
# Elastic Constant Matrix: (Units=GPa)
#
#
# Indices 1 2 3 4 5 6 
#
# 1 95.0812 47.7182 31.6370 12.6539 2.7074 2.5251
# 2 47.7182 190.9853 46.3041 5.1798 29.1272 -16.8543
# 3 31.6370 46.3041 52.0427 7.9442 14.1357 -1.4365
# 4 12.6539 5.1798 7.9442 41.8723 -0.7562 14.4453
# 5 2.7074 29.1272 14.1357 -0.7562 37.0834 -2.5252
# 6 2.5251 -16.8543 -1.4365 14.4453 -2.5252 41.2405
#
#
#
# Elastic Compliance Matrix: (Units=1/GPa)
#
#
# Indices 1 2 3 4 5 6 
#
# 1 0.014353 -0.002403 -0.007222 -0.002220 0.003471 -0.001122
# 2 -0.002403 0.007766 -0.004145 -0.000604 -0.004144 0.003135
# 3 -0.007222 -0.004145 0.029881 -0.003273 -0.007642 0.000468
# 4 -0.002220 -0.000604 -0.003273 0.028801 0.001777 -0.010205
# 5 0.003471 -0.004144 -0.007642 0.001777 0.032864 -0.000782
# 6 -0.001122 0.003135 0.000468 -0.010205 -0.000782 0.029141
#
#
# Mechanical properties :
#
#
# Convention : Reuss Voigt Hill
#
# Bulk Modulus (GPa) = 40.88160 65.49198 53.18679
# Shear Modulus (GPa) = 28.01138 38.20257 33.10698
#
# Velocity S-wave (km/s) = 3.44086 4.01834 3.74076
# Velocity P-wave (km/s) = 5.75025 7.01504 6.41390
#
# Compressibility (1/GPa) = 0.02446088
#
# Stress axis : x y z
#
# Youngs Moduli (GPa) = 69.67251 128.76075 33.46597
#
# Poissons Ratio (x) = 0.30947 0.24168
# Poissons Ratio (y) = 0.16745 0.13871
# Poissons Ratio (z) = 0.50315 0.53367
#
# Static dielectric constant tensor:
#      x y z
#    x 1.886810 0.033190 -0.029090 
#    y 0.033190 1.933230 -0.038950 
#    z -0.029090 -0.038950 2.006160 
# 
# From -- ./inp_files/597306.got.cif
#   From: 2010.05.17/outbox.cif.g08.bks.cpg/sg2_299_cif.got.tgz:597306.got - 2010.06.03 11:33:40.
