data_PCOD9013231
_publ_section_title
;
Structure prediction by ZEFSAII (Michael W. Deem and Ramdas Pophale) SiO2 
 PCOD9013231
Probable space group: P -1
;
_chemical_formula_sum "Si O2"
_cell_formula_units_Z 16
_cell_length_a 11.534898
_cell_length_b 11.141676
_cell_length_c 12.209718
_cell_angle_alpha 43.462528
_cell_angle_beta 129.577730
_cell_angle_gamma 95.939932
_cell_volume 612.286060
_symmetry_space_group_name_H-M "P -1"
_symmetry_group_IT_number 2
_symmetry_cell_setting 'triclinic'
loop_
_space_group_symop_operation_xyz
x,y,z
-x,-y,-z
loop_
_atom_site_type_symbol
_atom_site_label
_atom_site_fract_x
_atom_site_fract_y
_atom_site_fract_z
Si Si1 0.778420 0.197353 0.786134
Si Si2 0.598871 0.031707 0.912421
Si Si3 0.676097 0.604230 0.149176
Si Si4 0.515309 0.428742 0.278957
Si Si5 0.065118 0.119225 0.624126
Si Si6 0.832209 0.700785 0.616699
Si Si7 0.573878 0.078061 0.404617
Si Si8 0.870595 0.311390 0.991992
O O1 0.640257 0.395882 0.480793
O O2 0.786935 0.291013 0.842987
O O3 0.681344 0.085415 0.826905
O O4 0.000000 0.000000 0.000000
O O5 0.673006 0.775965 0.108837
O O6 0.712730 0.018674 0.095586
O O7 0.355338 0.220466 0.624934
O O8 0.496441 0.611179 0.070295
O O9 0.891944 0.337517 0.454039
O O10 0.618978 0.707901 0.924449
O O11 0.643034 0.187072 0.447497
O O12 0.312035 0.503538 0.155643
O O13 0.057026 0.238479 0.429072
O O14 0.032310 0.936286 0.725802
O O15 0.947457 0.438274 0.906338
O O16 0.726844 0.880736 0.537116
O O17 0.500000 0.000000 0.500000
#
# Coordination Sequence:
#
# PCOD9013231 Si02
#       8
#     2   2   2   2   2   2   2   2
#     4  11  24  39  65 105 138 168 216 278 337 397
#     4  10  21  41  63  97 136 182 220 263 339 403
#     4  11  25  42  66 100 131 180 220 285 337 386
#     4  12  22  43  71  94 133 178 225 274 322 408
#     4  11  25  41  64 102 145 169 222 282 340 399
#     4  11  23  43  71  99 132 181 230 276 326 405
#     4  11  23  48  69  93 127 176 238 270 329 406
#     4  11  23  41  68 103 133 178 224 266 337 398
#
# _framework density 26.131578999999999
#
# number of rings (size 3 to 8) (size 9 to 14) (size 15 to 20)
#    0.000    1.000    2.500    5.250    5.250    0.000 
#    2.250    4.375    0.000    0.000    0.000    0.000 
#    0.000    0.000    0.000    0.000    0.000    0.000 
#
# Total GULP energy -89560.528958 kJ/mol
# GULP energy per Si atom -5597.533060 kJ/mol
# Density = 2.607210 g / cm^3
# Si number density = 26.131579 Si / 1000 Ang^3
#
#
#
# Elastic Constant Matrix: (Units=GPa)
#
#
# Indices 1 2 3 4 5 6 
#
# 1 112.4669 40.5501 50.9871 -9.3057 -44.7086 -13.1892
# 2 40.5501 104.6676 16.7713 -6.3802 -18.4301 4.9210
# 3 50.9871 16.7713 117.8360 -8.5001 -30.3309 7.7481
# 4 -9.3057 -6.3802 -8.5001 47.4558 9.9912 -2.5668
# 5 -44.7086 -18.4301 -30.3309 9.9912 51.8623 -1.9129
# 6 -13.1892 4.9210 7.7481 -2.5668 -1.9129 36.2461
#
#
#
# Elastic Compliance Matrix: (Units=1/GPa)
#
#
# Indices 1 2 3 4 5 6 
#
# 1 0.018601 -0.004764 -0.004930 0.000139 0.011768 0.009100
# 2 -0.004764 0.011507 0.000733 0.000521 0.000185 -0.003406
# 3 -0.004930 0.000733 0.011458 0.000437 0.002473 -0.004181
# 4 0.000139 0.000521 0.000437 0.022084 -0.003648 0.001258
# 5 0.011768 0.000185 0.002473 -0.003648 0.031832 0.005150
# 6 0.009100 -0.003406 -0.004181 0.001258 0.005150 0.032617
#
#
# Mechanical properties :
#
#
# Convention : Reuss Voigt Hill
#
# Bulk Modulus (GPa) = 42.29367 61.28751 51.79059
# Shear Modulus (GPa) = 32.48846 42.22362 37.35604
#
# Velocity S-wave (km/s) = 3.52982 4.02407 3.78502
# Velocity P-wave (km/s) = 5.73000 6.71530 6.24212
#
# Compressibility (1/GPa) = 0.02364420
#
# Stress axis : x y z
#
# Youngs Moduli (GPa) = 53.76170 86.90656 87.27322
#
# Poissons Ratio (x) = 0.41398 0.43023
# Poissons Ratio (y) = 0.25610 -0.06394
# Poissons Ratio (z) = 0.26503 -0.06367
#
# Static dielectric constant tensor:
#      x y z
#    x 2.040820 0.036540 0.010340 
#    y 0.036540 2.016710 0.033720 
#    z 0.010340 0.033720 2.054130 
# 
# From -- ./inp_files/427439.got.cif
#   From: 2010.05.17/outbox.cif.g08.bks.cpg/sg2_214_cif.got.tgz:427439.got - 2010.06.03 11:33:40.
