data_PCOD9013944
_publ_section_title
;
Structure prediction by ZEFSAII (Michael W. Deem and Ramdas Pophale) SiO2 
 PCOD9013944
Probable space group: P -1
;
_chemical_formula_sum "Si O2"
_cell_formula_units_Z 16
_cell_length_a 5.845771
_cell_length_b 17.055458
_cell_length_c 10.741566
_cell_angle_alpha 55.060958
_cell_angle_beta 61.932314
_cell_angle_gamma 96.627468
_cell_volume 655.918016
_symmetry_space_group_name_H-M "P -1"
_symmetry_group_IT_number 2
_symmetry_cell_setting 'triclinic'
loop_
_space_group_symop_operation_xyz
x,y,z
-x,-y,-z
loop_
_atom_site_type_symbol
_atom_site_label
_atom_site_fract_x
_atom_site_fract_y
_atom_site_fract_z
Si Si1 0.150143 0.972046 0.104487
Si Si2 0.265084 0.746400 0.015738
Si Si3 0.997853 0.137246 0.099781
Si Si4 0.962401 0.879786 0.634731
Si Si5 0.189513 0.241679 0.463266
Si Si6 0.807417 0.398068 0.045633
Si Si7 0.166295 0.460793 0.311038
Si Si8 0.626044 0.366531 0.695989
O O1 0.929056 0.841508 0.314955
O O2 0.096383 0.047162 0.148730
O O3 0.500000 0.000000 0.000000
O O4 0.000000 0.000000 0.000000
O O5 0.614039 0.791512 0.849061
O O6 0.077769 0.662496 0.023962
O O7 0.245915 0.857133 0.929804
O O8 0.195914 0.677488 0.223065
O O9 0.861788 0.122953 0.286445
O O10 0.294737 0.255944 0.872492
O O11 0.007190 0.832430 0.538356
O O12 0.000000 0.000000 0.500000
O O13 0.542423 0.296237 0.286470
O O14 0.168730 0.349775 0.389913
O O15 0.708090 0.457417 0.913996
O O16 0.000000 0.500000 0.000000
O O17 0.354158 0.535063 0.314565
O O18 0.813794 0.417177 0.475746
#
# Coordination Sequence:
#
# PCOD9013944 Si02
#       8
#     2   2   2   2   2   2   2   2
#     4  12  30  51  76 111 148 195 247 305 372 445
#     4   9  22  39  63  98 130 174 239 287 351 436
#     4  11  23  41  73  94 139 186 232 296 359 438
#     4  10  21  42  61  96 133 181 237 290 365 425
#     4  11  24  43  70 103 141 192 241 307 368 441
#     4  10  23  40  62 100 141 183 241 298 368 433
#     4  10  21  41  66  91 138 181 236 296 359 431
#     4   9  21  42  64  96 132 181 232 294 358 429
#
# _framework density 24.393293
#
# number of rings (size 3 to 8) (size 9 to 14) (size 15 to 20)
#    0.000    1.750    1.250    1.875    8.750    2.500 
#    2.250    1.875    0.000    0.000    0.000    0.000 
#    0.000    0.000    0.000    0.000    0.000    0.000 
#
# Total GULP energy -89241.744056 kJ/mol
# GULP energy per Si atom -5577.609003 kJ/mol
# Density = 2.433777 g / cm^3
# Si number density = 24.393293 Si / 1000 Ang^3
#
#
#
# Elastic Constant Matrix: (Units=GPa)
#
#
# Indices 1 2 3 4 5 6 
#
# 1 67.1891 21.5857 29.7768 5.4378 16.4127 -13.4137
# 2 21.5857 81.7205 -10.7018 -17.8144 15.4139 -23.0021
# 3 29.7768 -10.7018 122.1400 -16.8569 18.8303 -7.8442
# 4 5.4378 -17.8144 -16.8569 41.4547 -3.9094 10.1990
# 5 16.4127 15.4139 18.8303 -3.9094 28.1404 -9.6614
# 6 -13.4137 -23.0021 -7.8442 10.1990 -9.6614 35.7047
#
#
#
# Elastic Compliance Matrix: (Units=1/GPa)
#
#
# Indices 1 2 3 4 5 6 
#
# 1 0.022955 -0.006992 -0.006553 -0.010199 -0.005149 0.004200
# 2 -0.006992 0.020566 0.006526 0.009926 -0.007727 0.007130
# 3 -0.006553 0.006526 0.012554 0.008034 -0.006923 0.000332
# 4 -0.010199 0.009926 0.008034 0.034277 -0.002181 -0.006053
# 5 -0.005149 -0.007727 -0.006923 -0.002181 0.048969 0.005440
# 6 0.004200 0.007130 0.000332 -0.006053 0.005440 0.037453
#
#
# Mechanical properties :
#
#
# Convention : Reuss Voigt Hill
#
# Bulk Modulus (GPa) = 23.78808 39.15234 31.47021
# Shear Modulus (GPa) = 24.41102 36.41922 30.41512
#
# Velocity S-wave (km/s) = 3.16686 3.86813 3.53493
# Velocity P-wave (km/s) = 4.81093 6.00293 5.43968
#
# Compressibility (1/GPa) = 0.04203787
#
# Stress axis : x y z
#
# Youngs Moduli (GPa) = 43.56264 48.62320 79.65506
#
# Poissons Ratio (x) = 0.33995 0.52198
# Poissons Ratio (y) = 0.30457 -0.51980
# Poissons Ratio (z) = 0.28547 -0.31729
#
# Static dielectric constant tensor:
#      x y z
#    x 2.082680 0.052360 -0.019550 
#    y 0.052360 2.128280 0.058110 
#    z -0.019550 0.058110 1.928670 
# 
# From -- ./inp_files/78191.got.cif
#   From: 2010.05.17/outbox.cif.g08.bks.cpg/sg2_40_cif.got.tgz:78191.got - 2010.06.03 11:33:40.
