data_PCOD9013042
_publ_section_title
;
Structure prediction by ZEFSAII (Michael W. Deem and Ramdas Pophale) SiO2 
 PCOD9013042
Probable space group: P -1
;
_chemical_formula_sum "Si O2"
_cell_formula_units_Z 16
_cell_length_a 17.859948
_cell_length_b 11.785741
_cell_length_c 21.543119
_cell_angle_alpha 27.959817
_cell_angle_beta 20.064217
_cell_angle_gamma 30.522772
_cell_volume 715.046350
_symmetry_space_group_name_H-M "P -1"
_symmetry_group_IT_number 2
_symmetry_cell_setting 'triclinic'
loop_
_space_group_symop_operation_xyz
x,y,z
-x,-y,-z
loop_
_atom_site_type_symbol
_atom_site_label
_atom_site_fract_x
_atom_site_fract_y
_atom_site_fract_z
Si Si1 0.939300 0.754328 0.192327
Si Si2 0.440252 0.897011 0.530676
Si Si3 0.054924 0.287383 0.249034
Si Si4 0.190949 0.774112 0.109710
Si Si5 0.183848 0.450961 0.935326
Si Si6 0.354496 0.194743 0.265219
Si Si7 0.089556 0.206313 0.574104
Si Si8 0.353900 0.914490 0.279063
O O1 0.677889 0.765237 0.382342
O O2 0.078227 0.520914 0.160979
O O3 0.003131 0.760201 0.212226
O O4 0.000000 0.000000 0.000000
O O5 0.279195 0.699887 0.754872
O O6 0.500000 0.000000 0.500000
O O7 0.317158 0.124444 0.474848
O O8 0.818120 0.230507 0.483075
O O9 0.237160 0.047661 0.244090
O O10 0.081701 0.361740 0.121197
O O11 0.293092 0.487359 0.181187
O O12 0.092135 0.888718 0.196276
O O13 0.389178 0.895015 0.870441
O O14 0.405811 0.252116 0.839765
O O15 0.000000 0.500000 0.000000
O O16 0.164218 0.103254 0.497714
O O17 0.361158 0.127232 0.221029
O O18 0.000000 0.500000 0.500000
#
# Coordination Sequence:
#
# PCOD9013042 Si02
#       8
#     2   2   2   2   2   2   2   2
#     4  12  23  43  72 104 145 184 236 304 371 426
#     4  12  25  46  71 108 145 186 244 303 365 442
#     4  11  26  50  74 104 139 198 248 303 364 441
#     4  10  21  41  63 103 140 176 230 292 355 422
#     4  12  30  49  71 109 152 195 245 306 380 444
#     4  10  22  39  68 101 135 178 237 292 349 425
#     4  10  23  42  66 101 137 184 228 292 357 423
#     4  11  25  49  76 101 143 194 257 299 361 451
#
# _framework density 22.376172
#
# number of rings (size 3 to 8) (size 9 to 14) (size 15 to 20)
#    0.000    1.000    3.750    1.875    3.500    1.500 
#    2.250    0.000    0.000    0.000    0.000    0.000 
#    0.000    0.000    0.000    0.000    0.000    0.000 
#
# Total GULP energy -89306.476567 kJ/mol
# GULP energy per Si atom -5581.654785 kJ/mol
# Density = 2.232524 g / cm^3
# Si number density = 22.376172 Si / 1000 Ang^3
#
#
#
# Elastic Constant Matrix: (Units=GPa)
#
#
# Indices 1 2 3 4 5 6 
#
# 1 114.7877 44.9581 62.2608 10.5450 15.5061 -17.7308
# 2 44.9581 110.4930 57.3806 23.5920 7.7657 -13.5942
# 3 62.2608 57.3806 137.9188 5.8079 9.8360 -9.6267
# 4 10.5450 23.5920 5.8079 23.1491 4.8027 -6.7964
# 5 15.5061 7.7657 9.8360 4.8027 39.6471 3.2021
# 6 -17.7308 -13.5942 -9.6267 -6.7964 3.2021 38.6891
#
#
#
# Elastic Compliance Matrix: (Units=1/GPa)
#
#
# Indices 1 2 3 4 5 6 
#
# 1 0.013243 -0.002096 -0.004489 -0.000654 -0.003933 0.004426
# 2 -0.002096 0.015332 -0.004854 -0.013326 0.000568 0.000831
# 3 -0.004489 -0.004854 0.011143 0.004254 -0.000558 -0.000197
# 4 -0.000654 -0.013326 0.004254 0.059292 -0.005936 0.006983
# 5 -0.003933 0.000568 -0.000558 -0.005936 0.027918 -0.005095
# 6 0.004426 0.000831 -0.000197 0.006983 -0.005095 0.029767
#
#
# Mechanical properties :
#
#
# Convention : Reuss Voigt Hill
#
# Bulk Modulus (GPa) = 59.38394 76.93316 68.15855
# Shear Modulus (GPa) = 26.99994 33.53707 30.26851
#
# Velocity S-wave (km/s) = 3.47744 3.87561 3.68191
# Velocity P-wave (km/s) = 6.53605 7.38130 6.97150
#
# Compressibility (1/GPa) = 0.01683957
#
# Stress axis : x y z
#
# Youngs Moduli (GPa) = 75.51307 65.22516 89.73962
#
# Poissons Ratio (x) = 0.13674 0.40284
# Poissons Ratio (y) = 0.15831 0.43556
# Poissons Ratio (z) = 0.33898 0.31658
#
# Static dielectric constant tensor:
#      x y z
#    x 1.807420 0.014550 0.008680 
#    y 0.014550 1.826230 0.011330 
#    z 0.008680 0.011330 1.881060 
# 
# From -- ./inp_files/600006.got.cif
#   From: 2010.05.17/outbox.cif.g08.bks.cpg/sg2_301_cif.got.tgz:600006.got - 2010.06.03 11:33:40.
