data_PCOD9013928
_publ_section_title
;
Structure prediction by ZEFSAII (Michael W. Deem and Ramdas Pophale) SiO2 
 PCOD9013928
Probable space group: P -1
;
_chemical_formula_sum "Si O2"
_cell_formula_units_Z 12
_cell_length_a 7.265170
_cell_length_b 9.305524
_cell_length_c 9.302386
_cell_angle_alpha 110.695944
_cell_angle_beta 112.344180
_cell_angle_gamma 109.285323
_cell_volume 459.029939
_symmetry_space_group_name_H-M "P -1"
_symmetry_group_IT_number 2
_symmetry_cell_setting 'triclinic'
loop_
_space_group_symop_operation_xyz
x,y,z
-x,-y,-z
loop_
_atom_site_type_symbol
_atom_site_label
_atom_site_fract_x
_atom_site_fract_y
_atom_site_fract_z
Si Si1 0.772624 0.253894 0.872138
Si Si2 0.724030 0.495722 0.395105
Si Si3 0.340151 0.101604 0.118313
Si Si4 0.699613 0.877345 0.212194
Si Si5 0.779472 0.609935 0.773719
Si Si6 0.069618 0.787201 0.383336
O O1 0.569535 0.277469 0.884554
O O2 0.773927 0.235596 0.694907
O O3 0.700182 0.057356 0.847650
O O4 0.032938 0.384619 0.061099
O O5 0.606585 0.279799 0.271795
O O6 0.806888 0.562408 0.604199
O O7 0.497309 0.515391 0.311809
O O8 0.920638 0.616487 0.382203
O O9 0.192162 0.192458 0.149767
O O10 0.296479 0.050323 0.920077
O O11 0.877395 0.808312 0.245497
O O12 0.787498 0.033310 0.413467
#
# Coordination Sequence:
#
# PCOD9013928 Si02
#       6
#     2   2   2   2   2   2
#     4  12  23  41  66  95 122 161 216 254 299 370
#     4   9  21  40  68  91 122 171 199 250 325 360
#     4  10  21  41  66  91 122 163 210 251 305 364
#     4  11  25  39  65  94 123 167 208 253 305 370
#     4   9  20  39  69  89 122 165 208 251 307 366
#     4  11  24  43  63  89 133 161 203 258 315 362
#
# _framework density 26.142084000000001
#
# number of rings (size 3 to 8) (size 9 to 14) (size 15 to 20)
#    1.000    0.667    1.667    2.500    4.667    2.667 
#    0.000    6.667    0.000    0.000    0.000    0.000 
#    0.000    0.000    0.000    0.000    0.000    0.000 
#
# Total GULP energy -67302.638728 kJ/mol
# GULP energy per Si atom -5608.553227 kJ/mol
# Density = 2.608258 g / cm^3
# Si number density = 26.142084 Si / 1000 Ang^3
#
#
#
# Elastic Constant Matrix: (Units=GPa)
#
#
# Indices 1 2 3 4 5 6 
#
# 1 91.4639 32.1240 33.0938 -6.9781 6.7167 16.4892
# 2 32.1240 68.3926 33.6357 -19.8366 -8.0156 16.6906
# 3 33.0938 33.6357 137.3722 -5.8487 -12.3529 11.4696
# 4 -6.9781 -19.8366 -5.8487 35.7605 7.5333 -4.2314
# 5 6.7167 -8.0156 -12.3529 7.5333 44.7942 -3.7201
# 6 16.4892 16.6906 11.4696 -4.2314 -3.7201 50.7475
#
#
#
# Elastic Compliance Matrix: (Units=1/GPa)
#
#
# Indices 1 2 3 4 5 6 
#
# 1 0.014460 -0.005515 -0.002273 -0.000085 -0.003989 -0.002671
# 2 -0.005515 0.023062 -0.003368 0.010275 0.001962 -0.004031
# 3 -0.002273 -0.003368 0.008815 -0.001385 0.002395 -0.000086
# 4 -0.000085 0.010275 -0.001385 0.034275 -0.004336 -0.000499
# 5 -0.003989 0.001962 0.002395 -0.004336 0.024793 0.001566
# 6 -0.002671 -0.004031 -0.000086 -0.000499 0.001566 0.021992
#
#
# Mechanical properties :
#
#
# Convention : Reuss Voigt Hill
#
# Bulk Modulus (GPa) = 41.61915 54.99287 48.30601
# Shear Modulus (GPa) = 31.70235 39.48546 35.59391
#
# Velocity S-wave (km/s) = 3.48615 3.89063 3.69393
# Velocity P-wave (km/s) = 5.67092 6.42374 6.05903
#
# Compressibility (1/GPa) = 0.02402740
#
# Stress axis : x y z
#
# Youngs Moduli (GPa) = 69.15419 43.36132 113.44061
#
# Poissons Ratio (x) = 0.23912 0.25781
# Poissons Ratio (y) = 0.38137 0.38204
# Poissons Ratio (z) = 0.15717 0.14603
#
# Static dielectric constant tensor:
#      x y z
#    x 2.068920 -0.006460 0.085910 
#    y -0.006460 2.057360 0.052930 
#    z 0.085910 0.052930 1.986880 
# 
# From -- ./inp_files/164376.got.cif
#   From: 2010.05.17/outbox.cif.g08.bks.cpg/sg2_83_cif.got.tgz:164376.got - 2010.06.03 11:33:40.
