data_PCOD9013549
_publ_section_title
;
Structure prediction by ZEFSAII (Michael W. Deem and Ramdas Pophale) SiO2 
 PCOD9013549
Probable space group: P -1
;
_chemical_formula_sum "Si O2"
_cell_formula_units_Z 16
_cell_length_a 5.347750
_cell_length_b 8.680804
_cell_length_c 17.996155
_cell_angle_alpha 112.978068
_cell_angle_beta 114.195020
_cell_angle_gamma 82.849122
_cell_volume 700.951118
_symmetry_space_group_name_H-M "P -1"
_symmetry_group_IT_number 2
_symmetry_cell_setting 'triclinic'
loop_
_space_group_symop_operation_xyz
x,y,z
-x,-y,-z
loop_
_atom_site_type_symbol
_atom_site_label
_atom_site_fract_x
_atom_site_fract_y
_atom_site_fract_z
Si Si1 0.069235 0.300668 0.192805
Si Si2 0.632348 0.566066 0.426143
Si Si3 0.129723 0.550471 0.948693
Si Si4 0.845980 0.236583 0.415133
Si Si5 0.352536 0.879856 0.783120
Si Si6 0.406837 0.274124 0.864208
Si Si7 0.745802 0.139069 0.543099
Si Si8 0.832887 0.634440 0.294566
O O1 0.367220 0.219798 0.213986
O O2 0.008315 0.330975 0.104476
O O3 0.832365 0.184621 0.182126
O O4 0.016367 0.480392 0.260150
O O5 0.610383 0.372970 0.409515
O O6 0.384069 0.678925 0.435101
O O7 0.714393 0.585013 0.352470
O O8 0.876621 0.653620 0.520215
O O9 0.139729 0.371186 0.874568
O O10 0.396297 0.651966 0.032700
O O11 0.000000 0.500000 0.000000
O O12 0.830157 0.148962 0.318191
O O13 0.834296 0.122165 0.465036
O O14 0.415222 0.077154 0.832548
O O15 0.410203 0.336733 0.790003
O O16 0.993729 0.188278 0.639509
O O17 0.500000 0.000000 0.500000
#
# Coordination Sequence:
#
# PCOD9013549 Si02
#       8
#     2   2   2   2   2   2   2   2
#     4  11  27  47  75 105 144 188 237 297 358 432
#     4  10  21  41  65  87 138 182 241 278 353 404
#     4  10  25  50  76 102 143 189 231 284 371 441
#     4  10  23  39  63  93 134 185 233 288 345 411
#     4  12  27  45  73 110 145 182 242 300 353 416
#     4  10  26  44  73 106 142 183 236 295 360 431
#     4  11  25  37  62  98 139 187 236 297 346 411
#     4  10  23  44  68  98 135 195 236 291 351 431
#
# _framework density 22.826127
#
# number of rings (size 3 to 8) (size 9 to 14) (size 15 to 20)
#    0.000    1.500    1.250    1.125   12.250    3.000 
#    0.000    0.000    0.000    0.000    0.000    0.000 
#    0.000    0.000    0.000    0.000    0.000    0.000 
#
# Total GULP energy -89187.288330 kJ/mol
# GULP energy per Si atom -5574.205521 kJ/mol
# Density = 2.277417 g / cm^3
# Si number density = 22.826127 Si / 1000 Ang^3
#
#
#
# Elastic Constant Matrix: (Units=GPa)
#
#
# Indices 1 2 3 4 5 6 
#
# 1 56.2476 24.6805 14.7377 -12.6632 -11.5528 3.1138
# 2 24.6805 131.2419 60.2663 -2.9559 -2.8552 -2.7285
# 3 14.7377 60.2663 129.1126 -8.7319 -14.0437 -5.6582
# 4 -12.6632 -2.9559 -8.7319 41.1942 5.4457 -0.4327
# 5 -11.5528 -2.8552 -14.0437 5.4457 26.3924 -5.8728
# 6 3.1138 -2.7285 -5.6582 -0.4327 -5.8728 31.7094
#
#
#
# Elastic Compliance Matrix: (Units=1/GPa)
#
#
# Indices 1 2 3 4 5 6 
#
# 1 0.022507 -0.004249 0.000674 0.005637 0.008405 -0.000822
# 2 -0.004249 0.010555 -0.004863 -0.001172 -0.003093 -0.000131
# 3 0.000674 -0.004863 0.010772 0.001405 0.005773 0.002526
# 4 0.005637 -0.001172 0.001405 0.026547 -0.002502 -0.000505
# 5 0.008405 -0.003093 0.005773 -0.002502 0.046727 0.008559
# 6 -0.000822 -0.000131 0.002526 -0.000505 0.008559 0.033635
#
#
# Mechanical properties :
#
#
# Convention : Reuss Voigt Hill
#
# Bulk Modulus (GPa) = 37.09623 57.33013 47.21318
# Shear Modulus (GPa) = 28.31144 34.32038 31.31591
#
# Velocity S-wave (km/s) = 3.52562 3.88178 3.70798
# Velocity P-wave (km/s) = 5.73239 6.72767 6.24987
#
# Compressibility (1/GPa) = 0.02695691
#
# Stress axis : x y z
#
# Youngs Moduli (GPa) = 44.42986 94.73747 92.83301
#
# Poissons Ratio (x) = 0.40256 -0.06254
# Poissons Ratio (y) = 0.18879 0.45149
# Poissons Ratio (z) = -0.02993 0.46075
#
# Static dielectric constant tensor:
#      x y z
#    x 1.890570 -0.107530 0.061620 
#    y -0.107530 2.064830 -0.297450 
#    z 0.061620 -0.297450 2.270250 
# 
# From -- ./inp_files/480429.got.cif
#   From: 2010.05.17/outbox.cif.g08.bks.cpg/sg2_241_cif.got.tgz:480429.got - 2010.06.03 11:33:40.
