data_PCOD9013352
_publ_section_title
;
Structure prediction by ZEFSAII (Michael W. Deem and Ramdas Pophale) SiO2 
 PCOD9013352
Probable space group: P -1
;
_chemical_formula_sum "Si O2"
_cell_formula_units_Z 14
_cell_length_a 10.198612
_cell_length_b 12.333157
_cell_length_c 9.588012
_cell_angle_alpha 40.537973
_cell_angle_beta 95.856276
_cell_angle_gamma 68.969156
_cell_volume 575.325605
_symmetry_space_group_name_H-M "P -1"
_symmetry_group_IT_number 2
_symmetry_cell_setting 'triclinic'
loop_
_space_group_symop_operation_xyz
x,y,z
-x,-y,-z
loop_
_atom_site_type_symbol
_atom_site_label
_atom_site_fract_x
_atom_site_fract_y
_atom_site_fract_z
Si Si1 0.116604 0.087060 0.901836
Si Si2 0.371241 0.057656 0.306665
Si Si3 0.335091 0.217699 0.853745
Si Si4 0.013074 0.735022 0.860130
Si Si5 0.406172 0.678777 0.521281
Si Si6 0.224466 0.597277 0.269764
Si Si7 0.081964 0.803281 0.509083
O O1 0.170884 0.230424 0.803764
O O2 0.954517 0.176109 0.901056
O O3 0.050921 0.139874 0.684179
O O4 0.289185 0.836992 0.219661
O O5 0.171645 0.202523 0.201072
O O6 0.500000 0.000000 0.500000
O O7 0.422429 0.834498 0.462005
O O8 0.375008 0.182788 0.055772
O O9 0.295382 0.422759 0.572820
O O10 0.500000 0.000000 0.000000
O O11 0.076762 0.687421 0.754859
O O12 0.979001 0.959607 0.678535
O O13 0.152417 0.557458 0.166088
O O14 0.603739 0.452468 0.722961
O O15 0.280250 0.660634 0.609308
#
# Coordination Sequence:
#
# PCOD9013352 Si02
#       7
#     2   2   2   2   2   2   2
#     4  11  22  41  67  92 123 167 210 256 310 375
#     4  10  21  41  64  92 125 166 204 252 320 367
#     4  11  22  42  64  93 129 162 201 265 312 364
#     4  10  23  41  66  90 129 171 200 261 314 367
#     4  10  22  41  64  92 128 158 210 265 302 366
#     4  12  22  41  67  92 128 163 207 260 316 365
#     4  10  22  44  63  91 128 167 211 254 314 362
#
# _framework density 24.334046000000001
#
# number of rings (size 3 to 8) (size 9 to 14) (size 15 to 20)
#    0.000    1.429    7.143    0.857    2.000    1.143 
#    2.571    1.429    0.000    0.000    0.000    0.000 
#    0.000    0.000    0.000    0.000    0.000    0.000 
#
# Total GULP energy -78360.697586 kJ/mol
# GULP energy per Si atom -5597.192685 kJ/mol
# Density = 2.427866 g / cm^3
# Si number density = 24.334046 Si / 1000 Ang^3
#
#
#
# Elastic Constant Matrix: (Units=GPa)
#
#
# Indices 1 2 3 4 5 6 
#
# 1 68.2913 61.4645 52.6177 20.9951 26.4697 -27.7218
# 2 61.4645 127.5377 78.1584 28.6181 12.0616 -28.9208
# 3 52.6177 78.1584 131.1291 49.4011 22.4760 -22.1772
# 4 20.9951 28.6181 49.4011 65.9372 -1.4066 -0.2703
# 5 26.4697 12.0616 22.4760 -1.4066 54.9814 2.7073
# 6 -27.7218 -28.9208 -22.1772 -0.2703 2.7073 49.2007
#
#
#
# Elastic Compliance Matrix: (Units=1/GPa)
#
#
# Indices 1 2 3 4 5 6 
#
# 1 0.044310 -0.013390 -0.000244 -0.008454 -0.019398 0.018006
# 2 -0.013390 0.017309 -0.006712 0.001894 0.005475 -0.000687
# 3 -0.000244 -0.006712 0.017146 -0.009964 -0.005867 0.003914
# 4 -0.008454 0.001894 -0.009964 0.024654 0.008777 -0.008489
# 5 -0.019398 0.005475 -0.005867 0.008777 0.029536 -0.011933
# 6 0.018006 -0.000687 0.003914 -0.008489 -0.011933 0.032441
#
#
# Mechanical properties :
#
#
# Convention : Reuss Voigt Hill
#
# Bulk Modulus (GPa) = 26.26524 79.04883 52.65703
# Shear Modulus (GPa) = 22.85432 43.00503 32.92968
#
# Velocity S-wave (km/s) = 3.06795 4.20846 3.68262
# Velocity P-wave (km/s) = 4.83392 7.49468 6.30623
#
# Compressibility (1/GPa) = 0.03807314
#
# Stress axis : x y z
#
# Youngs Moduli (GPa) = 22.56850 57.77461 58.32331
#
# Poissons Ratio (x) = 0.77361 0.01421
# Poissons Ratio (y) = 0.30220 0.39145
# Poissons Ratio (z) = 0.00550 0.38776
#
# Static dielectric constant tensor:
#      x y z
#    x 2.006540 0.115440 -0.040910 
#    y 0.115440 2.015060 -0.054930 
#    z -0.040910 -0.054930 1.942040 
# 
# From -- ./inp_files/269609.got.cif
#   From: 2010.05.17/outbox.cif.g08.bks.cpg/sg2_135_cif.got.tgz:269609.got - 2010.06.03 11:33:40.
