data_PCOD9013844
_publ_section_title
;
Structure prediction by ZEFSAII (Michael W. Deem and Ramdas Pophale) SiO2 
 PCOD9013844
Probable space group: P -1
;
_chemical_formula_sum "Si O2"
_cell_formula_units_Z 16
_cell_length_a 6.837486
_cell_length_b 24.620158
_cell_length_c 4.877409
_cell_angle_alpha 81.205894
_cell_angle_beta 113.275722
_cell_angle_gamma 127.715809
_cell_volume 592.168288
_symmetry_space_group_name_H-M "P -1"
_symmetry_group_IT_number 2
_symmetry_cell_setting 'triclinic'
loop_
_space_group_symop_operation_xyz
x,y,z
-x,-y,-z
loop_
_atom_site_type_symbol
_atom_site_label
_atom_site_fract_x
_atom_site_fract_y
_atom_site_fract_z
Si Si1 0.015607 0.195248 0.706089
Si Si2 0.615321 0.645385 0.738569
Si Si3 0.729235 0.995658 0.029549
Si Si4 0.225012 0.504326 0.300845
Si Si5 0.818292 0.221701 0.094184
Si Si6 0.825651 0.577930 0.139193
Si Si7 0.952312 0.925050 0.356490
Si Si8 0.416609 0.706223 0.284081
O O1 0.787213 0.186909 0.393172
O O2 0.048236 0.137475 0.685006
O O3 0.316518 0.265509 0.763912
O O4 0.920609 0.192199 0.960278
O O5 0.420001 0.579492 0.487057
O O6 0.915833 0.700383 0.754096
O O7 0.680975 0.615031 0.053587
O O8 0.491411 0.687600 0.627763
O O9 0.981017 0.056515 0.303559
O O10 0.708502 0.927766 0.143883
O O11 0.801008 0.012741 0.739096
O O12 0.500000 0.000000 0.000000
O O13 0.330619 0.479149 0.145483
O O14 0.000000 0.500000 0.000000
O O15 0.874076 0.549204 0.459497
O O16 0.624659 0.234826 0.828159
O O17 0.121668 0.635441 0.129119
#
# Coordination Sequence:
#
# PCOD9013844 Si02
#       8
#     2   2   2   2   2   2   2   2
#     4  11  24  44  66  98 135 176 226 278 329 389
#     4  10  23  43  66  92 131 169 217 279 347 405
#     4  10  21  41  66 100 140 179 219 271 334 377
#     4  12  24  42  66  96 129 166 220 279 348 417
#     4  10  25  44  65  96 131 177 227 279 335 409
#     4  11  25  43  64  96 127 169 217 277 344 420
#     4  10  22  39  66 100 137 176 227 272 321 397
#     4  10  24  45  67  94 131 174 222 275 342 398
#
# _framework density 27.019345000000001
#
# number of rings (size 3 to 8) (size 9 to 14) (size 15 to 20)
#    0.000    1.500    1.250    2.250    0.000   14.000 
#    0.000    0.000    0.000    0.000    0.000    0.000 
#    0.000    0.000    0.000    0.000    0.000    0.000 
#
# Total GULP energy -89325.610203 kJ/mol
# GULP energy per Si atom -5582.850638 kJ/mol
# Density = 2.695785 g / cm^3
# Si number density = 27.019345 Si / 1000 Ang^3
#
#
#
# Elastic Constant Matrix: (Units=GPa)
#
#
# Indices 1 2 3 4 5 6 
#
# 1 94.9216 11.3803 29.5810 -5.9530 21.3256 -28.1772
# 2 11.3803 78.6208 40.6786 -20.6153 13.1065 -35.1567
# 3 29.5810 40.6786 135.0626 -9.0593 6.4550 -23.1597
# 4 -5.9530 -20.6153 -9.0593 34.7771 -13.2136 12.0903
# 5 21.3256 13.1065 6.4550 -13.2136 62.0290 -13.2740
# 6 -28.1772 -35.1567 -23.1597 12.0903 -13.2740 46.6831
#
#
#
# Elastic Compliance Matrix: (Units=1/GPa)
#
#
# Indices 1 2 3 4 5 6 
#
# 1 0.014486 0.003988 -0.002596 -0.000534 -0.003619 0.009568
# 2 0.003988 0.023832 -0.004794 0.007759 -0.000892 0.015714
# 3 -0.002596 -0.004794 0.009310 -0.000489 0.000788 -0.000207
# 4 -0.000534 0.007759 -0.000489 0.036182 0.005778 -0.002449
# 5 -0.003619 -0.000892 0.000788 0.005778 0.019012 0.001444
# 6 0.009568 0.015714 -0.000207 -0.002449 0.001444 0.039972
#
#
# Mechanical properties :
#
#
# Convention : Reuss Voigt Hill
#
# Bulk Modulus (GPa) = 24.49459 52.43165 38.46312
# Shear Modulus (GPa) = 30.63609 43.82888 37.23249
#
# Velocity S-wave (km/s) = 3.37093 4.03194 3.71616
# Velocity P-wave (km/s) = 4.92303 6.41270 5.71659
#
# Compressibility (1/GPa) = 0.04082535
#
# Stress axis : x y z
#
# Youngs Moduli (GPa) = 69.03349 41.95993 107.40789
#
# Poissons Ratio (x) = -0.16735 0.27883
# Poissons Ratio (y) = -0.27533 0.51489
# Poissons Ratio (z) = 0.17921 0.20115
#
# Static dielectric constant tensor:
#      x y z
#    x 2.162120 0.019240 0.077170 
#    y 0.019240 2.222090 -0.009800 
#    z 0.077170 -0.009800 2.102000 
# 
# From -- ./inp_files/14578.got.cif
#   From: 2010.05.17/outbox.cif.g08.bks.cpg/sg2_8_cif.got.tgz:14578.got - 2010.06.03 11:33:40.
