data_PCOD9013350
_publ_section_title
;
Structure prediction by ZEFSAII (Michael W. Deem and Ramdas Pophale) SiO2 
 PCOD9013350
Probable space group: P -1
;
_chemical_formula_sum "Si O2"
_cell_formula_units_Z 16
_cell_length_a 16.736211
_cell_length_b 8.387597
_cell_length_c 17.318667
_cell_angle_alpha 114.861740
_cell_angle_beta 155.436366
_cell_angle_gamma 82.164598
_cell_volume 694.986488
_symmetry_space_group_name_H-M "P -1"
_symmetry_group_IT_number 2
_symmetry_cell_setting 'triclinic'
loop_
_space_group_symop_operation_xyz
x,y,z
-x,-y,-z
loop_
_atom_site_type_symbol
_atom_site_label
_atom_site_fract_x
_atom_site_fract_y
_atom_site_fract_z
Si Si1 0.484386 0.624809 0.438661
Si Si2 0.633307 0.426236 0.838672
Si Si3 0.519074 0.064642 0.407847
Si Si4 0.855440 0.016587 0.308410
Si Si5 0.875836 0.775570 0.567021
Si Si6 0.978935 0.837485 0.836250
Si Si7 0.718768 0.303468 0.311435
Si Si8 0.173651 0.660680 0.416007
O O1 0.500000 0.500000 0.500000
O O2 0.343044 0.472635 0.205225
O O3 0.362537 0.735938 0.383480
O O4 0.768302 0.817010 0.693156
O O5 0.414703 0.368205 0.690805
O O6 0.541415 0.174820 0.683665
O O7 0.892342 0.571701 0.143056
O O8 0.671283 0.172249 0.484746
O O9 0.246426 0.990448 0.141831
O O10 0.848658 0.220169 0.364491
O O11 0.011077 0.070022 0.377941
O O12 0.000000 0.000000 0.500000
O O13 0.553419 0.805105 0.986218
O O14 0.018199 0.916645 0.798477
O O15 0.895176 0.579044 0.528702
O O16 0.865345 0.571635 0.677272
O O17 0.690137 0.225969 0.359807
#
# Coordination Sequence:
#
# PCOD9013350 Si02
#       8
#     2   2   2   2   2   2   2   2
#     4  11  21  41  60  89 126 169 212 267 325 372
#     4  10  25  40  61  94 123 165 222 258 314 386
#     4  11  21  38  63  87 126 164 208 273 314 367
#     4  11  25  43  67 103 129 162 216 257 321 385
#     4  10  22  44  65  90 130 170 208 261 318 377
#     4   9  20  40  61  91 119 165 220 254 314 385
#     4  10  24  44  67  95 132 168 209 261 318 385
#     4  10  21  41  64  92 124 167 214 263 316 374
#
# _framework density 23.022030999999998
#
# number of rings (size 3 to 8) (size 9 to 14) (size 15 to 20)
#    0.000    1.750    1.250    1.875    3.500    1.000 
#   11.250    0.000    0.000    0.000    0.000    0.000 
#    0.000    0.000    0.000    0.000    0.000    0.000 
#
# Total GULP energy -89354.438060 kJ/mol
# GULP energy per Si atom -5584.652379 kJ/mol
# Density = 2.296963 g / cm^3
# Si number density = 23.022031 Si / 1000 Ang^3
#
#
#
# Elastic Constant Matrix: (Units=GPa)
#
#
# Indices 1 2 3 4 5 6 
#
# 1 144.3142 47.8606 20.7168 -11.6653 -10.2750 16.5514
# 2 47.8606 78.1881 29.8715 -4.4645 -8.4341 7.9876
# 3 20.7168 29.8715 67.7785 -27.9416 -4.4224 -0.8057
# 4 -11.6653 -4.4645 -27.9416 34.8365 -3.0323 -6.9683
# 5 -10.2750 -8.4341 -4.4224 -3.0323 16.5385 -6.0884
# 6 16.5514 7.9876 -0.8057 -6.9683 -6.0884 45.6120
#
#
#
# Elastic Compliance Matrix: (Units=1/GPa)
#
#
# Indices 1 2 3 4 5 6 
#
# 1 0.009222 -0.005371 0.001110 0.003296 0.003363 -0.001434
# 2 -0.005371 0.020059 -0.010422 -0.007996 0.001627 -0.002752
# 3 0.001110 -0.010422 0.030510 0.025945 0.011012 0.007395
# 4 0.003296 -0.007996 0.025945 0.053512 0.018901 0.011361
# 5 0.003363 0.001627 0.011012 0.018901 0.074011 0.011456
# 6 -0.001434 -0.002752 0.007395 0.011361 0.011456 0.026322
#
#
# Mechanical properties :
#
#
# Convention : Reuss Voigt Hill
#
# Bulk Modulus (GPa) = 32.86839 54.13095 43.49967
# Shear Modulus (GPa) = 19.75156 32.18620 25.96888
#
# Velocity S-wave (km/s) = 2.93224 3.74312 3.36222
# Velocity P-wave (km/s) = 5.07661 6.49962 5.83168
#
# Compressibility (1/GPa) = 0.03042437
#
# Stress axis : x y z
#
# Youngs Moduli (GPa) = 108.44057 49.85258 32.77589
#
# Poissons Ratio (x) = 0.26777 -0.03637
# Poissons Ratio (y) = 0.58246 0.34158
# Poissons Ratio (z) = -0.12032 0.51955
#
# Static dielectric constant tensor:
#      x y z
#    x 1.877900 -0.001600 -0.042260 
#    y -0.001600 1.905550 -0.006350 
#    z -0.042260 -0.006350 1.864070 
# 
# From -- ./inp_files/45197.got.cif
#   From: 2010.05.17/outbox.cif.g08.bks.cpg/sg2_23_cif.got.tgz:45197.got - 2010.06.03 11:33:40.
