data_PCOD9013796
_publ_section_title
;
Structure prediction by ZEFSAII (Michael W. Deem and Ramdas Pophale) SiO2 
 PCOD9013796
Probable space group: P -1
;
_chemical_formula_sum "Si O2"
_cell_formula_units_Z 16
_cell_length_a 9.069837
_cell_length_b 5.916823
_cell_length_c 14.553741
_cell_angle_alpha 104.296131
_cell_angle_beta 62.860795
_cell_angle_gamma 86.859694
_cell_volume 660.692662
_symmetry_space_group_name_H-M "P -1"
_symmetry_group_IT_number 2
_symmetry_cell_setting 'triclinic'
loop_
_space_group_symop_operation_xyz
x,y,z
-x,-y,-z
loop_
_atom_site_type_symbol
_atom_site_label
_atom_site_fract_x
_atom_site_fract_y
_atom_site_fract_z
Si Si1 0.226675 0.776749 0.658680
Si Si2 0.639040 0.407380 0.712107
Si Si3 0.086760 0.230312 0.973753
Si Si4 0.007118 0.823779 0.351809
Si Si5 0.595246 0.931479 0.248171
Si Si6 0.581884 0.870435 0.871325
Si Si7 0.922184 0.682774 0.818427
Si Si8 0.814587 0.596419 0.517796
O O1 0.250928 0.561065 0.558552
O O2 0.113738 0.720776 0.770854
O O3 0.088897 0.971142 0.664154
O O4 0.386624 0.873658 0.660254
O O5 0.491986 0.275803 0.709504
O O6 0.575577 0.588052 0.832814
O O7 0.695417 0.577816 0.635817
O O8 0.803893 0.200836 0.664091
O O9 0.213975 0.160608 0.847367
O O10 0.163651 0.281075 0.055070
O O11 0.000000 0.500000 0.000000
O O12 0.000000 0.000000 0.000000
O O13 0.865744 0.812454 0.469100
O O14 0.046754 0.577756 0.259073
O O15 0.504689 0.009265 0.184187
O O16 0.784223 0.857807 0.814215
O O17 0.500000 0.000000 0.000000
O O18 0.000000 0.500000 0.500000
#
# Coordination Sequence:
#
# PCOD9013796 Si02
#       8
#     2   2   2   2   2   2   2   2
#     4  11  22  40  70  98 136 176 234 281 365 427
#     4  10  24  42  65  99 137 175 231 297 354 429
#     4  12  26  44  70 103 144 192 243 301 365 431
#     4   9  20  41  68  99 129 178 230 295 348 428
#     4  12  26  41  65 102 141 185 229 296 364 433
#     4  11  24  44  65  92 137 183 238 289 359 418
#     4  10  21  41  65  97 131 184 238 291 341 427
#     4   9  21  42  69 100 131 176 233 287 354 429
#
# _framework density 24.217006000000001
#
# number of rings (size 3 to 8) (size 9 to 14) (size 15 to 20)
#    0.000    1.500    2.500    2.250    1.750    6.000 
#    0.000    1.250    0.000    0.000    0.000    0.000 
#    0.000    0.000    0.000    0.000    0.000    0.000 
#
# Total GULP energy -89138.633704 kJ/mol
# GULP energy per Si atom -5571.164606 kJ/mol
# Density = 2.416189 g / cm^3
# Si number density = 24.217006 Si / 1000 Ang^3
#
#
#
# Elastic Constant Matrix: (Units=GPa)
#
#
# Indices 1 2 3 4 5 6 
#
# 1 85.9134 29.9302 26.9634 6.9456 4.3781 27.1393
# 2 29.9302 62.2512 25.4276 10.4164 -13.3012 0.4389
# 3 26.9634 25.4276 108.9638 23.3979 16.1768 21.9959
# 4 6.9456 10.4164 23.3979 35.7880 7.1688 2.7428
# 5 4.3781 -13.3012 16.1768 7.1688 34.3717 -2.7994
# 6 27.1393 0.4389 21.9959 2.7428 -2.7994 47.8467
#
#
#
# Elastic Compliance Matrix: (Units=1/GPa)
#
#
# Indices 1 2 3 4 5 6 
#
# 1 0.019693 -0.012259 0.001539 0.001555 -0.009311 -0.012399
# 2 -0.012259 0.030241 -0.007982 -0.005960 0.019226 0.011812
# 3 0.001539 -0.007982 0.014802 -0.005078 -0.009835 -0.007889
# 4 0.001555 -0.005960 -0.005078 0.034231 -0.007326 -0.000884
# 5 -0.009311 0.019226 -0.009835 -0.007326 0.044909 0.012674
# 6 -0.012399 0.011812 -0.007889 -0.000884 0.012674 0.032243
#
#
# Mechanical properties :
#
#
# Convention : Reuss Voigt Hill
#
# Bulk Modulus (GPa) = 36.58862 46.86344 41.72603
# Shear Modulus (GPa) = 22.45835 35.25511 28.85673
#
# Velocity S-wave (km/s) = 3.04859 3.81963 3.45569
# Velocity P-wave (km/s) = 5.24722 6.23268 5.76106
#
# Compressibility (1/GPa) = 0.02733090
#
# Stress axis : x y z
#
# Youngs Moduli (GPa) = 50.77954 33.06794 67.55695
#
# Poissons Ratio (x) = 0.40539 -0.10397
# Poissons Ratio (y) = 0.62252 0.53926
# Poissons Ratio (z) = -0.07815 0.26396
#
# Static dielectric constant tensor:
#      x y z
#    x 2.006580 -0.003410 -0.008260 
#    y -0.003410 2.228430 -0.064290 
#    z -0.008260 -0.064290 2.026000 
# 
# From -- ./inp_files/488515.got.cif
#   From: 2010.05.17/outbox.cif.g08.bks.cpg/sg2_245_cif.got.tgz:488515.got - 2010.06.03 11:33:40.
