data_PCOD9013729
_publ_section_title
;
Structure prediction by ZEFSAII (Michael W. Deem and Ramdas Pophale) SiO2 
 PCOD9013729
Probable space group: P -1
;
_chemical_formula_sum "Si O2"
_cell_formula_units_Z 16
_cell_length_a 7.168058
_cell_length_b 10.959015
_cell_length_c 18.888693
_cell_angle_alpha 28.867629
_cell_angle_beta 80.190432
_cell_angle_gamma 78.397205
_cell_volume 701.669133
_symmetry_space_group_name_H-M "P -1"
_symmetry_group_IT_number 2
_symmetry_cell_setting 'triclinic'
loop_
_space_group_symop_operation_xyz
x,y,z
-x,-y,-z
loop_
_atom_site_type_symbol
_atom_site_label
_atom_site_fract_x
_atom_site_fract_y
_atom_site_fract_z
Si Si1 0.214215 0.192285 0.114903
Si Si2 0.653234 0.770797 0.133983
Si Si3 0.012979 0.606227 0.108444
Si Si4 0.467132 0.772702 0.564560
Si Si5 0.354537 0.894396 0.908940
Si Si6 0.941538 0.794116 0.307997
Si Si7 0.144749 0.076287 0.337943
Si Si8 0.876533 0.651462 0.536516
O O1 0.431421 0.209954 0.069507
O O2 0.199248 0.208128 0.193212
O O3 0.083002 0.364362 0.979597
O O4 0.135985 0.918948 0.246303
O O5 0.858493 0.769207 0.084499
O O6 0.607032 0.483071 0.269857
O O7 0.644086 0.847594 0.177481
O O8 0.500000 0.000000 0.000000
O O9 0.053828 0.308289 0.274528
O O10 0.219110 0.709827 0.049251
O O11 0.672382 0.670523 0.573041
O O12 0.500000 0.000000 0.500000
O O13 0.322386 0.906259 0.447553
O O14 0.224064 0.977149 0.808484
O O15 0.860620 0.656854 0.449783
O O16 0.990732 0.612701 0.329694
O O17 0.985730 0.888781 0.429539
#
# Coordination Sequence:
#
# PCOD9013729 Si02
#       8
#     2   2   2   2   2   2   2   2
#     4  10  21  42  67 100 133 169 221 280 332 395
#     4  12  26  46  68  95 135 179 224 277 328 392
#     4  11  25  42  67  99 134 179 226 271 332 399
#     4  12  28  44  69  98 135 180 223 275 333 399
#     4  11  22  39  68  96 130 175 222 271 330 390
#     4   9  20  37  66  99 127 168 215 274 332 394
#     4  11  25  44  67  98 136 176 220 277 338 399
#     4  10  21  41  65  94 134 168 216 273 335 392
#
# _framework density 22.802769999999999
#
# number of rings (size 3 to 8) (size 9 to 14) (size 15 to 20)
#    0.000    1.250    1.250    3.750    3.500    4.500 
#    0.000    5.000    0.000    0.000    0.000    0.000 
#    0.000    0.000    0.000    0.000    0.000    0.000 
#
# Total GULP energy -89253.221282 kJ/mol
# GULP energy per Si atom -5578.326330 kJ/mol
# Density = 2.275087 g / cm^3
# Si number density = 22.802770 Si / 1000 Ang^3
#
#
#
# Elastic Constant Matrix: (Units=GPa)
#
#
# Indices 1 2 3 4 5 6 
#
# 1 138.5165 16.9679 42.8079 -2.5385 -5.2791 -31.9036
# 2 16.9679 41.4171 17.2589 -12.7391 -1.1326 -14.1128
# 3 42.8079 17.2589 65.3883 -16.1975 -1.9156 -15.7895
# 4 -2.5385 -12.7391 -16.1975 35.8394 1.8025 1.2252
# 5 -5.2791 -1.1326 -1.9156 1.8025 34.1573 1.4715
# 6 -31.9036 -14.1128 -15.7895 1.2252 1.4715 23.9023
#
#
#
# Elastic Compliance Matrix: (Units=1/GPa)
#
#
# Indices 1 2 3 4 5 6 
#
# 1 0.011656 0.001357 -0.005220 -0.001547 0.001079 0.012923
# 2 0.001357 0.034775 -0.002592 0.010609 -0.000208 0.020101
# 3 -0.005220 -0.002592 0.023139 0.008967 -0.000342 0.006349
# 4 -0.001547 0.010609 0.008967 0.035410 -0.001615 0.008407
# 5 0.001079 -0.000208 -0.000342 -0.001615 0.029530 -0.000644
# 6 0.012923 0.020101 0.006349 0.008407 -0.000644 0.074758
#
#
# Mechanical properties :
#
#
# Convention : Reuss Voigt Hill
#
# Bulk Modulus (GPa) = 17.64855 44.37682 31.01268
# Shear Modulus (GPa) = 20.74144 29.99896 25.37020
#
# Velocity S-wave (km/s) = 3.01923 3.63103 3.33917
# Velocity P-wave (km/s) = 4.46215 6.08955 5.33823
#
# Compressibility (1/GPa) = 0.05666189
#
# Stress axis : x y z
#
# Youngs Moduli (GPa) = 85.79588 28.75591 43.21730
#
# Poissons Ratio (x) = -0.03903 0.22559
# Poissons Ratio (y) = -0.11645 0.11200
# Poissons Ratio (z) = 0.44784 0.07452
#
# Static dielectric constant tensor:
#      x y z
#    x 1.994460 -0.100980 0.199810 
#    y -0.100980 2.048950 -0.117870 
#    z 0.199810 -0.117870 2.146890 
# 
# From -- ./inp_files/583204.got.cif
#   From: 2010.05.17/outbox.cif.g08.bks.cpg/sg2_292_cif.got.tgz:583204.got - 2010.06.03 11:33:40.
