data_PCOD9013323
_publ_section_title
;
Structure prediction by ZEFSAII (Michael W. Deem and Ramdas Pophale) SiO2 
 PCOD9013323
Probable space group: P -1
;
_chemical_formula_sum "Si O2"
_cell_formula_units_Z 16
_cell_length_a 18.769822
_cell_length_b 8.207323
_cell_length_c 5.766081
_cell_angle_alpha 56.591520
_cell_angle_beta 86.041088
_cell_angle_gamma 91.669786
_cell_volume 737.315236
_symmetry_space_group_name_H-M "P -1"
_symmetry_group_IT_number 2
_symmetry_cell_setting 'triclinic'
loop_
_space_group_symop_operation_xyz
x,y,z
-x,-y,-z
loop_
_atom_site_type_symbol
_atom_site_label
_atom_site_fract_x
_atom_site_fract_y
_atom_site_fract_z
Si Si1 0.973988 0.709729 0.302362
Si Si2 0.274113 0.037424 0.921817
Si Si3 0.612351 0.674233 0.563386
Si Si4 0.165167 0.171394 0.496853
Si Si5 0.482623 0.892084 0.340466
Si Si6 0.062450 0.034609 0.272249
Si Si7 0.669494 0.310163 0.559054
Si Si8 0.712984 0.622651 0.965391
O O1 0.905030 0.742450 0.450526
O O2 0.000000 0.500000 0.500000
O O3 0.947115 0.760928 0.012960
O O4 0.041633 0.864990 0.224822
O O5 0.341405 0.125668 0.682138
O O6 0.203356 0.047646 0.776731
O O7 0.274053 0.198980 0.998061
O O8 0.285972 0.826576 0.184757
O O9 0.531597 0.709483 0.493215
O O10 0.639167 0.489291 0.566543
O O11 0.635651 0.639049 0.850011
O O12 0.136599 0.042904 0.384106
O O13 0.225318 0.337904 0.270787
O O14 0.398870 0.825151 0.407861
O O15 0.500000 0.000000 0.500000
O O16 0.500000 0.000000 0.000000
O O17 0.000000 0.000000 0.500000
O O18 0.713403 0.417535 0.256399
#
# Coordination Sequence:
#
# PCOD9013323 Si02
#       8
#     2   2   2   2   2   2   2   2
#     4  10  21  41  67  96 130 165 213 273 327 397
#     4  10  21  43  63  90 132 176 222 279 335 412
#     4  10  23  42  65  97 134 172 231 286 348 409
#     4  10  21  41  64  90 135 172 216 266 340 403
#     4  12  26  44  74 102 138 189 236 294 367 416
#     4   9  20  40  63  92 124 164 204 262 324 391
#     4  11  24  42  69  96 133 175 234 285 346 407
#     4  10  23  41  64  92 130 179 223 282 336 411
#
# _framework density 21.70035
#
# number of rings (size 3 to 8) (size 9 to 14) (size 15 to 20)
#    0.000    1.750    1.250    1.875    3.500    4.500 
#    0.000   30.000    0.000    0.000    0.000    0.000 
#    0.000    0.000    0.000    0.000    0.000    0.000 
#
# Total GULP energy -89351.920260 kJ/mol
# GULP energy per Si atom -5584.495016 kJ/mol
# Density = 2.165096 g / cm^3
# Si number density = 21.700350 Si / 1000 Ang^3
#
#
#
# Elastic Constant Matrix: (Units=GPa)
#
#
# Indices 1 2 3 4 5 6 
#
# 1 103.0858 37.3410 49.9106 -5.9419 28.7410 3.4182
# 2 37.3410 52.1978 58.8595 -3.3307 19.8916 7.5609
# 3 49.9106 58.8595 164.0789 -16.8893 27.9759 -3.3854
# 4 -5.9419 -3.3307 -16.8893 36.7355 1.0458 10.8964
# 5 28.7410 19.8916 27.9759 1.0458 46.0821 7.8990
# 6 3.4182 7.5609 -3.3854 10.8964 7.8990 27.0688
#
#
#
# Elastic Compliance Matrix: (Units=1/GPa)
#
#
# Indices 1 2 3 4 5 6 
#
# 1 0.014293 -0.007679 -0.000498 0.001113 -0.005572 0.001456
# 2 -0.007679 0.041294 -0.012010 0.000381 -0.003850 -0.011096
# 3 -0.000498 -0.012010 0.011303 0.002802 -0.002174 0.004338
# 4 0.001113 0.000381 0.002802 0.032510 -0.001129 -0.012654
# 5 -0.005572 -0.003850 -0.002174 -0.001129 0.029313 -0.006592
# 6 0.001456 -0.011096 0.004338 -0.012654 -0.006592 0.047418
#
#
# Mechanical properties :
#
#
# Convention : Reuss Voigt Hill
#
# Bulk Modulus (GPa) = 37.71634 67.95386 52.83510
# Shear Modulus (GPa) = 22.18812 33.52738 27.85775
#
# Velocity S-wave (km/s) = 3.20109 3.93493 3.58683
# Velocity P-wave (km/s) = 5.57502 7.21301 6.44626
#
# Compressibility (1/GPa) = 0.02651371
#
# Stress axis : x y z
#
# Youngs Moduli (GPa) = 69.96415 24.21677 88.46965
#
# Poissons Ratio (x) = 0.18597 0.04408
# Poissons Ratio (y) = 0.53729 1.06256
# Poissons Ratio (z) = 0.03486 0.29085
#
# Static dielectric constant tensor:
#      x y z
#    x 1.795060 0.015030 -0.023120 
#    y 0.015030 1.823440 0.054240 
#    z -0.023120 0.054240 1.827600 
# 
# From -- ./inp_files/11088.got.cif
#   From: 2010.05.17/outbox.cif.g08.bks.cpg/sg2_6_cif.got.tgz:11088.got - 2010.06.03 11:33:40.
