data_PCOD9013282
_publ_section_title
;
Structure prediction by ZEFSAII (Michael W. Deem and Ramdas Pophale) SiO2 
 PCOD9013282
Probable space group: P -1
;
_chemical_formula_sum "Si O2"
_cell_formula_units_Z 15
_cell_length_a 14.426845
_cell_length_b 6.784077
_cell_length_c 11.070667
_cell_angle_alpha 104.548665
_cell_angle_beta 39.888287
_cell_angle_gamma 113.028258
_cell_volume 637.277095
_symmetry_space_group_name_H-M "P -1"
_symmetry_group_IT_number 2
_symmetry_cell_setting 'triclinic'
loop_
_space_group_symop_operation_xyz
x,y,z
-x,-y,-z
loop_
_atom_site_type_symbol
_atom_site_label
_atom_site_fract_x
_atom_site_fract_y
_atom_site_fract_z
Si Si1 0.473015 0.095115 0.668499
Si Si2 0.203969 0.681614 0.901318
Si Si3 0.976731 0.659476 0.444600
Si Si4 0.679580 0.923278 0.569189
Si Si5 0.500000 0.500000 0.000000
Si Si6 0.392911 0.520385 0.847683
Si Si7 0.864847 0.624451 0.287464
Si Si8 0.763196 0.933346 0.762917
O O1 0.320127 0.917609 0.842270
O O2 0.623226 0.107587 0.597256
O O3 0.500000 0.000000 0.500000
O O4 0.437148 0.314394 0.733219
O O5 0.236801 0.526241 0.946664
O O6 0.228996 0.574747 0.732495
O O7 0.034370 0.688904 0.075585
O O8 0.878500 0.569441 0.407366
O O9 0.880464 0.795847 0.625925
O O10 0.000000 0.500000 0.500000
O O11 0.135490 0.828142 0.261492
O O12 0.526175 0.719992 0.690690
O O13 0.801376 0.825963 0.372444
O O14 0.731729 0.974187 0.661221
O O15 0.588053 0.455912 0.024426
O O16 0.393788 0.234363 0.057347
#
# Coordination Sequence:
#
# PCOD9013282 Si02
#       8
#     2   2   2   2   1   2   2   2
#     4  11  22  38  65  91 120 168 218 263 318 386
#     4  10  23  41  59  94 128 167 209 267 325 372
#     4  10  22  39  64  90 127 170 213 258 328 383
#     4   9  20  41  61  89 125 163 211 265 316 381
#     4  10  22  40  68  92 132 164 220 272 328 382
#     4  10  22  41  63  94 127 164 212 268 325 383
#     4  10  21  41  64  86 133 169 210 266 316 389
#     4   9  21  40  59  94 124 162 213 265 318 388
#
# _framework density 23.537642000000002
#
# number of rings (size 3 to 8) (size 9 to 14) (size 15 to 20)
#    0.000    2.133    0.000    1.600    3.733    6.400 
#    0.000   11.333    0.000    0.000    0.000    0.000 
#    0.000    0.000    0.000    0.000    0.000    0.000 
#
# Total GULP energy -83510.512874 kJ/mol
# GULP energy per Si atom -5567.367525 kJ/mol
# Density = 2.348407 g / cm^3
# Si number density = 23.537642 Si / 1000 Ang^3
#
#
#
# Elastic Constant Matrix: (Units=GPa)
#
#
# Indices 1 2 3 4 5 6 
#
# 1 87.3727 31.2541 8.5422 -3.7610 -10.4648 2.2437
# 2 31.2541 86.4033 11.0151 -13.3865 -5.4710 16.9844
# 3 8.5422 11.0151 47.0744 -2.0674 -11.2613 -4.3490
# 4 -3.7610 -13.3865 -2.0674 30.1653 -3.4863 -2.8167
# 5 -10.4648 -5.4710 -11.2613 -3.4863 28.5634 0.4040
# 6 2.2437 16.9844 -4.3490 -2.8167 0.4040 33.0172
#
#
#
# Elastic Compliance Matrix: (Units=1/GPa)
#
#
# Indices 1 2 3 4 5 6 
#
# 1 0.013680 -0.004959 -0.000227 0.000092 0.003962 0.001551
# 2 -0.004959 0.016288 -0.003191 0.005745 0.000859 -0.007982
# 3 -0.000227 -0.003191 0.024773 0.001782 0.009220 0.004959
# 4 0.000092 0.005745 0.001782 0.036591 0.006298 0.000318
# 5 0.003962 0.000859 0.009220 0.006298 0.041022 0.000539
# 6 0.001551 -0.007982 0.004959 0.000318 0.000539 0.034962
#
#
# Mechanical properties :
#
#
# Convention : Reuss Voigt Hill
#
# Bulk Modulus (GPa) = 26.32517 35.83037 31.07777
# Shear Modulus (GPa) = 25.41528 29.68512 27.55020
#
# Velocity S-wave (km/s) = 3.28955 3.55516 3.42493
# Velocity P-wave (km/s) = 5.06328 5.66638 5.37329
#
# Compressibility (1/GPa) = 0.03798646
#
# Stress axis : x y z
#
# Youngs Moduli (GPa) = 73.09932 61.39555 40.36686
#
# Poissons Ratio (x) = 0.30447 0.00916
# Poissons Ratio (y) = 0.36251 0.12881
# Poissons Ratio (z) = 0.01658 0.19592
#
# Static dielectric constant tensor:
#      x y z
#    x 1.968860 0.043020 -0.017550 
#    y 0.043020 1.902100 -0.026350 
#    z -0.017550 -0.026350 1.975670 
# 
# From -- ./inp_files/131524.got.cif
#   From: 2010.05.17/outbox.cif.g08.bks.cpg/sg2_66_cif.got.tgz:131524.got - 2010.06.03 11:33:40.
