data_PCOD9013459
_publ_section_title
;
Structure prediction by ZEFSAII (Michael W. Deem and Ramdas Pophale) SiO2 
 PCOD9013459
Probable space group: P -1
;
_chemical_formula_sum "Si O2"
_cell_formula_units_Z 14
_cell_length_a 11.817182
_cell_length_b 12.002710
_cell_length_c 5.342149
_cell_angle_alpha 129.465073
_cell_angle_beta 98.754896
_cell_angle_gamma 94.422928
_cell_volume 562.944732
_symmetry_space_group_name_H-M "P -1"
_symmetry_group_IT_number 2
_symmetry_cell_setting 'triclinic'
loop_
_space_group_symop_operation_xyz
x,y,z
-x,-y,-z
loop_
_atom_site_type_symbol
_atom_site_label
_atom_site_fract_x
_atom_site_fract_y
_atom_site_fract_z
Si Si1 0.187014 0.602715 0.551003
Si Si2 0.061879 0.078873 0.884651
Si Si3 0.986043 0.352607 0.041171
Si Si4 0.364435 0.424078 0.165695
Si Si5 0.792202 0.132823 0.366245
Si Si6 0.406236 0.342124 0.563903
Si Si7 0.460908 0.906958 0.602254
O O1 0.114970 0.587583 0.761689
O O2 0.300794 0.541699 0.441184
O O3 0.221113 0.778527 0.763352
O O4 0.089758 0.488707 0.188426
O O5 0.186287 0.030767 0.876226
O O6 0.000000 0.000000 0.500000
O O7 0.048789 0.247652 0.090760
O O8 0.000000 0.000000 0.000000
O O9 0.912529 0.237827 0.657563
O O10 0.358456 0.304093 0.211811
O O11 0.496822 0.507539 0.256495
O O12 0.318076 0.365595 0.790242
O O13 0.680093 0.141013 0.504563
O O14 0.476657 0.228948 0.542570
O O15 0.500000 0.000000 0.500000
O O16 0.500000 0.000000 0.000000
#
# Coordination Sequence:
#
# PCOD9013459 Si02
#       7
#     2   2   2   2   2   2   2
#     4  11  22  41  69 105 133 180 225 282 339 410
#     4  10  21  41  64  96 132 181 220 270 335 408
#     4  10  24  40  68 103 136 174 230 276 340 414
#     4  10  22  39  69  95 132 179 213 280 339 400
#     4  11  24  44  71  92 141 181 222 285 347 398
#     4  10  22  43  64  98 134 172 227 272 341 397
#     4  12  28  45  72 102 134 181 236 282 334 412
#
# _framework density 24.869225
#
# number of rings (size 3 to 8) (size 9 to 14) (size 15 to 20)
#    0.000    1.429    2.857    1.286    4.000    3.429 
#    0.000    1.429    0.000    0.000    0.000    0.000 
#    0.000    0.000    0.000    0.000    0.000    0.000 
#
# Total GULP energy -78097.021452 kJ/mol
# GULP energy per Si atom -5578.358675 kJ/mol
# Density = 2.481262 g / cm^3
# Si number density = 24.869225 Si / 1000 Ang^3
#
#
#
# Elastic Constant Matrix: (Units=GPa)
#
#
# Indices 1 2 3 4 5 6 
#
# 1 89.6881 47.5192 18.8782 3.2314 -28.3247 -11.5852
# 2 47.5192 185.5356 51.0792 -11.2522 -13.5633 -1.8597
# 3 18.8782 51.0792 76.6596 -6.8514 -17.6883 1.4579
# 4 3.2314 -11.2522 -6.8514 47.4911 3.8910 -5.6237
# 5 -28.3247 -13.5633 -17.6883 3.8910 43.0934 12.9889
# 6 -11.5852 -1.8597 1.4579 -5.6237 12.9889 32.6504
#
#
#
# Elastic Compliance Matrix: (Units=1/GPa)
#
#
# Indices 1 2 3 4 5 6 
#
# 1 0.016325 -0.003741 0.000425 -0.002564 0.009562 0.001315
# 2 -0.003741 0.007518 -0.004461 0.001628 -0.002209 0.000459
# 3 0.000425 -0.004461 0.017684 0.000439 0.007205 -0.003683
# 4 -0.002564 0.001628 0.000439 0.022623 -0.004497 0.004849
# 5 0.009562 -0.002209 0.007205 -0.004497 0.035796 -0.012070
# 6 0.001315 0.000459 -0.003683 0.004849 -0.012070 0.036921
#
#
# Mechanical properties :
#
#
# Convention : Reuss Voigt Hill
#
# Bulk Modulus (GPa) = 38.50311 65.20405 51.85358
# Shear Modulus (GPa) = 31.04071 40.27407 35.65739
#
# Velocity S-wave (km/s) = 3.53676 4.02859 3.79066
# Velocity P-wave (km/s) = 5.67398 6.92207 6.32887
#
# Compressibility (1/GPa) = 0.02597193
#
# Stress axis : x y z
#
# Youngs Moduli (GPa) = 61.25746 133.01444 56.54790
#
# Poissons Ratio (x) = 0.49765 -0.02403
# Poissons Ratio (y) = 0.22918 0.25226
# Poissons Ratio (z) = -0.02603 0.59338
#
# Static dielectric constant tensor:
#      x y z
#    x 1.990660 -0.083910 0.015260 
#    y -0.083910 2.014600 -0.034850 
#    z 0.015260 -0.034850 2.078470 
# 
# From -- ./inp_files/72577.got.cif
#   From: 2010.05.17/outbox.cif.g08.bks.cpg/sg2_37_cif.got.tgz:72577.got - 2010.06.03 11:33:40.
