data_PCOD9013304
_publ_section_title
;
Structure prediction by ZEFSAII (Michael W. Deem and Ramdas Pophale) SiO2 
 PCOD9013304
Probable space group: P -1
;
_chemical_formula_sum "Si O2"
_cell_formula_units_Z 10
_cell_length_a 14.903958
_cell_length_b 9.401064
_cell_length_c 11.919958
_cell_angle_alpha 54.330710
_cell_angle_beta 29.616539
_cell_angle_gamma 36.634547
_cell_volume 453.856229
_symmetry_space_group_name_H-M "P -1"
_symmetry_group_IT_number 2
_symmetry_cell_setting 'triclinic'
loop_
_space_group_symop_operation_xyz
x,y,z
-x,-y,-z
loop_
_atom_site_type_symbol
_atom_site_label
_atom_site_fract_x
_atom_site_fract_y
_atom_site_fract_z
Si Si1 0.479554 0.968225 0.218804
Si Si2 0.435602 0.927788 0.708856
Si Si3 0.461872 0.559216 0.715350
Si Si4 0.821736 0.389012 0.195545
Si Si5 0.246892 0.956006 0.278130
O O1 0.645455 0.682100 0.215929
O O2 0.383436 0.147151 0.348052
O O3 0.245284 0.061812 0.349415
O O4 0.675115 0.955382 0.939648
O O5 0.450632 0.721515 0.741829
O O6 0.500000 0.000000 0.500000
O O7 0.135653 0.189804 0.951542
O O8 0.711441 0.405525 0.428012
O O9 0.227475 0.711822 0.807436
O O10 0.501016 0.353057 0.835565
O O11 0.000000 0.000000 0.500000
#
# Coordination Sequence:
#
# PCOD9013304 Si02
#       5
#     2   2   2   2   2
#     4  10  22  41  63  92 122 165 207 251 311 369
#     4  12  23  36  64  97 126 154 206 260 309 364
#     4  10  22  40  64  92 120 166 209 250 311 365
#     4  10  21  41  64  89 127 162 204 255 307 370
#     4  10  22  41  66  85 124 169 206 251 309 366
#
# _framework density 22.033408999999999
#
# number of rings (size 3 to 8) (size 9 to 14) (size 15 to 20)
#    0.000    1.600    2.000    2.400    2.800    0.800 
#    3.600    1.000    0.000    0.000    0.000    0.000 
#    0.000    0.000    0.000    0.000    0.000    0.000 
#
# Total GULP energy -55810.527203 kJ/mol
# GULP energy per Si atom -5581.052720 kJ/mol
# Density = 2.198326 g / cm^3
# Si number density = 22.033409 Si / 1000 Ang^3
#
#
#
# Elastic Constant Matrix: (Units=GPa)
#
#
# Indices 1 2 3 4 5 6 
#
# 1 204.4174 23.5752 22.1148 -6.1214 3.4752 39.5398
# 2 23.5752 70.1517 -1.2235 -22.0925 16.0497 5.4810
# 3 22.1148 -1.2235 49.5242 -17.4062 -8.1754 -4.2702
# 4 -6.1214 -22.0925 -17.4062 25.6422 1.4295 3.1255
# 5 3.4752 16.0497 -8.1754 1.4295 33.5625 -6.7402
# 6 39.5398 5.4810 -4.2702 3.1255 -6.7402 37.7262
#
#
#
# Elastic Compliance Matrix: (Units=1/GPa)
#
#
# Indices 1 2 3 4 5 6 
#
# 1 0.007252 -0.002117 -0.005318 -0.002567 -0.002559 -0.008140
# 2 -0.002117 0.029367 0.010639 0.033537 -0.013887 -0.006103
# 3 -0.005318 0.010639 0.034712 0.030500 0.003848 0.006117
# 4 -0.002567 0.033537 0.030500 0.089813 -0.013905 -0.008654
# 5 -0.002559 -0.013887 0.003848 -0.013905 0.040963 0.013606
# 6 -0.008140 -0.006103 0.006117 -0.008654 0.013606 0.039765
#
#
# Mechanical properties :
#
#
# Convention : Reuss Voigt Hill
#
# Bulk Modulus (GPa) = 12.86323 45.89182 29.37753
# Shear Modulus (GPa) = 19.12950 38.02797 28.57873
#
# Velocity S-wave (km/s) = 2.94973 4.15893 3.60538
# Velocity P-wave (km/s) = 4.17755 6.62841 5.54020
#
# Compressibility (1/GPa) = 0.07774098
#
# Stress axis : x y z
#
# Youngs Moduli (GPa) = 137.88356 34.05153 28.80863
#
# Poissons Ratio (x) = 0.07209 0.15319
# Poissons Ratio (y) = 0.29191 -0.30650
# Poissons Ratio (z) = 0.73321 -0.36229
#
# Static dielectric constant tensor:
#      x y z
#    x 1.925830 0.047320 -0.057590 
#    y 0.047320 1.799570 -0.011030 
#    z -0.057590 -0.011030 1.791460 
# 
# From -- ./inp_files/16817.got.cif
#   From: 2010.05.17/outbox.cif.g08.bks.cpg/sg2_9_cif.got.tgz:16817.got - 2010.06.03 11:33:40.
