data_PCOD9013860
_publ_section_title
;
Structure prediction by ZEFSAII (Michael W. Deem and Ramdas Pophale) SiO2 
 PCOD9013860
Probable space group: P -1
;
_chemical_formula_sum "Si O2"
_cell_formula_units_Z 16
_cell_length_a 7.789613
_cell_length_b 17.344294
_cell_length_c 8.580208
_cell_angle_alpha 83.425517
_cell_angle_beta 61.231597
_cell_angle_gamma 128.276244
_cell_volume 638.398653
_symmetry_space_group_name_H-M "P -1"
_symmetry_group_IT_number 2
_symmetry_cell_setting 'triclinic'
loop_
_space_group_symop_operation_xyz
x,y,z
-x,-y,-z
loop_
_atom_site_type_symbol
_atom_site_label
_atom_site_fract_x
_atom_site_fract_y
_atom_site_fract_z
Si Si1 0.607676 0.798387 0.105218
Si Si2 0.261051 0.758159 0.865449
Si Si3 0.356368 0.989359 0.291752
Si Si4 0.973151 0.792555 0.744092
Si Si5 0.764537 0.583153 0.735603
Si Si6 0.819788 0.407241 0.249906
Si Si7 0.910268 0.062279 0.891142
Si Si8 0.098052 0.415982 0.648758
O O1 0.716235 0.764899 0.946645
O O2 0.752392 0.824814 0.206160
O O3 0.238840 0.685668 0.270915
O O4 0.785264 0.935160 0.967652
O O5 0.112229 0.773981 0.808708
O O6 0.372543 0.716597 0.732712
O O7 0.545875 0.891310 0.781073
O O8 0.014328 0.665410 0.130795
O O9 0.215565 0.925161 0.532606
O O10 0.657874 0.029249 0.116874
O O11 0.125083 0.908622 0.267163
O O12 0.877575 0.706516 0.665459
O O13 0.987899 0.587654 0.714773
O O14 0.688757 0.543912 0.598091
O O15 0.500000 0.500000 0.000000
O O16 0.751105 0.460104 0.374623
O O17 0.000000 0.500000 0.000000
#
# Coordination Sequence:
#
# PCOD9013860 Si02
#       8
#     2   2   2   2   2   2   2   2
#     4  11  22  40  59 100 137 175 228 277 336 409
#     4  10  21  41  66 102 138 184 231 269 342 412
#     4  11  21  43  67  96 143 186 221 280 332 404
#     4  11  24  38  66  99 139 181 224 282 337 406
#     4  11  24  44  69  99 129 174 234 284 346 409
#     4   9  21  42  68  98 132 175 227 277 340 400
#     4  10  23  38  64  93 138 180 235 261 337 409
#     4  11  22  44  72  95 138 184 220 292 345 400
#
# _framework density 25.062708000000001
#
# number of rings (size 3 to 8) (size 9 to 14) (size 15 to 20)
#    0.000    1.500    2.500    2.250    1.750    0.500 
#    2.250    9.375    0.000    0.000    0.000    2.625 
#    0.000    0.000    0.000    0.000    0.000    0.000 
#
# Total GULP energy -89364.493870 kJ/mol
# GULP energy per Si atom -5585.280867 kJ/mol
# Density = 2.500566 g / cm^3
# Si number density = 25.062708 Si / 1000 Ang^3
#
#
#
# Elastic Constant Matrix: (Units=GPa)
#
#
# Indices 1 2 3 4 5 6 
#
# 1 60.6591 37.3632 33.3157 -6.3752 6.1945 11.2897
# 2 37.3632 130.2070 37.6644 33.5032 7.4645 -19.8502
# 3 33.3157 37.6644 118.4929 18.2744 23.6315 2.6634
# 4 -6.3752 33.5032 18.2744 43.2300 2.4631 0.8539
# 5 6.1945 7.4645 23.6315 2.4631 24.4818 -6.8783
# 6 11.2897 -19.8502 2.6634 0.8539 -6.8783 35.0777
#
#
#
# Elastic Compliance Matrix: (Units=1/GPa)
#
#
# Indices 1 2 3 4 5 6 
#
# 1 0.040429 -0.019461 -0.007016 0.024924 -0.007198 -0.025510
# 2 -0.019461 0.021007 0.000272 -0.019988 0.005818 0.019758
# 3 -0.007016 0.000272 0.013474 -0.006312 -0.010843 -0.000583
# 4 0.024924 -0.019988 -0.006312 0.045639 -0.004572 -0.020861
# 5 -0.007198 0.005818 -0.010843 -0.004572 0.056788 0.017679
# 6 -0.025510 0.019758 -0.000583 -0.020861 0.017679 0.051918
#
#
# Mechanical properties :
#
#
# Convention : Reuss Voigt Hill
#
# Bulk Modulus (GPa) = 44.44266 58.44953 51.44609
# Shear Modulus (GPa) = 17.29116 33.95894 25.62505
#
# Velocity S-wave (km/s) = 2.62947 3.68497 3.20103
# Velocity P-wave (km/s) = 5.19518 6.44029 5.85095
#
# Compressibility (1/GPa) = 0.02250091
#
# Stress axis : x y z
#
# Youngs Moduli (GPa) = 24.73490 47.60259 74.21430
#
# Poissons Ratio (x) = 0.92641 0.52069
# Poissons Ratio (y) = 0.48137 -0.02022
# Poissons Ratio (z) = 0.17354 -0.01297
#
# Static dielectric constant tensor:
#      x y z
#    x 1.992270 0.109260 -0.068620 
#    y 0.109260 1.830530 0.096230 
#    z -0.068620 0.096230 1.956710 
# 
# From -- ./inp_files/215112.got.cif
#   From: 2010.05.17/outbox.cif.g08.bks.cpg/sg2_108_cif.got.tgz:215112.got - 2010.06.03 11:33:40.
