data_PCOD9013554
_publ_section_title
;
Structure prediction by ZEFSAII (Michael W. Deem and Ramdas Pophale) SiO2 
 PCOD9013554
Probable space group: P -1
;
_chemical_formula_sum "Si O2"
_cell_formula_units_Z 16
_cell_length_a 7.922846
_cell_length_b 11.895188
_cell_length_c 11.902341
_cell_angle_alpha 50.960699
_cell_angle_beta 68.304846
_cell_angle_gamma 53.568920
_cell_volume 700.971347
_symmetry_space_group_name_H-M "P -1"
_symmetry_group_IT_number 2
_symmetry_cell_setting 'triclinic'
loop_
_space_group_symop_operation_xyz
x,y,z
-x,-y,-z
loop_
_atom_site_type_symbol
_atom_site_label
_atom_site_fract_x
_atom_site_fract_y
_atom_site_fract_z
Si Si1 0.138462 0.828049 0.639458
Si Si2 0.670891 0.133898 0.857274
Si Si3 0.348938 0.985473 0.637667
Si Si4 0.160978 0.605219 0.957175
Si Si5 0.166899 0.310052 0.605902
Si Si6 0.183618 0.236958 0.899966
Si Si7 0.410650 0.682002 0.457266
Si Si8 0.420977 0.731958 0.963768
O O1 0.056458 0.732652 0.798574
O O2 0.278970 0.702434 0.587139
O O3 0.266015 0.879873 0.658947
O O4 0.000000 0.000000 0.500000
O O5 0.421480 0.198778 0.871711
O O6 0.718620 0.194742 0.690736
O O7 0.686538 0.207130 0.926615
O O8 0.801689 0.934771 0.956081
O O9 0.184336 0.173401 0.598594
O O10 0.500000 0.000000 0.500000
O O11 0.433067 0.880345 0.799808
O O12 0.284202 0.671108 0.965454
O O13 0.343985 0.424769 0.986680
O O14 0.978622 0.614859 0.074230
O O15 0.116004 0.270880 0.766355
O O16 0.398903 0.288885 0.571078
O O17 0.000000 0.500000 0.500000
O O18 0.500000 0.500000 0.500000
#
# Coordination Sequence:
#
# PCOD9013554 Si02
#       8
#     2   2   2   2   2   2   2   2
#     4  11  24  42  65  95 131 167 212 256 316 378
#     4  10  21  41  65  88 123 163 204 255 307 371
#     4  11  23  43  66  90 127 172 210 261 314 371
#     4  10  23  40  63  95 125 163 205 259 308 370
#     4  11  25  42  65  94 127 166 214 261 314 379
#     4  10  22  40  62  92 123 160 208 252 312 366
#     4  11  24  42  65  94 128 168 206 262 318 371
#     4  10  22  41  63  92 125 163 209 253 312 370
#
# _framework density 22.825468999999998
#
# number of rings (size 3 to 8) (size 9 to 14) (size 15 to 20)
#    0.000    1.500    2.500    1.500    3.500    4.000 
#    0.000    0.000    0.000    0.000    0.000    0.000 
#    0.000    0.000    0.000    0.000    0.000    0.000 
#
# Total GULP energy -89447.130379 kJ/mol
# GULP energy per Si atom -5590.445649 kJ/mol
# Density = 2.277352 g / cm^3
# Si number density = 22.825469 Si / 1000 Ang^3
#
#
#
# Elastic Constant Matrix: (Units=GPa)
#
#
# Indices 1 2 3 4 5 6 
#
# 1 31.7667 13.5270 8.6168 7.0359 3.4203 1.8030
# 2 13.5270 108.5894 24.3612 16.3091 5.1021 7.9314
# 3 8.6168 24.3612 113.2653 12.2272 19.3851 -0.7134
# 4 7.0359 16.3091 12.2272 44.2422 -1.6960 1.0411
# 5 3.4203 5.1021 19.3851 -1.6960 26.4193 1.3431
# 6 1.8030 7.9314 -0.7134 1.0411 1.3431 34.4460
#
#
#
# Elastic Compliance Matrix: (Units=1/GPa)
#
#
# Indices 1 2 3 4 5 6 
#
# 1 0.034435 -0.003247 -0.000898 -0.004142 -0.003397 -0.000816
# 2 -0.003247 0.010603 -0.001650 -0.002904 -0.000491 -0.002199
# 3 -0.000898 -0.001650 0.010863 -0.002573 -0.007754 0.001032
# 4 -0.004142 -0.002904 -0.002573 0.025222 0.004610 -0.000110
# 5 -0.003397 -0.000491 -0.007754 0.004610 0.044459 -0.001743
# 6 -0.000816 -0.002199 0.001032 -0.000110 -0.001743 0.029673
#
#
# Mechanical properties :
#
#
# Convention : Reuss Voigt Hill
#
# Bulk Modulus (GPa) = 22.56713 38.51459 30.54086
# Shear Modulus (GPa) = 27.53059 34.82927 31.17993
#
# Velocity S-wave (km/s) = 3.47671 3.91051 3.69997
# Velocity P-wave (km/s) = 5.10147 6.10734 5.62693
#
# Compressibility (1/GPa) = 0.04431224
#
# Stress axis : x y z
#
# Youngs Moduli (GPa) = 29.04018 94.30971 92.05329
#
# Poissons Ratio (x) = 0.30621 0.08267
# Poissons Ratio (y) = 0.09429 0.15188
# Poissons Ratio (z) = 0.02608 0.15560
#
# Static dielectric constant tensor:
#      x y z
#    x 1.905480 -0.011280 0.024870 
#    y -0.011280 1.810740 -0.037440 
#    z 0.024870 -0.037440 1.818630 
# 
# From -- ./inp_files/256775.got.cif
#   From: 2010.05.17/outbox.cif.g08.bks.cpg/sg2_129_cif.got.tgz:256775.got - 2010.06.03 11:33:40.
