data_PCOD9013453
_publ_section_title
;
Structure prediction by ZEFSAII (Michael W. Deem and Ramdas Pophale) SiO2 
 PCOD9013453
Probable space group: P -1
;
_chemical_formula_sum "Si O2"
_cell_formula_units_Z 10
_cell_length_a 22.120573
_cell_length_b 11.331532
_cell_length_c 6.303764
_cell_angle_alpha 127.725876
_cell_angle_beta 53.580521
_cell_angle_gamma 159.250844
_cell_volume 441.462953
_symmetry_space_group_name_H-M "P -1"
_symmetry_group_IT_number 2
_symmetry_cell_setting 'triclinic'
loop_
_space_group_symop_operation_xyz
x,y,z
-x,-y,-z
loop_
_atom_site_type_symbol
_atom_site_label
_atom_site_fract_x
_atom_site_fract_y
_atom_site_fract_z
Si Si1 0.113228 0.299981 0.316674
Si Si2 0.729456 0.558678 0.230943
Si Si3 0.331948 0.830033 0.816354
Si Si4 0.837927 0.315462 0.615418
Si Si5 0.520622 0.691840 0.288722
O O1 0.201356 0.524055 0.584856
O O2 0.101981 0.417519 0.304812
O O3 0.231853 0.393350 0.046405
O O4 0.920450 0.900952 0.308522
O O5 0.626610 0.231894 0.178373
O O6 0.628659 0.525026 0.477035
O O7 0.468403 0.157358 0.745434
O O8 0.246830 0.803847 0.112074
O O9 0.000000 0.500000 0.500000
O O10 0.695029 0.003285 0.404969
O O11 0.500000 0.500000 0.000000
#
# Coordination Sequence:
#
# PCOD9013453 Si02
#       5
#     2   2   2   2   2
#     4   9  21  40  68  93 123 168 207 261 305 374
#     4  10  21  41  64  96 125 160 215 256 308 373
#     4  10  22  41  65  90 123 172 204 255 319 364
#     4  10  24  42  63  92 129 168 209 253 314 376
#     4  11  26  41  62  97 129 164 206 263 309 370
#
# _framework density 22.651956999999999
#
# number of rings (size 3 to 8) (size 9 to 14) (size 15 to 20)
#    0.000    2.000    0.000    1.200    5.600   11.200 
#    0.000    0.000    0.000    0.000    0.000    0.000 
#    0.000    0.000    0.000    0.000    0.000    0.000 
#
# Total GULP energy -55906.856555 kJ/mol
# GULP energy per Si atom -5590.685655 kJ/mol
# Density = 2.260040 g / cm^3
# Si number density = 22.651957 Si / 1000 Ang^3
#
#
#
# Elastic Constant Matrix: (Units=GPa)
#
#
# Indices 1 2 3 4 5 6 
#
# 1 54.4851 36.8103 50.8903 -4.8102 1.4876 18.8333
# 2 36.8103 103.7007 62.3845 5.1462 -6.7931 2.2336
# 3 50.8903 62.3845 169.4594 3.7668 -25.0846 25.7655
# 4 -4.8102 5.1462 3.7668 44.7374 10.5230 -0.9826
# 5 1.4876 -6.7931 -25.0846 10.5230 37.5765 -3.5213
# 6 18.8333 2.2336 25.7655 -0.9826 -3.5213 27.7662
#
#
#
# Elastic Compliance Matrix: (Units=1/GPa)
#
#
# Indices 1 2 3 4 5 6 
#
# 1 0.041144 -0.011194 -0.007019 0.008848 -0.012860 -0.021811
# 2 -0.011194 0.015834 -0.003471 -0.003175 0.002795 0.009781
# 3 -0.007019 -0.003471 0.011156 -0.003173 0.007568 -0.004465
# 4 0.008848 -0.003175 -0.003173 0.026391 -0.010736 -0.003229
# 5 -0.012860 0.002795 0.007568 -0.010736 0.036218 0.005688
# 6 -0.021811 0.009781 -0.004465 -0.003229 0.005688 0.054773
#
#
# Mechanical properties :
#
#
# Convention : Reuss Voigt Hill
#
# Bulk Modulus (GPa) = 40.37531 69.75726 55.06629
# Shear Modulus (GPa) = 21.08468 33.85336 27.46902
#
# Velocity S-wave (km/s) = 3.05423 3.87007 3.48610
# Velocity P-wave (km/s) = 5.50460 7.12966 6.36917
#
# Compressibility (1/GPa) = 0.02476761
#
# Stress axis : x y z
#
# Youngs Moduli (GPa) = 24.30504 63.15362 89.63526
#
# Poissons Ratio (x) = 0.70694 0.62915
# Poissons Ratio (y) = 0.27207 0.31108
# Poissons Ratio (z) = 0.17060 0.21918
#
# Static dielectric constant tensor:
#      x y z
#    x 1.839120 -0.018640 0.015980 
#    y -0.018640 1.847080 -0.031430 
#    z 0.015980 -0.031430 1.859050 
# 
# From -- ./inp_files/15302.got.cif
#   From: 2010.05.17/outbox.cif.g08.bks.cpg/sg2_8_cif.got.tgz:15302.got - 2010.06.03 11:33:40.
