data_PCOD9013302
_publ_section_title
;
Structure prediction by ZEFSAII (Michael W. Deem and Ramdas Pophale) SiO2 
 PCOD9013302
Probable space group: P -1
;
_chemical_formula_sum "Si O2"
_cell_formula_units_Z 12
_cell_length_a 6.780657
_cell_length_b 10.408252
_cell_length_c 11.015450
_cell_angle_alpha 52.685257
_cell_angle_beta 64.620808
_cell_angle_gamma 97.204496
_cell_volume 471.557088
_symmetry_space_group_name_H-M "P -1"
_symmetry_group_IT_number 2
_symmetry_cell_setting 'triclinic'
loop_
_space_group_symop_operation_xyz
x,y,z
-x,-y,-z
loop_
_atom_site_type_symbol
_atom_site_label
_atom_site_fract_x
_atom_site_fract_y
_atom_site_fract_z
Si Si1 0.743742 0.266372 0.822283
Si Si2 0.210591 0.012694 0.178549
Si Si3 0.332691 0.598906 0.490362
Si Si4 0.023976 0.742045 0.860218
Si Si5 0.080486 0.210456 0.402121
Si Si6 0.615171 0.334219 0.295824
O O1 0.641021 0.311284 0.700472
O O2 0.023981 0.446334 0.674417
O O3 0.785860 0.093164 0.882603
O O4 0.504936 0.187151 0.023018
O O5 0.026541 0.095527 0.177793
O O6 0.111044 0.847897 0.400810
O O7 0.500000 0.500000 0.500000
O O8 0.421039 0.720391 0.521966
O O9 0.929768 0.691622 0.773118
O O10 0.311933 0.788130 0.739583
O O11 0.849202 0.554276 0.092876
O O12 0.362766 0.320566 0.320175
O O13 0.000000 0.000000 0.500000
#
# Coordination Sequence:
#
# PCOD9013302 Si02
#       6
#     2   2   2   2   2   2
#     4  10  23  43  65  92 127 166 208 257 312 368
#     4  10  21  41  64  89 126 167 203 252 315 371
#     4  11  23  42  68  94 123 165 213 258 307 370
#     4  10  23  41  64  92 125 165 208 260 312 366
#     4  10  22  40  62  89 126 164 201 256 316 367
#     4  11  23  40  65  95 123 164 215 257 307 374
#
# _framework density 25.447606
#
# number of rings (size 3 to 8) (size 9 to 14) (size 15 to 20)
#    0.000    1.667    0.000    3.500    0.000   12.000 
#    0.000   23.333    0.000    0.000    0.000    0.000 
#    0.000    0.000    0.000    0.000    0.000    0.000 
#
# Total GULP energy -67129.243724 kJ/mol
# GULP energy per Si atom -5594.103644 kJ/mol
# Density = 2.538969 g / cm^3
# Si number density = 25.447606 Si / 1000 Ang^3
#
#
#
# Elastic Constant Matrix: (Units=GPa)
#
#
# Indices 1 2 3 4 5 6 
#
# 1 93.7436 8.6361 56.7024 10.8570 26.1344 -7.6815
# 2 8.6361 70.7008 12.8094 1.8674 8.5011 -23.6685
# 3 56.7024 12.8094 126.9343 7.2259 -9.5790 -0.7596
# 4 10.8570 1.8674 7.2259 35.2531 -3.5177 -2.3419
# 5 26.1344 8.5011 -9.5790 -3.5177 30.9955 0.1731
# 6 -7.6815 -23.6685 -0.7596 -2.3419 0.1731 38.1047
#
#
#
# Elastic Compliance Matrix: (Units=1/GPa)
#
#
# Indices 1 2 3 4 5 6 
#
# 1 0.032385 0.007139 -0.017272 -0.009703 -0.035760 0.010185
# 2 0.007139 0.020886 -0.006126 -0.002503 -0.014004 0.014200
# 3 -0.017272 -0.006126 0.017628 0.003790 0.022159 -0.006803
# 4 -0.009703 -0.002503 0.003790 0.031973 0.013676 -0.001533
# 5 -0.035760 -0.014004 0.022159 0.013676 0.074739 -0.014965
# 6 0.010185 0.014200 -0.006803 -0.001533 -0.014965 0.036955
#
#
# Mechanical properties :
#
#
# Convention : Reuss Voigt Hill
#
# Bulk Modulus (GPa) = 26.05540 49.74161 37.89850
# Shear Modulus (GPa) = 19.23991 35.08606 27.16298
#
# Velocity S-wave (km/s) = 2.75264 3.71719 3.27067
# Velocity P-wave (km/s) = 4.51262 6.16542 5.40260
#
# Compressibility (1/GPa) = 0.03837976
#
# Stress axis : x y z
#
# Youngs Moduli (GPa) = 30.87886 47.87970 56.72910
#
# Poissons Ratio (x) = -0.34182 0.97983
# Poissons Ratio (y) = -0.22045 0.34753
# Poissons Ratio (z) = 0.53334 0.29331
#
# Static dielectric constant tensor:
#      x y z
#    x 2.005480 -0.036710 -0.020550 
#    y -0.036710 2.077540 0.033690 
#    z -0.020550 0.033690 2.023750 
# 
# From -- ./inp_files/70807.got.cif
#   From: 2010.05.17/outbox.cif.g08.bks.cpg/sg2_36_cif.got.tgz:70807.got - 2010.06.03 11:33:40.
