data_PCOD9013985
_publ_section_title
;
Structure prediction by ZEFSAII (Michael W. Deem and Ramdas Pophale) SiO2 
 PCOD9013985
Probable space group: P -1
;
_chemical_formula_sum "Si O2"
_cell_formula_units_Z 16
_cell_length_a 19.588025
_cell_length_b 11.794484
_cell_length_c 9.343648
_cell_angle_alpha 59.350415
_cell_angle_beta 136.723268
_cell_angle_gamma 152.005707
_cell_volume 632.412454
_symmetry_space_group_name_H-M "P -1"
_symmetry_group_IT_number 2
_symmetry_cell_setting 'triclinic'
loop_
_space_group_symop_operation_xyz
x,y,z
-x,-y,-z
loop_
_atom_site_type_symbol
_atom_site_label
_atom_site_fract_x
_atom_site_fract_y
_atom_site_fract_z
Si Si1 0.692594 0.708596 0.832659
Si Si2 0.302189 0.389979 0.574500
Si Si3 0.919073 0.390292 0.106532
Si Si4 0.049062 0.768032 0.257248
Si Si5 0.801014 0.019784 0.331896
Si Si6 0.338073 0.541156 0.846874
Si Si7 0.482746 0.979116 0.814859
Si Si8 0.657902 0.433984 0.756353
O O1 0.522765 0.594795 0.728985
O O2 0.612686 0.520656 0.705712
O O3 0.837841 0.982025 0.809358
O O4 0.781662 0.704498 0.083695
O O5 0.320433 0.474954 0.700766
O O6 0.243577 0.423290 0.338200
O O7 0.178053 0.112293 0.567999
O O8 0.915574 0.234820 0.249304
O O9 0.044728 0.626285 0.255086
O O10 0.686557 0.168715 0.919580
O O11 0.000000 0.500000 0.000000
O O12 0.126403 0.851260 0.483944
O O13 0.817047 0.546346 0.030274
O O14 0.564928 0.780127 0.101663
O O15 0.320025 0.678790 0.730956
O O16 0.472301 0.120948 0.663365
O O17 0.500000 0.000000 0.000000
#
# Coordination Sequence:
#
# PCOD9013985 Si02
#       8
#     2   2   2   2   2   2   2   2
#     4  11  21  38  67  94 126 172 225 270 321 398
#     4  11  24  39  66  97 130 172 220 279 328 387
#     4  10  24  41  67 100 134 172 223 278 334 393
#     4  11  24  39  67  96 133 178 215 276 330 400
#     4  10  21  41  66  93 129 171 225 269 326 398
#     4  10  23  40  66  93 127 169 229 273 326 383
#     4  10  21  42  69  90 132 178 218 273 326 397
#     4  11  23  42  62  97 135 166 225 268 335 395
#
# _framework density 25.299947
#
# number of rings (size 3 to 8) (size 9 to 14) (size 15 to 20)
#    0.000    1.500    2.500    2.625    7.000    0.500 
#    0.000    3.125   11.000    0.000    0.000    0.000 
#    0.000    0.000    0.000    0.000    0.000    0.000 
#
# Total GULP energy -89527.869183 kJ/mol
# GULP energy per Si atom -5595.491824 kJ/mol
# Density = 2.524236 g / cm^3
# Si number density = 25.299947 Si / 1000 Ang^3
#
#
#
# Elastic Constant Matrix: (Units=GPa)
#
#
# Indices 1 2 3 4 5 6 
#
# 1 89.3621 38.2430 31.2363 -7.2187 -33.7128 -4.8493
# 2 38.2430 187.3979 49.7482 -52.0704 -12.9072 -8.5089
# 3 31.2363 49.7482 99.7912 -8.2548 -24.6854 2.9004
# 4 -7.2187 -52.0704 -8.2548 53.8891 16.9508 1.2439
# 5 -33.7128 -12.9072 -24.6854 16.9508 54.2925 3.6454
# 6 -4.8493 -8.5089 2.9004 1.2439 3.6454 48.1544
#
#
#
# Elastic Compliance Matrix: (Units=1/GPa)
#
#
# Indices 1 2 3 4 5 6 
#
# 1 0.016781 -0.003691 -0.001238 -0.004806 0.010451 0.000445
# 2 -0.003691 0.009613 -0.004127 0.009704 -0.005028 0.001705
# 3 -0.001238 -0.004127 0.013638 -0.003838 0.005784 -0.002014
# 4 -0.004806 0.009704 -0.003838 0.030450 -0.012036 0.001586
# 5 0.010451 -0.005028 0.005784 -0.012036 0.030246 -0.002163
# 6 0.000445 0.001705 -0.002014 0.001586 -0.002163 0.021357
#
#
# Mechanical properties :
#
#
# Convention : Reuss Voigt Hill
#
# Bulk Modulus (GPa) = 45.62287 68.33404 56.97845
# Shear Modulus (GPa) = 33.89740 48.42210 41.15975
#
# Velocity S-wave (km/s) = 3.66433 4.37958 4.03782
# Velocity P-wave (km/s) = 5.99792 7.25552 6.65648
#
# Compressibility (1/GPa) = 0.02191883
#
# Stress axis : x y z
#
# Youngs Moduli (GPa) = 59.58968 104.03059 73.32521
#
# Poissons Ratio (x) = 0.38402 0.09077
# Poissons Ratio (y) = 0.21997 0.30262
# Poissons Ratio (z) = 0.07377 0.42935
#
# Static dielectric constant tensor:
#      x y z
#    x 2.015730 0.016970 0.113200 
#    y 0.016970 2.021840 0.004840 
#    z 0.113200 0.004840 2.079510 
# 
# From -- ./inp_files/346043.got.cif
#   From: 2010.05.17/outbox.cif.g08.bks.cpg/sg2_174_cif.got.tgz:346043.got - 2010.06.03 11:33:40.
