data_PCOD9013701
_publ_section_title
;
Structure prediction by ZEFSAII (Michael W. Deem and Ramdas Pophale) SiO2 
 PCOD9013701
Probable space group: P -1
;
_chemical_formula_sum "Si O2"
_cell_formula_units_Z 16
_cell_length_a 24.869143
_cell_length_b 18.876067
_cell_length_c 15.675182
_cell_angle_alpha 150.944255
_cell_angle_beta 18.783930
_cell_angle_gamma 159.268390
_cell_volume 834.626975
_symmetry_space_group_name_H-M "P -1"
_symmetry_group_IT_number 2
_symmetry_cell_setting 'triclinic'
loop_
_space_group_symop_operation_xyz
x,y,z
-x,-y,-z
loop_
_atom_site_type_symbol
_atom_site_label
_atom_site_fract_x
_atom_site_fract_y
_atom_site_fract_z
Si Si1 0.468052 0.378776 0.002177
Si Si2 0.009896 0.144511 0.530077
Si Si3 0.267915 0.947686 0.805260
Si Si4 0.715166 0.026990 0.681908
Si Si5 0.987728 0.640045 0.559348
Si Si6 0.028522 0.225579 0.771486
Si Si7 0.473900 0.407416 0.533823
Si Si8 0.934483 0.655419 0.848428
O O1 0.283334 0.328118 0.294740
O O2 0.500000 0.500000 0.000000
O O3 0.716516 0.488441 0.783368
O O4 0.339668 0.157336 0.929261
O O5 0.945094 0.188312 0.760501
O O6 0.873427 0.111476 0.617106
O O7 0.952736 0.938441 0.413134
O O8 0.104324 0.826871 0.843259
O O9 0.500000 0.000000 0.500000
O O10 0.140349 0.821357 0.950341
O O11 0.631138 0.815320 0.558437
O O12 0.863996 0.185164 0.548659
O O13 0.500000 0.000000 0.000000
O O14 0.015341 0.718646 0.696100
O O15 0.067963 0.519489 0.313414
O O16 0.275211 0.446233 0.647203
O O17 0.500000 0.500000 0.500000
O O18 0.307078 0.409725 0.842373
#
# Coordination Sequence:
#
# PCOD9013701 Si02
#       8
#     2   2   2   2   2   2   2   2
#     4  11  21  41  66  90 128 165 203 260 329 372
#     4  10  21  41  65  94 122 166 211 257 314 376
#     4  11  22  39  63  93 122 163 211 259 309 377
#     4  12  26  42  64  95 134 168 209 265 324 375
#     4  11  25  43  65  96 128 168 211 268 319 376
#     4  10  22  39  67  93 121 164 217 257 303 379
#     4  12  21  42  68  94 127 172 212 260 317 377
#     4  11  24  43  68  92 127 167 220 261 317 379
#
# _framework density 19.170241000000001
#
# number of rings (size 3 to 8) (size 9 to 14) (size 15 to 20)
#    0.000    1.000    5.000    2.250    0.000    1.500 
#    2.250    0.625    0.000    0.000    0.000    0.000 
#    0.000    0.000    0.000    0.000    0.000    0.000 
#
# Total GULP energy -89413.939614 kJ/mol
# GULP energy per Si atom -5588.371226 kJ/mol
# Density = 1.912661 g / cm^3
# Si number density = 19.170241 Si / 1000 Ang^3
#
#
#
# Elastic Constant Matrix: (Units=GPa)
#
#
# Indices 1 2 3 4 5 6 
#
# 1 138.4189 63.6789 59.0059 -6.8839 35.3900 -4.3254
# 2 63.6789 94.1924 50.7143 -21.2329 16.8424 -0.3078
# 3 59.0059 50.7143 139.0887 -13.2175 13.0401 6.3058
# 4 -6.8839 -21.2329 -13.2175 23.7184 -0.9400 -0.6726
# 5 35.3900 16.8424 13.0401 -0.9400 27.0694 6.3265
# 6 -4.3254 -0.3078 6.3058 -0.6726 6.3265 26.3522
#
#
#
# Elastic Compliance Matrix: (Units=1/GPa)
#
#
# Indices 1 2 3 4 5 6 
#
# 1 0.016372 -0.006944 -0.003502 -0.003889 -0.017283 0.007494
# 2 -0.006944 0.020590 -0.003016 0.014679 -0.001924 0.000659
# 3 -0.003502 -0.003016 0.009862 0.001781 0.002596 -0.003548
# 4 -0.003889 0.014679 0.001781 0.055072 -0.003299 0.001304
# 5 -0.017283 -0.001924 0.002596 -0.003299 0.063781 -0.018877
# 6 0.007494 0.000659 -0.003548 0.001304 -0.018877 0.044599
#
#
# Mechanical properties :
#
#
# Convention : Reuss Voigt Hill
#
# Bulk Modulus (GPa) = 50.25615 79.83315 65.04465
# Shear Modulus (GPa) = 20.50576 28.64805 24.57691
#
# Velocity S-wave (km/s) = 3.27412 3.86994 3.58444
# Velocity P-wave (km/s) = 6.36913 7.85515 7.15084
#
# Compressibility (1/GPa) = 0.01989806
#
# Stress axis : x y z
#
# Youngs Moduli (GPa) = 61.08148 48.56693 101.39930
#
# Poissons Ratio (x) = 0.33726 0.35514
# Poissons Ratio (y) = 0.42416 0.30584
# Poissons Ratio (z) = 0.21393 0.14649
#
# Static dielectric constant tensor:
#      x y z
#    x 1.660830 0.006560 0.005510 
#    y 0.006560 1.631920 -0.005590 
#    z 0.005510 -0.005590 1.695310 
# 
# From -- ./inp_files/272391.got.cif
#   From: 2010.05.17/outbox.cif.g08.bks.cpg/sg2_137_cif.got.tgz:272391.got - 2010.06.03 11:33:40.
