data_PCOD9013322
_publ_section_title
;
Structure prediction by ZEFSAII (Michael W. Deem and Ramdas Pophale) SiO2 
 PCOD9013322
Probable space group: P -1
;
_chemical_formula_sum "Si O2"
_cell_formula_units_Z 16
_cell_length_a 18.282070
_cell_length_b 9.020879
_cell_length_c 5.709888
_cell_angle_alpha 50.726093
_cell_angle_beta 96.461139
_cell_angle_gamma 88.789334
_cell_volume 719.107895
_symmetry_space_group_name_H-M "P -1"
_symmetry_group_IT_number 2
_symmetry_cell_setting 'triclinic'
loop_
_space_group_symop_operation_xyz
x,y,z
-x,-y,-z
loop_
_atom_site_type_symbol
_atom_site_label
_atom_site_fract_x
_atom_site_fract_y
_atom_site_fract_z
Si Si1 0.433604 0.514730 0.650635
Si Si2 0.019889 0.887089 0.371135
Si Si3 0.214986 0.354560 0.066872
Si Si4 0.161194 0.695456 0.393843
Si Si5 0.660621 0.706209 0.452837
Si Si6 0.102441 0.380454 0.384513
Si Si7 0.772821 0.931126 0.024726
Si Si8 0.483548 0.209719 0.379532
O O1 0.500000 0.500000 0.500000
O O2 0.360133 0.462763 0.554670
O O3 0.441288 0.719463 0.563823
O O4 0.454315 0.356414 0.016654
O O5 0.106352 0.812599 0.444388
O O6 0.975786 0.699328 0.549718
O O7 0.000000 0.000000 0.500000
O O8 0.000000 0.000000 0.000000
O O9 0.278866 0.375834 0.254135
O O10 0.135002 0.381284 0.134929
O O11 0.212093 0.521735 0.708394
O O12 0.229243 0.143455 0.168244
O O13 0.112272 0.584424 0.305092
O O14 0.208367 0.854353 0.146995
O O15 0.698113 0.873459 0.169803
O O16 0.582846 0.783444 0.465223
O O17 0.159318 0.213886 0.696831
O O18 0.500000 0.000000 0.500000
#
# Coordination Sequence:
#
# PCOD9013322 Si02
#       8
#     2   2   2   2   2   2   2   2
#     4   9  20  40  64  91 128 163 204 268 322 393
#     4  12  26  44  74 102 140 186 234 295 365 413
#     4  10  23  41  65  92 130 179 225 281 333 412
#     4  11  24  42  69  96 134 177 234 281 346 406
#     4  10  21  41  64  90 135 172 215 268 339 396
#     4  10  23  42  66  96 132 172 230 285 349 408
#     4  10  21  43  62  90 132 175 221 279 336 404
#     4  10  21  41  67  96 127 166 214 267 333 397
#
# _framework density 22.249790999999998
#
# number of rings (size 3 to 8) (size 9 to 14) (size 15 to 20)
#    0.000    1.750    1.250    1.875    3.500    4.500 
#    0.000   30.000    0.000    0.000    0.000    0.000 
#    0.000    0.000    0.000    0.000    0.000    0.000 
#
# Total GULP energy -89367.244650 kJ/mol
# GULP energy per Si atom -5585.452791 kJ/mol
# Density = 2.219915 g / cm^3
# Si number density = 22.249791 Si / 1000 Ang^3
#
#
#
# Elastic Constant Matrix: (Units=GPa)
#
#
# Indices 1 2 3 4 5 6 
#
# 1 102.9128 40.2372 32.8076 -7.2914 -35.1898 18.4910
# 2 40.2372 141.1087 55.6809 -17.4535 -23.0556 21.9531
# 3 32.8076 55.6809 55.6590 -11.0881 -27.7564 15.6894
# 4 -7.2914 -17.4535 -11.0881 36.3042 4.8688 -11.1408
# 5 -35.1898 -23.0556 -27.7564 4.8688 37.4366 1.3884
# 6 18.4910 21.9531 15.6894 -11.1408 1.3884 42.6763
#
#
#
# Elastic Compliance Matrix: (Units=1/GPa)
#
#
# Indices 1 2 3 4 5 6 
#
# 1 0.016851 -0.001918 0.002445 -0.001578 0.016979 -0.008177
# 2 -0.001918 0.012259 -0.012583 0.002131 -0.003854 -0.000167
# 3 0.002445 -0.012583 0.048341 0.001070 0.030736 -0.013079
# 4 -0.001578 0.002131 0.001070 0.031385 -0.003738 0.007509
# 5 0.016979 -0.003854 0.030736 -0.003738 0.064305 -0.019742
# 6 -0.008177 -0.000167 -0.013079 0.007509 -0.019742 0.034472
#
#
# Mechanical properties :
#
#
# Convention : Reuss Voigt Hill
#
# Bulk Modulus (GPa) = 18.74873 61.90354 40.32613
# Shear Modulus (GPa) = 20.03957 34.68042 27.35999
#
# Velocity S-wave (km/s) = 3.00436 3.95230 3.51048
# Velocity P-wave (km/s) = 4.52545 6.97926 5.88174
#
# Compressibility (1/GPa) = 0.05333695
#
# Stress axis : x y z
#
# Youngs Moduli (GPa) = 59.34343 81.57301 20.68626
#
# Poissons Ratio (x) = 0.15649 -0.05057
# Poissons Ratio (y) = 0.11385 0.26030
# Poissons Ratio (z) = -0.14507 1.02646
#
# Static dielectric constant tensor:
#      x y z
#    x 1.827770 0.011600 -0.003330 
#    y 0.011600 1.858700 0.047890 
#    z -0.003330 0.047890 1.835130 
# 
# From -- ./inp_files/10750.got.cif
#   From: 2010.05.17/outbox.cif.g08.bks.cpg/sg2_6_cif.got.tgz:10750.got - 2010.06.03 11:33:40.
