data_PCOD9013606
_publ_section_title
;
Structure prediction by ZEFSAII (Michael W. Deem and Ramdas Pophale) SiO2 
 PCOD9013606
Probable space group: P -1
;
_chemical_formula_sum "Si O2"
_cell_formula_units_Z 16
_cell_length_a 7.752289
_cell_length_b 10.194253
_cell_length_c 12.257947
_cell_angle_alpha 78.718811
_cell_angle_beta 53.977477
_cell_angle_gamma 84.736025
_cell_volume 768.026123
_symmetry_space_group_name_H-M "P -1"
_symmetry_group_IT_number 2
_symmetry_cell_setting 'triclinic'
loop_
_space_group_symop_operation_xyz
x,y,z
-x,-y,-z
loop_
_atom_site_type_symbol
_atom_site_label
_atom_site_fract_x
_atom_site_fract_y
_atom_site_fract_z
Si Si1 0.507208 0.476271 0.874693
Si Si2 0.562034 0.634606 0.392422
Si Si3 0.549350 0.987921 0.113601
Si Si4 0.309753 0.751386 0.847101
Si Si5 0.816610 0.723263 0.087773
Si Si6 0.406251 0.850887 0.555005
Si Si7 0.845220 0.380884 0.615534
Si Si8 0.152544 0.884232 0.428648
O O1 0.450453 0.618808 0.819493
O O2 0.326472 0.366848 0.926337
O O3 0.735772 0.421031 0.762445
O O4 0.500000 0.500000 0.000000
O O5 0.500000 0.500000 0.500000
O O6 0.765554 0.657435 0.235807
O O7 0.573412 0.748633 0.460922
O O8 0.366326 0.640314 0.377906
O O9 0.726147 0.874280 0.088338
O O10 0.345985 0.938301 0.270523
O O11 0.616609 0.132846 0.113927
O O12 0.500000 0.000000 0.000000
O O13 0.327064 0.809721 0.709543
O O14 0.063769 0.716955 0.970006
O O15 0.230694 0.840342 0.526793
O O16 0.500000 0.000000 0.500000
O O17 0.952096 0.239033 0.580247
O O18 0.000000 0.500000 0.500000
O O19 0.000000 0.000000 0.500000
#
# Coordination Sequence:
#
# PCOD9013606 Si02
#       8
#     2   2   2   2   2   2   2   2
#     4  11  24  44  67  99 140 176 224 286 336 408
#     4  10  21  41  65  90 130 171 209 277 333 386
#     4  12  25  47  67  97 141 180 227 287 345 403
#     4  12  26  40  72 103 129 188 230 276 350 406
#     4  11  23  47  64  99 140 173 235 277 337 415
#     4  11  21  42  64  95 136 168 224 281 326 402
#     4  10  23  42  64  93 130 169 221 270 333 399
#     4  11  25  44  68  99 134 178 226 284 342 405
#
# _framework density 20.832625
#
# number of rings (size 3 to 8) (size 9 to 14) (size 15 to 20)
#    0.000    1.000    5.000    3.000    3.500    4.000 
#    0.000    0.000    0.000    0.000    0.000    0.000 
#    0.000    0.000    0.000    0.000    0.000    0.000 
#
# Total GULP energy -89314.755348 kJ/mol
# GULP energy per Si atom -5582.172209 kJ/mol
# Density = 2.078521 g / cm^3
# Si number density = 20.832625 Si / 1000 Ang^3
#
#
#
# Elastic Constant Matrix: (Units=GPa)
#
#
# Indices 1 2 3 4 5 6 
#
# 1 36.9663 13.0585 39.0100 7.8382 7.5392 7.3737
# 2 13.0585 141.6135 39.3407 15.5278 -6.2016 15.6289
# 3 39.0100 39.3407 164.3144 14.1150 11.3155 12.8572
# 4 7.8382 15.5278 14.1150 40.0120 5.3026 3.5625
# 5 7.5392 -6.2016 11.3155 5.3026 31.9279 -7.1444
# 6 7.3737 15.6289 12.8572 3.5625 -7.1444 39.0329
#
#
#
# Elastic Compliance Matrix: (Units=1/GPa)
#
#
# Indices 1 2 3 4 5 6 
#
# 1 0.038826 -0.000776 -0.007837 -0.003090 -0.007256 -0.005488
# 2 -0.000776 0.008167 -0.001554 -0.002602 0.002316 -0.001950
# 3 -0.007837 -0.001554 0.008554 -0.000582 -0.001600 -0.000954
# 4 -0.003090 -0.002602 -0.000582 0.027542 -0.004483 -0.001517
# 5 -0.007256 0.002316 -0.001600 -0.004483 0.036603 0.008079
# 6 -0.005488 -0.001950 -0.000954 -0.001517 0.008079 0.029368
#
#
# Mechanical properties :
#
#
# Convention : Reuss Voigt Hill
#
# Bulk Modulus (GPa) = 28.40057 58.41252 43.40654
# Shear Modulus (GPa) = 27.60392 38.96023 33.28207
#
# Velocity S-wave (km/s) = 3.64405 4.32922 4.00133
# Velocity P-wave (km/s) = 5.60070 7.28624 6.49835
#
# Compressibility (1/GPa) = 0.03521056
#
# Stress axis : x y z
#
# Youngs Moduli (GPa) = 25.75571 122.44600 116.91066
#
# Poissons Ratio (x) = 0.09506 0.91627
# Poissons Ratio (y) = 0.01999 0.18173
# Poissons Ratio (z) = 0.20186 0.19033
#
# Static dielectric constant tensor:
#      x y z
#    x 1.797970 -0.076750 0.000050 
#    y -0.076750 1.816660 -0.000310 
#    z 0.000050 -0.000310 1.690410 
# 
# From -- ./inp_files/298739.got.cif
#   From: 2010.05.17/outbox.cif.g08.bks.cpg/sg2_150_cif.got.tgz:298739.got - 2010.06.03 11:33:40.
