data_PCOD9013308
_publ_section_title
;
Structure prediction by ZEFSAII (Michael W. Deem and Ramdas Pophale) SiO2 
 PCOD9013308
Probable space group: P -1
;
_chemical_formula_sum "Si O2"
_cell_formula_units_Z 16
_cell_length_a 26.265276
_cell_length_b 26.415691
_cell_length_c 7.976537
_cell_angle_alpha 46.418522
_cell_angle_beta 44.672969
_cell_angle_gamma 11.032766
_cell_volume 743.079582
_symmetry_space_group_name_H-M "P -1"
_symmetry_group_IT_number 2
_symmetry_cell_setting 'triclinic'
loop_
_space_group_symop_operation_xyz
x,y,z
-x,-y,-z
loop_
_atom_site_type_symbol
_atom_site_label
_atom_site_fract_x
_atom_site_fract_y
_atom_site_fract_z
Si Si1 0.114787 0.049400 0.757416
Si Si2 0.126952 0.322570 0.988901
Si Si3 0.679682 0.515946 0.268890
Si Si4 0.643620 0.979901 0.265998
Si Si5 0.433182 0.481007 0.194728
Si Si6 0.247581 0.977955 0.975996
Si Si7 0.713034 0.774255 0.696755
Si Si8 0.028652 0.269628 0.254226
O O1 0.131215 0.104804 0.482316
O O2 0.799377 0.319243 0.855400
O O3 0.302501 0.812699 0.788775
O O4 0.215874 0.972605 0.882429
O O5 0.957584 0.499040 0.816403
O O6 0.451594 0.021123 0.874806
O O7 0.033030 0.330972 0.229848
O O8 0.000000 0.500000 0.000000
O O9 0.672680 0.449654 0.536545
O O10 0.414816 0.778470 0.178723
O O11 0.745669 0.511810 0.269933
O O12 0.940714 0.275295 0.084861
O O13 0.803213 0.770331 0.468242
O O14 0.394247 0.166216 0.352733
O O15 0.779734 0.884056 0.997363
O O16 0.602961 0.085443 0.234359
O O17 0.500000 0.500000 0.000000
#
# Coordination Sequence:
#
# PCOD9013308 Si02
#       8
#     2   2   2   2   2   2   2   2
#     4  11  24  41  65 100 127 159 211 258 310 365
#     4  11  23  38  56  83 123 156 207 260 319 347
#     4  10  21  41  64  90 122 170 208 244 309 379
#     4   9  20  38  62  82 117 163 209 254 309 364
#     4  11  23  45  70  95 128 168 203 245 305 386
#     4  11  22  39  63  94 129 160 209 263 309 356
#     4  10  22  38  56  84 112 163 215 252 306 377
#     4   9  21  40  64  85 123 166 211 254 303 377
#
# _framework density 21.532012999999999
#
# number of rings (size 3 to 8) (size 9 to 14) (size 15 to 20)
#    0.000    1.750    0.000    4.500    1.750    9.500 
#    4.500    3.750    0.000    0.000    0.000    0.000 
#    0.000    0.000    0.000    0.000    0.000    0.000 
#
# Total GULP energy -89319.221163 kJ/mol
# GULP energy per Si atom -5582.451323 kJ/mol
# Density = 2.148300 g / cm^3
# Si number density = 21.532013 Si / 1000 Ang^3
#
#
#
# Elastic Constant Matrix: (Units=GPa)
#
#
# Indices 1 2 3 4 5 6 
#
# 1 108.8931 24.7531 61.2253 -14.4512 -18.0249 -1.0632
# 2 24.7531 90.7572 14.5798 -10.2815 -2.9794 0.2446
# 3 61.2253 14.5798 101.6850 -12.7128 -39.5447 -2.4959
# 4 -14.4512 -10.2815 -12.7128 28.3447 0.7593 3.0545
# 5 -18.0249 -2.9794 -39.5447 0.7593 34.1139 -8.0859
# 6 -1.0632 0.2446 -2.4959 3.0545 -8.0859 29.2648
#
#
#
# Elastic Compliance Matrix: (Units=1/GPa)
#
#
# Indices 1 2 3 4 5 6 
#
# 1 0.015020 -0.002309 -0.010241 0.002551 -0.004633 -0.001855
# 2 -0.002309 0.012023 -0.000204 0.003186 -0.000646 -0.000713
# 3 -0.010241 -0.000204 0.028620 0.005689 0.029931 0.009747
# 4 0.002551 0.003186 0.005689 0.040291 0.006911 -0.001745
# 5 -0.004633 -0.000646 0.029931 0.006911 0.066074 0.019925
# 6 -0.001855 -0.000713 0.009747 -0.001745 0.019925 0.040628
#
#
# Mechanical properties :
#
#
# Convention : Reuss Voigt Hill
#
# Bulk Modulus (GPa) = 33.16266 55.82797 44.49532
# Shear Modulus (GPa) = 20.98945 31.72981 26.35963
#
# Velocity S-wave (km/s) = 3.12557 3.84293 3.50266
# Velocity P-wave (km/s) = 5.33485 6.75833 6.08833
#
# Compressibility (1/GPa) = 0.03015439
#
# Stress axis : x y z
#
# Youngs Moduli (GPa) = 66.57940 83.17604 34.94042
#
# Poissons Ratio (x) = 0.19209 0.35782
# Poissons Ratio (y) = 0.15376 0.00712
# Poissons Ratio (z) = 0.68182 0.01695
#
# Static dielectric constant tensor:
#      x y z
#    x 1.862350 -0.006070 0.038530 
#    y -0.006070 1.820400 0.001120 
#    z 0.038530 0.001120 1.812830 
# 
# From -- ./inp_files/357957.got.cif
#   From: 2010.05.17/outbox.cif.g08.bks.cpg/sg2_179_cif.got.tgz:357957.got - 2010.06.03 11:33:40.
