data_PCOD9013434
_publ_section_title
;
Structure prediction by ZEFSAII (Michael W. Deem and Ramdas Pophale) SiO2 
 PCOD9013434
Probable space group: P -1
;
_chemical_formula_sum "Si O2"
_cell_formula_units_Z 14
_cell_length_a 10.598067
_cell_length_b 27.891049
_cell_length_c 14.275846
_cell_angle_alpha 160.144656
_cell_angle_beta 150.373852
_cell_angle_gamma 24.115976
_cell_volume 583.824084
_symmetry_space_group_name_H-M "P -1"
_symmetry_group_IT_number 2
_symmetry_cell_setting 'triclinic'
loop_
_space_group_symop_operation_xyz
x,y,z
-x,-y,-z
loop_
_atom_site_type_symbol
_atom_site_label
_atom_site_fract_x
_atom_site_fract_y
_atom_site_fract_z
Si Si1 0.298388 0.388718 0.920623
Si Si2 0.418062 0.725252 0.303344
Si Si3 0.276643 0.095230 0.868767
Si Si4 0.737854 0.656198 0.554197
Si Si5 0.276869 0.561057 0.605321
Si Si6 0.335604 0.061774 0.354475
Si Si7 0.337050 0.763854 0.851727
O O1 0.324548 0.369532 0.788511
O O2 0.420284 0.196144 0.677599
O O3 0.499344 0.462314 0.209724
O O4 0.000000 0.500000 0.000000
O O5 0.505559 0.642935 0.312887
O O6 0.091905 0.767811 0.131841
O O7 0.335271 0.918327 0.617707
O O8 0.449799 0.047853 0.795282
O O9 0.407915 0.176949 0.169610
O O10 0.000000 0.500000 0.500000
O O11 0.937999 0.667647 0.622889
O O12 0.324040 0.666975 0.753958
O O13 0.383375 0.381452 0.298765
O O14 0.978987 0.169223 0.286297
O O15 0.363315 0.919957 0.180168
#
# Coordination Sequence:
#
# PCOD9013434 Si02
#       7
#     2   2   2   2   2   2   2
#     4  11  21  40  66  95 133 173 216 272 333 393
#     4  10  23  42  68  94 131 172 220 271 323 399
#     4  10  21  43  65  96 130 172 217 266 330 390
#     4  12  25  42  68  98 130 175 221 271 332 393
#     4  11  22  40  64  94 129 175 218 269 336 390
#     4  10  21  41  64  95 131 167 220 276 323 394
#     4  10  22  39  65  93 128 173 222 271 327 393
#
# _framework density 23.979827
#
# number of rings (size 3 to 8) (size 9 to 14) (size 15 to 20)
#    0.000    1.429    2.857    3.000    2.000    1.143 
#    0.000    0.000    0.000    0.000    0.000    0.000 
#    0.000    0.000    0.000    0.000    0.000    0.000 
#
# Total GULP energy -78166.861327 kJ/mol
# GULP energy per Si atom -5583.347238 kJ/mol
# Density = 2.392525 g / cm^3
# Si number density = 23.979827 Si / 1000 Ang^3
#
#
#
# Elastic Constant Matrix: (Units=GPa)
#
#
# Indices 1 2 3 4 5 6 
#
# 1 63.7153 25.8916 26.9864 19.9776 -27.0443 2.8935
# 2 25.8916 81.8445 12.4275 -0.1987 -16.8302 10.6399
# 3 26.9864 12.4275 111.9160 7.2561 -16.0216 14.0809
# 4 19.9776 -0.1987 7.2561 25.2566 -3.0890 -4.2819
# 5 -27.0443 -16.8302 -16.0216 -3.0890 38.6569 3.6264
# 6 2.8935 10.6399 14.0809 -4.2819 3.6264 47.0400
#
#
#
# Elastic Compliance Matrix: (Units=1/GPa)
#
#
# Indices 1 2 3 4 5 6 
#
# 1 0.036333 -0.006592 -0.003070 -0.026148 0.019535 -0.003711
# 2 -0.006592 0.015224 0.000339 0.005092 0.002835 -0.002894
# 3 -0.003070 0.000339 0.010476 -0.000822 0.002585 -0.003298
# 4 -0.026148 0.005092 -0.000822 0.060261 -0.012271 0.007134
# 5 0.019535 0.002835 0.002585 -0.012271 0.041511 -0.006934
# 6 -0.003711 -0.002894 -0.003298 0.007134 -0.006934 0.024313
#
#
# Mechanical properties :
#
#
# Convention : Reuss Voigt Hill
#
# Bulk Modulus (GPa) = 23.04855 43.12077 33.08466
# Shear Modulus (GPa) = 22.60134 35.00205 28.80169
#
# Velocity S-wave (km/s) = 3.07337 3.82468 3.46942
# Velocity P-wave (km/s) = 4.71451 6.12579 5.46589
#
# Compressibility (1/GPa) = 0.04338668
#
# Stress axis : x y z
#
# Youngs Moduli (GPa) = 27.52349 65.68646 95.45399
#
# Poissons Ratio (x) = 0.43298 0.29306
# Poissons Ratio (y) = 0.18143 -0.03235
# Poissons Ratio (z) = 0.08450 -0.02226
#
# Static dielectric constant tensor:
#      x y z
#    x 1.918530 0.040030 0.024130 
#    y 0.040030 2.033070 -0.049630 
#    z 0.024130 -0.049630 1.936340 
# 
# From -- ./inp_files/226753.got.cif
#   From: 2010.05.17/outbox.cif.g08.bks.cpg/sg2_114_cif.got.tgz:226753.got - 2010.06.03 11:33:40.
