data_PCOD9013623
_publ_section_title
;
Structure prediction by ZEFSAII (Michael W. Deem and Ramdas Pophale) SiO2 
 PCOD9013623
Probable space group: P -1
;
_chemical_formula_sum "Si O2"
_cell_formula_units_Z 16
_cell_length_a 16.736782
_cell_length_b 16.691797
_cell_length_c 16.621325
_cell_angle_alpha 17.218709
_cell_angle_beta 38.170544
_cell_angle_gamma 36.004960
_cell_volume 805.616004
_symmetry_space_group_name_H-M "P -1"
_symmetry_group_IT_number 2
_symmetry_cell_setting 'triclinic'
loop_
_space_group_symop_operation_xyz
x,y,z
-x,-y,-z
loop_
_atom_site_type_symbol
_atom_site_label
_atom_site_fract_x
_atom_site_fract_y
_atom_site_fract_z
Si Si1 0.333498 0.307369 0.482749
Si Si2 0.874396 0.693810 0.861449
Si Si3 0.165335 0.835303 0.681681
Si Si4 0.433027 0.129322 0.013111
Si Si5 0.365500 0.733009 0.918821
Si Si6 0.892516 0.122763 0.127190
Si Si7 0.965671 0.493300 0.440045
Si Si8 0.471603 0.671818 0.549511
O O1 0.190923 0.320818 0.622972
O O2 0.426081 0.383301 0.404552
O O3 0.393044 0.999924 0.686366
O O4 0.307471 0.554117 0.199844
O O5 0.905503 0.940897 0.547427
O O6 0.845004 0.473591 0.033312
O O7 0.731552 0.816048 0.906604
O O8 0.000000 0.500000 0.000000
O O9 0.117732 0.903525 0.744233
O O10 0.322768 0.810951 0.572170
O O11 0.461888 0.414176 0.747487
O O12 0.500000 0.000000 0.000000
O O13 0.498527 0.900577 0.249414
O O14 0.250684 0.853066 0.826268
O O15 0.500000 0.500000 0.000000
O O16 0.006634 0.836450 0.283865
O O17 0.938357 0.386606 0.806974
O O18 0.000000 0.500000 0.500000
#
# Coordination Sequence:
#
# PCOD9013623 Si02
#       8
#     2   2   2   2   2   2   2   2
#     4  12  24  41  61  89 126 163 213 249 315 367
#     4  10  21  41  65  91 125 158 197 251 316 374
#     4  10  22  40  64  90 122 158 200 255 308 355
#     4  10  21  41  66  92 123 162 199 248 316 380
#     4  12  24  38  63  91 119 163 212 263 300 363
#     4  12  23  41  62  89 123 162 216 250 308 369
#     4  12  23  42  62  83 128 175 201 256 312 365
#     4  10  22  41  64  90 125 159 199 258 307 362
#
# _framework density 19.860579000000001
#
# number of rings (size 3 to 8) (size 9 to 14) (size 15 to 20)
#    0.000    1.000    2.500    4.500    0.000    3.000 
#    6.750    0.000    0.000    0.000    0.000    0.000 
#    0.000    0.000    0.000    0.000    0.000    0.000 
#
# Total GULP energy -89357.808067 kJ/mol
# GULP energy per Si atom -5584.863004 kJ/mol
# Density = 1.981538 g / cm^3
# Si number density = 19.860579 Si / 1000 Ang^3
#
#
#
# Elastic Constant Matrix: (Units=GPa)
#
#
# Indices 1 2 3 4 5 6 
#
# 1 74.2415 39.2375 -6.0991 6.9060 10.8460 -1.4986
# 2 39.2375 94.3145 7.1239 -3.0277 12.5187 13.0712
# 3 -6.0991 7.1239 59.9544 -9.0438 9.4235 1.0269
# 4 6.9060 -3.0277 -9.0438 28.0592 0.9421 2.0577
# 5 10.8460 12.5187 9.4235 0.9421 22.1918 0.7760
# 6 -1.4986 13.0712 1.0269 2.0577 0.7760 20.9030
#
#
#
# Elastic Compliance Matrix: (Units=1/GPa)
#
#
# Indices 1 2 3 4 5 6 
#
# 1 0.020002 -0.008976 0.003138 -0.005236 -0.006089 0.007635
# 2 -0.008976 0.016721 -0.001348 0.004553 -0.004271 -0.011323
# 3 0.003138 -0.001348 0.019476 0.005679 -0.009281 -0.000103
# 4 -0.005236 0.004553 0.005679 0.039913 -0.003860 -0.007287
# 5 -0.006089 -0.004271 -0.009281 -0.003860 0.054515 0.001046
# 6 0.007635 -0.011323 -0.000103 -0.007287 0.001046 0.056152
#
#
# Mechanical properties :
#
#
# Convention : Reuss Voigt Hill
#
# Bulk Modulus (GPa) = 23.90829 34.33722 29.12276
# Shear Modulus (GPa) = 21.26803 26.78068 24.02435
#
# Velocity S-wave (km/s) = 3.27596 3.67609 3.48178
# Velocity P-wave (km/s) = 5.13551 5.94515 5.55510
#
# Compressibility (1/GPa) = 0.04182649
#
# Stress axis : x y z
#
# Youngs Moduli (GPa) = 49.99442 59.80356 51.34568
#
# Poissons Ratio (x) = 0.53682 -0.16112
# Poissons Ratio (y) = 0.44877 0.06922
# Poissons Ratio (z) = -0.15688 0.08062
#
# Static dielectric constant tensor:
#      x y z
#    x 1.708280 0.002890 0.002590 
#    y 0.002890 1.695390 0.005710 
#    z 0.002590 0.005710 1.696220 
# 
# From -- ./inp_files/111545.got.cif
#   From: 2010.05.17/outbox.cif.g08.bks.cpg/sg2_56_cif.got.tgz:111545.got - 2010.06.03 11:33:40.
