data_PCOD9013204
_publ_section_title
;
Structure prediction by ZEFSAII (Michael W. Deem and Ramdas Pophale) SiO2 
 PCOD9013204
Probable space group: P -1
;
_chemical_formula_sum "Si O2"
_cell_formula_units_Z 16
_cell_length_a 12.380308
_cell_length_b 14.394484
_cell_length_c 9.349609
_cell_angle_alpha 103.827139
_cell_angle_beta 61.564548
_cell_angle_gamma 150.869029
_cell_volume 649.467180
_symmetry_space_group_name_H-M "P -1"
_symmetry_group_IT_number 2
_symmetry_cell_setting 'triclinic'
loop_
_space_group_symop_operation_xyz
x,y,z
-x,-y,-z
loop_
_atom_site_type_symbol
_atom_site_label
_atom_site_fract_x
_atom_site_fract_y
_atom_site_fract_z
Si Si1 0.329855 0.914137 0.345572
Si Si2 0.201246 0.134283 0.610722
Si Si3 0.398902 0.332765 0.834338
Si Si4 0.239389 0.425617 0.046664
Si Si5 0.877981 0.757953 0.513801
Si Si6 0.844925 0.294635 0.337749
Si Si7 0.234319 0.712952 0.096684
Si Si8 0.675157 0.389270 0.206309
O O1 0.199910 0.751384 0.484218
O O2 0.406950 0.901773 0.157514
O O3 0.109139 0.838117 0.407531
O O4 0.572782 0.128358 0.362120
O O5 0.220283 0.146233 0.773489
O O6 0.156274 0.210306 0.603202
O O7 0.466599 0.273623 0.418058
O O8 0.962145 0.901805 0.620282
O O9 0.569202 0.406335 0.882754
O O10 0.614748 0.525342 0.655472
O O11 0.249567 0.319620 0.990848
O O12 0.945607 0.261622 0.205321
O O13 0.337280 0.537697 0.878285
O O14 0.073746 0.526171 0.230002
O O15 0.982644 0.594576 0.141188
O O16 0.375065 0.744482 0.899569
#
# Coordination Sequence:
#
# PCOD9013204 Si02
#       8
#     2   2   2   2   2   2   2   2
#     4  11  22  40  66  92 127 169 211 258 319 376
#     4  11  24  42  67  96 127 171 208 266 317 373
#     4  11  22  43  68  93 127 172 210 259 322 375
#     4  10  22  41  65  96 130 163 214 262 313 381
#     4  11  23  41  67  98 126 162 221 261 305 386
#     4  10  22  42  60  96 129 162 213 266 306 384
#     4  10  22  40  64  91 126 174 206 262 318 366
#     4  10  21  41  63  95 133 160 217 260 311 384
#
# _framework density 24.635580000000001
#
# number of rings (size 3 to 8) (size 9 to 14) (size 15 to 20)
#    0.000    1.500    2.500    2.250    1.750    0.000 
#   13.500    8.750    0.000    0.000    0.000    0.000 
#    0.000    0.000    0.000    0.000    0.000    0.000 
#
# Total GULP energy -89591.521355 kJ/mol
# GULP energy per Si atom -5599.470085 kJ/mol
# Density = 2.457951 g / cm^3
# Si number density = 24.635580 Si / 1000 Ang^3
#
#
#
# Elastic Constant Matrix: (Units=GPa)
#
#
# Indices 1 2 3 4 5 6 
#
# 1 135.6171 21.0705 41.3657 7.6076 0.5176 17.9788
# 2 21.0705 56.9269 16.5939 16.0072 2.3625 6.4950
# 3 41.3657 16.5939 104.2398 22.2849 10.0923 10.5740
# 4 7.6076 16.0072 22.2849 33.7946 1.1612 4.2181
# 5 0.5176 2.3625 10.0923 1.1612 34.1762 -10.4017
# 6 17.9788 6.4950 10.5740 4.2181 -10.4017 22.0404
#
#
#
# Elastic Compliance Matrix: (Units=1/GPa)
#
#
# Indices 1 2 3 4 5 6 
#
# 1 0.009401 -0.002337 -0.002984 0.001798 -0.001114 -0.006418
# 2 -0.002337 0.021517 0.000071 -0.009157 -0.002322 -0.003812
# 3 -0.002984 0.000071 0.013352 -0.007360 -0.005183 -0.005030
# 4 0.001798 -0.009157 -0.007360 0.038633 0.000778 -0.002263
# 5 -0.001114 -0.002322 -0.005183 0.000778 0.037529 0.021642
# 6 -0.006418 -0.003812 -0.005030 -0.002263 0.021642 0.064790
#
#
# Mechanical properties :
#
#
# Convention : Reuss Voigt Hill
#
# Bulk Modulus (GPa) = 29.61182 50.53822 40.07502
# Shear Modulus (GPa) = 24.15723 32.51916 28.33820
#
# Velocity S-wave (km/s) = 3.13482 3.63713 3.39528
# Velocity P-wave (km/s) = 5.01486 6.18039 5.62788
#
# Compressibility (1/GPa) = 0.03377029
#
# Stress axis : x y z
#
# Youngs Moduli (GPa) = 106.36854 46.47557 74.89665
#
# Poissons Ratio (x) = 0.10861 0.22350
# Poissons Ratio (y) = 0.24856 -0.00533
# Poissons Ratio (z) = 0.31741 -0.00331
#
# Static dielectric constant tensor:
#      x y z
#    x 1.950600 -0.028830 0.017960 
#    y -0.028830 1.970140 -0.017120 
#    z 0.017960 -0.017120 1.950320 
# 
# From -- ./inp_files/273368.got.cif
#   From: 2010.05.17/outbox.cif.g08.bks.cpg/sg2_137_cif.got.tgz:273368.got - 2010.06.03 11:33:40.
