data_PCOD9013905
_publ_section_title
;
Structure prediction by ZEFSAII (Michael W. Deem and Ramdas Pophale) SiO2 
 PCOD9013905
Probable space group: P -1
;
_chemical_formula_sum "Si O2"
_cell_formula_units_Z 16
_cell_length_a 10.086314
_cell_length_b 14.948668
_cell_length_c 10.718044
_cell_angle_alpha 95.253565
_cell_angle_beta 39.244611
_cell_angle_gamma 120.977944
_cell_volume 722.555453
_symmetry_space_group_name_H-M "P -1"
_symmetry_group_IT_number 2
_symmetry_cell_setting 'triclinic'
loop_
_space_group_symop_operation_xyz
x,y,z
-x,-y,-z
loop_
_atom_site_type_symbol
_atom_site_label
_atom_site_fract_x
_atom_site_fract_y
_atom_site_fract_z
Si Si1 0.688060 0.938588 0.443829
Si Si2 0.698914 0.251133 0.788933
Si Si3 0.847138 0.737003 0.474683
Si Si4 0.760218 0.402786 0.960105
Si Si5 0.821449 0.629679 0.245041
Si Si6 0.829968 0.994842 0.734771
Si Si7 0.394586 0.885977 0.407547
Si Si8 0.068721 0.684686 0.816977
O O1 0.666912 0.958123 0.315661
O O2 0.399931 0.788076 0.648333
O O3 0.644168 0.018155 0.564478
O O4 0.978932 0.976851 0.280585
O O5 0.690294 0.349584 0.862066
O O6 0.586782 0.175799 0.730522
O O7 0.038218 0.321876 0.559978
O O8 0.494408 0.139610 0.027055
O O9 0.851165 0.725372 0.322003
O O10 0.543045 0.674136 0.751449
O O11 0.114240 0.885755 0.322119
O O12 0.951010 0.380690 0.882342
O O13 0.951184 0.551588 0.847450
O O14 0.500000 0.500000 0.500000
O O15 0.859459 0.657468 0.075107
O O16 0.000000 0.000000 0.500000
O O17 0.114678 0.764629 0.676737
#
# Coordination Sequence:
#
# PCOD9013905 Si02
#       8
#     2   2   2   2   2   2   2   2
#     4   9  22  41  67  92 129 164 217 269 320 362
#     4  11  25  41  65  94 132 172 219 257 320 386
#     4  11  24  40  63  97 133 165 212 265 327 383
#     4  11  23  42  64  97 135 165 212 270 320 383
#     4  11  23  36  66  98 127 166 208 264 328 383
#     4  12  23  38  67  98 128 170 207 272 331 375
#     4   9  22  43  64  92 129 172 221 263 308 385
#     4  10  21  41  66  89 132 169 208 267 317 382
#
# _framework density 22.143628
#
# number of rings (size 3 to 8) (size 9 to 14) (size 15 to 20)
#    0.750    0.750    2.500    2.250    5.250    1.000 
#    0.000    1.875    0.000    0.000    0.000    0.000 
#    0.000    0.000    0.000    0.000    0.000    0.000 
#
# Total GULP energy -89145.744863 kJ/mol
# GULP energy per Si atom -5571.609054 kJ/mol
# Density = 2.209323 g / cm^3
# Si number density = 22.143628 Si / 1000 Ang^3
#
#
#
# Elastic Constant Matrix: (Units=GPa)
#
#
# Indices 1 2 3 4 5 6 
#
# 1 43.9656 19.5321 22.0677 12.9940 -3.1069 11.7837
# 2 19.5321 154.3632 34.4710 11.5381 12.9633 33.9041
# 3 22.0677 34.4710 113.9778 8.7875 -6.8220 16.2248
# 4 12.9940 11.5381 8.7875 42.7335 7.9765 8.7897
# 5 -3.1069 12.9633 -6.8220 7.9765 33.0547 13.8889
# 6 11.7837 33.9041 16.2248 8.7897 13.8889 25.8371
#
#
#
# Elastic Compliance Matrix: (Units=1/GPa)
#
#
# Indices 1 2 3 4 5 6 
#
# 1 0.031402 -0.000336 -0.002505 -0.007792 0.010986 -0.015562
# 2 -0.000336 0.009286 -0.000954 0.000055 0.001199 -0.012096
# 3 -0.002505 -0.000954 0.010982 -0.000799 0.005652 -0.007269
# 4 -0.007792 0.000055 -0.000799 0.027549 -0.006850 -0.001707
# 5 0.010986 0.001199 0.005652 -0.006850 0.047684 -0.033435
# 6 -0.015562 -0.012096 -0.007269 -0.001707 -0.033435 0.084793
#
#
# Mechanical properties :
#
#
# Convention : Reuss Voigt Hill
#
# Bulk Modulus (GPa) = 22.68598 51.60536 37.14567
# Shear Modulus (GPa) = 21.36959 36.07411 28.72185
#
# Velocity S-wave (km/s) = 3.10989 4.04059 3.60539
# Velocity P-wave (km/s) = 4.81273 6.71743 5.84321
#
# Compressibility (1/GPa) = 0.04408010
#
# Stress axis : x y z
#
# Youngs Moduli (GPa) = 31.84522 107.69271 91.06120
#
# Poissons Ratio (x) = 0.03620 0.22807
# Poissons Ratio (y) = 0.01070 0.08686
# Poissons Ratio (z) = 0.07976 0.10273
#
# Static dielectric constant tensor:
#      x y z
#    x 1.909830 0.058430 0.029240 
#    y 0.058430 2.026890 0.070420 
#    z 0.029240 0.070420 1.801450 
# 
# From -- ./inp_files/434120.got.cif
#   From: 2010.05.17/outbox.cif.g08.bks.cpg/sg2_218_cif.got.tgz:434120.got - 2010.06.03 11:33:40.
