data_PCOD9013611
_publ_section_title
;
Structure prediction by ZEFSAII (Michael W. Deem and Ramdas Pophale) SiO2 
 PCOD9013611
Probable space group: P -1
;
_chemical_formula_sum "Si O2"
_cell_formula_units_Z 16
_cell_length_a 15.315363
_cell_length_b 9.887582
_cell_length_c 11.983323
_cell_angle_alpha 104.357160
_cell_angle_beta 27.402301
_cell_angle_gamma 114.627924
_cell_volume 726.200205
_symmetry_space_group_name_H-M "P -1"
_symmetry_group_IT_number 2
_symmetry_cell_setting 'triclinic'
loop_
_space_group_symop_operation_xyz
x,y,z
-x,-y,-z
loop_
_atom_site_type_symbol
_atom_site_label
_atom_site_fract_x
_atom_site_fract_y
_atom_site_fract_z
Si Si1 0.217326 0.522284 0.601041
Si Si2 0.078134 0.160324 0.009218
Si Si3 0.661809 0.181474 0.874023
Si Si4 0.561951 0.595378 0.830459
Si Si5 0.881645 0.275961 0.076412
Si Si6 0.240393 0.777372 0.477080
Si Si7 0.019493 0.881034 0.365517
Si Si8 0.690634 0.949723 0.124115
O O1 0.415915 0.500140 0.321622
O O2 0.234184 0.634747 0.710142
O O3 0.160421 0.604465 0.579714
O O4 0.017381 0.365678 0.834166
O O5 0.061130 0.275405 0.958799
O O6 0.899217 0.148046 0.296247
O O7 0.278643 0.172156 0.853662
O O8 0.000000 0.000000 0.000000
O O9 0.780049 0.227091 0.631730
O O10 0.805856 0.174255 0.807707
O O11 0.571809 0.307487 0.018859
O O12 0.500000 0.000000 0.000000
O O13 0.798429 0.731787 0.593860
O O14 0.500000 0.500000 0.000000
O O15 0.716084 0.100978 0.197117
O O16 0.480070 0.870864 0.272065
O O17 0.000000 0.000000 0.500000
O O18 0.105343 0.975779 0.173446
#
# Coordination Sequence:
#
# PCOD9013611 Si02
#       8
#     2   2   2   2   2   2   2   2
#     4  10  21  41  65  90 134 176 206 278 332 391
#     4   9  21  36  61  93 123 163 217 275 322 377
#     4  12  24  41  67 104 130 175 228 272 333 405
#     4  12  25  45  68  99 140 177 221 277 347 401
#     4   9  20  41  66  91 126 178 224 259 336 392
#     4  11  22  40  64  94 134 165 221 278 325 395
#     4  12  24  41  69  99 136 177 223 279 335 402
#     4  11  21  39  67  96 126 174 219 272 335 384
#
# _framework density 22.032491
#
# number of rings (size 3 to 8) (size 9 to 14) (size 15 to 20)
#    0.000    1.250    5.000    0.750    0.000    5.000 
#    0.000    1.875    0.000    0.000    0.000    0.000 
#    0.000    0.000    0.000    0.000    0.000    0.000 
#
# Total GULP energy -89256.020518 kJ/mol
# GULP energy per Si atom -5578.501282 kJ/mol
# Density = 2.198234 g / cm^3
# Si number density = 22.032491 Si / 1000 Ang^3
#
#
#
# Elastic Constant Matrix: (Units=GPa)
#
#
# Indices 1 2 3 4 5 6 
#
# 1 71.7107 32.0725 16.9504 -5.8185 7.9169 -18.8855
# 2 32.0725 119.7263 48.0347 23.7050 8.4563 -11.9005
# 3 16.9504 48.0347 89.2843 11.0934 24.1141 -12.3017
# 4 -5.8185 23.7050 11.0934 53.0753 3.4220 5.6421
# 5 7.9169 8.4563 24.1141 3.4220 41.5475 2.1138
# 6 -18.8855 -11.9005 -12.3017 5.6421 2.1138 38.3925
#
#
#
# Elastic Compliance Matrix: (Units=1/GPa)
#
#
# Indices 1 2 3 4 5 6 
#
# 1 0.018687 -0.004991 0.000719 0.003559 -0.003640 0.007553
# 2 -0.004991 0.012993 -0.005925 -0.005287 0.002164 0.000332
# 3 0.000719 -0.005925 0.017516 -0.000845 -0.009270 0.004764
# 4 0.003559 -0.005287 -0.000845 0.022178 -0.000767 -0.003376
# 5 -0.003640 0.002164 -0.009270 -0.000767 0.030052 -0.005632
# 6 0.007553 0.000332 0.004764 -0.003376 -0.005632 0.032198
#
#
# Mechanical properties :
#
#
# Convention : Reuss Voigt Hill
#
# Bulk Modulus (GPa) = 34.71875 52.75961 43.73918
# Shear Modulus (GPa) = 30.55886 38.84730 34.70308
#
# Velocity S-wave (km/s) = 3.72827 4.20358 3.97304
# Velocity P-wave (km/s) = 5.85880 6.89626 6.39859
#
# Compressibility (1/GPa) = 0.02880288
#
# Stress axis : x y z
#
# Youngs Moduli (GPa) = 53.51300 76.96241 57.08981
#
# Poissons Ratio (x) = 0.38414 -0.04105
# Poissons Ratio (y) = 0.26710 0.33823
# Poissons Ratio (z) = -0.03848 0.45597
#
# Static dielectric constant tensor:
#      x y z
#    x 2.172700 0.038920 0.036740 
#    y 0.038920 1.872830 0.004620 
#    z 0.036740 0.004620 1.818210 
# 
# From -- ./inp_files/447625.got.cif
#   From: 2010.05.17/outbox.cif.g08.bks.cpg/sg2_224_cif.got.tgz:447625.got - 2010.06.03 11:33:40.
