data_PCOD9013402
_publ_section_title
;
Structure prediction by ZEFSAII (Michael W. Deem and Ramdas Pophale) SiO2 
 PCOD9013402
Probable space group: P -1
;
_chemical_formula_sum "Si O2"
_cell_formula_units_Z 16
_cell_length_a 11.729557
_cell_length_b 12.585266
_cell_length_c 6.726538
_cell_angle_alpha 51.576197
_cell_angle_beta 96.324775
_cell_angle_gamma 96.729823
_cell_volume 771.676779
_symmetry_space_group_name_H-M "P -1"
_symmetry_group_IT_number 2
_symmetry_cell_setting 'triclinic'
loop_
_space_group_symop_operation_xyz
x,y,z
-x,-y,-z
loop_
_atom_site_type_symbol
_atom_site_label
_atom_site_fract_x
_atom_site_fract_y
_atom_site_fract_z
Si Si1 0.276433 0.684120 0.859363
Si Si2 0.309459 0.188695 0.363567
Si Si3 0.107262 0.761959 0.439999
Si Si4 0.543497 0.100658 0.566386
Si Si5 0.618254 0.532189 0.098474
Si Si6 0.260412 0.580201 0.400392
Si Si7 0.753155 0.962052 0.854229
Si Si8 0.835238 0.716850 0.414553
O O1 0.155180 0.732590 0.704859
O O2 0.374236 0.779638 0.656405
O O3 0.288672 0.535071 0.944624
O O4 0.293355 0.672766 0.109422
O O5 0.422847 0.154022 0.551308
O O6 0.257485 0.070070 0.347551
O O7 0.217219 0.244925 0.427702
O O8 0.355744 0.307561 0.083571
O O9 0.174763 0.662669 0.423762
O O10 0.972546 0.735556 0.424332
O O11 0.152061 0.916643 0.224912
O O12 0.500000 0.000000 0.500000
O O13 0.629181 0.020804 0.814130
O O14 0.632575 0.460569 0.396052
O O15 0.500000 0.500000 0.000000
O O16 0.202504 0.436276 0.482116
O O17 0.785857 0.827523 0.127860
#
# Coordination Sequence:
#
# PCOD9013402 Si02
#       8
#     2   2   2   2   2   2   2   2
#     4  10  21  41  64  94 125 171 215 255 328 378
#     4  11  22  40  65  95 131 167 213 267 324 381
#     4  10  25  43  65  94 133 173 216 274 316 378
#     4   9  20  40  62  89 129 166 203 267 315 379
#     4  11  21  40  62  94 135 162 207 269 319 381
#     4  11  24  42  67  97 131 170 216 269 327 383
#     4  10  23  44  64  91 132 171 219 267 320 385
#     4  12  24  41  68  99 126 173 224 263 325 384
#
# _framework density 20.734071
#
# number of rings (size 3 to 8) (size 9 to 14) (size 15 to 20)
#    0.000    1.500    3.750    0.750    0.000    6.000 
#    4.500    0.000    0.000    0.000    0.000    0.000 
#    0.000    0.000    0.000    0.000    0.000    0.000 
#
# Total GULP energy -89275.799663 kJ/mol
# GULP energy per Si atom -5579.737479 kJ/mol
# Density = 2.068688 g / cm^3
# Si number density = 20.734071 Si / 1000 Ang^3
#
#
#
# Elastic Constant Matrix: (Units=GPa)
#
#
# Indices 1 2 3 4 5 6 
#
# 1 51.5439 15.2624 17.7727 -10.5566 13.2691 -5.0240
# 2 15.2624 97.3021 12.7783 -15.8603 -5.5094 -1.2663
# 3 17.7727 12.7783 84.6207 4.8287 15.5006 -1.4793
# 4 -10.5566 -15.8603 4.8287 27.0227 -2.4675 -2.6559
# 5 13.2691 -5.5094 15.5006 -2.4675 18.5909 0.9569
# 6 -5.0240 -1.2663 -1.4793 -2.6559 0.9569 21.5732
#
#
#
# Elastic Compliance Matrix: (Units=1/GPa)
#
#
# Indices 1 2 3 4 5 6 
#
# 1 0.028757 -0.003789 -0.002329 0.008498 -0.019001 0.008204
# 2 -0.003789 0.013245 -0.003612 0.007930 0.010685 0.000150
# 3 -0.002329 -0.003612 0.015721 -0.007062 -0.013455 0.000051
# 4 0.008498 0.007930 -0.007062 0.047718 0.008121 0.007475
# 5 -0.019001 0.010685 -0.013455 0.008121 0.083196 -0.007411
# 6 0.008204 0.000150 0.000051 0.007475 -0.007411 0.049526
#
#
# Mechanical properties :
#
#
# Convention : Reuss Voigt Hill
#
# Bulk Modulus (GPa) = 26.13358 36.12152 31.12755
# Shear Modulus (GPa) = 18.49276 25.94758 22.22017
#
# Velocity S-wave (km/s) = 2.98971 3.54142 3.27720
# Velocity P-wave (km/s) = 4.95473 5.84648 5.41898
#
# Compressibility (1/GPa) = 0.03826495
#
# Stress axis : x y z
#
# Youngs Moduli (GPa) = 34.77383 75.49797 63.61116
#
# Poissons Ratio (x) = 0.28605 0.14813
# Poissons Ratio (y) = 0.13175 0.22974
# Poissons Ratio (z) = 0.08098 0.27267
#
# Static dielectric constant tensor:
#      x y z
#    x 1.740890 -0.018070 0.031660 
#    y -0.018070 1.761790 -0.011570 
#    z 0.031660 -0.011570 1.792430 
# 
# From -- ./inp_files/68661.got.cif
#   From: 2010.05.17/outbox.cif.g08.bks.cpg/sg2_35_cif.got.tgz:68661.got - 2010.06.03 11:33:40.
