data_PCOD9013129
_publ_section_title
;
Structure prediction by ZEFSAII (Michael W. Deem and Ramdas Pophale) SiO2 
 PCOD9013129
Probable space group: P -1
;
_chemical_formula_sum "Si O2"
_cell_formula_units_Z 16
_cell_length_a 13.222843
_cell_length_b 8.024826
_cell_length_c 11.552394
_cell_angle_alpha 118.857553
_cell_angle_beta 71.101454
_cell_angle_gamma 139.590286
_cell_volume 693.914693
_symmetry_space_group_name_H-M "P -1"
_symmetry_group_IT_number 2
_symmetry_cell_setting 'triclinic'
loop_
_space_group_symop_operation_xyz
x,y,z
-x,-y,-z
loop_
_atom_site_type_symbol
_atom_site_label
_atom_site_fract_x
_atom_site_fract_y
_atom_site_fract_z
Si Si1 0.203786 0.882818 0.055698
Si Si2 0.701016 0.443291 0.528554
Si Si3 0.300343 0.360358 0.631008
Si Si4 0.063542 0.400097 0.781526
Si Si5 0.527386 0.885507 0.285496
Si Si6 0.623543 0.213102 0.924757
Si Si7 0.454710 0.512585 0.861798
Si Si8 0.028888 0.723356 0.487700
O O1 0.239740 0.756485 0.091155
O O2 0.066097 0.819056 0.147211
O O3 0.363325 0.205097 0.087874
O O4 0.148249 0.698243 0.900485
O O5 0.646875 0.525598 0.480900
O O6 0.608982 0.333723 0.644799
O O7 0.887239 0.687065 0.554446
O O8 0.655069 0.180029 0.400469
O O9 0.189472 0.395725 0.717959
O O10 0.426256 0.505750 0.733474
O O11 0.192867 0.034017 0.559368
O O12 0.986210 0.332762 0.662638
O O13 0.455854 0.904057 0.209578
O O14 0.586068 0.755539 0.182782
O O15 0.651251 0.471843 0.025790
O O16 0.500000 0.000000 0.000000
O O17 0.000000 0.500000 0.500000
#
# Coordination Sequence:
#
# PCOD9013129 Si02
#       8
#     2   2   2   2   2   2   2   2
#     4  10  22  40  69  96 126 173 218 274 321 388
#     4  10  23  42  64  94 134 177 212 277 322 388
#     4  11  23  45  69  94 133 177 219 262 334 394
#     4  10  22  42  67  96 129 174 221 260 330 391
#     4  11  24  39  65 101 136 164 224 274 325 383
#     4  10  21  41  63  91 128 171 211 267 324 382
#     4  11  23  39  68  97 130 170 220 272 324 387
#     4  11  25  42  68  93 135 174 217 268 328 391
#
# _framework density 23.057589
#
# number of rings (size 3 to 8) (size 9 to 14) (size 15 to 20)
#    0.000    1.500    1.250    4.125   10.500    0.500 
#    2.250    0.000    0.000    3.750    0.000    0.000 
#    0.000    0.000    0.000    0.000    0.000    0.000 
#
# Total GULP energy -89554.145351 kJ/mol
# GULP energy per Si atom -5597.134084 kJ/mol
# Density = 2.300511 g / cm^3
# Si number density = 23.057589 Si / 1000 Ang^3
#
#
#
# Elastic Constant Matrix: (Units=GPa)
#
#
# Indices 1 2 3 4 5 6 
#
# 1 42.7462 0.1245 20.6306 -7.8924 -0.0320 -9.8313
# 2 0.1245 80.0827 33.9269 -5.3907 0.8370 -7.2329
# 3 20.6306 33.9269 116.3948 -3.7275 9.0421 -3.5789
# 4 -7.8924 -5.3907 -3.7275 39.1972 -6.0639 0.1763
# 5 -0.0320 0.8370 9.0421 -6.0639 36.0466 0.5284
# 6 -9.8313 -7.2329 -3.5789 0.1763 0.5284 30.0630
#
#
#
# Elastic Compliance Matrix: (Units=1/GPa)
#
#
# Indices 1 2 3 4 5 6 
#
# 1 0.029726 0.003805 -0.006059 0.006254 0.002366 0.009837
# 2 0.003805 0.015130 -0.004970 0.002551 0.001266 0.004256
# 3 -0.006059 -0.004970 0.011244 -0.001275 -0.002899 -0.001780
# 4 0.006254 0.002551 -0.001275 0.027749 0.004901 0.002258
# 5 0.002366 0.001266 -0.002899 0.004901 0.029263 0.000190
# 6 0.009837 0.004256 -0.001780 0.002258 0.000190 0.037276
#
#
# Mechanical properties :
#
#
# Convention : Reuss Voigt Hill
#
# Bulk Modulus (GPa) = 24.00861 38.73196 31.37028
# Shear Modulus (GPa) = 27.97677 33.36413 30.67045
#
# Velocity S-wave (km/s) = 3.48709 3.80806 3.65110
# Velocity P-wave (km/s) = 5.16218 6.01411 5.60435
#
# Compressibility (1/GPa) = 0.04165173
#
# Stress axis : x y z
#
# Youngs Moduli (GPa) = 33.64044 66.09518 88.93798
#
# Poissons Ratio (x) = -0.25152 0.53889
# Poissons Ratio (y) = -0.12802 0.44205
# Poissons Ratio (z) = 0.20383 0.32851
#
# Static dielectric constant tensor:
#      x y z
#    x 1.906810 -0.001370 -0.039640 
#    y -0.001370 1.869480 -0.000850 
#    z -0.039640 -0.000850 1.877490 
# 
# From -- ./inp_files/448055.got.cif
#   From: 2010.05.17/outbox.cif.g08.bks.cpg/sg2_225_cif.got.tgz:448055.got - 2010.06.03 11:33:40.
