data_PCOD9013097
_publ_section_title
;
Structure prediction by ZEFSAII (Michael W. Deem and Ramdas Pophale) SiO2 
 PCOD9013097
Probable space group: P -1
;
_chemical_formula_sum "Si O2"
_cell_formula_units_Z 16
_cell_length_a 12.745935
_cell_length_b 15.572000
_cell_length_c 9.259825
_cell_angle_alpha 27.690547
_cell_angle_beta 101.192424
_cell_angle_gamma 108.731804
_cell_volume 791.629009
_symmetry_space_group_name_H-M "P -1"
_symmetry_group_IT_number 2
_symmetry_cell_setting 'triclinic'
loop_
_space_group_symop_operation_xyz
x,y,z
-x,-y,-z
loop_
_atom_site_type_symbol
_atom_site_label
_atom_site_fract_x
_atom_site_fract_y
_atom_site_fract_z
Si Si1 0.001012 0.983106 0.196690
Si Si2 0.194886 0.543263 0.733750
Si Si3 0.384561 0.165187 0.777891
Si Si4 0.636758 0.243851 0.775780
Si Si5 0.775842 0.630573 0.715488
Si Si6 0.973914 0.188643 0.141883
Si Si7 0.256575 0.760922 0.884686
Si Si8 0.240306 0.943168 0.326185
O O1 0.126153 0.988448 0.265064
O O2 0.901170 0.787808 0.505822
O O3 0.973695 0.153722 0.021956
O O4 0.000000 0.000000 0.000000
O O5 0.264276 0.598497 0.521910
O O6 0.198205 0.743508 0.516716
O O7 0.250454 0.440217 0.021671
O O8 0.070954 0.390143 0.904928
O O9 0.517076 0.275544 0.670755
O O10 0.315560 0.278752 0.503636
O O11 0.372952 0.965185 0.986731
O O12 0.323483 0.103592 0.007268
O O13 0.663601 0.232641 0.967864
O O14 0.775744 0.450778 0.882501
O O15 0.854310 0.198263 0.146177
O O16 0.000000 0.000000 0.500000
O O17 0.298643 0.906541 0.543241
#
# Coordination Sequence:
#
# PCOD9013097 Si02
#       8
#     2   2   2   2   2   2   2   2
#     4  12  23  36  62  95 120 163 196 251 309 372
#     4  10  23  40  61  92 128 163 196 259 304 366
#     4  10  22  43  66  88 119 169 212 256 302 366
#     4  10  24  42  63  91 122 162 218 255 301 358
#     4  11  22  40  64  90 130 163 203 251 315 363
#     4  12  23  39  63  94 124 160 207 247 304 378
#     4  11  24  40  61  94 126 161 202 259 304 367
#     4  10  21  41  63  89 130 161 203 248 314 363
#
# _framework density 20.211487999999999
#
# number of rings (size 3 to 8) (size 9 to 14) (size 15 to 20)
#    0.000    1.250    3.750    1.500    3.500    4.000 
#    0.000    0.000    0.000    0.000    0.000    0.000 
#    0.000    0.000    0.000    0.000    0.000    0.000 
#
# Total GULP energy -89409.872925 kJ/mol
# GULP energy per Si atom -5588.117058 kJ/mol
# Density = 2.016549 g / cm^3
# Si number density = 20.211488 Si / 1000 Ang^3
#
#
#
# Elastic Constant Matrix: (Units=GPa)
#
#
# Indices 1 2 3 4 5 6 
#
# 1 42.1784 -10.2435 -9.0205 -4.6031 9.3793 -8.3962
# 2 -10.2435 75.4524 -1.2387 28.9075 -5.0840 -6.7412
# 3 -9.0205 -1.2387 31.0829 11.7785 9.5369 -1.3880
# 4 -4.6031 28.9075 11.7785 24.1898 3.4413 -3.3000
# 5 9.3793 -5.0840 9.5369 3.4413 7.7583 -11.5605
# 6 -8.3962 -6.7412 -1.3880 -3.3000 -11.5605 14.5785
#
#
#
# Elastic Compliance Matrix: (Units=1/GPa)
#
#
# Indices 1 2 3 4 5 6 
#
# 1 0.031503 0.014157 0.011496 -0.014005 0.016681 0.035842
# 2 0.014157 0.030213 0.031970 -0.045880 -0.031728 -0.010377
# 3 0.011496 0.031970 0.048559 -0.059360 0.041560 0.045547
# 4 -0.014005 -0.045880 -0.059360 0.120418 0.027611 0.014220
# 5 0.016681 -0.031728 0.041560 0.027611 -0.177652 -0.135733
# 6 0.035842 -0.010377 0.045547 0.014220 -0.135733 -0.015641
#
#
# Mechanical properties :
#
#
# Convention : Reuss Voigt Hill
#
# Bulk Modulus (GPa) = 4.43419 11.96760 8.20089
# Shear Modulus (GPa) = -1870.04918 20.58641 -924.73139
#
# Velocity S-wave (km/s) = -30.45077 3.19494 -21.41310
# Velocity P-wave (km/s) = 35.13024 4.42088 24.64335
#
# Compressibility (1/GPa) = 0.22552026
#
# Stress axis : x y z
#
# Youngs Moduli (GPa) = 31.74326 33.09855 20.59370
#
# Poissons Ratio (x) = -0.46859 -0.23674
# Poissons Ratio (y) = -0.44940 -0.65837
# Poissons Ratio (z) = -0.36492 -1.05815
#
# Static dielectric constant tensor:
#      x y z
#    x 1.681030 -0.006650 0.011470 
#    y -0.006650 1.736110 0.022500 
#    z 0.011470 0.022500 1.729700 
# 
# From -- ./inp_files/181328.got.cif
#   From: 2010.05.17/outbox.cif.g08.bks.cpg/sg2_91_cif.got.tgz:181328.got - 2010.06.03 11:33:40.
