data_PCOD9013152
_publ_section_title
;
Structure prediction by ZEFSAII (Michael W. Deem and Ramdas Pophale) SiO2 
 PCOD9013152
Probable space group: P -1
;
_chemical_formula_sum "Si O2"
_cell_formula_units_Z 14
_cell_length_a 10.724396
_cell_length_b 8.984463
_cell_length_c 8.202779
_cell_angle_alpha 108.711187
_cell_angle_beta 131.327778
_cell_angle_gamma 71.559391
_cell_volume 556.050891
_symmetry_space_group_name_H-M "P -1"
_symmetry_group_IT_number 2
_symmetry_cell_setting 'triclinic'
loop_
_space_group_symop_operation_xyz
x,y,z
-x,-y,-z
loop_
_atom_site_type_symbol
_atom_site_label
_atom_site_fract_x
_atom_site_fract_y
_atom_site_fract_z
Si Si1 0.250820 0.116590 0.582467
Si Si2 0.652251 0.592612 0.128621
Si Si3 0.243887 0.602105 0.358485
Si Si4 0.252896 0.006165 0.907756
Si Si5 0.084229 0.892044 0.179494
Si Si6 0.124934 0.692235 0.650143
Si Si7 0.394081 0.290490 0.240819
O O1 0.361034 0.255756 0.709861
O O2 0.292490 0.032606 0.762658
O O3 0.062344 0.216833 0.459292
O O4 0.239415 0.980096 0.396199
O O5 0.820231 0.468890 0.260631
O O6 0.500000 0.500000 0.000000
O O7 0.643965 0.656575 0.960742
O O8 0.145732 0.704969 0.163988
O O9 0.160340 0.648744 0.476561
O O10 0.268300 0.414328 0.282814
O O11 0.424126 0.664708 0.545812
O O12 0.060754 0.086504 0.800698
O O13 0.245797 0.820120 0.856729
O O14 0.361955 0.107705 0.150403
O O15 0.000000 0.000000 0.000000
#
# Coordination Sequence:
#
# PCOD9013152 Si02
#       7
#     2   2   2   2   2   2   2
#     4  10  21  41  63  93 124 158 213 258 306 371
#     4  11  23  39  63  95 124 163 211 254 303 373
#     4  11  22  42  62  87 132 165 202 255 319 365
#     4  10  21  42  64  92 120 162 215 252 311 377
#     4  11  23  40  64  95 124 162 210 262 312 363
#     4  11  20  39  66  88 125 162 205 261 306 363
#     4  10  25  41  61  93 129 165 207 251 315 377
#
# _framework density 25.177553
#
# number of rings (size 3 to 8) (size 9 to 14) (size 15 to 20)
#    0.000    1.429    4.286    1.286    4.000    3.429 
#    0.000    0.714    0.000    0.000    0.000    0.000 
#    0.000    0.000    0.000    0.000    0.000    0.000 
#
# Total GULP energy -78311.660959 kJ/mol
# GULP energy per Si atom -5593.690069 kJ/mol
# Density = 2.512025 g / cm^3
# Si number density = 25.177553 Si / 1000 Ang^3
#
#
#
# Elastic Constant Matrix: (Units=GPa)
#
#
# Indices 1 2 3 4 5 6 
#
# 1 30.0140 7.2696 4.4085 3.7789 2.6181 3.2615
# 2 7.2696 93.5683 24.3303 6.7529 -4.5277 2.4360
# 3 4.4085 24.3303 78.2333 15.2619 5.7570 5.6730
# 4 3.7789 6.7529 15.2619 55.1253 3.4058 11.9729
# 5 2.6181 -4.5277 5.7570 3.4058 29.2008 8.0022
# 6 3.2615 2.4360 5.6730 11.9729 8.0022 29.2214
#
#
#
# Elastic Compliance Matrix: (Units=1/GPa)
#
#
# Indices 1 2 3 4 5 6 
#
# 1 0.034648 -0.002520 -0.000566 -0.001244 -0.002604 -0.002325
# 2 -0.002520 0.012038 -0.003715 -0.000308 0.003056 -0.000712
# 3 -0.000566 -0.003715 0.014869 -0.003370 -0.002977 -0.000318
# 4 -0.001244 -0.000308 -0.003370 0.020875 0.000447 -0.007857
# 5 -0.002604 0.003056 -0.002977 0.000447 0.038239 -0.010041
# 6 -0.002325 -0.000712 -0.000318 -0.007857 -0.010041 0.040571
#
#
# Mechanical properties :
#
#
# Convention : Reuss Voigt Hill
#
# Bulk Modulus (GPa) = 20.85411 30.42583 25.63997
# Shear Modulus (GPa) = 26.20186 33.76332 29.98259
#
# Velocity S-wave (km/s) = 3.22946 3.66595 3.45461
# Velocity P-wave (km/s) = 4.71240 5.47993 5.11060
#
# Compressibility (1/GPa) = 0.04795218
#
# Stress axis : x y z
#
# Youngs Moduli (GPa) = 28.86194 83.07181 67.25416
#
# Poissons Ratio (x) = 0.20938 0.03805
# Poissons Ratio (y) = 0.07275 0.24984
# Poissons Ratio (z) = 0.01633 0.30861
#
# Static dielectric constant tensor:
#      x y z
#    x 2.014960 -0.022110 0.031860 
#    y -0.022110 2.008350 0.011750 
#    z 0.031860 0.011750 2.040470 
# 
# From -- ./inp_files/153859.got.cif
#   From: 2010.05.17/outbox.cif.g08.bks.cpg/sg2_77_cif.got.tgz:153859.got - 2010.06.03 11:33:40.
