data_PCOD9013395
_publ_section_title
;
Structure prediction by ZEFSAII (Michael W. Deem and Ramdas Pophale) SiO2 
 PCOD9013395
Probable space group: P -1
;
_chemical_formula_sum "Si O2"
_cell_formula_units_Z 16
_cell_length_a 16.612567
_cell_length_b 8.625616
_cell_length_c 11.375202
_cell_angle_alpha 66.827712
_cell_angle_beta 154.870415
_cell_angle_gamma 110.562663
_cell_volume 636.308860
_symmetry_space_group_name_H-M "P -1"
_symmetry_group_IT_number 2
_symmetry_cell_setting 'triclinic'
loop_
_space_group_symop_operation_xyz
x,y,z
-x,-y,-z
loop_
_atom_site_type_symbol
_atom_site_label
_atom_site_fract_x
_atom_site_fract_y
_atom_site_fract_z
Si Si1 0.137367 0.376053 0.787760
Si Si2 0.084777 0.478462 0.948039
Si Si3 0.652816 0.168322 0.518406
Si Si4 0.209851 0.207181 0.543708
Si Si5 0.466950 0.496205 0.818035
Si Si6 0.796182 0.847960 0.701923
Si Si7 0.256746 0.065997 0.904829
Si Si8 0.385123 0.751726 0.283422
O O1 0.094709 0.384807 0.864516
O O2 0.128747 0.191139 0.776191
O O3 0.000000 0.500000 0.500000
O O4 0.346458 0.448311 0.019924
O O5 0.937406 0.634521 0.697183
O O6 0.068882 0.318901 0.061994
O O7 0.284342 0.573073 0.206081
O O8 0.685939 0.358057 0.460969
O O9 0.607062 0.179920 0.592671
O O10 0.801954 0.018221 0.736183
O O11 0.469848 0.115942 0.213213
O O12 0.406131 0.309575 0.761466
O O13 0.192151 0.100374 0.434310
O O14 0.216489 0.106305 0.704239
O O15 0.500000 0.500000 0.000000
O O16 0.591895 0.771099 0.493990
O O17 0.246737 0.874104 0.987582
#
# Coordination Sequence:
#
# PCOD9013395 Si02
#       8
#     2   2   2   2   2   2   2   2
#     4  11  20  40  66  96 123 164 210 260 313 374
#     4  12  24  42  63  95 129 169 215 261 316 375
#     4  10  21  41  68  95 121 165 218 264 314 372
#     4  12  24  42  61  95 136 169 205 262 322 382
#     4  11  20  40  65  93 127 162 208 255 319 379
#     4  11  23  41  66  94 127 169 212 264 320 376
#     4  10  21  41  64  93 131 161 214 263 319 370
#     4  11  23  42  68  92 124 170 218 268 308 376
#
# _framework density 25.145021
#
# number of rings (size 3 to 8) (size 9 to 14) (size 15 to 20)
#    0.000    1.000    3.750    6.000    0.000    2.500 
#    2.250    3.750    0.000    0.000    0.000    0.000 
#    0.000    0.000    0.000    0.000    0.000    0.000 
#
# Total GULP energy -89557.132040 kJ/mol
# GULP energy per Si atom -5597.320753 kJ/mol
# Density = 2.508779 g / cm^3
# Si number density = 25.145021 Si / 1000 Ang^3
#
#
#
# Elastic Constant Matrix: (Units=GPa)
#
#
# Indices 1 2 3 4 5 6 
#
# 1 142.6768 22.7403 38.3044 -7.0248 -40.5313 -20.7960
# 2 22.7403 86.4040 18.8953 -28.7555 -13.8764 11.7445
# 3 38.3044 18.8953 120.7498 -28.3216 -12.0067 -2.8591
# 4 -7.0248 -28.7555 -28.3216 38.9231 3.2933 -2.1424
# 5 -40.5313 -13.8764 -12.0067 3.2933 46.3833 0.6446
# 6 -20.7960 11.7445 -2.8591 -2.1424 0.6446 34.2252
#
#
#
# Elastic Compliance Matrix: (Units=1/GPa)
#
#
# Indices 1 2 3 4 5 6 
#
# 1 0.011651 -0.002875 -0.002756 -0.002346 0.008670 0.007526
# 2 -0.002875 0.017639 0.001222 0.012828 0.002267 -0.006938
# 3 -0.002756 0.001222 0.010914 0.008293 0.000203 -0.000667
# 4 -0.002346 0.012828 0.008293 0.040543 0.001092 -0.002617
# 5 0.008670 0.002267 0.000203 0.001092 0.029733 0.004015
# 6 0.007526 -0.006938 -0.000667 -0.002617 0.004015 0.035877
#
#
# Mechanical properties :
#
#
# Convention : Reuss Voigt Hill
#
# Bulk Modulus (GPa) = 31.86182 56.63454 44.24818
# Shear Modulus (GPa) = 30.18638 41.89903 36.04271
#
# Velocity S-wave (km/s) = 3.46857 4.08646 3.79013
# Velocity P-wave (km/s) = 5.36097 6.69609 6.06538
#
# Compressibility (1/GPa) = 0.03138553
#
# Stress axis : x y z
#
# Youngs Moduli (GPa) = 85.82706 56.69187 91.62443
#
# Poissons Ratio (x) = 0.16299 0.25253
# Poissons Ratio (y) = 0.24676 -0.11193
# Poissons Ratio (z) = 0.23655 -0.06926
#
# Static dielectric constant tensor:
#      x y z
#    x 1.948770 0.000780 0.027770 
#    y 0.000780 1.971940 0.017550 
#    z 0.027770 0.017550 2.027360 
# 
# From -- ./inp_files/346316.got.cif
#   From: 2010.05.17/outbox.cif.g08.bks.cpg/sg2_174_cif.got.tgz:346316.got - 2010.06.03 11:33:40.
