data_PCOD9013747
_publ_section_title
;
Structure prediction by ZEFSAII (Michael W. Deem and Ramdas Pophale) SiO2 
 PCOD9013747
Probable space group: P -1
;
_chemical_formula_sum "Si O2"
_cell_formula_units_Z 16
_cell_length_a 11.562430
_cell_length_b 9.953285
_cell_length_c 19.874890
_cell_angle_alpha 36.751793
_cell_angle_beta 148.051171
_cell_angle_gamma 123.968529
_cell_volume 669.118769
_symmetry_space_group_name_H-M "P -1"
_symmetry_group_IT_number 2
_symmetry_cell_setting 'triclinic'
loop_
_space_group_symop_operation_xyz
x,y,z
-x,-y,-z
loop_
_atom_site_type_symbol
_atom_site_label
_atom_site_fract_x
_atom_site_fract_y
_atom_site_fract_z
Si Si1 0.260251 0.571234 0.662477
Si Si2 0.274796 0.371934 0.961355
Si Si3 0.210076 0.523687 0.504985
Si Si4 0.741454 0.182013 0.313875
Si Si5 0.703860 0.311321 0.792172
Si Si6 0.273788 0.246772 0.288108
Si Si7 0.885238 0.183313 0.792623
Si Si8 0.235874 0.588770 0.004461
O O1 0.218667 0.624772 0.542467
O O2 0.281286 0.788217 0.629598
O O3 0.523073 0.361151 0.887277
O O4 0.029514 0.529847 0.592282
O O5 0.288161 0.558267 0.836711
O O6 0.070653 0.291066 0.869781
O O7 0.522752 0.146022 0.185644
O O8 0.231384 0.502276 0.960298
O O9 0.465830 0.304910 0.710488
O O10 0.203526 0.698962 0.369854
O O11 0.000000 0.000000 0.500000
O O12 0.695856 0.262964 0.727526
O O13 0.712231 0.563683 0.723258
O O14 0.953956 0.101071 0.021214
O O15 0.263184 0.382915 0.156927
O O16 0.500000 0.000000 0.500000
O O17 0.024685 0.215467 0.187800
#
# Coordination Sequence:
#
# PCOD9013747 Si02
#       8
#     2   2   2   2   2   2   2   2
#     4  10  22  43  68 101 140 179 226 275 340 417
#     4  10  21  41  65  95 130 174 224 278 340 393
#     4  11  23  45  68  97 142 180 229 275 343 418
#     4  10  22  40  65  97 137 175 227 278 333 406
#     4  11  25  47  68 101 132 182 236 286 340 412
#     4  11  24  45  71  98 136 179 229 287 345 402
#     4  11  24  45  71  97 136 183 232 285 346 403
#     4  10  22  44  67  99 136 172 233 282 336 409
#
# _framework density 23.912047999999999
#
# number of rings (size 3 to 8) (size 9 to 14) (size 15 to 20)
#    0.000    1.500    3.750    0.375    1.750    4.000 
#    4.500    3.750    0.000    0.000    0.000    0.000 
#    0.000    0.000    0.000    0.000    0.000    0.000 
#
# Total GULP energy -89365.923489 kJ/mol
# GULP energy per Si atom -5585.370218 kJ/mol
# Density = 2.385762 g / cm^3
# Si number density = 23.912048 Si / 1000 Ang^3
#
#
#
# Elastic Constant Matrix: (Units=GPa)
#
#
# Indices 1 2 3 4 5 6 
#
# 1 145.7091 28.3024 51.5696 4.6570 12.2446 -24.1345
# 2 28.3024 71.1331 28.7904 9.1786 0.8124 -13.5307
# 3 51.5696 28.7904 112.9663 13.7653 20.8191 -25.8961
# 4 4.6570 9.1786 13.7653 40.6788 0.7058 8.5202
# 5 12.2446 0.8124 20.8191 0.7058 55.6208 17.0273
# 6 -24.1345 -13.5307 -25.8961 8.5202 17.0273 34.3016
#
#
#
# Elastic Compliance Matrix: (Units=1/GPa)
#
#
# Indices 1 2 3 4 5 6 
#
# 1 0.009151 -0.001507 -0.001272 -0.001708 -0.003679 0.007135
# 2 -0.001507 0.017031 -0.001421 -0.004493 -0.001266 0.006330
# 3 -0.001272 -0.001421 0.018222 -0.009907 -0.012869 0.021150
# 4 -0.001708 -0.004493 -0.009907 0.034078 0.011213 -0.024484
# 5 -0.003679 -0.001266 -0.012869 0.011213 0.033317 -0.032127
# 6 0.007135 0.006330 0.021150 -0.024484 -0.032127 0.074667
#
#
# Mechanical properties :
#
#
# Convention : Reuss Voigt Hill
#
# Bulk Modulus (GPa) = 27.77340 60.79257 44.28299
# Shear Modulus (GPa) = 24.17006 40.86332 32.51669
#
# Velocity S-wave (km/s) = 3.18274 4.13837 3.69161
# Velocity P-wave (km/s) = 5.01463 6.95078 6.06052
#
# Compressibility (1/GPa) = 0.03600568
#
# Stress axis : x y z
#
# Youngs Moduli (GPa) = 109.27367 58.71630 54.87798
#
# Poissons Ratio (x) = 0.08847 0.06980
# Poissons Ratio (y) = 0.16465 0.07797
# Poissons Ratio (z) = 0.13899 0.08342
#
# Static dielectric constant tensor:
#      x y z
#    x 1.954320 0.029450 0.047770 
#    y 0.029450 1.936970 0.010380 
#    z 0.047770 0.010380 1.953600 
# 
# From -- ./inp_files/595101.got.cif
#   From: 2010.05.17/outbox.cif.g08.bks.cpg/sg2_298_cif.got.tgz:595101.got - 2010.06.03 11:33:40.
