data_PCOD9013209
_publ_section_title
;
Structure prediction by ZEFSAII (Michael W. Deem and Ramdas Pophale) SiO2 
 PCOD9013209
Probable space group: P -1
;
_chemical_formula_sum "Si O2"
_cell_formula_units_Z 16
_cell_length_a 15.480111
_cell_length_b 12.429241
_cell_length_c 5.663640
_cell_angle_alpha 122.133392
_cell_angle_beta 62.471308
_cell_angle_gamma 124.009753
_cell_volume 743.587114
_symmetry_space_group_name_H-M "P -1"
_symmetry_group_IT_number 2
_symmetry_cell_setting 'triclinic'
loop_
_space_group_symop_operation_xyz
x,y,z
-x,-y,-z
loop_
_atom_site_type_symbol
_atom_site_label
_atom_site_fract_x
_atom_site_fract_y
_atom_site_fract_z
Si Si1 0.753973 0.985122 0.930876
Si Si2 0.090539 0.997053 0.635936
Si Si3 0.509658 0.930775 0.156492
Si Si4 0.136486 0.178924 0.195843
Si Si5 0.761808 0.492036 0.492242
Si Si6 0.697662 0.358390 0.915309
Si Si7 0.907584 0.285954 0.561596
Si Si8 0.904471 0.319337 0.116178
O O1 0.778971 0.890117 0.979321
O O2 0.809111 0.945900 0.594906
O O3 0.629375 0.941014 0.017570
O O4 0.818123 0.155406 0.054357
O O5 0.113129 0.875411 0.600694
O O6 0.967196 0.903761 0.604955
O O7 0.087306 0.125083 0.936751
O O8 0.500000 0.000000 0.500000
O O9 0.412331 0.779023 0.100898
O O10 0.500000 0.000000 0.000000
O O11 0.185318 0.341220 0.367302
O O12 0.706224 0.442406 0.247450
O O13 0.843334 0.418327 0.307635
O O14 0.700929 0.437581 0.756597
O O15 0.798460 0.311719 0.730500
O O16 0.969273 0.347650 0.311866
O O17 0.959060 0.336696 0.813071
#
# Coordination Sequence:
#
# PCOD9013209 Si02
#       8
#     2   2   2   2   2   2   2   2
#     4  11  23  40  68  97 133 167 227 284 327 390
#     4  10  22  41  65  94 134 172 233 280 326 386
#     4  12  24  40  74 110 131 171 226 277 343 395
#     4  11  24  41  66  94 130 188 224 270 334 404
#     4  10  22  41  63  91 136 178 213 267 341 397
#     4  10  21  41  63  95 136 170 213 281 334 392
#     4   9  16  34  59  85 117 160 200 267 316 362
#     4   9  17  34  58  84 119 160 199 266 320 360
#
# _framework density 21.517316000000001
#
# number of rings (size 3 to 8) (size 9 to 14) (size 15 to 20)
#    0.000    1.750    1.250    4.875    3.500    0.000 
#    0.000    9.375    0.000    0.000    0.000    0.000 
#    0.000    0.000    0.000    0.000    0.000    0.000 
#
# Total GULP energy -89157.344774 kJ/mol
# GULP energy per Si atom -5572.334048 kJ/mol
# Density = 2.146834 g / cm^3
# Si number density = 21.517316 Si / 1000 Ang^3
#
#
#
# Elastic Constant Matrix: (Units=GPa)
#
#
# Indices 1 2 3 4 5 6 
#
# 1 92.1780 47.5296 52.7400 -10.2375 -4.1986 6.3554
# 2 47.5296 138.0448 90.8039 8.7626 22.0025 16.8002
# 3 52.7400 90.8039 162.7341 -1.1368 33.8748 0.3195
# 4 -10.2375 8.7626 -1.1368 54.7566 -5.7576 3.5038
# 5 -4.1986 22.0025 33.8748 -5.7576 41.6532 -7.7442
# 6 6.3554 16.8002 0.3195 3.5038 -7.7442 26.0728
#
#
#
# Elastic Compliance Matrix: (Units=1/GPa)
#
#
# Indices 1 2 3 4 5 6 
#
# 1 0.016653 -0.004393 -0.004706 0.004574 0.008602 0.000769
# 2 -0.004393 0.014769 -0.005578 -0.003307 -0.005969 -0.009705
# 3 -0.004706 -0.005578 0.012252 -0.000644 -0.007103 0.002568
# 4 0.004574 -0.003307 -0.000644 0.020217 0.005516 -0.000055
# 5 0.008602 -0.005969 -0.007103 0.005516 0.036803 0.012026
# 6 0.000769 -0.009705 0.002568 -0.000055 0.012026 0.047968
#
#
# Mechanical properties :
#
#
# Convention : Reuss Voigt Hill
#
# Bulk Modulus (GPa) = 69.83987 86.12266 77.98126
# Shear Modulus (GPa) = 27.35389 37.95540 32.65465
#
# Velocity S-wave (km/s) = 3.56933 4.20449 3.89986
# Velocity P-wave (km/s) = 7.03667 7.98010 7.52319
#
# Compressibility (1/GPa) = 0.01431847
#
# Stress axis : x y z
#
# Youngs Moduli (GPa) = 60.04917 67.71143 81.62117
#
# Poissons Ratio (x) = 0.29748 0.38408
# Poissons Ratio (y) = 0.26382 0.45531
# Poissons Ratio (z) = 0.28257 0.37772
#
# Static dielectric constant tensor:
#      x y z
#    x 1.870090 -0.095880 0.116140 
#    y -0.095880 1.804990 -0.065520 
#    z 0.116140 -0.065520 1.877620 
# 
# From -- ./inp_files/85036.got.cif
#   From: 2010.05.17/outbox.cif.g08.bks.cpg/sg2_43_cif.got.tgz:85036.got - 2010.06.03 11:33:40.
