data_PCOD9013889
_publ_section_title
;
Structure prediction by ZEFSAII (Michael W. Deem and Ramdas Pophale) SiO2 
 PCOD9013889
Probable space group: P -1
;
_chemical_formula_sum "Si O2"
_cell_formula_units_Z 15
_cell_length_a 6.127927
_cell_length_b 19.978267
_cell_length_c 5.095789
_cell_angle_alpha 111.418622
_cell_angle_beta 89.554784
_cell_angle_gamma 78.027960
_cell_volume 565.741999
_symmetry_space_group_name_H-M "P -1"
_symmetry_group_IT_number 2
_symmetry_cell_setting 'triclinic'
loop_
_space_group_symop_operation_xyz
x,y,z
-x,-y,-z
loop_
_atom_site_type_symbol
_atom_site_label
_atom_site_fract_x
_atom_site_fract_y
_atom_site_fract_z
Si Si1 0.367387 0.586313 0.864548
Si Si2 0.645716 0.851472 0.490609
Si Si3 0.705110 0.186993 0.976976
Si Si4 0.631393 0.682733 0.691950
Si Si5 0.982245 0.716630 0.159905
Si Si6 0.778336 0.545420 0.199756
Si Si7 0.500000 0.000000 0.000000
Si Si8 0.913367 0.942888 0.238525
O O1 0.457954 0.632587 0.707415
O O2 0.278911 0.514408 0.678966
O O3 0.577800 0.561669 0.017419
O O4 0.168917 0.642166 0.102878
O O5 0.447535 0.833537 0.286394
O O6 0.834371 0.776558 0.446100
O O7 0.559728 0.908394 0.804376
O O8 0.768386 0.900482 0.365995
O O9 0.866600 0.236008 0.926138
O O10 0.879763 0.115201 0.968684
O O11 0.535480 0.238769 0.254089
O O12 0.787452 0.626413 0.414906
O O13 0.793688 0.696372 0.942655
O O14 0.000000 0.500000 0.000000
O O15 0.254840 0.010230 0.895249
O O16 0.000000 0.000000 0.500000
#
# Coordination Sequence:
#
# PCOD9013889 Si02
#       8
#     2   2   2   2   2   2   1   2
#     4  10  22  40  62  90 125 166 210 267 320 381
#     4  10  22  43  62  95 129 160 218 269 317 396
#     4   9  20  42  63  88 129 169 205 276 317 377
#     4  10  21  41  66  88 123 172 215 256 330 383
#     4   9  20  40  66  88 125 166 211 266 314 378
#     4  11  24  38  60  95 130 160 212 271 318 385
#     4  12  24  38  68  96 122 178 210 256 344 382
#     4  11  23  42  65  93 135 163 215 276 315 389
#
# _framework density 26.513855
#
# number of rings (size 3 to 8) (size 9 to 14) (size 15 to 20)
#    0.000    1.867    1.333    1.600    0.000    8.000 
#    0.000   14.667    0.000    0.000    0.000    0.000 
#    0.000    0.000    0.000    0.000    0.000    0.000 
#
# Total GULP energy -83723.501381 kJ/mol
# GULP energy per Si atom -5581.566759 kJ/mol
# Density = 2.645351 g / cm^3
# Si number density = 26.513855 Si / 1000 Ang^3
#
#
#
# Elastic Constant Matrix: (Units=GPa)
#
#
# Indices 1 2 3 4 5 6 
#
# 1 155.8856 61.7290 47.7969 22.1103 -9.0116 -30.0270
# 2 61.7290 128.0847 49.3722 52.7172 -4.1688 -31.4652
# 3 47.7969 49.3722 103.8811 51.3617 -1.2740 -16.9973
# 4 22.1103 52.7172 51.3617 55.7294 -0.9136 -15.4087
# 5 -9.0116 -4.1688 -1.2740 -0.9136 39.5086 14.1120
# 6 -30.0270 -31.4652 -16.9973 -15.4087 14.1120 76.0668
#
#
#
# Elastic Compliance Matrix: (Units=1/GPa)
#
#
# Indices 1 2 3 4 5 6 
#
# 1 0.009120 -0.004315 -0.004273 0.004877 0.001006 0.001662
# 2 -0.004315 0.015510 0.001990 -0.014145 -0.000460 0.002377
# 3 -0.004273 0.001990 0.019721 -0.018395 -0.000523 -0.000086
# 4 0.004877 -0.014145 -0.018395 0.046755 -0.000433 0.001515
# 5 0.001006 -0.000460 -0.000523 -0.000433 0.027271 -0.005057
# 6 0.001662 0.002377 -0.000086 0.001515 -0.005057 0.016012
#
#
# Mechanical properties :
#
#
# Convention : Reuss Voigt Hill
#
# Bulk Modulus (GPa) = 32.09453 78.40531 55.24992
# Shear Modulus (GPa) = 31.65189 49.52451 40.58820
#
# Velocity S-wave (km/s) = 3.45887 4.32658 3.91683
# Velocity P-wave (km/s) = 5.29932 7.38882 6.42952
#
# Compressibility (1/GPa) = 0.03115796
#
# Stress axis : x y z
#
# Youngs Moduli (GPa) = 109.64793 64.47362 50.70742
#
# Poissons Ratio (x) = 0.27817 0.21665
# Poissons Ratio (y) = 0.47308 -0.10093
# Poissons Ratio (z) = 0.46848 -0.12833
#
# Static dielectric constant tensor:
#      x y z
#    x 2.048760 0.107200 -0.120210 
#    y 0.107200 2.159160 -0.020430 
#    z -0.120210 -0.020430 2.128600 
# 
# From -- ./inp_files/11657.got.cif
#   From: 2010.05.17/outbox.cif.g08.bks.cpg/sg2_6_cif.got.tgz:11657.got - 2010.06.03 11:33:40.
