data_PCOD9013336
_publ_section_title
;
Structure prediction by ZEFSAII (Michael W. Deem and Ramdas Pophale) SiO2 
 PCOD9013336
Probable space group: P -1
;
_chemical_formula_sum "Si O2"
_cell_formula_units_Z 14
_cell_length_a 22.335635
_cell_length_b 9.356790
_cell_length_c 15.810765
_cell_angle_alpha 150.027452
_cell_angle_beta 151.884103
_cell_angle_gamma 50.271730
_cell_volume 659.450687
_symmetry_space_group_name_H-M "P -1"
_symmetry_group_IT_number 2
_symmetry_cell_setting 'triclinic'
loop_
_space_group_symop_operation_xyz
x,y,z
-x,-y,-z
loop_
_atom_site_type_symbol
_atom_site_label
_atom_site_fract_x
_atom_site_fract_y
_atom_site_fract_z
Si Si1 0.340344 0.296749 0.148885
Si Si2 0.049174 0.292610 0.093527
Si Si3 0.759905 0.819609 0.605759
Si Si4 0.647037 0.294620 0.066137
Si Si5 0.978861 0.867566 0.310723
Si Si6 0.929945 0.728640 0.524778
Si Si7 0.587421 0.155558 0.600643
O O1 0.500000 0.500000 0.500000
O O2 0.364965 0.464947 0.172499
O O3 0.200595 0.309223 0.019680
O O4 0.299240 0.916204 0.919294
O O5 0.194992 0.346428 0.349794
O O6 0.036455 0.616738 0.237983
O O7 0.906038 0.033838 0.839586
O O8 0.029478 0.092222 0.880225
O O9 0.634433 0.530289 0.240379
O O10 0.718520 0.077991 0.723284
O O11 0.775019 0.531263 0.280091
O O12 0.510325 0.050194 0.709663
O O13 0.000000 0.000000 0.500000
O O14 0.074235 0.187760 0.534137
O O15 0.000000 0.500000 0.500000
O O16 0.500000 0.000000 0.500000
#
# Coordination Sequence:
#
# PCOD9013336 Si02
#       7
#     2   2   2   2   2   2   2
#     4  10  22  41  62  91 128 167 208 258 327 373
#     4  10  23  39  64  95 131 165 212 267 322 377
#     4  10  21  41  64  91 127 167 210 263 320 378
#     4  10  22  42  63  93 125 170 210 260 325 383
#     4  12  24  40  68  96 132 169 213 268 324 390
#     4  11  24  39  66  96 129 165 216 267 317 384
#     4  11  24  39  67  91 127 168 217 261 315 388
#
# _framework density 21.229790999999999
#
# number of rings (size 3 to 8) (size 9 to 14) (size 15 to 20)
#    0.000    1.429    2.857    1.714    8.000    0.000 
#    0.000    0.714    0.000    0.000    0.000    0.000 
#    0.000    0.000    0.000    0.000    0.000    0.000 
#
# Total GULP energy -78096.926816 kJ/mol
# GULP energy per Si atom -5578.351915 kJ/mol
# Density = 2.118147 g / cm^3
# Si number density = 21.229791 Si / 1000 Ang^3
#
#
#
# Elastic Constant Matrix: (Units=GPa)
#
#
# Indices 1 2 3 4 5 6 
#
# 1 97.7113 49.0367 11.2715 11.0338 -7.8103 14.0628
# 2 49.0367 164.2011 25.3814 14.6547 -10.1469 13.3174
# 3 11.2715 25.3814 55.8498 -2.3723 -11.3724 2.6221
# 4 11.0338 14.6547 -2.3723 35.3247 -1.7300 10.0403
# 5 -7.8103 -10.1469 -11.3724 -1.7300 30.4414 10.0939
# 6 14.0628 13.3174 2.6221 10.0403 10.0939 36.2991
#
#
#
# Elastic Compliance Matrix: (Units=1/GPa)
#
#
# Indices 1 2 3 4 5 6 
#
# 1 0.012905 -0.003105 -0.000314 -0.001321 0.003564 -0.004463
# 2 -0.003105 0.007783 -0.002728 -0.002055 0.001053 -0.001180
# 3 -0.000314 -0.002728 0.021306 0.004200 0.008517 -0.003946
# 4 -0.001321 -0.002055 0.004200 0.032889 0.005631 -0.009700
# 5 0.003564 0.001053 0.008517 0.005631 0.042877 -0.015862
# 6 -0.004463 -0.001180 -0.003946 -0.009700 -0.015862 0.037090
#
#
# Mechanical properties :
#
#
# Convention : Reuss Voigt Hill
#
# Bulk Modulus (GPa) = 33.67030 54.34905 44.00968
# Shear Modulus (GPa) = 28.24134 35.88457 32.06295
#
# Velocity S-wave (km/s) = 3.65124 4.11578 3.89045
# Velocity P-wave (km/s) = 5.80257 6.94565 6.39968
#
# Compressibility (1/GPa) = 0.02969977
#
# Stress axis : x y z
#
# Youngs Moduli (GPa) = 77.48779 128.47968 46.93452
#
# Poissons Ratio (x) = 0.39898 0.01475
# Poissons Ratio (y) = 0.24063 0.12804
# Poissons Ratio (z) = 0.02434 0.35049
#
# Static dielectric constant tensor:
#      x y z
#    x 1.762610 0.020480 -0.026070 
#    y 0.020480 1.815350 0.040360 
#    z -0.026070 0.040360 1.929340 
# 
# From -- ./inp_files/182868.got.cif
#   From: 2010.05.17/outbox.cif.g08.bks.cpg/sg2_92_cif.got.tgz:182868.got - 2010.06.03 11:33:40.
