data_PCOD9013705
_publ_section_title
;
Structure prediction by ZEFSAII (Michael W. Deem and Ramdas Pophale) SiO2 
 PCOD9013705
Probable space group: P -1
;
_chemical_formula_sum "Si O2"
_cell_formula_units_Z 16
_cell_length_a 15.135351
_cell_length_b 6.303115
_cell_length_c 7.502712
_cell_angle_alpha 116.951925
_cell_angle_beta 83.806714
_cell_angle_gamma 100.870649
_cell_volume 626.362991
_symmetry_space_group_name_H-M "P -1"
_symmetry_group_IT_number 2
_symmetry_cell_setting 'triclinic'
loop_
_space_group_symop_operation_xyz
x,y,z
-x,-y,-z
loop_
_atom_site_type_symbol
_atom_site_label
_atom_site_fract_x
_atom_site_fract_y
_atom_site_fract_z
Si Si1 0.442492 0.230937 0.932273
Si Si2 0.725571 0.587112 0.880754
Si Si3 0.822720 0.207339 0.705551
Si Si4 0.713462 0.703037 0.536005
Si Si5 0.164651 0.642866 0.655598
Si Si6 0.021339 0.254782 0.689540
Si Si7 0.531782 0.785903 0.654355
Si Si8 0.898594 0.901117 0.039838
O O1 0.338662 0.269165 0.937670
O O2 0.452138 0.188313 0.125999
O O3 0.500000 0.500000 0.000000
O O4 0.474446 0.009273 0.730192
O O5 0.741516 0.329577 0.851060
O O6 0.687786 0.579580 0.686503
O O7 0.829504 0.708196 0.878338
O O8 0.826022 0.269896 0.517653
O O9 0.922887 0.296140 0.792153
O O10 0.794720 0.922781 0.621361
O O11 0.754225 0.491776 0.349263
O O12 0.627581 0.820592 0.544280
O O13 0.071240 0.461632 0.632055
O O14 0.154065 0.874656 0.857649
O O15 0.088569 0.216863 0.817722
O O16 0.000000 0.000000 0.500000
O O17 0.500000 0.500000 0.500000
O O18 0.000000 0.000000 0.000000
#
# Coordination Sequence:
#
# PCOD9013705 Si02
#       8
#     2   2   2   2   2   2   2   2
#     4  10  22  46  67  98 138 173 215 276 338 394
#     4  10  24  40  64  92 129 168 208 262 322 383
#     4  11  21  40  66  88 123 171 213 255 319 381
#     4  10  21  41  65  94 126 166 209 262 322 382
#     4  11  23  39  62  88 126 164 215 257 313 380
#     4  12  23  40  61  89 124 170 211 263 314 369
#     4  10  23  42  70 103 132 170 220 273 333 405
#     4  12  26  40  59  94 127 165 215 260 315 377
#
# _framework density 25.544295999999999
#
# number of rings (size 3 to 8) (size 9 to 14) (size 15 to 20)
#    0.000    1.250    2.500    2.625    3.500    3.500 
#    4.500    0.000    0.000    0.000    0.000    0.000 
#    0.000    0.000    0.000    0.000    0.000    0.000 
#
# Total GULP energy -89324.451865 kJ/mol
# GULP energy per Si atom -5582.778242 kJ/mol
# Density = 2.548616 g / cm^3
# Si number density = 25.544296 Si / 1000 Ang^3
#
#
#
# Elastic Constant Matrix: (Units=GPa)
#
#
# Indices 1 2 3 4 5 6 
#
# 1 134.5931 30.6954 25.3214 18.1581 -42.7307 -22.9181
# 2 30.6954 80.5896 17.7073 16.5880 -17.7278 -19.1635
# 3 25.3214 17.7073 73.9143 21.2296 -22.4501 -22.4066
# 4 18.1581 16.5880 21.2296 52.7758 -16.4384 -8.7820
# 5 -42.7307 -17.7278 -22.4501 -16.4384 43.8186 16.3008
# 6 -22.9181 -19.1635 -22.4066 -8.7820 16.3008 50.3794
#
#
#
# Elastic Compliance Matrix: (Units=1/GPa)
#
#
# Indices 1 2 3 4 5 6 
#
# 1 0.011118 -0.001808 -0.000080 -0.000030 0.009604 0.001222
# 2 -0.001808 0.015012 -0.000597 -0.002747 0.001629 0.003617
# 3 -0.000080 -0.000597 0.018249 -0.004579 0.005330 0.005330
# 4 -0.000030 -0.002747 -0.004579 0.023252 0.005547 -0.000837
# 5 0.009604 0.001629 0.005330 0.005547 0.039290 -0.004386
# 6 0.001222 0.003617 0.005330 -0.000837 -0.004386 0.025425
#
#
# Mechanical properties :
#
#
# Convention : Reuss Voigt Hill
#
# Bulk Modulus (GPa) = 25.37360 48.50504 36.93932
# Shear Modulus (GPa) = 33.23298 43.75295 38.49297
#
# Velocity S-wave (km/s) = 3.61084 4.14312 3.88611
# Velocity P-wave (km/s) = 5.22867 6.47434 5.88456
#
# Compressibility (1/GPa) = 0.03941105
#
# Stress axis : x y z
#
# Youngs Moduli (GPa) = 89.94114 66.61336 54.79635
#
# Poissons Ratio (x) = 0.12043 0.00436
# Poissons Ratio (y) = 0.16260 0.03271
# Poissons Ratio (z) = 0.00716 0.03977
#
# Static dielectric constant tensor:
#      x y z
#    x 2.142020 -0.034190 -0.067960 
#    y -0.034190 2.071990 0.037930 
#    z -0.067960 0.037930 2.066030 
# 
# From -- ./inp_files/322903.got.cif
#   From: 2010.05.17/outbox.cif.g08.bks.cpg/sg2_162_cif.got.tgz:322903.got - 2010.06.03 11:33:40.
