data_PCOD9013822
_publ_section_title
;
Structure prediction by ZEFSAII (Michael W. Deem and Ramdas Pophale) SiO2 
 PCOD9013822
Probable space group: P -1
;
_chemical_formula_sum "Si O2"
_cell_formula_units_Z 14
_cell_length_a 13.610048
_cell_length_b 13.410047
_cell_length_c 6.881671
_cell_angle_alpha 103.805214
_cell_angle_beta 116.980536
_cell_angle_gamma 31.692425
_cell_volume 558.116921
_symmetry_space_group_name_H-M "P -1"
_symmetry_group_IT_number 2
_symmetry_cell_setting 'triclinic'
loop_
_space_group_symop_operation_xyz
x,y,z
-x,-y,-z
loop_
_atom_site_type_symbol
_atom_site_label
_atom_site_fract_x
_atom_site_fract_y
_atom_site_fract_z
Si Si1 0.466699 0.214133 0.505650
Si Si2 0.791303 0.290345 0.061276
Si Si3 0.227847 0.179478 0.577466
Si Si4 0.226250 0.920891 0.025398
Si Si5 0.594574 0.537083 0.660215
Si Si6 0.006790 0.813518 0.408021
Si Si7 0.984731 0.515092 0.763202
O O1 0.513981 0.273027 0.431120
O O2 0.219715 0.395308 0.421309
O O3 0.548005 0.043942 0.400246
O O4 0.604214 0.129734 0.780721
O O5 0.852819 0.254878 0.322310
O O6 0.687074 0.261426 0.934549
O O7 0.644617 0.490233 0.912645
O O8 0.017513 0.103420 0.061073
O O9 0.083914 0.324124 0.326956
O O10 0.129412 0.166142 0.606356
O O11 0.195746 0.302191 0.747772
O O12 0.146509 0.990718 0.764676
O O13 0.500000 0.500000 0.500000
O O14 0.824552 0.360172 0.679315
O O15 0.000000 0.500000 0.000000
#
# Coordination Sequence:
#
# PCOD9013822 Si02
#       7
#     2   2   2   2   2   2   2
#     4  12  24  47  74 107 144 189 239 298 358 432
#     4  10  21  41  65  98 148 195 236 286 340 418
#     4  11  26  49  72 109 135 186 246 289 376 430
#     4  10  22  39  67 101 145 189 236 290 346 415
#     4  11  24  43  66 105 153 192 233 293 351 416
#     4  11  23  42  70  98 145 190 240 291 350 420
#     4  11  28  52  77 102 144 180 237 318 368 428
#
# _framework density 25.084349
#
# number of rings (size 3 to 8) (size 9 to 14) (size 15 to 20)
#    0.000    1.143    4.286    0.857    4.000    2.286 
#    7.714    0.000    0.000    0.000    0.000    0.000 
#    0.000    0.000    0.000    0.000    0.000    0.000 
#
# Total GULP energy -78296.385819 kJ/mol
# GULP energy per Si atom -5592.598987 kJ/mol
# Density = 2.502726 g / cm^3
# Si number density = 25.084349 Si / 1000 Ang^3
#
#
#
# Elastic Constant Matrix: (Units=GPa)
#
#
# Indices 1 2 3 4 5 6 
#
# 1 85.9814 17.2177 13.1892 -9.4350 -20.7342 -2.1239
# 2 17.2177 66.3928 26.4891 -2.8343 -26.5502 21.3078
# 3 13.1892 26.4891 157.8159 -4.3305 -35.1876 6.1554
# 4 -9.4350 -2.8343 -4.3305 24.9537 1.6234 -10.1315
# 5 -20.7342 -26.5502 -35.1876 1.6234 43.7443 -13.0726
# 6 -2.1239 21.3078 6.1554 -10.1315 -13.0726 37.6001
#
#
#
# Elastic Compliance Matrix: (Units=1/GPa)
#
#
# Indices 1 2 3 4 5 6 
#
# 1 0.015087 -0.003162 0.000968 0.008000 0.007923 0.007396
# 2 -0.003162 0.023194 -0.001477 -0.003938 0.008158 -0.011306
# 3 0.000968 -0.001477 0.007939 0.002148 0.006606 0.002467
# 4 0.008000 -0.003938 0.002148 0.049945 0.006690 0.018116
# 5 0.007923 0.008158 0.006606 0.006690 0.039728 0.010358
# 6 0.007396 -0.011306 0.002467 0.018116 0.010358 0.041499
#
#
# Mechanical properties :
#
#
# Convention : Reuss Voigt Hill
#
# Bulk Modulus (GPa) = 25.72242 47.10911 36.41577
# Shear Modulus (GPa) = 25.29176 38.14590 31.71883
#
# Velocity S-wave (km/s) = 3.17877 3.90385 3.55982
# Velocity P-wave (km/s) = 4.87334 6.25629 5.60761
#
# Compressibility (1/GPa) = 0.03887660
#
# Stress axis : x y z
#
# Youngs Moduli (GPa) = 66.28441 43.11510 125.95765
#
# Poissons Ratio (x) = 0.13634 -0.12188
# Poissons Ratio (y) = 0.20960 0.18603
# Poissons Ratio (z) = -0.06414 0.06368
#
# Static dielectric constant tensor:
#      x y z
#    x 1.983030 0.054610 0.008160 
#    y 0.054610 2.006200 0.015460 
#    z 0.008160 0.015460 1.988250 
# 
# From -- ./inp_files/98352.got.cif
#   From: 2010.05.17/outbox.cif.g08.bks.cpg/sg2_50_cif.got.tgz:98352.got - 2010.06.03 11:33:40.
