data_PCOD9013678
_publ_section_title
;
Structure prediction by ZEFSAII (Michael W. Deem and Ramdas Pophale) SiO2 
 PCOD9013678
Probable space group: P -1
;
_chemical_formula_sum "Si O2"
_cell_formula_units_Z 14
_cell_length_a 8.494437
_cell_length_b 10.894122
_cell_length_c 15.685573
_cell_angle_alpha 135.596423
_cell_angle_beta 33.988561
_cell_angle_gamma 123.063760
_cell_volume 563.698241
_symmetry_space_group_name_H-M "P -1"
_symmetry_group_IT_number 2
_symmetry_cell_setting 'triclinic'
loop_
_space_group_symop_operation_xyz
x,y,z
-x,-y,-z
loop_
_atom_site_type_symbol
_atom_site_label
_atom_site_fract_x
_atom_site_fract_y
_atom_site_fract_z
Si Si1 0.669804 0.844084 0.679521
Si Si2 0.468429 0.285620 0.655994
Si Si3 0.950039 0.971186 0.285913
Si Si4 0.211082 0.414411 0.088496
Si Si5 0.035379 0.900560 0.024899
Si Si6 0.121762 0.511308 0.355771
Si Si7 0.367134 0.360130 0.552217
O O1 0.363993 0.813703 0.838211
O O2 0.624930 0.831787 0.591888
O O3 0.910157 0.678971 0.501240
O O4 0.792409 0.001956 0.752994
O O5 0.161833 0.219101 0.758702
O O6 0.557676 0.442015 0.750820
O O7 0.525887 0.336964 0.558264
O O8 0.688985 0.116860 0.500762
O O9 0.003927 0.006494 0.179659
O O10 0.141862 0.375319 0.200531
O O11 0.183486 0.244242 0.958744
O O12 0.953073 0.557154 0.246450
O O13 0.500000 0.500000 0.000000
O O14 0.000000 0.000000 0.000000
O O15 0.000000 0.500000 0.500000
O O16 0.500000 0.500000 0.500000
#
# Coordination Sequence:
#
# PCOD9013678 Si02
#       7
#     2   2   2   2   2   2   2
#     4  10  22  39  63  92 122 166 219 257 308 397
#     4  10  21  41  65  93 125 167 210 270 319 384
#     4  10  23  40  61  93 134 163 207 262 333 386
#     4  11  25  43  63  98 132 164 218 278 329 376
#     4  12  25  41  64  90 135 172 213 264 327 392
#     4  10  22  39  70  91 121 168 221 264 319 382
#     4  11  21  41  70  92 122 170 225 262 314 384
#
# _framework density 24.835985000000001
#
# number of rings (size 3 to 8) (size 9 to 14) (size 15 to 20)
#    0.000    1.429    1.429    3.857    4.000    2.857 
#    2.571    1.429    0.000    0.000    0.000    0.000 
#    0.000    0.000    0.000    0.000    0.000    0.000 
#
# Total GULP energy -78127.774978 kJ/mol
# GULP energy per Si atom -5580.555356 kJ/mol
# Density = 2.477946 g / cm^3
# Si number density = 24.835985 Si / 1000 Ang^3
#
#
#
# Elastic Constant Matrix: (Units=GPa)
#
#
# Indices 1 2 3 4 5 6 
#
# 1 139.8764 39.5455 4.4143 0.4612 16.8331 36.6729
# 2 39.5455 78.6175 5.3138 -19.1965 -10.8444 26.5176
# 3 4.4143 5.3138 44.4260 -6.2042 -5.4299 14.3140
# 4 0.4612 -19.1965 -6.2042 22.3480 13.9815 1.0803
# 5 16.8331 -10.8444 -5.4299 13.9815 41.8288 -5.5499
# 6 36.6729 26.5176 14.3140 1.0803 -5.5499 55.5443
#
#
#
# Elastic Compliance Matrix: (Units=1/GPa)
#
#
# Indices 1 2 3 4 5 6 
#
# 1 0.010555 -0.004106 0.000637 0.000590 -0.006197 -0.005804
# 2 -0.004106 0.023037 0.003756 0.021642 -0.000411 -0.009717
# 3 0.000637 0.003756 0.026523 0.011638 -0.000973 -0.009372
# 4 0.000590 0.021642 0.011638 0.081628 -0.022733 -0.017580
# 5 -0.006197 -0.000411 -0.000973 -0.022733 0.034890 0.008467
# 6 -0.005804 -0.009717 -0.009372 -0.017580 0.008467 0.030078
#
#
# Mechanical properties :
#
#
# Convention : Reuss Voigt Hill
#
# Bulk Modulus (GPa) = 16.47740 40.16300 28.32020
# Shear Modulus (GPa) = 22.08818 38.18731 30.13775
#
# Velocity S-wave (km/s) = 2.98545 3.92545 3.48727
# Velocity P-wave (km/s) = 4.30497 6.06234 5.25760
#
# Compressibility (1/GPa) = 0.06068918
#
# Stress axis : x y z
#
# Youngs Moduli (GPa) = 94.74011 43.40928 37.70319
#
# Poissons Ratio (x) = 0.17822 -0.02403
# Poissons Ratio (y) = 0.38896 -0.14160
# Poissons Ratio (z) = -0.06037 -0.16303
#
# Static dielectric constant tensor:
#      x y z
#    x 2.097980 0.033300 0.072520 
#    y 0.033300 2.115390 -0.030520 
#    z 0.072520 -0.030520 1.987920 
# 
# From -- ./inp_files/184043.got.cif
#   From: 2010.05.17/outbox.cif.g08.bks.cpg/sg2_93_cif.got.tgz:184043.got - 2010.06.03 11:33:40.
