data_PCOD9013341
_publ_section_title
;
Structure prediction by ZEFSAII (Michael W. Deem and Ramdas Pophale) SiO2 
 PCOD9013341
Probable space group: P -1
;
_chemical_formula_sum "Si O2"
_cell_formula_units_Z 16
_cell_length_a 9.515195
_cell_length_b 7.719170
_cell_length_c 21.966335
_cell_angle_alpha 81.294372
_cell_angle_beta 153.252590
_cell_angle_gamma 95.417797
_cell_volume 714.747639
_symmetry_space_group_name_H-M "P -1"
_symmetry_group_IT_number 2
_symmetry_cell_setting 'triclinic'
loop_
_space_group_symop_operation_xyz
x,y,z
-x,-y,-z
loop_
_atom_site_type_symbol
_atom_site_label
_atom_site_fract_x
_atom_site_fract_y
_atom_site_fract_z
Si Si1 0.365322 0.932744 0.638801
Si Si2 0.547605 0.151016 0.461911
Si Si3 0.284181 0.735989 0.729212
Si Si4 0.763889 0.155455 0.867476
Si Si5 0.748079 0.880527 0.238524
Si Si6 0.162270 0.439600 0.358682
Si Si7 0.407134 0.294115 0.926213
Si Si8 0.222782 0.407415 0.979132
O O1 0.446429 0.909465 0.601645
O O2 0.379570 0.759529 0.695582
O O3 0.587386 0.061133 0.750507
O O4 0.000000 0.000000 0.500000
O O5 0.255160 0.292166 0.351950
O O6 0.897295 0.205280 0.609709
O O7 0.500000 0.000000 0.500000
O O8 0.553710 0.624212 0.874981
O O9 0.968093 0.649758 0.626818
O O10 0.256947 0.926846 0.742621
O O11 0.503647 0.213932 0.814299
O O12 0.918298 0.319695 0.889081
O O13 0.000000 0.000000 0.000000
O O14 0.633530 0.871162 0.124809
O O15 0.500000 0.500000 0.500000
O O16 0.892536 0.575061 0.219808
O O17 0.721026 0.392718 0.028985
O O18 0.357407 0.290768 0.979423
#
# Coordination Sequence:
#
# PCOD9013341 Si02
#       8
#     2   2   2   2   2   2   2   2
#     4  11  21  39  64  97 128 161 209 273 329 367
#     4  12  23  40  65  98 126 165 214 267 325 389
#     4  10  21  41  64  91 130 164 215 279 307 386
#     4  11  22  41  66  97 128 169 217 268 322 381
#     4  11  21  40  64  97 123 166 216 262 326 375
#     4  11  22  40  64  90 131 169 216 261 327 384
#     4  10  24  41  64  92 131 174 211 272 324 383
#     4  10  22  44  61  89 134 172 217 264 326 381
#
# _framework density 22.385522999999999
#
# number of rings (size 3 to 8) (size 9 to 14) (size 15 to 20)
#    0.000    1.250    7.500    0.000    1.750    2.000 
#    6.750    3.125    0.000    0.000    0.000    0.000 
#    0.000    0.000    0.000    0.000    0.000    0.000 
#
# Total GULP energy -89284.427002 kJ/mol
# GULP energy per Si atom -5580.276688 kJ/mol
# Density = 2.233457 g / cm^3
# Si number density = 22.385523 Si / 1000 Ang^3
#
#
#
# Elastic Constant Matrix: (Units=GPa)
#
#
# Indices 1 2 3 4 5 6 
#
# 1 131.2070 17.7717 34.0672 13.9319 -13.8883 22.0293
# 2 17.7717 46.3239 21.0162 10.1405 7.8228 9.0326
# 3 34.0672 21.0162 95.6894 24.2307 -4.2440 15.8467
# 4 13.9319 10.1405 24.2307 34.6109 4.2952 6.4780
# 5 -13.8883 7.8228 -4.2440 4.2952 51.3805 13.9248
# 6 22.0293 9.0326 15.8467 6.4780 13.9248 34.5338
#
#
#
# Elastic Compliance Matrix: (Units=1/GPa)
#
#
# Indices 1 2 3 4 5 6 
#
# 1 0.010177 -0.002432 -0.001243 -0.001835 0.005065 -0.006983
# 2 -0.002432 0.025989 -0.004106 -0.003023 -0.004427 -0.001010
# 3 -0.001243 -0.004106 0.014826 -0.008211 0.003503 -0.004808
# 4 -0.001835 -0.003023 -0.008211 0.036670 -0.003893 0.000420
# 5 0.005065 -0.004427 0.003503 -0.003893 0.025732 -0.013326
# 6 -0.006983 -0.001010 -0.004808 0.000420 -0.013326 0.041177
#
#
# Mechanical properties :
#
#
# Convention : Reuss Voigt Hill
#
# Bulk Modulus (GPa) = 28.22514 46.54784 37.38649
# Shear Modulus (GPa) = 27.48117 37.46272 32.47194
#
# Velocity S-wave (km/s) = 3.50756 4.09531 3.81278
# Velocity P-wave (km/s) = 5.38888 6.57274 6.01003
#
# Compressibility (1/GPa) = 0.03542941
#
# Stress axis : x y z
#
# Youngs Moduli (GPa) = 98.25870 38.47765 67.45055
#
# Poissons Ratio (x) = 0.09359 0.08386
# Poissons Ratio (y) = 0.23899 0.27694
# Poissons Ratio (z) = 0.12217 0.15798
#
# Static dielectric constant tensor:
#      x y z
#    x 1.853910 -0.010700 0.014980 
#    y -0.010700 1.962960 0.006420 
#    z 0.014980 0.006420 1.829540 
# 
# From -- ./inp_files/342790.got.cif
#   From: 2010.05.17/outbox.cif.g08.bks.cpg/sg2_172_cif.got.tgz:342790.got - 2010.06.03 11:33:40.
