data_PCOD9013607
_publ_section_title
;
Structure prediction by ZEFSAII (Michael W. Deem and Ramdas Pophale) SiO2 
 PCOD9013607
Probable space group: P -1
;
_chemical_formula_sum "Si O2"
_cell_formula_units_Z 12
_cell_length_a 14.584215
_cell_length_b 7.545256
_cell_length_c 14.086747
_cell_angle_alpha 131.535723
_cell_angle_beta 39.515111
_cell_angle_gamma 99.639240
_cell_volume 510.466256
_symmetry_space_group_name_H-M "P -1"
_symmetry_group_IT_number 2
_symmetry_cell_setting 'triclinic'
loop_
_space_group_symop_operation_xyz
x,y,z
-x,-y,-z
loop_
_atom_site_type_symbol
_atom_site_label
_atom_site_fract_x
_atom_site_fract_y
_atom_site_fract_z
Si Si1 0.968591 0.083621 0.917206
Si Si2 0.470486 0.148344 0.973440
Si Si3 0.280280 0.105790 0.942419
Si Si4 0.268127 0.310693 0.559779
Si Si5 0.373800 0.700923 0.359072
Si Si6 0.307712 0.374791 0.833280
O O1 0.923854 0.299857 0.121107
O O2 0.861389 0.360480 0.015645
O O3 0.210937 0.783503 0.591902
O O4 0.855122 0.966563 0.966892
O O5 0.297726 0.235163 0.072695
O O6 0.684153 0.849064 0.638751
O O7 0.410074 0.487823 0.165651
O O8 0.500000 0.000000 0.000000
O O9 0.222322 0.335463 0.979201
O O10 0.528707 0.765340 0.607512
O O11 0.289536 0.054030 0.516776
O O12 0.590129 0.503415 0.167194
O O13 0.500000 0.000000 0.500000
#
# Coordination Sequence:
#
# PCOD9013607 Si02
#       6
#     2   2   2   2   2   2
#     4  12  22  43  67  98 131 161 213 277 309 368
#     4  10  21  41  65  90 130 176 207 257 326 378
#     4   9  22  39  64  90 129 168 215 251 318 384
#     4   9  21  39  66  88 130 169 210 254 322 379
#     4  11  23  40  68  95 126 165 220 260 312 389
#     4  11  22  40  66  91 131 172 204 259 332 368
#
# _framework density 23.507921
#
# number of rings (size 3 to 8) (size 9 to 14) (size 15 to 20)
#    1.000    0.667    3.333    2.500    0.000    0.667 
#    3.000    2.500    0.000    0.000    0.000    0.000 
#    0.000    0.000    0.000    0.000    0.000    0.000 
#
# Total GULP energy -67072.704571 kJ/mol
# GULP energy per Si atom -5589.392048 kJ/mol
# Density = 2.345442 g / cm^3
# Si number density = 23.507921 Si / 1000 Ang^3
#
#
#
# Elastic Constant Matrix: (Units=GPa)
#
#
# Indices 1 2 3 4 5 6 
#
# 1 123.3939 55.3952 41.6847 -1.3710 28.8396 13.2031
# 2 55.3952 110.4345 50.3510 -10.2787 10.6296 7.2113
# 3 41.6847 50.3510 106.0881 -9.5964 32.2771 19.1347
# 4 -1.3710 -10.2787 -9.5964 42.3447 3.0660 0.5894
# 5 28.8396 10.6296 32.2771 3.0660 38.4650 12.2807
# 6 13.2031 7.2113 19.1347 0.5894 12.2807 36.0214
#
#
#
# Elastic Compliance Matrix: (Units=1/GPa)
#
#
# Indices 1 2 3 4 5 6 
#
# 1 0.012403 -0.005560 0.000226 -0.000332 -0.007623 -0.000949
# 2 -0.005560 0.014230 -0.006074 0.001527 0.004991 0.000689
# 3 0.000226 -0.006074 0.016720 0.003212 -0.011542 -0.003866
# 4 -0.000332 0.001527 0.003212 0.025049 -0.004635 -0.000720
# 5 -0.007623 0.004991 -0.011542 -0.004635 0.042455 -0.006472
# 6 -0.000949 0.000689 -0.003866 -0.000720 -0.006472 0.032243
#
#
# Mechanical properties :
#
#
# Convention : Reuss Voigt Hill
#
# Bulk Modulus (GPa) = 48.69272 70.53092 59.61182
# Shear Modulus (GPa) = 28.94156 36.19859 32.57007
#
# Velocity S-wave (km/s) = 3.51257 3.92835 3.72626
# Velocity P-wave (km/s) = 6.09993 7.11646 6.62771
#
# Compressibility (1/GPa) = 0.02053695
#
# Stress axis : x y z
#
# Youngs Moduli (GPa) = 80.62359 70.27437 59.80921
#
# Poissons Ratio (x) = 0.39070 -0.01349
# Poissons Ratio (y) = 0.44824 0.36328
# Poissons Ratio (z) = -0.01818 0.42684
#
# Static dielectric constant tensor:
#      x y z
#    x 1.907110 -0.041870 -0.001320 
#    y -0.041870 1.951380 -0.007910 
#    z -0.001320 -0.007910 1.893550 
# 
# From -- ./inp_files/527039.got.cif
#   From: 2010.05.17/outbox.cif.g08.bks.cpg/sg2_264_cif.got.tgz:527039.got - 2010.06.03 11:33:40.
