data_PCOD9013424
_publ_section_title
;
Structure prediction by ZEFSAII (Michael W. Deem and Ramdas Pophale) SiO2 
 PCOD9013424
Probable space group: P -1
;
_chemical_formula_sum "Si O2"
_cell_formula_units_Z 16
_cell_length_a 24.619393
_cell_length_b 19.162379
_cell_length_c 10.528388
_cell_angle_alpha 45.414244
_cell_angle_beta 133.047865
_cell_angle_gamma 167.606058
_cell_volume 759.104389
_symmetry_space_group_name_H-M "P -1"
_symmetry_group_IT_number 2
_symmetry_cell_setting 'triclinic'
loop_
_space_group_symop_operation_xyz
x,y,z
-x,-y,-z
loop_
_atom_site_type_symbol
_atom_site_label
_atom_site_fract_x
_atom_site_fract_y
_atom_site_fract_z
Si Si1 0.273908 0.975252 0.344694
Si Si2 0.903156 0.797245 0.704910
Si Si3 0.753215 0.259823 0.541021
Si Si4 0.956446 0.274108 0.221471
Si Si5 0.619692 0.330090 0.630184
Si Si6 0.862236 0.328142 0.174977
Si Si7 0.523931 0.443088 0.714239
Si Si8 0.609927 0.692434 0.053623
O O1 0.303609 0.901626 0.436818
O O2 0.988561 0.620168 0.399708
O O3 0.492262 0.257692 0.439952
O O4 0.322444 0.113629 0.135246
O O5 0.745058 0.523474 0.714408
O O6 0.734436 0.636734 0.746953
O O7 0.000000 0.000000 0.500000
O O8 0.136802 0.040654 0.834887
O O9 0.879014 0.364597 0.728997
O O10 0.500000 0.000000 0.500000
O O11 0.160004 0.451811 0.368386
O O12 0.822818 0.173789 0.240409
O O13 0.105234 0.540823 0.034014
O O14 0.743862 0.950567 0.216315
O O15 0.378165 0.958842 0.753181
O O16 0.500000 0.500000 0.500000
O O17 0.564506 0.526024 0.818806
O O18 0.500000 0.500000 0.000000
#
# Coordination Sequence:
#
# PCOD9013424 Si02
#       8
#     2   2   2   2   2   2   2   2
#     4  10  24  41  65 100 140 179 228 282 346 409
#     4  12  24  45  71  99 131 184 230 286 346 409
#     4  10  21  41  64  94 141 187 222 276 347 411
#     4  11  21  38  62 101 128 173 224 288 330 399
#     4  11  21  41  66  94 133 179 225 274 341 402
#     4  10  22  36  62  96 135 170 231 277 330 406
#     4  12  25  44  72 100 133 180 233 282 345 416
#     4  12  27  46  71 104 142 176 227 295 348 415
#
# _framework density 21.077470999999999
#
# number of rings (size 3 to 8) (size 9 to 14) (size 15 to 20)
#    0.000    1.000    3.750    2.625    0.000    2.500 
#    2.250    1.250    0.000    0.000    0.000    0.000 
#    0.000    0.000    0.000    0.000    0.000    0.000 
#
# Total GULP energy -89369.303567 kJ/mol
# GULP energy per Si atom -5585.581473 kJ/mol
# Density = 2.102950 g / cm^3
# Si number density = 21.077471 Si / 1000 Ang^3
#
#
#
# Elastic Constant Matrix: (Units=GPa)
#
#
# Indices 1 2 3 4 5 6 
#
# 1 105.0165 46.0763 32.4737 6.4404 -7.6844 5.1731
# 2 46.0763 98.3243 35.3943 25.6538 3.7185 14.1767
# 3 32.4737 35.3943 108.2104 11.1756 -13.1963 6.2018
# 4 6.4404 25.6538 11.1756 29.8268 -4.1640 -5.2903
# 5 -7.6844 3.7185 -13.1963 -4.1640 25.5318 5.8773
# 6 5.1731 14.1767 6.2018 -5.2903 5.8773 44.7498
#
#
#
# Elastic Compliance Matrix: (Units=1/GPa)
#
#
# Indices 1 2 3 4 5 6 
#
# 1 0.013153 -0.007133 -0.001572 0.004705 0.004748 0.000890
# 2 -0.007133 0.020340 -0.003425 -0.016896 -0.008240 -0.006059
# 3 -0.001572 -0.003425 0.011718 -0.000446 0.006294 -0.001237
# 4 0.004705 -0.016896 -0.000446 0.050249 0.009644 0.009544
# 5 0.004748 -0.008240 0.006294 0.009644 0.047523 -0.003912
# 6 0.000890 -0.006059 -0.001237 0.009544 -0.003912 0.025977
#
#
# Mechanical properties :
#
#
# Convention : Reuss Voigt Hill
#
# Bulk Modulus (GPa) = 47.73195 59.93776 53.83485
# Shear Modulus (GPa) = 24.97472 33.19547 29.08510
#
# Velocity S-wave (km/s) = 3.44597 3.97284 3.71875
# Velocity P-wave (km/s) = 6.20710 7.03869 6.63594
#
# Compressibility (1/GPa) = 0.02095033
#
# Stress axis : x y z
#
# Youngs Moduli (GPa) = 76.02720 49.16521 85.34101
#
# Poissons Ratio (x) = 0.35071 0.13415
# Poissons Ratio (y) = 0.54233 0.29228
# Poissons Ratio (z) = 0.11951 0.16838
#
# Static dielectric constant tensor:
#      x y z
#    x 1.847810 -0.048930 -0.015570 
#    y -0.048930 1.770600 -0.000980 
#    z -0.015570 -0.000980 1.750210 
# 
# From -- ./inp_files/477101.got.cif
#   From: 2010.05.17/outbox.cif.g08.bks.cpg/sg2_239_cif.got.tgz:477101.got - 2010.06.03 11:33:40.
