data_PCOD9013652
_publ_section_title
;
Structure prediction by ZEFSAII (Michael W. Deem and Ramdas Pophale) SiO2 
 PCOD9013652
Probable space group: P -1
;
_chemical_formula_sum "Si O2"
_cell_formula_units_Z 12
_cell_length_a 6.703222
_cell_length_b 17.094248
_cell_length_c 20.324862
_cell_angle_alpha 158.441522
_cell_angle_beta 149.209192
_cell_angle_gamma 32.751601
_cell_volume 426.974529
_symmetry_space_group_name_H-M "P -1"
_symmetry_group_IT_number 2
_symmetry_cell_setting 'triclinic'
loop_
_space_group_symop_operation_xyz
x,y,z
-x,-y,-z
loop_
_atom_site_type_symbol
_atom_site_label
_atom_site_fract_x
_atom_site_fract_y
_atom_site_fract_z
Si Si1 0.504499 0.952261 0.779934
Si Si2 0.784400 0.969589 0.494192
Si Si3 0.299624 0.622382 0.297779
Si Si4 0.773890 0.324553 0.095381
Si Si5 0.886904 0.001924 0.157068
Si Si6 0.567881 0.465991 0.393678
O O1 0.236738 0.020789 0.821442
O O2 0.650725 0.692067 0.619703
O O3 0.203986 0.993158 0.664004
O O4 0.824343 0.097687 0.972452
O O5 0.500000 0.000000 0.500000
O O6 0.374024 0.846809 0.461235
O O7 0.882083 0.732476 0.302274
O O8 0.399592 0.469766 0.141979
O O9 0.519248 0.489902 0.319559
O O10 0.142912 0.443714 0.288004
O O11 0.787200 0.211437 0.939169
O O12 0.898563 0.253283 0.342169
O O13 0.500000 0.000000 0.000000
#
# Coordination Sequence:
#
# PCOD9013652 Si02
#       6
#     2   2   2   2   2   2
#     4  11  24  41  66  98 125 172 224 257 325 385
#     4  10  23  44  69  94 128 169 216 273 321 383
#     4  10  21  41  65  92 126 168 212 261 326 375
#     4  11  23  41  65  95 133 169 212 268 315 381
#     4  10  23  42  65  97 135 172 214 264 318 382
#     4  10  23  42  65  95 133 173 213 265 317 378
#
# _framework density 28.104721000000001
#
# number of rings (size 3 to 8) (size 9 to 14) (size 15 to 20)
#    0.000    1.667    0.000    4.500    0.000   14.000 
#    0.000    2.500    0.000    0.000    0.000    0.000 
#    0.000    0.000    0.000    0.000    0.000    0.000 
#
# Total GULP energy -67049.426397 kJ/mol
# GULP energy per Si atom -5587.452200 kJ/mol
# Density = 2.804075 g / cm^3
# Si number density = 28.104721 Si / 1000 Ang^3
#
#
#
# Elastic Constant Matrix: (Units=GPa)
#
#
# Indices 1 2 3 4 5 6 
#
# 1 244.6751 59.4197 88.3485 12.7651 -34.9207 0.4094
# 2 59.4197 132.8221 36.1593 -0.7028 -13.9814 22.2238
# 3 88.3485 36.1593 163.4501 39.7055 -12.9436 -16.9566
# 4 12.7651 -0.7028 39.7055 41.6585 -7.5273 -12.9176
# 5 -34.9207 -13.9814 -12.9436 -7.5273 85.9947 14.6765
# 6 0.4094 22.2238 -16.9566 -12.9176 14.6765 54.8939
#
#
#
# Elastic Compliance Matrix: (Units=1/GPa)
#
#
# Indices 1 2 3 4 5 6 
#
# 1 0.005715 -0.001448 -0.002978 0.001215 0.001843 -0.000583
# 2 -0.001448 0.009689 -0.002061 0.001421 0.001594 -0.004640
# 3 -0.002978 -0.002061 0.010408 -0.008511 -0.001128 0.002371
# 4 0.001215 0.001421 -0.008511 0.033368 0.001648 0.004198
# 5 0.001843 0.001594 -0.001128 0.001648 0.013324 -0.004182
# 6 -0.000583 -0.004640 0.002371 0.004198 -0.004182 0.022938
#
#
# Mechanical properties :
#
#
# Convention : Reuss Voigt Hill
#
# Bulk Modulus (GPa) = 77.89896 100.97803 89.43850
# Shear Modulus (GPa) = 44.36682 60.31074 52.33878
#
# Velocity S-wave (km/s) = 3.97750 4.63744 4.32009
# Velocity P-wave (km/s) = 6.99082 8.04249 7.53503
#
# Compressibility (1/GPa) = 0.01283714
#
# Stress axis : x y z
#
# Youngs Moduli (GPa) = 174.98745 103.20564 96.07806
#
# Poissons Ratio (x) = 0.14941 0.28617
# Poissons Ratio (y) = 0.25332 0.19806
# Poissons Ratio (z) = 0.52120 0.21275
#
# Static dielectric constant tensor:
#      x y z
#    x 2.208120 -0.068570 0.019010 
#    y -0.068570 2.229670 -0.024030 
#    z 0.019010 -0.024030 2.282920 
# 
# From -- ./inp_files/583786.got.cif
#   From: 2010.05.17/outbox.cif.g08.bks.cpg/sg2_292_cif.got.tgz:583786.got - 2010.06.03 11:33:40.
