data_PCOD9013545
_publ_section_title
;
Structure prediction by ZEFSAII (Michael W. Deem and Ramdas Pophale) SiO2 
 PCOD9013545
Probable space group: P -1
;
_chemical_formula_sum "Si O2"
_cell_formula_units_Z 16
_cell_length_a 15.776641
_cell_length_b 13.251321
_cell_length_c 11.757022
_cell_angle_alpha 128.396772
_cell_angle_beta 155.391090
_cell_angle_gamma 46.814814
_cell_volume 746.304968
_symmetry_space_group_name_H-M "P -1"
_symmetry_group_IT_number 2
_symmetry_cell_setting 'triclinic'
loop_
_space_group_symop_operation_xyz
x,y,z
-x,-y,-z
loop_
_atom_site_type_symbol
_atom_site_label
_atom_site_fract_x
_atom_site_fract_y
_atom_site_fract_z
Si Si1 0.027504 0.714127 0.317902
Si Si2 0.363040 0.161039 0.685153
Si Si3 0.223677 0.108562 0.076809
Si Si4 0.956012 0.064998 0.115882
Si Si5 0.450100 0.261298 0.630324
Si Si6 0.273712 0.425410 0.131041
Si Si7 0.640528 0.839131 0.067382
Si Si8 0.439806 0.503679 0.625335
O O1 0.895028 0.811525 0.326724
O O2 0.284775 0.656873 0.582402
O O3 0.908712 0.788356 0.110809
O O4 0.967779 0.576290 0.163959
O O5 0.355292 0.262929 0.642697
O O6 0.383557 0.210899 0.871458
O O7 0.571652 0.019875 0.814394
O O8 0.145314 0.125073 0.404422
O O9 0.329179 0.182751 0.348476
O O10 0.054302 0.050475 0.889136
O O11 0.708545 0.173305 0.892497
O O12 0.000000 0.000000 0.000000
O O13 0.440986 0.399024 0.651916
O O14 0.332807 0.472179 0.355990
O O15 0.327585 0.504979 0.147152
O O16 0.410388 0.261491 0.157010
O O17 0.500000 0.000000 0.000000
#
# Coordination Sequence:
#
# PCOD9013545 Si02
#       8
#     2   2   2   2   2   2   2   2
#     4  10  22  39  63  91 121 160 197 252 305 359
#     4  11  21  41  56  87 127 157 198 248 309 362
#     4  11  20  35  61  91 120 154 199 255 308 348
#     4  11  21  35  58  89 121 159 202 248 303 359
#     4  11  22  36  61  87 122 161 201 255 294 354
#     4   9  22  39  62  89 122 157 202 254 296 357
#     4  10  21  41  65  87 126 162 192 252 316 362
#     4  11  22  41  64  94 120 159 212 251 297 353
#
# _framework density 21.438958
#
# number of rings (size 3 to 8) (size 9 to 14) (size 15 to 20)
#    0.750    0.750    5.000    1.125    0.000    5.000 
#    4.500    2.500    0.000    0.000    0.000    0.000 
#    0.000    0.000    0.000    0.000    0.000    0.000 
#
# Total GULP energy -89210.120645 kJ/mol
# GULP energy per Si atom -5575.632540 kJ/mol
# Density = 2.139016 g / cm^3
# Si number density = 21.438958 Si / 1000 Ang^3
#
#
#
# Elastic Constant Matrix: (Units=GPa)
#
#
# Indices 1 2 3 4 5 6 
#
# 1 185.5660 51.6317 48.8147 -8.3572 10.9853 26.5584
# 2 51.6317 59.0630 21.0436 -6.3613 4.3345 13.9160
# 3 48.8147 21.0436 62.6981 8.2083 21.4454 17.3680
# 4 -8.3572 -6.3613 8.2083 19.4331 6.7229 -0.5703
# 5 10.9853 4.3345 21.4454 6.7229 31.8035 9.0762
# 6 26.5584 13.9160 17.3680 -0.5703 9.0762 46.4608
#
#
#
# Elastic Compliance Matrix: (Units=1/GPa)
#
#
# Indices 1 2 3 4 5 6 
#
# 1 0.008487 -0.004758 -0.005446 0.004009 0.000979 -0.001533
# 2 -0.004758 0.024269 -0.004967 0.007616 0.000865 -0.002768
# 3 -0.005446 -0.004967 0.029040 -0.011681 -0.013480 -0.003765
# 4 0.004009 0.007616 -0.011681 0.063669 -0.008651 0.002265
# 5 0.000979 0.000865 -0.013480 -0.008651 0.043136 -0.004313
# 6 -0.001533 -0.002768 -0.003765 0.002265 -0.004313 0.025506
#
#
# Mechanical properties :
#
#
# Convention : Reuss Voigt Hill
#
# Bulk Modulus (GPa) = 31.79356 61.14526 46.46941
# Shear Modulus (GPa) = 21.28239 31.92863 26.60551
#
# Velocity S-wave (km/s) = 3.15413 3.86331 3.52659
# Velocity P-wave (km/s) = 5.30346 6.96295 6.18908
#
# Compressibility (1/GPa) = 0.03145291
#
# Stress axis : x y z
#
# Youngs Moduli (GPa) = 117.82124 41.20449 34.43539
#
# Poissons Ratio (x) = 0.19605 0.18755
# Poissons Ratio (y) = 0.56059 0.17106
# Poissons Ratio (z) = 0.64169 0.20468
#
# Static dielectric constant tensor:
#      x y z
#    x 1.786200 0.010070 0.033890 
#    y 0.010070 1.837110 -0.007050 
#    z 0.033890 -0.007050 1.833740 
# 
# From -- ./inp_files/451710.got.cif
#   From: 2010.05.17/outbox.cif.g08.bks.cpg/sg2_226_cif.got.tgz:451710.got - 2010.06.03 11:33:40.
