data_PCOD9013285
_publ_section_title
;
Structure prediction by ZEFSAII (Michael W. Deem and Ramdas Pophale) SiO2 
 PCOD9013285
Probable space group: P -1
;
_chemical_formula_sum "Si O2"
_cell_formula_units_Z 14
_cell_length_a 12.115538
_cell_length_b 16.860051
_cell_length_c 8.095521
_cell_angle_alpha 42.993007
_cell_angle_beta 116.464700
_cell_angle_gamma 144.069015
_cell_volume 615.696783
_symmetry_space_group_name_H-M "P -1"
_symmetry_group_IT_number 2
_symmetry_cell_setting 'triclinic'
loop_
_space_group_symop_operation_xyz
x,y,z
-x,-y,-z
loop_
_atom_site_type_symbol
_atom_site_label
_atom_site_fract_x
_atom_site_fract_y
_atom_site_fract_z
Si Si1 0.543438 0.406793 0.590351
Si Si2 0.533000 0.761980 0.543201
Si Si3 0.029927 0.348577 0.356182
Si Si4 0.887402 0.174944 0.022174
Si Si5 0.121789 0.538652 0.775714
Si Si6 0.069353 0.940434 0.471751
Si Si7 0.876840 0.982836 0.072780
O O1 0.500000 0.500000 0.500000
O O2 0.528080 0.376018 0.428893
O O3 0.757516 0.523607 0.615778
O O4 0.356929 0.190952 0.861732
O O5 0.336039 0.661459 0.656761
O O6 0.656804 0.962131 0.232434
O O7 0.705756 0.847641 0.655807
O O8 0.903726 0.343779 0.389787
O O9 0.920785 0.147920 0.533014
O O10 0.084243 0.454311 0.059262
O O11 0.003662 0.187600 0.223027
O O12 0.944267 0.158877 0.911473
O O13 0.949042 0.352434 0.826314
O O14 0.915412 0.926841 0.343156
O O15 0.000000 0.000000 0.000000
#
# Coordination Sequence:
#
# PCOD9013285 Si02
#       7
#     2   2   2   2   2   2   2
#     4  11  23  39  59  88 121 153 203 247 301 349
#     4   9  22  38  61  88 117 164 196 241 303 355
#     4  10  22  40  63  89 119 159 198 258 288 354
#     4   8  20  38  58  85 121 154 199 241 292 357
#     4  10  21  41  64  87 121 157 210 235 301 359
#     4   9  19  40  57  84 121 159 193 241 303 352
#     4  11  22  35  58  89 123 156 197 251 302 351
#
# _framework density 22.738467
#
# number of rings (size 3 to 8) (size 9 to 14) (size 15 to 20)
#    0.857    1.429    1.429    0.429    4.000    1.143 
#    0.000    4.286    0.000    0.000    0.000    0.000 
#    0.000    0.000    0.000    0.000    0.000    0.000 
#
# Total GULP energy -78083.019982 kJ/mol
# GULP energy per Si atom -5577.358570 kJ/mol
# Density = 2.268671 g / cm^3
# Si number density = 22.738467 Si / 1000 Ang^3
#
#
#
# Elastic Constant Matrix: (Units=GPa)
#
#
# Indices 1 2 3 4 5 6 
#
# 1 149.2635 63.6165 24.1306 -8.1746 -11.4062 -25.5942
# 2 63.6165 149.6565 12.2394 -13.1190 3.0785 -27.5637
# 3 24.1306 12.2394 49.6449 -8.4703 4.9621 -8.6521
# 4 -8.1746 -13.1190 -8.4703 21.9592 -1.5380 2.2305
# 5 -11.4062 3.0785 4.9621 -1.5380 37.6774 -5.8624
# 6 -25.5942 -27.5637 -8.6521 2.2305 -5.8624 40.1656
#
#
#
# Elastic Compliance Matrix: (Units=1/GPa)
#
#
# Indices 1 2 3 4 5 6 
#
# 1 0.009619 -0.003165 -0.003625 0.000205 0.004245 0.003785
# 2 -0.003165 0.009079 0.000795 0.004074 -0.001014 0.004011
# 3 -0.003625 0.000795 0.023823 0.007818 -0.003606 0.002407
# 4 0.000205 0.004074 0.007818 0.050944 0.001081 0.001939
# 5 0.004245 -0.001014 -0.003606 0.001081 0.029275 0.005445
# 6 0.003785 0.004011 0.002407 0.001939 0.005445 0.031267
#
#
# Mechanical properties :
#
#
# Convention : Reuss Voigt Hill
#
# Bulk Modulus (GPa) = 32.75220 60.94864 46.85042
# Shear Modulus (GPa) = 28.38130 36.53234 32.45682
#
# Velocity S-wave (km/s) = 3.53677 4.01263 3.78219
# Velocity P-wave (km/s) = 5.57794 6.95203 6.30254
#
# Compressibility (1/GPa) = 0.03053230
#
# Stress axis : x y z
#
# Youngs Moduli (GPa) = 103.96053 110.14545 41.97671
#
# Poissons Ratio (x) = 0.34857 0.15216
# Poissons Ratio (y) = 0.32900 -0.03339
# Poissons Ratio (z) = 0.37686 -0.08762
#
# Static dielectric constant tensor:
#      x y z
#    x 1.803480 -0.075800 -0.032230 
#    y -0.075800 1.890600 0.050020 
#    z -0.032230 0.050020 1.934040 
# 
# From -- ./inp_files/271858.got.cif
#   From: 2010.05.17/outbox.cif.g08.bks.cpg/sg2_136_cif.got.tgz:271858.got - 2010.06.03 11:33:40.
