data_PCOD9013733
_publ_section_title
;
Structure prediction by ZEFSAII (Michael W. Deem and Ramdas Pophale) SiO2 
 PCOD9013733
Probable space group: P -1
;
_chemical_formula_sum "Si O2"
_cell_formula_units_Z 14
_cell_length_a 6.776375
_cell_length_b 20.326651
_cell_length_c 8.794113
_cell_angle_alpha 42.203195
_cell_angle_beta 93.572304
_cell_angle_gamma 117.711775
_cell_volume 634.131515
_symmetry_space_group_name_H-M "P -1"
_symmetry_group_IT_number 2
_symmetry_cell_setting 'triclinic'
loop_
_space_group_symop_operation_xyz
x,y,z
-x,-y,-z
loop_
_atom_site_type_symbol
_atom_site_label
_atom_site_fract_x
_atom_site_fract_y
_atom_site_fract_z
Si Si1 0.984741 0.833256 0.951041
Si Si2 0.964066 0.374241 0.243237
Si Si3 0.900060 0.997056 0.835386
Si Si4 0.691281 0.230191 0.772186
Si Si5 0.608251 0.398039 0.634337
Si Si6 0.550675 0.483351 0.786773
Si Si7 0.959035 0.765423 0.727883
O O1 0.054536 0.828573 0.789800
O O2 0.014227 0.954854 0.792215
O O3 0.688612 0.717523 0.156785
O O4 0.136518 0.808347 0.111199
O O5 0.231724 0.421570 0.248302
O O6 0.921825 0.298108 0.220358
O O7 0.751788 0.285221 0.510823
O O8 0.000000 0.500000 0.000000
O O9 0.977058 0.129456 0.566234
O O10 0.597982 0.890480 0.010244
O O11 0.000000 0.000000 0.000000
O O12 0.741258 0.338630 0.699022
O O13 0.685700 0.474142 0.663903
O O14 0.605198 0.474081 0.365126
O O15 0.342140 0.346212 0.079976
#
# Coordination Sequence:
#
# PCOD9013733 Si02
#       7
#     2   2   2   2   2   2   2
#     4  10  22  45  69  97 126 168 223 266 322 381
#     4  12  26  39  64 103 134 171 216 264 325 384
#     4  11  26  45  70  95 128 172 216 268 327 383
#     4  11  24  43  69  94 131 167 219 267 322 386
#     4   9  20  40  69  97 127 173 211 269 322 381
#     4  10  21  41  65  94 135 170 216 263 324 381
#     4  11  25  43  66  93 134 175 212 269 322 380
#
# _framework density 22.077438999999998
#
# number of rings (size 3 to 8) (size 9 to 14) (size 15 to 20)
#    0.000    1.429    1.429    2.571    6.000    3.429 
#    0.000    0.000    0.000    0.000    0.000    0.000 
#    0.000    0.000    0.000    0.000    0.000    0.000 
#
# Total GULP energy -78339.946942 kJ/mol
# GULP energy per Si atom -5595.710496 kJ/mol
# Density = 2.202719 g / cm^3
# Si number density = 22.077439 Si / 1000 Ang^3
#
#
#
# Elastic Constant Matrix: (Units=GPa)
#
#
# Indices 1 2 3 4 5 6 
#
# 1 71.7218 13.4389 22.7981 -4.2278 1.4985 -24.3970
# 2 13.4389 78.4146 10.9898 5.8500 3.5047 -26.0214
# 3 22.7981 10.9898 135.1504 -2.8043 9.6785 -11.7657
# 4 -4.2278 5.8500 -2.8043 30.6247 -4.9697 2.6357
# 5 1.4985 3.5047 9.6785 -4.9697 22.9164 -3.3644
# 6 -24.3970 -26.0214 -11.7657 2.6357 -3.3644 34.1459
#
#
#
# Elastic Compliance Matrix: (Units=1/GPa)
#
#
# Indices 1 2 3 4 5 6 
#
# 1 0.019245 0.001578 -0.002237 0.001215 0.001803 0.014266
# 2 0.001578 0.017885 -0.000420 -0.004760 -0.001516 0.014831
# 3 -0.002237 -0.000420 0.008083 -0.000045 -0.003130 0.000562
# 4 0.001215 -0.004760 -0.000045 0.035375 0.007641 -0.004752
# 5 0.001803 -0.001516 -0.003130 0.007641 0.047187 0.003114
# 6 0.014266 0.014831 0.000562 -0.004752 0.003114 0.051648
#
#
# Mechanical properties :
#
#
# Convention : Reuss Voigt Hill
#
# Bulk Modulus (GPa) = 23.22524 42.19338 32.70931
# Shear Modulus (GPa) = 25.51902 33.40805 29.46354
#
# Velocity S-wave (km/s) = 3.40352 3.89423 3.65712
# Velocity P-wave (km/s) = 5.09784 6.27480 5.71669
#
# Compressibility (1/GPa) = 0.04305660
#
# Stress axis : x y z
#
# Youngs Moduli (GPa) = 51.96231 55.91147 123.71995
#
# Poissons Ratio (x) = -0.08823 0.27671
# Poissons Ratio (y) = -0.08200 0.05192
# Poissons Ratio (z) = 0.11622 0.02346
#
# Static dielectric constant tensor:
#      x y z
#    x 1.797290 -0.026810 -0.012500 
#    y -0.026810 1.830480 0.010400 
#    z -0.012500 0.010400 1.784140 
# 
# From -- ./inp_files/90305.got.cif
#   From: 2010.05.17/outbox.cif.g08.bks.cpg/sg2_46_cif.got.tgz:90305.got - 2010.06.03 11:33:40.
