data_PCOD9013570
_publ_section_title
;
Structure prediction by ZEFSAII (Michael W. Deem and Ramdas Pophale) SiO2 
 PCOD9013570
Probable space group: P -1
;
_chemical_formula_sum "Si O2"
_cell_formula_units_Z 16
_cell_length_a 11.122033
_cell_length_b 9.304587
_cell_length_c 17.470458
_cell_angle_alpha 38.277828
_cell_angle_beta 41.863012
_cell_angle_gamma 45.504375
_cell_volume 717.276725
_symmetry_space_group_name_H-M "P -1"
_symmetry_group_IT_number 2
_symmetry_cell_setting 'triclinic'
loop_
_space_group_symop_operation_xyz
x,y,z
-x,-y,-z
loop_
_atom_site_type_symbol
_atom_site_label
_atom_site_fract_x
_atom_site_fract_y
_atom_site_fract_z
Si Si1 0.108826 0.213215 0.158691
Si Si2 0.715766 0.696876 0.803694
Si Si3 0.735841 0.157571 0.020997
Si Si4 0.768140 0.708117 0.091650
Si Si5 0.780438 0.845692 0.268230
Si Si6 0.929922 0.777374 0.391472
Si Si7 0.337096 0.014520 0.443626
Si Si8 0.666707 0.495128 0.364515
O O1 0.191363 0.224043 0.198948
O O2 0.937411 0.460577 0.125673
O O3 0.251506 0.238659 0.011557
O O4 0.049101 0.965899 0.277465
O O5 0.491071 0.778832 0.891597
O O6 0.745446 0.819716 0.658978
O O7 0.778788 0.409045 0.882611
O O8 0.798181 0.947757 0.016235
O O9 0.811681 0.052192 0.111959
O O10 0.613479 0.644712 0.247969
O O11 0.900688 0.791641 0.309069
O O12 0.797714 0.619072 0.298518
O O13 0.561500 0.933537 0.361607
O O14 0.732074 0.868270 0.491860
O O15 0.000000 0.500000 0.500000
O O16 0.257765 0.783292 0.573538
O O17 0.500000 0.500000 0.500000
#
# Coordination Sequence:
#
# PCOD9013570 Si02
#       8
#     2   2   2   2   2   2   2   2
#     4  11  26  42  61  94 135 169 209 262 323 391
#     4  10  23  41  65  98 128 163 211 271 319 370
#     4   9  21  43  68  93 120 165 219 261 312 378
#     4  10  22  43  64  96 124 173 213 255 319 383
#     4   9  21  41  67  89 118 165 220 267 310 378
#     4  12  27  42  58  94 133 169 209 263 328 383
#     4  10  21  41  65  89 122 167 219 265 317 372
#     4   9  18  39  68  93 115 158 222 263 304 372
#
# _framework density 22.306595000000002
#
# number of rings (size 3 to 8) (size 9 to 14) (size 15 to 20)
#    0.000    2.000    1.250    1.125    7.000    3.500 
#    0.000    0.000    0.000    0.000    0.000    0.000 
#    0.000    0.000    0.000    0.000    0.000    0.000 
#
# Total GULP energy -89356.992366 kJ/mol
# GULP energy per Si atom -5584.812023 kJ/mol
# Density = 2.225582 g / cm^3
# Si number density = 22.306595 Si / 1000 Ang^3
#
#
#
# Elastic Constant Matrix: (Units=GPa)
#
#
# Indices 1 2 3 4 5 6 
#
# 1 64.9230 14.2004 38.5587 -15.6393 16.7216 9.2896
# 2 14.2004 111.1133 47.7058 -20.8744 1.2668 18.4949
# 3 38.5587 47.7058 148.8006 -14.4433 12.5835 10.4425
# 4 -15.6393 -20.8744 -14.4433 56.4610 0.2984 -4.3888
# 5 16.7216 1.2668 12.5835 0.2984 33.9302 7.7204
# 6 9.2896 18.4949 10.4425 -4.3888 7.7204 21.6356
#
#
#
# Elastic Compliance Matrix: (Units=1/GPa)
#
#
# Indices 1 2 3 4 5 6 
#
# 1 0.021735 0.000801 -0.004438 0.004919 -0.008243 -0.003935
# 2 0.000801 0.012574 -0.003466 0.003217 0.002599 -0.009694
# 3 -0.004438 -0.003466 0.009008 -0.000127 -0.001236 0.000936
# 4 0.004919 0.003217 -0.000127 0.020267 -0.002741 0.000289
# 5 -0.008243 0.002599 -0.001236 -0.002741 0.036581 -0.011695
# 6 -0.003935 -0.009694 0.000936 0.000289 -0.011695 0.059977
#
#
# Mechanical properties :
#
#
# Convention : Reuss Voigt Hill
#
# Bulk Modulus (GPa) = 34.35222 58.41851 46.38537
# Shear Modulus (GPa) = 27.16614 37.36349 32.26482
#
# Velocity S-wave (km/s) = 3.49356 4.09711 3.80732
# Velocity P-wave (km/s) = 5.63087 6.97334 6.33776
#
# Compressibility (1/GPa) = 0.02911020
#
# Stress axis : x y z
#
# Youngs Moduli (GPa) = 46.00955 79.52997 111.01035
#
# Poissons Ratio (x) = -0.06369 0.49268
# Poissons Ratio (y) = -0.03685 0.38476
# Poissons Ratio (z) = 0.20420 0.27565
#
# Static dielectric constant tensor:
#      x y z
#    x 1.802120 -0.048480 -0.047700 
#    y -0.048480 1.888420 0.039130 
#    z -0.047700 0.039130 1.842890 
# 
# From -- ./inp_files/514879.got.cif
#   From: 2010.05.17/outbox.cif.g08.bks.cpg/sg2_258_cif.got.tgz:514879.got - 2010.06.03 11:33:40.
