data_PCOD9013918
_publ_section_title
;
Structure prediction by ZEFSAII (Michael W. Deem and Ramdas Pophale) SiO2 
 PCOD9013918
Probable space group: P -1
;
_chemical_formula_sum "Si O2"
_cell_formula_units_Z 15
_cell_length_a 9.217906
_cell_length_b 18.187010
_cell_length_c 12.295984
_cell_angle_alpha 37.378927
_cell_angle_beta 37.501968
_cell_angle_gamma 63.301751
_cell_volume 664.098407
_symmetry_space_group_name_H-M "P -1"
_symmetry_group_IT_number 2
_symmetry_cell_setting 'triclinic'
loop_
_space_group_symop_operation_xyz
x,y,z
-x,-y,-z
loop_
_atom_site_type_symbol
_atom_site_label
_atom_site_fract_x
_atom_site_fract_y
_atom_site_fract_z
Si Si1 0.663390 0.578879 0.916543
Si Si2 0.500000 0.000000 0.000000
Si Si3 0.242199 0.134911 0.140478
Si Si4 0.485652 0.425857 0.756634
Si Si5 0.009281 0.114675 0.713661
Si Si6 0.951778 0.548960 0.157673
Si Si7 0.743893 0.082033 0.133003
Si Si8 0.179437 0.828143 0.784673
O O1 0.788284 0.741998 0.632311
O O2 0.912685 0.547130 0.825459
O O3 0.500000 0.500000 0.000000
O O4 0.479336 0.534511 0.185541
O O5 0.230538 0.976177 0.120269
O O6 0.451451 0.096811 0.004941
O O7 0.104134 0.185707 0.070959
O O8 0.376949 0.262311 0.994750
O O9 0.000000 0.000000 0.500000
O O10 0.756694 0.504193 0.431779
O O11 0.247254 0.454224 0.816123
O O12 0.896625 0.146642 0.854551
O O13 0.154248 0.025910 0.763751
O O14 0.192009 0.706005 0.854196
O O15 0.800745 0.180676 0.086947
O O16 0.421125 0.980269 0.428996
#
# Coordination Sequence:
#
# PCOD9013918 Si02
#       8
#     2   1   2   2   2   2   2   2
#     4  12  26  44  67 102 138 178 223 280 334 398
#     4  12  22  40  64  98 130 162 214 274 330 386
#     4  11  22  39  65 100 130 169 217 277 336 388
#     4  10  24  44  70  95 135 179 229 271 330 403
#     4  11  24  42  64 100 131 173 222 273 336 399
#     4  10  23  46  67  98 128 184 226 271 328 399
#     4  10  22  42  65  93 131 174 218 271 337 401
#     4  10  21  41  66  90 130 177 219 271 331 400
#
# _framework density 22.587014
#
# number of rings (size 3 to 8) (size 9 to 14) (size 15 to 20)
#    0.000    1.333    1.333    3.600    1.867    1.600 
#    4.800    2.667    0.000    0.000    0.000    0.000 
#    0.000    0.000    0.000    0.000    0.000    0.000 
#
# Total GULP energy -83678.297630 kJ/mol
# GULP energy per Si atom -5578.553175 kJ/mol
# Density = 2.253561 g / cm^3
# Si number density = 22.587014 Si / 1000 Ang^3
#
#
#
# Elastic Constant Matrix: (Units=GPa)
#
#
# Indices 1 2 3 4 5 6 
#
# 1 62.8183 40.9628 6.1747 1.7639 2.1836 16.4089
# 2 40.9628 60.5171 5.9475 10.1605 -1.8008 4.0299
# 3 6.1747 5.9475 30.0611 1.4762 14.3694 7.4133
# 4 1.7639 10.1605 1.4762 27.1625 2.6324 5.4996
# 5 2.1836 -1.8008 14.3694 2.6324 26.3598 4.4212
# 6 16.4089 4.0299 7.4133 5.4996 4.4212 44.5212
#
#
#
# Elastic Compliance Matrix: (Units=1/GPa)
#
#
# Indices 1 2 3 4 5 6 
#
# 1 0.034810 -0.024816 0.002549 0.009738 -0.004976 -0.011717
# 2 -0.024816 0.036123 -0.007467 -0.013950 0.008648 0.007984
# 3 0.002549 -0.007467 0.048118 0.003803 -0.026303 -0.006134
# 4 0.009738 -0.013950 0.003803 0.043408 -0.006887 -0.007638
# 5 -0.004976 0.008648 -0.026303 -0.006887 0.053808 0.000938
# 6 -0.011717 0.007984 -0.006134 -0.007638 0.000938 0.027929
#
#
# Mechanical properties :
#
#
# Convention : Reuss Voigt Hill
#
# Bulk Modulus (GPa) = 16.78304 28.84071 22.81188
# Shear Modulus (GPa) = 15.45474 26.29615 20.87545
#
# Velocity S-wave (km/s) = 2.61862 3.41576 3.04340
# Velocity P-wave (km/s) = 4.07301 5.32475 4.74038
#
# Compressibility (1/GPa) = 0.05958395
#
# Stress axis : x y z
#
# Youngs Moduli (GPa) = 28.72704 27.68312 20.78226
#
# Poissons Ratio (x) = 0.68698 -0.05298
# Poissons Ratio (y) = 0.71288 0.15519
# Poissons Ratio (z) = -0.07323 0.20672
#
# Static dielectric constant tensor:
#      x y z
#    x 1.831740 -0.018190 -0.003390 
#    y -0.018190 1.834380 -0.015710 
#    z -0.003390 -0.015710 1.800640 
# 
# From -- ./inp_files/306374.got.cif
#   From: 2010.05.17/outbox.cif.g08.bks.cpg/sg2_154_cif.got.tgz:306374.got - 2010.06.03 11:33:40.
