data_PCOD9013289
_publ_section_title
;
Structure prediction by ZEFSAII (Michael W. Deem and Ramdas Pophale) SiO2 
 PCOD9013289
Probable space group: P -1
;
_chemical_formula_sum "Si O2"
_cell_formula_units_Z 16
_cell_length_a 9.349274
_cell_length_b 8.181525
_cell_length_c 13.322707
_cell_angle_alpha 71.104885
_cell_angle_beta 133.151708
_cell_angle_gamma 88.102056
_cell_volume 653.794947
_symmetry_space_group_name_H-M "P -1"
_symmetry_group_IT_number 2
_symmetry_cell_setting 'triclinic'
loop_
_space_group_symop_operation_xyz
x,y,z
-x,-y,-z
loop_
_atom_site_type_symbol
_atom_site_label
_atom_site_fract_x
_atom_site_fract_y
_atom_site_fract_z
Si Si1 0.005569 0.190171 0.772530
Si Si2 0.479273 0.530870 0.865736
Si Si3 0.747114 0.954649 0.641274
Si Si4 0.078670 0.834342 0.651551
Si Si5 0.683529 0.443897 0.679758
Si Si6 0.342087 0.835487 0.116787
Si Si7 0.663892 0.949520 0.180614
Si Si8 0.768896 0.657678 0.852190
O O1 0.909573 0.380372 0.747831
O O2 0.137032 0.213679 0.736380
O O3 0.818684 0.129071 0.653950
O O4 0.155573 0.015689 0.946600
O O5 0.229365 0.646473 0.706942
O O6 0.575423 0.337165 0.888887
O O7 0.622081 0.648929 0.875442
O O8 0.500000 0.500000 0.000000
O O9 0.801140 0.841544 0.794849
O O10 0.893446 0.842706 0.639430
O O11 0.500000 0.000000 0.500000
O O12 0.246631 0.892678 0.784714
O O13 0.000000 0.000000 0.500000
O O14 0.500000 0.500000 0.500000
O O15 0.705473 0.259296 0.789427
O O16 0.655551 0.603372 0.714031
O O17 0.540754 0.896537 0.220105
O O18 0.500000 0.000000 0.000000
O O19 0.000000 0.500000 0.000000
#
# Coordination Sequence:
#
# PCOD9013289 Si02
#       8
#     2   2   2   2   2   2   2   2
#     4  10  21  41  64  88 122 162 208 256 307 370
#     4  11  22  41  65  91 127 164 209 263 312 374
#     4  11  22  40  63  91 127 166 207 256 312 376
#     4  11  24  40  62  95 128 164 208 258 315 371
#     4  11  24  40  60  90 127 164 204 253 309 369
#     4  10  22  41  63  92 122 162 208 258 309 368
#     4   9  20  39  63  89 118 158 208 252 304 369
#     4  11  24  40  61  94 126 162 211 260 310 369
#
# _framework density 24.472505000000002
#
# number of rings (size 3 to 8) (size 9 to 14) (size 15 to 20)
#    0.000    1.500    0.000    6.375    0.000   10.000 
#    0.000    1.250    0.000    0.000    0.000    0.000 
#    0.000    0.000    0.000    0.000    0.000    0.000 
#
# Total GULP energy -89402.957148 kJ/mol
# GULP energy per Si atom -5587.684822 kJ/mol
# Density = 2.441680 g / cm^3
# Si number density = 24.472505 Si / 1000 Ang^3
#
#
#
# Elastic Constant Matrix: (Units=GPa)
#
#
# Indices 1 2 3 4 5 6 
#
# 1 140.7993 17.7849 27.4086 -5.9896 31.3777 -6.6976
# 2 17.7849 39.1772 19.4659 -4.3062 2.3622 -8.6248
# 3 27.4086 19.4659 119.7694 -7.1976 10.7182 -9.2884
# 4 -5.9896 -4.3062 -7.1976 40.7195 0.0666 8.7367
# 5 31.3777 2.3622 10.7182 0.0666 34.8455 2.6493
# 6 -6.6976 -8.6248 -9.2884 8.7367 2.6493 42.4816
#
#
#
# Elastic Compliance Matrix: (Units=1/GPa)
#
#
# Indices 1 2 3 4 5 6 
#
# 1 0.009574 -0.003130 -0.000820 0.000718 -0.008239 0.001061
# 2 -0.003130 0.029859 -0.003879 0.001065 0.001651 0.004399
# 3 -0.000820 -0.003879 0.009486 0.000915 -0.002002 0.001094
# 4 0.000718 0.001065 0.000915 0.025962 -0.000687 -0.004767
# 5 -0.008239 0.001651 -0.002002 -0.000687 0.036893 -0.003561
# 6 0.001061 0.004399 0.001094 -0.004767 -0.003561 0.026042
#
#
# Mechanical properties :
#
#
# Convention : Reuss Voigt Hill
#
# Bulk Modulus (GPa) = 30.06388 47.67385 38.86886
# Shear Modulus (GPa) = 30.38364 39.28175 34.83270
#
# Velocity S-wave (km/s) = 3.52737 4.01076 3.77681
# Velocity P-wave (km/s) = 5.37599 6.40087 5.91069
#
# Compressibility (1/GPa) = 0.03326251
#
# Stress axis : x y z
#
# Youngs Moduli (GPa) = 104.44535 33.49039 105.41419
#
# Poissons Ratio (x) = 0.10482 0.08639
# Poissons Ratio (y) = 0.32690 0.40894
# Poissons Ratio (z) = 0.08560 0.12992
#
# Static dielectric constant tensor:
#      x y z
#    x 2.018150 -0.020310 -0.012800 
#    y -0.020310 2.046330 -0.000760 
#    z -0.012800 -0.000760 1.984520 
# 
# From -- ./inp_files/494733.got.cif
#   From: 2010.05.17/outbox.cif.g08.bks.cpg/sg2_248_cif.got.tgz:494733.got - 2010.06.03 11:33:40.
