data_PCOD9013191
_publ_section_title
;
Structure prediction by ZEFSAII (Michael W. Deem and Ramdas Pophale) SiO2 
 PCOD9013191
Probable space group: P -1
;
_chemical_formula_sum "Si O2"
_cell_formula_units_Z 14
_cell_length_a 19.175418
_cell_length_b 8.081826
_cell_length_c 5.273961
_cell_angle_alpha 85.953447
_cell_angle_beta 96.651207
_cell_angle_gamma 140.031136
_cell_volume 521.276000
_symmetry_space_group_name_H-M "P -1"
_symmetry_group_IT_number 2
_symmetry_cell_setting 'triclinic'
loop_
_space_group_symop_operation_xyz
x,y,z
-x,-y,-z
loop_
_atom_site_type_symbol
_atom_site_label
_atom_site_fract_x
_atom_site_fract_y
_atom_site_fract_z
Si Si1 0.587807 0.232294 0.201144
Si Si2 0.516570 0.786236 0.457355
Si Si3 0.692216 0.951891 0.192260
Si Si4 0.705629 0.658925 0.891141
Si Si5 0.835037 0.420734 0.893725
Si Si6 0.065026 0.280627 0.583843
Si Si7 0.876590 0.173035 0.637993
O O1 0.522343 0.276633 0.266093
O O2 0.588973 0.085749 0.419205
O O3 0.701111 0.502013 0.109420
O O4 0.500000 0.000000 0.000000
O O5 0.591642 0.788067 0.357982
O O6 0.397581 0.570469 0.300816
O O7 0.795686 0.101648 0.399883
O O8 0.679252 0.779359 0.013645
O O9 0.721258 0.164175 0.008063
O O10 0.814354 0.899632 0.760943
O O11 0.883351 0.324876 0.845605
O O12 0.843083 0.527839 0.616350
O O13 0.898183 0.635459 0.116409
O O14 0.982740 0.289952 0.538461
O O15 0.000000 0.000000 0.500000
#
# Coordination Sequence:
#
# PCOD9013191 Si02
#       7
#     2   2   2   2   2   2   2
#     4   9  20  39  61  87 131 183 224 276 344 391
#     4  10  21  41  63  94 139 180 227 283 336 402
#     4  11  24  41  68 103 131 183 232 280 340 405
#     4  10  22  39  63  99 133 179 230 283 333 408
#     4  11  25  49  73 104 138 182 230 285 351 422
#     4  12  27  49  75 105 140 179 227 294 354 416
#     4  11  25  43  73 100 139 183 233 284 350 415
#
# _framework density 26.857174000000001
#
# number of rings (size 3 to 8) (size 9 to 14) (size 15 to 20)
#    0.000    1.429    1.429    2.571    4.000    8.000 
#   10.286    0.000    0.000    0.000    0.000    0.000 
#    0.000    0.000    0.000    0.000    0.000    0.000 
#
# Total GULP energy -78271.491218 kJ/mol
# GULP energy per Si atom -5590.820801 kJ/mol
# Density = 2.679605 g / cm^3
# Si number density = 26.857174 Si / 1000 Ang^3
#
#
#
# Elastic Constant Matrix: (Units=GPa)
#
#
# Indices 1 2 3 4 5 6 
#
# 1 68.9061 8.0727 16.2987 12.4487 -21.9251 2.5666
# 2 8.0727 132.0353 51.5973 -2.9542 -12.2453 -22.0631
# 3 16.2987 51.5973 144.5266 4.0627 -28.9778 -0.6162
# 4 12.4487 -2.9542 4.0627 60.5232 -14.1658 -9.2685
# 5 -21.9251 -12.2453 -28.9778 -14.1658 29.7664 1.9525
# 6 2.5666 -22.0631 -0.6162 -9.2685 1.9525 45.8287
#
#
#
# Elastic Compliance Matrix: (Units=1/GPa)
#
#
# Indices 1 2 3 4 5 6 
#
# 1 0.019240 -0.000593 0.000979 -0.000976 0.014558 -0.002167
# 2 -0.000593 0.009875 -0.003298 0.001825 0.000951 0.005071
# 3 0.000979 -0.003298 0.009862 0.000941 0.009527 -0.001725
# 4 -0.000976 0.001825 0.000941 0.019799 0.010074 0.004521
# 5 0.014558 0.000951 0.009527 0.010074 0.058823 -0.000698
# 6 -0.002167 0.005071 -0.001725 0.004521 -0.000698 0.025304
#
#
# Mechanical properties :
#
#
# Convention : Reuss Voigt Hill
#
# Bulk Modulus (GPa) = 30.16187 55.26727 42.71457
# Shear Modulus (GPa) = 31.29335 45.19028 38.24182
#
# Velocity S-wave (km/s) = 3.41717 4.10642 3.77755
# Velocity P-wave (km/s) = 5.17922 6.56555 5.91315
#
# Compressibility (1/GPa) = 0.03315444
#
# Stress axis : x y z
#
# Youngs Moduli (GPa) = 51.97577 101.26476 101.39611
#
# Poissons Ratio (x) = 0.06003 -0.09927
# Poissons Ratio (y) = 0.03081 0.33436
# Poissons Ratio (z) = -0.05089 0.33393
#
# Static dielectric constant tensor:
#      x y z
#    x 2.186130 -0.065120 0.072720 
#    y -0.065120 2.114630 -0.063650 
#    z 0.072720 -0.063650 2.198350 
# 
# From -- ./inp_files/122941.got.cif
#   From: 2010.05.17/outbox.cif.g08.bks.cpg/sg2_62_cif.got.tgz:122941.got - 2010.06.03 11:33:40.
