data_PCOD9013369
_publ_section_title
;
Structure prediction by ZEFSAII (Michael W. Deem and Ramdas Pophale) SiO2 
 PCOD9013369
Probable space group: P -1
;
_chemical_formula_sum "Si O2"
_cell_formula_units_Z 12
_cell_length_a 12.116582
_cell_length_b 5.174753
_cell_length_c 18.732386
_cell_angle_alpha 74.324416
_cell_angle_beta 30.668496
_cell_angle_gamma 70.769984
_cell_volume 565.454500
_symmetry_space_group_name_H-M "P -1"
_symmetry_group_IT_number 2
_symmetry_cell_setting 'triclinic'
loop_
_space_group_symop_operation_xyz
x,y,z
-x,-y,-z
loop_
_atom_site_type_symbol
_atom_site_label
_atom_site_fract_x
_atom_site_fract_y
_atom_site_fract_z
Si Si1 0.941693 0.719431 0.077567
Si Si2 0.470350 0.930182 0.386733
Si Si3 0.927684 0.441031 0.829863
Si Si4 0.039868 0.310270 0.561647
Si Si5 0.745376 0.063018 0.852308
Si Si6 0.314812 0.408684 0.530106
O O1 0.683000 0.797579 0.234177
O O2 0.081319 0.608131 0.078030
O O3 0.000000 0.500000 0.000000
O O4 0.000000 0.000000 0.000000
O O5 0.395526 0.679050 0.486438
O O6 0.492554 0.173605 0.410874
O O7 0.257046 0.070530 0.447664
O O8 0.773692 0.283165 0.881114
O O9 0.175881 0.306611 0.677226
O O10 0.892220 0.763309 0.808888
O O11 0.839545 0.184234 0.718179
O O12 0.000000 0.500000 0.500000
O O13 0.128722 0.473188 0.565574
O O14 0.500000 0.000000 0.000000
#
# Coordination Sequence:
#
# PCOD9013369 Si02
#       6
#     2   2   2   2   2   2
#     4  12  27  44  65  97 137 177 228 277 339 409
#     4  10  21  41  64  92 131 168 224 270 333 399
#     4  11  22  45  66  96 135 176 223 282 332 408
#     4   9  21  40  65  98 135 172 225 279 330 398
#     4  11  23  43  67 102 137 179 225 277 344 412
#     4   9  19  39  64  94 124 164 226 266 337 390
#
# _framework density 21.221865999999999
#
# number of rings (size 3 to 8) (size 9 to 14) (size 15 to 20)
#    1.000    0.667    1.667    2.500    0.000    3.333 
#    3.000    0.000    0.000    0.000    0.000    0.000 
#    0.000    0.000    0.000    0.000    0.000    0.000 
#
# Total GULP energy -66899.723038 kJ/mol
# GULP energy per Si atom -5574.976920 kJ/mol
# Density = 2.117356 g / cm^3
# Si number density = 21.221866 Si / 1000 Ang^3
#
#
#
# Elastic Constant Matrix: (Units=GPa)
#
#
# Indices 1 2 3 4 5 6 
#
# 1 93.4413 45.6778 44.8726 -11.8959 25.2751 -11.4132
# 2 45.6778 135.8064 35.0757 -8.7341 17.8177 -0.3884
# 3 44.8726 35.0757 121.8007 -5.2551 3.5870 -6.8136
# 4 -11.8959 -8.7341 -5.2551 43.7302 -0.1305 5.5358
# 5 25.2751 17.8177 3.5870 -0.1305 38.6092 -2.4141
# 6 -11.4132 -0.3884 -6.8136 5.5358 -2.4141 44.2916
#
#
#
# Elastic Compliance Matrix: (Units=1/GPa)
#
#
# Indices 1 2 3 4 5 6 
#
# 1 0.018193 -0.003292 -0.005163 0.003272 -0.009717 0.002926
# 2 -0.003292 0.009149 -0.001391 0.000911 -0.002010 -0.001205
# 3 -0.005163 -0.001391 0.010429 -0.000482 0.003082 0.000490
# 4 0.003272 0.000911 -0.000482 0.024176 -0.002585 -0.002386
# 5 -0.009717 -0.002010 0.003082 -0.002585 0.032899 0.000069
# 6 0.002926 -0.001205 0.000490 -0.002386 0.000069 0.023698
#
#
# Mechanical properties :
#
#
# Convention : Reuss Voigt Hill
#
# Bulk Modulus (GPa) = 55.31523 66.92230 61.11876
# Shear Modulus (GPa) = 34.65927 40.35436 37.50681
#
# Velocity S-wave (km/s) = 4.04565 4.36540 4.20857
# Velocity P-wave (km/s) = 6.92422 7.55063 7.24420
#
# Compressibility (1/GPa) = 0.01807820
#
# Stress axis : x y z
#
# Youngs Moduli (GPa) = 54.96615 109.30492 95.88870
#
# Poissons Ratio (x) = 0.35982 0.49512
# Poissons Ratio (y) = 0.18094 0.13336
# Poissons Ratio (z) = 0.28382 0.15202
#
# Static dielectric constant tensor:
#      x y z
#    x 1.833760 -0.030510 -0.041480 
#    y -0.030510 1.750410 0.018010 
#    z -0.041480 0.018010 1.853460 
# 
# From -- ./inp_files/563565.got.cif
#   From: 2010.05.17/outbox.cif.g08.bks.cpg/sg2_282_cif.got.tgz:563565.got - 2010.06.03 11:33:40.
