data_PCOD9013782
_publ_section_title
;
Structure prediction by ZEFSAII (Michael W. Deem and Ramdas Pophale) SiO2 
 PCOD9013782
Probable space group: P -1
;
_chemical_formula_sum "Si O2"
_cell_formula_units_Z 16
_cell_length_a 9.132607
_cell_length_b 6.423563
_cell_length_c 18.711566
_cell_angle_alpha 124.132879
_cell_angle_beta 123.244472
_cell_angle_gamma 79.833122
_cell_volume 746.150409
_symmetry_space_group_name_H-M "P -1"
_symmetry_group_IT_number 2
_symmetry_cell_setting 'triclinic'
loop_
_space_group_symop_operation_xyz
x,y,z
-x,-y,-z
loop_
_atom_site_type_symbol
_atom_site_label
_atom_site_fract_x
_atom_site_fract_y
_atom_site_fract_z
Si Si1 0.323994 0.040858 0.786698
Si Si2 0.579602 0.246504 0.114244
Si Si3 0.500064 0.292950 0.753449
Si Si4 0.125503 0.270838 0.569774
Si Si5 0.802997 0.505992 0.104790
Si Si6 0.941390 0.741326 0.612054
Si Si7 0.922540 0.206736 0.963488
Si Si8 0.837906 0.112240 0.765203
O O1 0.449662 0.082814 0.760999
O O2 0.325109 0.286782 0.885628
O O3 0.370678 0.832351 0.810349
O O4 0.122533 0.951962 0.688782
O O5 0.452113 0.446343 0.136509
O O6 0.756442 0.375823 0.143705
O O7 0.500000 0.000000 0.000000
O O8 0.316088 0.292064 0.662658
O O9 0.659811 0.229691 0.738115
O O10 0.154345 0.303821 0.498414
O O11 0.013171 0.486858 0.603953
O O12 0.000000 0.000000 0.500000
O O13 0.000347 0.668848 0.177991
O O14 0.779745 0.296995 0.995767
O O15 0.836198 0.864005 0.668182
O O16 0.872403 0.056585 0.847420
O O17 0.000000 0.500000 0.000000
O O18 0.000000 0.000000 0.000000
#
# Coordination Sequence:
#
# PCOD9013782 Si02
#       8
#     2   2   2   2   2   2   2   2
#     4  10  21  41  65  96 133 180 237 280 346 421
#     4  11  25  39  68  97 140 188 237 286 342 421
#     4  11  24  43  65 106 141 176 228 304 355 424
#     4  11  22  43  76  96 127 176 239 288 357 430
#     4   9  23  40  65  91 134 190 238 280 335 424
#     4  10  22  43  71  97 125 180 235 289 353 444
#     4  10  23  41  64  97 143 195 241 284 353 431
#     4  10  24  44  65 103 146 178 233 296 370 420
#
# _framework density 21.443398999999999
#
# number of rings (size 3 to 8) (size 9 to 14) (size 15 to 20)
#    0.000    1.750    2.500    0.000    8.750    2.500 
#    2.250    0.625    0.000    0.000    0.000    0.000 
#    0.000    0.000    0.000    0.000    0.000    0.000 
#
# Total GULP energy -89077.668947 kJ/mol
# GULP energy per Si atom -5567.354309 kJ/mol
# Density = 2.139459 g / cm^3
# Si number density = 21.443399 Si / 1000 Ang^3
#
#
#
# Elastic Constant Matrix: (Units=GPa)
#
#
# Indices 1 2 3 4 5 6 
#
# 1 134.5437 58.8583 40.7512 8.1035 -22.6407 -18.6335
# 2 58.8583 117.5393 56.1567 -12.0222 -6.5616 1.1010
# 3 40.7512 56.1567 90.1288 4.4805 -16.5826 -18.1541
# 4 8.1035 -12.0222 4.4805 35.1694 -7.0533 -8.2330
# 5 -22.6407 -6.5616 -16.5826 -7.0533 33.9240 4.3915
# 6 -18.6335 1.1010 -18.1541 -8.2330 4.3915 23.2863
#
#
#
# Elastic Compliance Matrix: (Units=1/GPa)
#
#
# Indices 1 2 3 4 5 6 
#
# 1 0.012542 -0.007261 0.002157 -0.002006 0.006288 0.010166
# 2 -0.007261 0.018203 -0.011747 0.005478 -0.004233 -0.013094
# 3 0.002157 -0.011747 0.022489 -0.001707 0.007502 0.017796
# 4 -0.002006 0.005478 -0.001707 0.033802 0.004900 0.007832
# 5 0.006288 -0.004233 0.007502 0.004900 0.036780 0.005876
# 6 0.010166 -0.013094 0.017796 0.007832 0.005876 0.067232
#
#
# Mechanical properties :
#
#
# Convention : Reuss Voigt Hill
#
# Bulk Modulus (GPa) = 51.19666 72.63824 61.91745
# Shear Modulus (GPa) = 21.62062 30.90565 26.26314
#
# Velocity S-wave (km/s) = 3.17876 3.80052 3.50346
# Velocity P-wave (km/s) = 6.11554 7.29428 6.73076
#
# Compressibility (1/GPa) = 0.01953253
#
# Stress axis : x y z
#
# Youngs Moduli (GPa) = 79.73018 54.93682 44.46658
#
# Poissons Ratio (x) = 0.39888 -0.09593
# Poissons Ratio (y) = 0.57890 0.52236
# Poissons Ratio (z) = -0.17201 0.64536
#
# Static dielectric constant tensor:
#      x y z
#    x 1.752900 0.001140 0.018490 
#    y 0.001140 1.897520 0.037580 
#    z 0.018490 0.037580 1.857230 
# 
# From -- ./inp_files/90799.got.cif
#   From: 2010.05.17/outbox.cif.g08.bks.cpg/sg2_46_cif.got.tgz:90799.got - 2010.06.03 11:33:40.
