data_PCOD9013142
_publ_section_title
;
Structure prediction by ZEFSAII (Michael W. Deem and Ramdas Pophale) SiO2 
 PCOD9013142
Probable space group: P -1
;
_chemical_formula_sum "Si O2"
_cell_formula_units_Z 14
_cell_length_a 16.877572
_cell_length_b 6.972687
_cell_length_c 7.761993
_cell_angle_alpha 78.037992
_cell_angle_beta 136.668140
_cell_angle_gamma 101.857589
_cell_volume 611.176512
_symmetry_space_group_name_H-M "P -1"
_symmetry_group_IT_number 2
_symmetry_cell_setting 'triclinic'
loop_
_space_group_symop_operation_xyz
x,y,z
-x,-y,-z
loop_
_atom_site_type_symbol
_atom_site_label
_atom_site_fract_x
_atom_site_fract_y
_atom_site_fract_z
Si Si1 0.888713 0.351098 0.879468
Si Si2 0.420450 0.165208 0.912226
Si Si3 0.964181 0.311337 0.369124
Si Si4 0.432385 0.824204 0.530606
Si Si5 0.686167 0.562419 0.565150
Si Si6 0.208209 0.048405 0.166297
Si Si7 0.830385 0.932664 0.310665
O O1 0.776868 0.450107 0.613874
O O2 0.888169 0.117944 0.881581
O O3 0.877827 0.350660 0.070834
O O4 0.000000 0.500000 0.000000
O O5 0.403608 0.328174 0.711965
O O6 0.289412 0.089158 0.773642
O O7 0.485166 0.236813 0.175055
O O8 0.500000 0.000000 0.000000
O O9 0.000000 0.500000 0.500000
O O10 0.078710 0.228779 0.483025
O O11 0.901773 0.140660 0.418954
O O12 0.382206 0.617623 0.404843
O O13 0.500000 0.000000 0.500000
O O14 0.322739 0.934519 0.399751
O O15 0.764556 0.736547 0.751758
O O16 0.191239 0.073474 0.929545
#
# Coordination Sequence:
#
# PCOD9013142 Si02
#       7
#     2   2   2   2   2   2   2
#     4  10  22  39  63  93 131 165 215 272 326 389
#     4  12  24  44  65  98 135 175 218 272 328 390
#     4  10  21  41  65  96 125 168 220 267 326 386
#     4  11  23  45  64  91 131 169 222 270 316 397
#     4  11  24  41  66  94 128 173 215 271 336 383
#     4  10  21  41  63  92 128 170 220 261 324 399
#     4  10  22  41  65  93 133 167 216 274 319 387
#
# _framework density 22.906637
#
# number of rings (size 3 to 8) (size 9 to 14) (size 15 to 20)
#    0.000    1.429    2.857    2.143    0.000    2.286 
#    5.143    0.000    0.000    0.000    0.000    0.000 
#    0.000    0.000    0.000    0.000    0.000    0.000 
#
# Total GULP energy -78109.420393 kJ/mol
# GULP energy per Si atom -5579.244314 kJ/mol
# Density = 2.285450 g / cm^3
# Si number density = 22.906637 Si / 1000 Ang^3
#
#
#
# Elastic Constant Matrix: (Units=GPa)
#
#
# Indices 1 2 3 4 5 6 
#
# 1 59.9675 52.1490 10.3853 -2.0724 24.3181 18.1491
# 2 52.1490 217.3348 37.3747 16.8000 8.1255 23.1079
# 3 10.3853 37.3747 89.5426 -10.1134 12.9817 -0.1598
# 4 -2.0724 16.8000 -10.1134 45.1196 -3.4437 7.1177
# 5 24.3181 8.1255 12.9817 -3.4437 39.1961 -2.0110
# 6 18.1491 23.1079 -0.1598 7.1177 -2.0110 29.1715
#
#
#
# Elastic Compliance Matrix: (Units=1/GPa)
#
#
# Indices 1 2 3 4 5 6 
#
# 1 0.039091 -0.007111 0.002655 0.006656 -0.024201 -0.021966
# 2 -0.007111 0.006940 -0.002976 -0.003292 0.003668 -0.000034
# 3 0.002655 -0.002976 0.013283 0.003900 -0.005114 -0.000526
# 4 0.006656 -0.003292 0.003900 0.025603 -0.002898 -0.007959
# 5 -0.024201 0.003668 -0.005114 -0.002898 0.042013 0.015727
# 6 -0.021966 -0.000034 -0.000526 -0.007959 0.015727 0.050996
#
#
# Mechanical properties :
#
#
# Convention : Reuss Voigt Hill
#
# Bulk Modulus (GPa) = 22.49612 62.96254 42.72933
# Shear Modulus (GPa) = 24.08399 40.49316 32.28857
#
# Velocity S-wave (km/s) = 3.24604 4.20902 3.75850
# Velocity P-wave (km/s) = 4.88786 7.15314 6.12612
#
# Compressibility (1/GPa) = 0.04445210
#
# Stress axis : x y z
#
# Youngs Moduli (GPa) = 25.58105 144.08995 75.28469
#
# Poissons Ratio (x) = 1.02459 -0.19990
# Poissons Ratio (y) = 0.18190 0.22402
# Poissons Ratio (z) = -0.06793 0.42877
#
# Static dielectric constant tensor:
#      x y z
#    x 1.889270 0.047040 -0.029220 
#    y 0.047040 1.917170 0.017980 
#    z -0.029220 0.017980 2.016330 
# 
# From -- ./inp_files/53779.got.cif
#   From: 2010.05.17/outbox.cif.g08.bks.cpg/sg2_27_cif.got.tgz:53779.got - 2010.06.03 11:33:40.
