data_PCOD9013635
_publ_section_title
;
Structure prediction by ZEFSAII (Michael W. Deem and Ramdas Pophale) SiO2 
 PCOD9013635
Probable space group: P -1
;
_chemical_formula_sum "Si O2"
_cell_formula_units_Z 15
_cell_length_a 11.422701
_cell_length_b 13.080611
_cell_length_c 7.033624
_cell_angle_alpha 48.091624
_cell_angle_beta 82.344231
_cell_angle_gamma 63.403935
_cell_volume 677.302363
_symmetry_space_group_name_H-M "P -1"
_symmetry_group_IT_number 2
_symmetry_cell_setting 'triclinic'
loop_
_space_group_symop_operation_xyz
x,y,z
-x,-y,-z
loop_
_atom_site_type_symbol
_atom_site_label
_atom_site_fract_x
_atom_site_fract_y
_atom_site_fract_z
Si Si1 0.426058 0.049221 0.754043
Si Si2 0.989776 0.963089 0.764654
Si Si3 0.168768 0.604082 0.101202
Si Si4 0.585851 0.382543 0.794011
Si Si5 0.416157 0.252346 0.177603
Si Si6 0.120644 0.507540 0.856649
Si Si7 0.000000 0.500000 0.500000
Si Si8 0.791377 0.036027 0.024435
O O1 0.424845 0.193956 0.464381
O O2 0.504458 0.900956 0.780841
O O3 0.277385 0.071313 0.793189
O O4 0.500000 0.000000 0.000000
O O5 0.078450 0.017524 0.803298
O O6 0.061098 0.774661 0.993110
O O7 0.000000 0.000000 0.500000
O O8 0.843261 0.029981 0.806987
O O9 0.315577 0.567603 0.182946
O O10 0.118027 0.489875 0.340589
O O11 0.155954 0.611681 0.864444
O O12 0.500000 0.500000 0.500000
O O13 0.487531 0.356600 0.990602
O O14 0.684406 0.212361 0.889556
O O15 0.260508 0.343231 0.034277
O O16 0.073452 0.546508 0.602736
O O17 0.000000 0.500000 0.000000
#
# Coordination Sequence:
#
# PCOD9013635 Si02
#       8
#     2   2   2   2   2   2   1   2
#     4  10  23  41  65  91 123 167 211 263 317 373
#     4  10  22  40  63  89 123 161 202 258 314 372
#     4  10  23  39  61  92 119 161 212 256 312 379
#     4  10  21  41  65  91 130 173 213 263 320 380
#     4  10  23  42  62  93 127 163 215 263 315 382
#     4  10  23  39  61  91 122 159 206 258 316 379
#     4  10  22  42  60  86 126 160 202 260 320 374
#     4   9  22  40  61  92 122 160 210 254 311 375
#
# _framework density 22.146682999999999
#
# number of rings (size 3 to 8) (size 9 to 14) (size 15 to 20)
#    0.000    2.133    0.000    0.800    0.000   19.733 
#    0.000    1.333    0.000    0.000    0.000    0.000 
#    0.000    0.000    0.000    0.000    0.000    0.000 
#
# Total GULP energy -83520.811121 kJ/mol
# GULP energy per Si atom -5568.054075 kJ/mol
# Density = 2.209628 g / cm^3
# Si number density = 22.146683 Si / 1000 Ang^3
#
#
#
# Elastic Constant Matrix: (Units=GPa)
#
#
# Indices 1 2 3 4 5 6 
#
# 1 150.5885 38.4290 81.2507 10.6111 -9.1136 -5.4378
# 2 38.4290 49.4615 37.1831 23.6940 -3.7900 -2.2538
# 3 81.2507 37.1831 149.5356 32.6646 -11.8855 6.8469
# 4 10.6111 23.6940 32.6646 40.4702 4.4342 4.5275
# 5 -9.1136 -3.7900 -11.8855 4.4342 33.4657 17.0402
# 6 -5.4378 -2.2538 6.8469 4.5275 17.0402 38.7039
#
#
#
# Elastic Compliance Matrix: (Units=1/GPa)
#
#
# Indices 1 2 3 4 5 6 
#
# 1 0.011168 -0.007161 -0.005823 0.005904 -0.001778 0.002274
# 2 -0.007161 0.035786 -0.000639 -0.019149 0.003436 0.001918
# 3 -0.005823 -0.000639 0.012585 -0.008410 0.006437 -0.004932
# 4 0.005904 -0.019149 -0.008410 0.042140 -0.009323 0.000378
# 5 -0.001778 0.003436 0.006437 -0.009323 0.042996 -0.019028
# 6 0.002274 0.001918 -0.004932 0.000378 -0.019028 0.035474
#
#
# Mechanical properties :
#
#
# Convention : Reuss Voigt Hill
#
# Bulk Modulus (GPa) = 30.96685 73.70123 52.33404
# Shear Modulus (GPa) = 22.91906 35.37615 29.14761
#
# Velocity S-wave (km/s) = 3.22044 4.00103 3.63177
# Velocity P-wave (km/s) = 5.27648 7.39562 6.42404
#
# Compressibility (1/GPa) = 0.03229260
#
# Stress axis : x y z
#
# Youngs Moduli (GPa) = 89.53968 27.94420 79.46094
#
# Poissons Ratio (x) = 0.20010 0.46270
# Poissons Ratio (y) = 0.64116 0.05081
# Poissons Ratio (z) = 0.52138 0.01787
#
# Static dielectric constant tensor:
#      x y z
#    x 1.806010 0.017180 0.008110 
#    y 0.017180 1.866880 -0.024770 
#    z 0.008110 -0.024770 1.894160 
# 
# From -- ./inp_files/68415.got.cif
#   From: 2010.05.17/outbox.cif.g08.bks.cpg/sg2_35_cif.got.tgz:68415.got - 2010.06.03 11:33:40.
