data_PCOD9013775
_publ_section_title
;
Structure prediction by ZEFSAII (Michael W. Deem and Ramdas Pophale) SiO2 
 PCOD9013775
Probable space group: P -1
;
_chemical_formula_sum "Si O2"
_cell_formula_units_Z 16
_cell_length_a 16.260420
_cell_length_b 9.099269
_cell_length_c 8.819305
_cell_angle_alpha 67.867547
_cell_angle_beta 75.531526
_cell_angle_gamma 128.785099
_cell_volume 697.024567
_symmetry_space_group_name_H-M "P -1"
_symmetry_group_IT_number 2
_symmetry_cell_setting 'triclinic'
loop_
_space_group_symop_operation_xyz
x,y,z
-x,-y,-z
loop_
_atom_site_type_symbol
_atom_site_label
_atom_site_fract_x
_atom_site_fract_y
_atom_site_fract_z
Si Si1 0.889236 0.710587 0.241102
Si Si2 0.911375 0.735379 0.732727
Si Si3 0.113877 0.529800 0.419468
Si Si4 0.603477 0.462486 0.441356
Si Si5 0.659136 0.581873 0.013366
Si Si6 0.332008 0.068541 0.284040
Si Si7 0.022935 0.710347 0.956837
Si Si8 0.321998 0.112966 0.621798
O O1 0.940457 0.707391 0.372452
O O2 0.730811 0.537471 0.398405
O O3 0.898733 0.577311 0.175410
O O4 0.000000 0.000000 0.000000
O O5 0.868581 0.517048 0.737229
O O6 0.014447 0.821821 0.781505
O O7 0.773671 0.618184 0.908471
O O8 0.000000 0.000000 0.500000
O O9 0.000000 0.500000 0.500000
O O10 0.253722 0.811972 0.327033
O O11 0.642651 0.569178 0.207977
O O12 0.437553 0.164569 0.616084
O O13 0.603780 0.603019 0.511196
O O14 0.503153 0.305923 0.124337
O O15 0.700169 0.812719 0.831412
O O16 0.285847 0.016922 0.502566
O O17 0.183407 0.941146 0.853830
O O18 0.000000 0.500000 0.000000
#
# Coordination Sequence:
#
# PCOD9013775 Si02
#       8
#     2   2   2   2   2   2   2   2
#     4  12  24  42  67  99 132 169 227 276 327 400
#     4  12  25  42  70  97 131 174 229 270 331 399
#     4  12  27  44  66  98 137 176 219 282 337 390
#     4  10  22  40  67  99 125 169 222 273 323 392
#     4  10  22  43  69  98 128 181 220 274 325 408
#     4  10  23  44  67  94 138 173 224 268 340 394
#     4  12  24  41  64  97 133 169 211 274 337 392
#     4  10  21  41  65  96 130 170 215 270 331 394
#
# _framework density 22.954713999999999
#
# number of rings (size 3 to 8) (size 9 to 14) (size 15 to 20)
#    0.000    1.000    2.500    4.500    3.500    1.500 
#    2.250    1.875    0.000    0.000    0.000    0.000 
#    0.000    0.000    0.000    0.000    0.000    0.000 
#
# Total GULP energy -89349.112747 kJ/mol
# GULP energy per Si atom -5584.319547 kJ/mol
# Density = 2.290247 g / cm^3
# Si number density = 22.954714 Si / 1000 Ang^3
#
#
#
# Elastic Constant Matrix: (Units=GPa)
#
#
# Indices 1 2 3 4 5 6 
#
# 1 158.1613 22.4075 42.6785 -5.7014 -36.3905 3.1910
# 2 22.4075 124.2232 17.8687 5.2506 -15.5214 -11.9291
# 3 42.6785 17.8687 49.3389 -3.9846 -14.7941 -2.4902
# 4 -5.7014 5.2506 -3.9846 26.6015 -4.5618 -8.4581
# 5 -36.3905 -15.5214 -14.7941 -4.5618 43.8298 5.6832
# 6 3.1910 -11.9291 -2.4902 -8.4581 5.6832 33.8320
#
#
#
# Elastic Compliance Matrix: (Units=1/GPa)
#
#
# Indices 1 2 3 4 5 6 
#
# 1 0.009586 -0.000322 -0.006313 0.001551 0.006151 -0.002128
# 2 -0.000322 0.008947 -0.002438 -0.001141 0.001642 0.002444
# 3 -0.006313 -0.002438 0.028191 0.004727 0.003593 0.002389
# 4 0.001551 -0.001141 0.004727 0.042875 0.005702 0.009560
# 5 0.006151 0.001642 0.003593 0.005702 0.030761 -0.003479
# 6 -0.002128 0.002444 0.002389 0.009560 -0.003479 0.033771
#
#
# Mechanical properties :
#
#
# Convention : Reuss Voigt Hill
#
# Bulk Modulus (GPa) = 34.99200 55.29251 45.14225
# Shear Modulus (GPa) = 27.50223 37.43726 32.46974
#
# Velocity S-wave (km/s) = 3.46513 4.04284 3.76508
# Velocity P-wave (km/s) = 5.59343 6.77737 6.21366
#
# Compressibility (1/GPa) = 0.02857796
#
# Stress axis : x y z
#
# Youngs Moduli (GPa) = 104.31921 111.76922 35.47209
#
# Poissons Ratio (x) = 0.03603 0.22393
# Poissons Ratio (y) = 0.03363 0.08647
# Poissons Ratio (z) = 0.65856 0.27247
#
# Static dielectric constant tensor:
#      x y z
#    x 1.832600 -0.036310 -0.026490 
#    y -0.036310 1.820820 -0.045150 
#    z -0.026490 -0.045150 2.073160 
# 
# From -- ./inp_files/279817.got.cif
#   From: 2010.05.17/outbox.cif.g08.bks.cpg/sg2_140_cif.got.tgz:279817.got - 2010.06.03 11:33:40.
