data_PCOD9013951
_publ_section_title
;
Structure prediction by ZEFSAII (Michael W. Deem and Ramdas Pophale) SiO2 
 PCOD9013951
Probable space group: P -1
;
_chemical_formula_sum "Si O2"
_cell_formula_units_Z 12
_cell_length_a 8.910300
_cell_length_b 5.677399
_cell_length_c 12.656441
_cell_angle_alpha 67.316542
_cell_angle_beta 88.778938
_cell_angle_gamma 90.092218
_cell_volume 590.563766
_symmetry_space_group_name_H-M "P -1"
_symmetry_group_IT_number 2
_symmetry_cell_setting 'triclinic'
loop_
_space_group_symop_operation_xyz
x,y,z
-x,-y,-z
loop_
_atom_site_type_symbol
_atom_site_label
_atom_site_fract_x
_atom_site_fract_y
_atom_site_fract_z
Si Si1 0.882296 0.347376 0.955976
Si Si2 0.835891 0.777469 0.743212
Si Si3 0.308380 0.350253 0.616022
Si Si4 0.913281 0.918214 0.177991
Si Si5 0.599391 0.131248 0.566847
Si Si6 0.074877 0.276197 0.469094
O O1 0.782792 0.565686 0.865488
O O2 0.977897 0.216435 0.884204
O O3 0.000000 0.500000 0.000000
O O4 0.823221 0.128236 0.073333
O O5 0.895164 0.626515 0.665794
O O6 0.708898 0.957646 0.664913
O O7 0.973931 0.940770 0.764347
O O8 0.206390 0.265222 0.730484
O O9 0.480278 0.262256 0.626260
O O10 0.309755 0.647882 0.534929
O O11 0.226563 0.222103 0.539107
O O12 0.500000 0.000000 0.500000
O O13 0.000000 0.500000 0.500000
O O14 0.000000 0.000000 0.500000
#
# Coordination Sequence:
#
# PCOD9013951 Si02
#       6
#     2   2   2   2   2   2
#     4   9  21  38  63  95 120 160 211 277 328 381
#     4  11  22  38  64  91 129 168 213 268 323 389
#     4  11  24  39  61  92 133 172 212 266 325 393
#     4  10  21  41  66  92 124 160 219 272 327 383
#     4  11  25  41  57  92 136 176 213 257 327 393
#     4  12  23  36  63 102 128 166 221 274 330 393
#
# _framework density 20.319565999999998
#
# number of rings (size 3 to 8) (size 9 to 14) (size 15 to 20)
#    0.000    1.333    3.333    2.000    2.333    2.667 
#    0.000    0.833    0.000   10.000    0.000    0.000 
#    0.000    0.000    0.000    0.000    0.000    0.000 
#
# Total GULP energy -66914.130868 kJ/mol
# GULP energy per Si atom -5576.177572 kJ/mol
# Density = 2.027332 g / cm^3
# Si number density = 20.319566 Si / 1000 Ang^3
#
#
#
# Elastic Constant Matrix: (Units=GPa)
#
#
# Indices 1 2 3 4 5 6 
#
# 1 85.1809 45.0900 59.1909 -22.6746 5.7319 -7.7951
# 2 45.0900 97.7304 52.9181 -9.6355 7.8903 0.0190
# 3 59.1909 52.9181 162.7892 -32.5624 13.9315 -1.7167
# 4 -22.6746 -9.6355 -32.5624 57.6019 -9.3808 -2.8468
# 5 5.7319 7.8903 13.9315 -9.3808 27.0835 -9.6434
# 6 -7.7951 0.0190 -1.7167 -2.8468 -9.6434 37.5261
#
#
#
# Elastic Compliance Matrix: (Units=1/GPa)
#
#
# Indices 1 2 3 4 5 6 
#
# 1 0.019813 -0.006606 -0.004284 0.005111 0.003567 0.005227
# 2 -0.006606 0.014718 -0.002582 -0.002247 -0.003230 -0.002498
# 3 -0.004284 -0.002582 0.009280 0.002674 -0.002511 -0.000907
# 4 0.005111 -0.002247 0.002674 0.021967 0.007509 0.004781
# 5 0.003567 -0.003230 -0.002511 0.007509 0.045600 0.012916
# 6 0.005227 -0.002498 -0.000907 0.004781 0.012916 0.031376
#
#
# Mechanical properties :
#
#
# Convention : Reuss Voigt Hill
#
# Bulk Modulus (GPa) = 59.29034 73.34430 66.31732
# Shear Modulus (GPa) = 28.51919 37.00904 32.76411
#
# Velocity S-wave (km/s) = 3.75044 4.27236 4.01988
# Velocity P-wave (km/s) = 6.92796 7.77889 7.36573
#
# Compressibility (1/GPa) = 0.01686616
#
# Stress axis : x y z
#
# Youngs Moduli (GPa) = 50.47255 67.94498 107.75683
#
# Poissons Ratio (x) = 0.44887 0.46165
# Poissons Ratio (y) = 0.33344 0.27820
# Poissons Ratio (z) = 0.21623 0.17542
#
# Static dielectric constant tensor:
#      x y z
#    x 1.792820 -0.031960 -0.007740 
#    y -0.031960 1.795320 -0.045540 
#    z -0.007740 -0.045540 1.772440 
# 
# From -- ./inp_files/26781.got.cif
#   From: 2010.05.17/outbox.cif.g08.bks.cpg/sg2_14_cif.got.tgz:26781.got - 2010.06.03 11:33:40.
