data_PCOD9013682
_publ_section_title
;
Structure prediction by ZEFSAII (Michael W. Deem and Ramdas Pophale) SiO2 
 PCOD9013682
Probable space group: P -1
;
_chemical_formula_sum "Si O2"
_cell_formula_units_Z 14
_cell_length_a 10.333577
_cell_length_b 8.286424
_cell_length_c 8.911609
_cell_angle_alpha 128.801690
_cell_angle_beta 74.609290
_cell_angle_gamma 97.489418
_cell_volume 572.704832
_symmetry_space_group_name_H-M "P -1"
_symmetry_group_IT_number 2
_symmetry_cell_setting 'triclinic'
loop_
_space_group_symop_operation_xyz
x,y,z
-x,-y,-z
loop_
_atom_site_type_symbol
_atom_site_label
_atom_site_fract_x
_atom_site_fract_y
_atom_site_fract_z
Si Si1 0.485575 0.955933 0.206332
Si Si2 0.267079 0.075633 0.096921
Si Si3 0.210146 0.527406 0.517799
Si Si4 0.638256 0.372865 0.735331
Si Si5 0.202192 0.394871 0.926534
Si Si6 0.060984 0.725215 0.934050
Si Si7 0.591758 0.620846 0.380689
O O1 0.435636 0.810546 0.268885
O O2 0.368240 0.962597 0.120717
O O3 0.483666 0.188143 0.404594
O O4 0.632085 0.902405 0.061485
O O5 0.215400 0.295915 0.311683
O O6 0.142936 0.931995 0.022160
O O7 0.249911 0.673285 0.453496
O O8 0.081893 0.604436 0.698897
O O9 0.327106 0.516505 0.602947
O O10 0.708734 0.496816 0.914801
O O11 0.516645 0.494064 0.752400
O O12 0.093518 0.257847 0.959450
O O13 0.128236 0.579615 0.959500
O O14 0.298060 0.287379 0.710628
#
# Coordination Sequence:
#
# PCOD9013682 Si02
#       7
#     2   2   2   2   2   2   2
#     4  10  22  38  63  97 125 159 209 253 321 364
#     4  10  21  41  65  93 127 164 203 261 309 373
#     4  10  24  39  65  93 126 167 205 250 323 365
#     4  12  22  39  64  95 127 156 209 268 301 371
#     4  10  23  39  67  90 122 167 213 252 309 366
#     4  10  21  47  62  89 127 170 208 253 308 372
#     4  10  22  40  60  96 126 163 202 258 318 370
#
# _framework density 24.445405000000001
#
# number of rings (size 3 to 8) (size 9 to 14) (size 15 to 20)
#    0.000    1.714    1.429    2.143    4.000    2.857 
#    2.571    3.571    0.000    0.000    0.000    0.000 
#    0.000    0.000    0.000    0.000    0.000    0.000 
#
# Total GULP energy -78400.893753 kJ/mol
# GULP energy per Si atom -5600.063840 kJ/mol
# Density = 2.438977 g / cm^3
# Si number density = 24.445405 Si / 1000 Ang^3
#
#
#
# Elastic Constant Matrix: (Units=GPa)
#
#
# Indices 1 2 3 4 5 6 
#
# 1 87.5724 38.8936 47.7833 2.7548 -8.3814 24.7267
# 2 38.8936 142.8913 52.9749 -29.4706 -12.8359 37.7741
# 3 47.7833 52.9749 127.9720 -26.4663 -15.4663 30.3027
# 4 2.7548 -29.4706 -26.4663 42.0535 7.1595 2.9326
# 5 -8.3814 -12.8359 -15.4663 7.1595 25.5998 -10.4923
# 6 24.7267 37.7741 30.3027 2.9326 -10.4923 50.5466
#
#
#
# Elastic Compliance Matrix: (Units=1/GPa)
#
#
# Indices 1 2 3 4 5 6 
#
# 1 0.016965 -0.003436 -0.005908 -0.007442 0.001774 -0.001390
# 2 -0.003436 0.011836 0.000065 0.009286 -0.001007 -0.007951
# 3 -0.005908 0.000065 0.013274 0.008913 0.001439 -0.005334
# 4 -0.007442 0.009286 0.008913 0.038694 -0.008393 -0.012630
# 5 0.001774 -0.001007 0.001439 -0.008393 0.046074 0.009073
# 6 -0.001390 -0.007951 -0.005334 -0.012630 0.009073 0.032220
#
#
# Mechanical properties :
#
#
# Convention : Reuss Voigt Hill
#
# Bulk Modulus (GPa) = 42.52173 70.85993 56.69083
# Shear Modulus (GPa) = 26.96009 38.22557 32.59283
#
# Velocity S-wave (km/s) = 3.32455 3.95867 3.65539
# Velocity P-wave (km/s) = 5.67179 7.06716 6.40757
#
# Compressibility (1/GPa) = 0.02351739
#
# Stress axis : x y z
#
# Youngs Moduli (GPa) = 58.94522 84.48604 75.33647
#
# Poissons Ratio (x) = 0.29026 0.44509
# Poissons Ratio (y) = 0.20251 -0.00488
# Poissons Ratio (z) = 0.34825 -0.00547
#
# Static dielectric constant tensor:
#      x y z
#    x 1.981400 -0.024770 -0.000250 
#    y -0.024770 1.944970 -0.040520 
#    z -0.000250 -0.040520 1.929910 
# 
# From -- ./inp_files/241289.got.cif
#   From: 2010.05.17/outbox.cif.g08.bks.cpg/sg2_121_cif.got.tgz:241289.got - 2010.06.03 11:33:40.
