data_PCOD9013468
_publ_section_title
;
Structure prediction by ZEFSAII (Michael W. Deem and Ramdas Pophale) SiO2 
 PCOD9013468
Probable space group: P -1
;
_chemical_formula_sum "Si O2"
_cell_formula_units_Z 15
_cell_length_a 7.693303
_cell_length_b 7.471328
_cell_length_c 20.070039
_cell_angle_alpha 145.495529
_cell_angle_beta 115.024601
_cell_angle_gamma 68.786505
_cell_volume 591.943320
_symmetry_space_group_name_H-M "P -1"
_symmetry_group_IT_number 2
_symmetry_cell_setting 'triclinic'
loop_
_space_group_symop_operation_xyz
x,y,z
-x,-y,-z
loop_
_atom_site_type_symbol
_atom_site_label
_atom_site_fract_x
_atom_site_fract_y
_atom_site_fract_z
Si Si1 0.017831 0.682587 0.862729
Si Si2 0.205042 0.901734 0.311661
Si Si3 0.500000 0.000000 0.500000
Si Si4 0.282642 0.409716 0.926612
Si Si5 0.870189 0.158538 0.425364
Si Si6 0.203804 0.229995 0.587758
Si Si7 0.407986 0.754582 0.705968
Si Si8 0.176774 0.974991 0.171805
O O1 0.846679 0.456571 0.787563
O O2 0.206581 0.514006 0.873455
O O3 0.991891 0.806738 0.821302
O O4 0.000000 0.000000 0.000000
O O5 0.400709 0.007952 0.409047
O O6 0.190453 0.937305 0.241110
O O7 0.029725 0.101114 0.377149
O O8 0.715215 0.094800 0.532429
O O9 0.289095 0.029713 0.811007
O O10 0.500000 0.500000 0.000000
O O11 0.172339 0.626910 0.029389
O O12 0.816443 0.843240 0.361161
O O13 0.686023 0.279611 0.392680
O O14 0.000860 0.332517 0.554725
O O15 0.374609 0.426246 0.639028
O O16 0.623522 0.866260 0.769724
#
# Coordination Sequence:
#
# PCOD9013468 Si02
#       8
#     2   2   1   2   2   2   2   2
#     4  10  21  41  64  96 136 179 225 273 332 402
#     4  11  22  42  64  99 137 180 222 281 335 401
#     4  10  22  42  68  96 130 170 228 280 334 394
#     4   9  20  40  65  99 137 171 224 279 330 402
#     4  10  22  40  61  94 131 170 219 277 335 392
#     4  10  22  40  65  91 129 170 220 281 334 395
#     4  11  20  41  64  95 128 173 223 269 335 396
#     4  10  23  39  68  96 137 181 221 275 337 394
#
# _framework density 25.340264999999999
#
# number of rings (size 3 to 8) (size 9 to 14) (size 15 to 20)
#    0.000    1.867    1.333    2.000    0.000    3.200 
#    2.400   14.667    0.000    8.000    0.000    0.000 
#    0.000    0.000    0.000    0.000    0.000    0.000 
#
# Total GULP energy -83596.899871 kJ/mol
# GULP energy per Si atom -5573.126658 kJ/mol
# Density = 2.528259 g / cm^3
# Si number density = 25.340265 Si / 1000 Ang^3
#
#
#
# Elastic Constant Matrix: (Units=GPa)
#
#
# Indices 1 2 3 4 5 6 
#
# 1 68.3458 45.7812 24.6787 -13.3666 12.0010 6.6564
# 2 45.7812 184.3628 75.1015 -34.6784 -12.9951 7.6890
# 3 24.6787 75.1015 136.2348 -22.3711 -1.0226 2.6087
# 4 -13.3666 -34.6784 -22.3711 57.9132 -1.0110 1.5457
# 5 12.0010 -12.9951 -1.0226 -1.0110 38.5190 -9.4820
# 6 6.6564 7.6890 2.6087 1.5457 -9.4820 41.8951
#
#
#
# Elastic Compliance Matrix: (Units=1/GPa)
#
#
# Indices 1 2 3 4 5 6 
#
# 1 0.020566 -0.005009 -0.000713 0.001430 -0.009170 -0.004432
# 2 -0.005009 0.008970 -0.003528 0.002925 0.004647 0.000313
# 3 -0.000713 -0.003528 0.009646 0.001438 -0.000686 -0.000048
# 4 0.001430 0.002925 0.001438 0.019955 0.000754 -0.001419
# 5 -0.009170 0.004647 -0.000686 0.000754 0.032342 0.007939
# 6 -0.004432 0.000313 -0.000048 -0.001419 0.007939 0.026368
#
#
# Mechanical properties :
#
#
# Convention : Reuss Voigt Hill
#
# Bulk Modulus (GPa) = 48.35351 75.56291 61.95821
# Shear Modulus (GPa) = 34.90618 43.89094 39.39856
#
# Velocity S-wave (km/s) = 3.71549 4.16632 3.94735
# Velocity P-wave (km/s) = 6.12614 7.28206 6.72897
#
# Compressibility (1/GPa) = 0.02068102
#
# Stress axis : x y z
#
# Youngs Moduli (GPa) = 48.62481 111.48554 103.66540
#
# Poissons Ratio (x) = 0.55841 0.07396
# Poissons Ratio (y) = 0.24355 0.36575
# Poissons Ratio (z) = 0.03469 0.39334
#
# Static dielectric constant tensor:
#      x y z
#    x 1.656400 0.393650 0.298120 
#    y 0.393650 1.540770 -0.382540 
#    z 0.298120 -0.382540 1.751110 
# 
# From -- ./inp_files/288180.got.cif
#   From: 2010.05.17/outbox.cif.g08.bks.cpg/sg2_145_cif.got.tgz:288180.got - 2010.06.03 11:33:40.
