data_PCOD9013063
_publ_section_title
;
Structure prediction by ZEFSAII (Michael W. Deem and Ramdas Pophale) SiO2 
 PCOD9013063
Probable space group: P -1
;
_chemical_formula_sum "Si O2"
_cell_formula_units_Z 15
_cell_length_a 6.646906
_cell_length_b 20.690991
_cell_length_c 16.178127
_cell_angle_alpha 22.696255
_cell_angle_beta 50.542373
_cell_angle_gamma 45.679954
_cell_volume 613.885319
_symmetry_space_group_name_H-M "P -1"
_symmetry_group_IT_number 2
_symmetry_cell_setting 'triclinic'
loop_
_space_group_symop_operation_xyz
x,y,z
-x,-y,-z
loop_
_atom_site_type_symbol
_atom_site_label
_atom_site_fract_x
_atom_site_fract_y
_atom_site_fract_z
Si Si1 0.248063 0.265446 0.648314
Si Si2 0.735615 0.603894 0.697464
Si Si3 0.411977 0.520552 0.404142
Si Si4 0.517200 0.661482 0.954985
Si Si5 0.011332 0.307017 0.320507
Si Si6 0.805377 0.075601 0.539977
Si Si7 0.000000 0.000000 0.000000
Si Si8 0.582038 0.145708 0.079312
O O1 0.246184 0.340916 0.467134
O O2 0.448160 0.334986 0.568031
O O3 0.923915 0.366371 0.642275
O O4 0.266059 0.061265 0.884728
O O5 0.722094 0.406108 0.937031
O O6 0.944864 0.654958 0.640799
O O7 0.430239 0.737002 0.650015
O O8 0.500000 0.500000 0.500000
O O9 0.526691 0.659787 0.167583
O O10 0.755303 0.485071 0.144330
O O11 0.700242 0.712883 0.778591
O O12 0.394461 0.809230 0.884039
O O13 0.945163 0.135224 0.511025
O O14 0.642021 0.947946 0.756933
O O15 0.000000 0.000000 0.500000
O O16 0.129764 0.969998 0.906418
#
# Coordination Sequence:
#
# PCOD9013063 Si02
#       8
#     2   2   2   2   2   2   1   2
#     4  10  21  41  63  87 124 158 204 271 314 367
#     4  11  22  40  67  92 126 171 217 261 320 388
#     4  10  23  41  64  91 119 164 219 262 315 380
#     4  10  21  41  65  91 132 169 213 275 313 377
#     4  10  23  40  64  97 130 170 219 257 323 390
#     4  11  23  42  62  92 138 173 206 267 327 382
#     4  10  22  42  64  88 126 172 210 260 334 372
#     4  11  21  42  66  90 131 174 209 271 327 376
#
# _framework density 24.434532000000001
#
# number of rings (size 3 to 8) (size 9 to 14) (size 15 to 20)
#    0.000    1.600    4.000    0.400    1.867    0.533 
#    2.400    1.333    0.000    0.000    0.000    0.000 
#    0.000    0.000    0.000    0.000    0.000    0.000 
#
# Total GULP energy -83560.304684 kJ/mol
# GULP energy per Si atom -5570.686979 kJ/mol
# Density = 2.437892 g / cm^3
# Si number density = 24.434532 Si / 1000 Ang^3
#
#
#
# Elastic Constant Matrix: (Units=GPa)
#
#
# Indices 1 2 3 4 5 6 
#
# 1 123.2464 33.3225 63.1279 -8.0685 -42.1171 50.0051
# 2 33.3225 137.5911 32.7048 15.5284 -25.2466 16.3880
# 3 63.1279 32.7048 102.0118 21.1121 -51.2819 25.8987
# 4 -8.0685 15.5284 21.1121 29.0933 -1.3975 -10.0623
# 5 -42.1171 -25.2466 -51.2819 -1.3975 49.7482 -9.8555
# 6 50.0051 16.3880 25.8987 -10.0623 -9.8555 46.4818
#
#
#
# Elastic Compliance Matrix: (Units=1/GPa)
#
#
# Indices 1 2 3 4 5 6 
#
# 1 0.021024 -0.000718 -0.004581 0.004147 0.009480 -0.016905
# 2 -0.000718 0.009682 0.005419 -0.011075 0.008335 -0.006291
# 3 -0.004581 0.005419 0.047022 -0.044630 0.041319 -0.024083
# 4 0.004147 -0.011075 -0.044630 0.083768 -0.038992 0.034177
# 5 0.009480 0.008335 0.041319 -0.038992 0.067870 -0.030210
# 6 -0.016905 -0.006291 -0.024083 0.034177 -0.030210 0.056329
#
#
# Mechanical properties :
#
#
# Convention : Reuss Voigt Hill
#
# Bulk Modulus (GPa) = 12.82550 69.01772 40.92161
# Shear Modulus (GPa) = 16.05424 40.64427 28.34926
#
# Velocity S-wave (km/s) = 2.56604 4.08290 3.40988
# Velocity P-wave (km/s) = 3.74697 7.10873 5.68216
#
# Compressibility (1/GPa) = 0.07796968
#
# Stress axis : x y z
#
# Youngs Moduli (GPa) = 47.56411 103.28211 21.26658
#
# Poissons Ratio (x) = 0.07415 0.09742
# Poissons Ratio (y) = 0.03415 -0.11525
# Poissons Ratio (z) = 0.21789 -0.55973
#
# Static dielectric constant tensor:
#      x y z
#    x 1.999080 0.022100 -0.028040 
#    y 0.022100 2.184550 -0.239300 
#    z -0.028040 -0.239300 2.163650 
# 
# From -- ./inp_files/484983.got.cif
#   From: 2010.05.17/outbox.cif.g08.bks.cpg/sg2_243_cif.got.tgz:484983.got - 2010.06.03 11:33:40.
