data_PCOD9013709
_publ_section_title
;
Structure prediction by ZEFSAII (Michael W. Deem and Ramdas Pophale) SiO2 
 PCOD9013709
Probable space group: P -1
;
_chemical_formula_sum "Si O2"
_cell_formula_units_Z 16
_cell_length_a 8.937643
_cell_length_b 8.467314
_cell_length_c 21.588207
_cell_angle_alpha 39.766052
_cell_angle_beta 46.070796
_cell_angle_gamma 47.679964
_cell_volume 717.036432
_symmetry_space_group_name_H-M "P -1"
_symmetry_group_IT_number 2
_symmetry_cell_setting 'triclinic'
loop_
_space_group_symop_operation_xyz
x,y,z
-x,-y,-z
loop_
_atom_site_type_symbol
_atom_site_label
_atom_site_fract_x
_atom_site_fract_y
_atom_site_fract_z
Si Si1 0.424478 0.312271 0.124234
Si Si2 0.885434 0.092732 0.220795
Si Si3 0.585784 0.223058 0.380041
Si Si4 0.627332 0.024041 0.860369
Si Si5 0.035054 0.213110 0.318042
Si Si6 0.349469 0.634037 0.409530
Si Si7 0.204657 0.399531 0.636660
Si Si8 0.375174 0.440171 0.904680
O O1 0.484015 0.038479 0.152062
O O2 0.167231 0.367711 0.193410
O O3 0.516258 0.367833 0.147289
O O4 0.500000 0.500000 0.000000
O O5 0.670319 0.158940 0.305821
O O6 0.850044 0.359080 0.114114
O O7 0.118353 0.004329 0.214409
O O8 0.877017 0.848376 0.256897
O O9 0.410837 0.494276 0.367780
O O10 0.807513 0.221800 0.350914
O O11 0.500000 0.000000 0.500000
O O12 0.504554 0.280878 0.856560
O O13 0.634191 0.783906 0.977162
O O14 0.974855 0.351371 0.359525
O O15 0.186356 0.920332 0.368502
O O16 0.250057 0.455870 0.535633
O O17 0.570455 0.641722 0.378183
#
# Coordination Sequence:
#
# PCOD9013709 Si02
#       8
#     2   2   2   2   2   2   2   2
#     4  10  21  41  65  94 128 162 210 266 315 381
#     4  12  22  40  65  92 128 168 209 263 326 376
#     4  11  24  41  59  91 131 164 212 265 311 382
#     4  10  22  43  64  95 131 165 214 267 316 388
#     4  11  22  41  65  88 123 173 211 257 327 378
#     4  10  22  41  61  89 123 168 214 260 319 381
#     4  10  22  39  62  90 127 158 213 273 309 380
#     4  10  23  41  67  95 128 169 213 264 324 384
#
# _framework density 22.314069
#
# number of rings (size 3 to 8) (size 9 to 14) (size 15 to 20)
#    0.000    1.500    2.500    2.250    1.750    0.500 
#    4.500    0.000    0.000    9.000    0.000    0.000 
#    0.000    0.000    0.000    0.000    0.000    0.000 
#
# Total GULP energy -89303.376725 kJ/mol
# GULP energy per Si atom -5581.461045 kJ/mol
# Density = 2.226328 g / cm^3
# Si number density = 22.314069 Si / 1000 Ang^3
#
#
#
# Elastic Constant Matrix: (Units=GPa)
#
#
# Indices 1 2 3 4 5 6 
#
# 1 58.4339 42.7563 9.4738 1.5262 -5.1056 18.7695
# 2 42.7563 167.0104 17.6554 -11.2749 -2.1459 16.2038
# 3 9.4738 17.6554 89.4511 2.8516 -11.5732 0.2841
# 4 1.5262 -11.2749 2.8516 35.2862 0.5041 5.9317
# 5 -5.1056 -2.1459 -11.5732 0.5041 26.1813 3.8121
# 6 18.7695 16.2038 0.2841 5.9317 3.8121 39.2804
#
#
#
# Elastic Compliance Matrix: (Units=1/GPa)
#
#
# Indices 1 2 3 4 5 6 
#
# 1 0.024874 -0.005310 -0.000802 -0.001095 0.005547 -0.010062
# 2 -0.005310 0.007761 -0.001168 0.002988 -0.000824 -0.001027
# 3 -0.000802 -0.001168 0.012200 -0.001482 0.005095 0.000506
# 4 -0.001095 0.002988 -0.001482 0.030349 -0.000445 -0.005238
# 5 0.005547 -0.000824 0.005095 -0.000445 0.042402 -0.006396
# 6 -0.010062 -0.001027 0.000506 -0.005238 -0.006396 0.032098
#
#
# Mechanical properties :
#
#
# Convention : Reuss Voigt Hill
#
# Bulk Modulus (GPa) = 33.02971 50.51850 41.77411
# Shear Modulus (GPa) = 28.68055 36.48358 32.58206
#
# Velocity S-wave (km/s) = 3.58901 4.04790 3.82535
# Velocity P-wave (km/s) = 5.65765 6.67355 6.18649
#
# Compressibility (1/GPa) = 0.03027577
#
# Stress axis : x y z
#
# Youngs Moduli (GPa) = 40.20286 128.84433 81.96945
#
# Poissons Ratio (x) = 0.68411 0.06573
# Poissons Ratio (y) = 0.21346 0.09575
# Poissons Ratio (z) = 0.03224 0.15050
#
# Static dielectric constant tensor:
#      x y z
#    x 1.826180 0.046590 0.032430 
#    y 0.046590 1.726850 -0.011990 
#    z 0.032430 -0.011990 1.851190 
# 
# From -- ./inp_files/47511.got.cif
#   From: 2010.05.17/outbox.cif.g08.bks.cpg/sg2_24_cif.got.tgz:47511.got - 2010.06.03 11:33:40.
