data_PCOD9013609
_publ_section_title
;
Structure prediction by ZEFSAII (Michael W. Deem and Ramdas Pophale) SiO2 
 PCOD9013609
Probable space group: P -1
;
_chemical_formula_sum "Si O2"
_cell_formula_units_Z 16
_cell_length_a 8.544302
_cell_length_b 13.595253
_cell_length_c 19.877736
_cell_angle_alpha 21.347614
_cell_angle_beta 129.181823
_cell_angle_gamma 125.100457
_cell_volume 650.808662
_symmetry_space_group_name_H-M "P -1"
_symmetry_group_IT_number 2
_symmetry_cell_setting 'triclinic'
loop_
_space_group_symop_operation_xyz
x,y,z
-x,-y,-z
loop_
_atom_site_type_symbol
_atom_site_label
_atom_site_fract_x
_atom_site_fract_y
_atom_site_fract_z
Si Si1 0.731403 0.553642 0.506970
Si Si2 0.829027 0.951856 0.904507
Si Si3 0.186509 0.896405 0.564696
Si Si4 0.571744 0.696480 0.233568
Si Si5 0.615045 0.579827 0.174892
Si Si6 0.847722 0.542721 0.688429
Si Si7 0.792377 0.642780 0.831156
Si Si8 0.566500 0.795043 0.807309
O O1 0.500000 0.500000 0.500000
O O2 0.710559 0.694439 0.339222
O O3 0.826530 0.670632 0.525856
O O4 0.855948 0.267798 0.714955
O O5 0.697385 0.909797 0.828967
O O6 0.690549 0.858372 0.988261
O O7 0.024054 0.746969 0.089721
O O8 0.286963 0.652934 0.698527
O O9 0.355762 0.945450 0.635349
O O10 0.991427 0.748847 0.633611
O O11 0.168189 0.141101 0.352649
O O12 0.669143 0.558127 0.281587
O O13 0.372818 0.530805 0.300822
O O14 0.500000 0.000000 0.000000
O O15 0.374908 0.556344 0.115302
O O16 0.695457 0.778696 0.784884
O O17 0.000000 0.500000 0.000000
O O18 0.500000 0.500000 0.000000
#
# Coordination Sequence:
#
# PCOD9013609 Si02
#       8
#     2   2   2   2   2   2   2   2
#     4  10  23  41  64  93 126 169 213 262 325 380
#     4  11  22  41  72  93 129 174 213 266 316 392
#     4  10  23  43  66  92 134 172 214 261 316 396
#     4  11  25  43  66  95 129 167 216 273 327 383
#     4  10  21  41  65  90 131 172 211 266 324 368
#     4  10  22  45  66  94 130 166 219 266 322 384
#     4  11  25  39  63  97 137 168 214 269 313 382
#     4  11  20  43  67  97 129 175 215 253 329 384
#
# _framework density 24.584799
#
# number of rings (size 3 to 8) (size 9 to 14) (size 15 to 20)
#    0.000    1.500    3.750    3.375    5.250    4.000 
#    0.000    4.375    0.000    0.000    0.000    0.000 
#    0.000    0.000    0.000    0.000    0.000    0.000 
#
# Total GULP energy -89612.200093 kJ/mol
# GULP energy per Si atom -5600.762506 kJ/mol
# Density = 2.452884 g / cm^3
# Si number density = 24.584799 Si / 1000 Ang^3
#
#
#
# Elastic Constant Matrix: (Units=GPa)
#
#
# Indices 1 2 3 4 5 6 
#
# 1 104.0125 30.4410 26.6033 19.8136 -21.8244 3.5573
# 2 30.4410 116.6625 22.2818 24.3292 -20.6811 -6.6614
# 3 26.6033 22.2818 133.1535 24.3385 -17.7285 7.7726
# 4 19.8136 24.3292 24.3385 50.8581 -1.2758 -8.6546
# 5 -21.8244 -20.6811 -17.7285 -1.2758 38.2123 17.1290
# 6 3.5573 -6.6614 7.7726 -8.6546 17.1290 40.9989
#
#
#
# Elastic Compliance Matrix: (Units=1/GPa)
#
#
# Indices 1 2 3 4 5 6 
#
# 1 0.013244 -0.000916 0.000293 -0.005761 0.010045 -0.006766
# 2 -0.000916 0.010798 0.000215 -0.005067 0.006063 -0.001810
# 3 0.000293 0.000215 0.009819 -0.005780 0.007411 -0.006168
# 4 -0.005761 -0.005067 -0.005780 0.028879 -0.013324 0.012435
# 5 0.010045 0.006063 0.007411 -0.013324 0.049243 -0.024677
# 6 -0.006766 -0.001810 -0.006168 0.012435 -0.024677 0.038788
#
#
# Mechanical properties :
#
#
# Convention : Reuss Voigt Hill
#
# Bulk Modulus (GPa) = 30.26259 56.94230 43.60245
# Shear Modulus (GPa) = 30.75007 44.31404 37.53205
#
# Velocity S-wave (km/s) = 3.54047 4.25019 3.91146
# Velocity P-wave (km/s) = 5.38975 6.87731 6.17846
#
# Compressibility (1/GPa) = 0.03304410
#
# Stress axis : x y z
#
# Youngs Moduli (GPa) = 75.50648 92.61138 101.84502
#
# Poissons Ratio (x) = 0.08483 -0.02980
# Poissons Ratio (y) = 0.06916 -0.02191
# Poissons Ratio (z) = -0.02209 -0.01993
#
# Static dielectric constant tensor:
#      x y z
#    x 2.000280 -0.006410 0.056630 
#    y -0.006410 1.934450 -0.026520 
#    z 0.056630 -0.026520 1.938780 
# 
# From -- ./inp_files/222645.got.cif
#   From: 2010.05.17/outbox.cif.g08.bks.cpg/sg2_112_cif.got.tgz:222645.got - 2010.06.03 11:33:40.
