data_PCOD9013643
_publ_section_title
;
Structure prediction by ZEFSAII (Michael W. Deem and Ramdas Pophale) SiO2 
 PCOD9013643
Probable space group: P -1
;
_chemical_formula_sum "Si O2"
_cell_formula_units_Z 16
_cell_length_a 15.786764
_cell_length_b 10.891729
_cell_length_c 9.522898
_cell_angle_alpha 71.019642
_cell_angle_beta 56.278291
_cell_angle_gamma 119.556227
_cell_volume 664.227851
_symmetry_space_group_name_H-M "P -1"
_symmetry_group_IT_number 2
_symmetry_cell_setting 'triclinic'
loop_
_space_group_symop_operation_xyz
x,y,z
-x,-y,-z
loop_
_atom_site_type_symbol
_atom_site_label
_atom_site_fract_x
_atom_site_fract_y
_atom_site_fract_z
Si Si1 0.430757 0.512264 0.692170
Si Si2 0.028309 0.743200 0.441556
Si Si3 0.502276 0.119045 0.568893
Si Si4 0.263772 0.279690 0.512901
Si Si5 0.951951 0.589167 0.053287
Si Si6 0.692269 0.184887 0.853859
Si Si7 0.039361 0.851277 0.105764
Si Si8 0.007347 0.876094 0.691522
O O1 0.500000 0.500000 0.500000
O O2 0.523152 0.760461 0.508604
O O3 0.513368 0.519200 0.744305
O O4 0.198524 0.286618 0.005704
O O5 0.831164 0.460152 0.663202
O O6 0.992770 0.807294 0.573868
O O7 0.168787 0.778492 0.348775
O O8 0.123133 0.922879 0.155988
O O9 0.721357 0.360143 0.340499
O O10 0.500000 0.000000 0.500000
O O11 0.370185 0.935768 0.890294
O O12 0.181733 0.330724 0.609358
O O13 0.180402 0.158444 0.480767
O O14 0.152649 0.069011 0.812329
O O15 0.027148 0.701188 0.096540
O O16 0.044821 0.789201 0.782845
O O17 0.000000 0.500000 0.000000
O O18 0.500000 0.000000 0.000000
#
# Coordination Sequence:
#
# PCOD9013643 Si02
#       8
#     2   2   2   2   2   2   2   2
#     4  11  22  41  68  96 129 169 220 279 325 380
#     4  11  25  42  62  89 142 170 212 276 333 386
#     4  11  24  39  63  98 126 161 222 269 319 389
#     4  10  21  41  69  90 122 166 226 268 315 388
#     4  10  22  36  64  90 126 162 212 269 321 371
#     4  11  25  41  62  92 130 181 216 258 330 402
#     4  10  21  41  65  92 122 171 215 264 330 387
#     4  10  24  40  59  98 127 168 214 268 325 385
#
# _framework density 24.088118999999999
#
# number of rings (size 3 to 8) (size 9 to 14) (size 15 to 20)
#    0.000    1.500    0.000    6.000   10.500    1.500 
#    0.000    0.625    0.000    0.000    0.000    0.000 
#    0.000    0.000    0.000    0.000    0.000    0.000 
#
# Total GULP energy -89437.835785 kJ/mol
# GULP energy per Si atom -5589.864737 kJ/mol
# Density = 2.403329 g / cm^3
# Si number density = 24.088119 Si / 1000 Ang^3
#
#
#
# Elastic Constant Matrix: (Units=GPa)
#
#
# Indices 1 2 3 4 5 6 
#
# 1 132.9952 54.3958 21.3841 13.5172 -23.3318 0.5271
# 2 54.3958 184.5566 38.5128 35.8041 -10.8826 0.5081
# 3 21.3841 38.5128 37.1414 20.8864 -1.7217 6.8394
# 4 13.5172 35.8041 20.8864 38.5613 2.8177 -8.5339
# 5 -23.3318 -10.8826 -1.7217 2.8177 43.5707 -0.1519
# 6 0.5271 0.5081 6.8394 -8.5339 -0.1519 45.5174
#
#
#
# Elastic Compliance Matrix: (Units=1/GPa)
#
#
# Indices 1 2 3 4 5 6 
#
# 1 0.009635 -0.001839 -0.003511 -0.000002 0.004563 0.000451
# 2 -0.001839 0.007798 -0.004562 -0.004240 0.001056 -0.000172
# 3 -0.003511 -0.004562 0.049292 -0.023872 0.000431 -0.011789
# 4 -0.000002 -0.004240 -0.023872 0.045864 -0.004927 0.012217
# 5 0.004563 0.001056 0.000431 -0.004927 0.025991 -0.000966
# 6 0.000451 -0.000172 -0.011789 0.012217 -0.000966 0.026025
#
#
# Mechanical properties :
#
#
# Convention : Reuss Voigt Hill
#
# Bulk Modulus (GPa) = 21.32202 64.80874 43.06538
# Shear Modulus (GPa) = 24.99244 41.55656 33.27450
#
# Velocity S-wave (km/s) = 3.22458 4.15805 3.72070
# Velocity P-wave (km/s) = 4.76810 7.07218 6.03119
#
# Compressibility (1/GPa) = 0.04689987
#
# Stress axis : x y z
#
# Youngs Moduli (GPa) = 103.79287 128.24412 20.28744
#
# Poissons Ratio (x) = 0.23582 0.07123
# Poissons Ratio (y) = 0.19086 0.09255
# Poissons Ratio (z) = 0.36441 0.58507
#
# Static dielectric constant tensor:
#      x y z
#    x 1.990490 0.015360 0.026610 
#    y 0.015360 1.957600 -0.063740 
#    z 0.026610 -0.063740 1.929470 
# 
# From -- ./inp_files/306932.got.cif
#   From: 2010.05.17/outbox.cif.g08.bks.cpg/sg2_154_cif.got.tgz:306932.got - 2010.06.03 11:33:40.
