data_PCOD9013819
_publ_section_title
;
Structure prediction by ZEFSAII (Michael W. Deem and Ramdas Pophale) SiO2 
 PCOD9013819
Probable space group: P -1
;
_chemical_formula_sum "Si O2"
_cell_formula_units_Z 14
_cell_length_a 14.145647
_cell_length_b 19.691792
_cell_length_c 8.226597
_cell_angle_alpha 33.960794
_cell_angle_beta 51.552004
_cell_angle_gamma 30.425358
_cell_volume 611.922243
_symmetry_space_group_name_H-M "P -1"
_symmetry_group_IT_number 2
_symmetry_cell_setting 'triclinic'
loop_
_space_group_symop_operation_xyz
x,y,z
-x,-y,-z
loop_
_atom_site_type_symbol
_atom_site_label
_atom_site_fract_x
_atom_site_fract_y
_atom_site_fract_z
Si Si1 0.974684 0.949742 0.294285
Si Si2 0.432965 0.882798 0.165000
Si Si3 0.247535 0.123271 0.369502
Si Si4 0.638412 0.733840 0.892520
Si Si5 0.635416 0.285633 0.207316
Si Si6 0.793932 0.728125 0.232655
Si Si7 0.371761 0.515002 0.728262
O O1 0.864514 0.914066 0.426818
O O2 0.189881 0.738523 0.544969
O O3 0.852054 0.122690 0.216784
O O4 0.000000 0.000000 0.000000
O O5 0.351745 0.827354 0.445093
O O6 0.614324 0.778018 0.297253
O O7 0.520679 0.803321 0.049484
O O8 0.271748 0.118439 0.872752
O O9 0.215563 0.269232 0.224775
O O10 0.476623 0.909439 0.587398
O O11 0.203453 0.202822 0.077462
O O12 0.714907 0.539468 0.150531
O O13 0.500000 0.500000 0.000000
O O14 0.509734 0.356843 0.038052
O O15 0.000000 0.500000 0.500000
O O16 0.500000 0.500000 0.500000
#
# Coordination Sequence:
#
# PCOD9013819 Si02
#       7
#     2   2   2   2   2   2   2
#     4  12  25  45  73 105 141 185 245 292 354 434
#     4  10  22  40  66  99 140 177 236 292 351 423
#     4  10  21  44  67 104 143 186 239 295 350 432
#     4  10  21  43  71 102 144 188 231 295 360 423
#     4  12  26  46  72 101 141 189 240 299 365 421
#     4  10  21  41  65  98 139 185 231 290 355 421
#     4  12  24  45  72  99 143 192 233 296 359 424
#
# _framework density 22.878723000000001
#
# number of rings (size 3 to 8) (size 9 to 14) (size 15 to 20)
#    0.000    1.143    4.286    0.857    2.000    1.143 
#    5.143    1.429    0.000    0.000    0.000    0.000 
#    0.000    0.000    0.000    0.000    0.000    0.000 
#
# Total GULP energy -78191.997901 kJ/mol
# GULP energy per Si atom -5585.142707 kJ/mol
# Density = 2.282665 g / cm^3
# Si number density = 22.878723 Si / 1000 Ang^3
#
#
#
# Elastic Constant Matrix: (Units=GPa)
#
#
# Indices 1 2 3 4 5 6 
#
# 1 57.9999 24.2870 16.6353 4.4196 -18.0348 7.9764
# 2 24.2870 122.8584 68.4586 -25.5397 -9.3083 12.1559
# 3 16.6353 68.4586 105.0744 -1.4617 3.6052 12.3339
# 4 4.4196 -25.5397 -1.4617 64.0326 -3.1133 -7.3371
# 5 -18.0348 -9.3083 3.6052 -3.1133 42.0706 -0.5756
# 6 7.9764 12.1559 12.3339 -7.3371 -0.5756 32.1641
#
#
#
# Elastic Compliance Matrix: (Units=1/GPa)
#
#
# Indices 1 2 3 4 5 6 
#
# 1 0.022526 -0.003266 -0.001266 -0.002963 0.008763 -0.004386
# 2 -0.003266 0.015896 -0.009884 0.006524 0.003449 0.000142
# 3 -0.001266 -0.009884 0.016647 -0.004077 -0.004503 -0.003345
# 4 -0.002963 0.006524 -0.004077 0.018906 0.001979 0.004181
# 5 0.008763 0.003449 -0.004503 0.001979 0.028811 -0.000783
# 6 -0.004386 0.000142 -0.003345 0.004181 -0.000783 0.034347
#
#
# Mechanical properties :
#
#
# Convention : Reuss Voigt Hill
#
# Bulk Modulus (GPa) = 38.11186 56.07715 47.09451
# Shear Modulus (GPa) = 28.61908 39.42357 34.02133
#
# Velocity S-wave (km/s) = 3.54065 4.15559 3.86039
# Velocity P-wave (km/s) = 5.78008 6.89848 6.36390
#
# Compressibility (1/GPa) = 0.02623855
#
# Stress axis : x y z
#
# Youngs Moduli (GPa) = 44.39407 62.90958 60.06934
#
# Poissons Ratio (x) = 0.20545 0.07602
# Poissons Ratio (y) = 0.14498 0.59371
# Poissons Ratio (z) = 0.05619 0.62178
#
# Static dielectric constant tensor:
#      x y z
#    x 1.915910 0.006750 -0.045650 
#    y 0.006750 1.896280 -0.022310 
#    z -0.045650 -0.022310 1.856330 
# 
# From -- ./inp_files/319181.got.cif
#   From: 2010.05.17/outbox.cif.g08.bks.cpg/sg2_160_cif.got.tgz:319181.got - 2010.06.03 11:33:40.
