data_PCOD9013263
_publ_section_title
;
Structure prediction by ZEFSAII (Michael W. Deem and Ramdas Pophale) SiO2 
 PCOD9013263
Probable space group: P -1
;
_chemical_formula_sum "Si O2"
_cell_formula_units_Z 14
_cell_length_a 18.977934
_cell_length_b 4.962197
_cell_length_c 10.142439
_cell_angle_alpha 104.257686
_cell_angle_beta 146.715872
_cell_angle_gamma 75.989058
_cell_volume 506.845317
_symmetry_space_group_name_H-M "P -1"
_symmetry_group_IT_number 2
_symmetry_cell_setting 'triclinic'
loop_
_space_group_symop_operation_xyz
x,y,z
-x,-y,-z
loop_
_atom_site_type_symbol
_atom_site_label
_atom_site_fract_x
_atom_site_fract_y
_atom_site_fract_z
Si Si1 0.432089 0.223635 0.823987
Si Si2 0.956817 0.827502 0.001448
Si Si3 0.246318 0.756945 0.140916
Si Si4 0.022639 0.377291 0.724044
Si Si5 0.153718 0.088899 0.472225
Si Si6 0.499627 0.887606 0.634305
Si Si7 0.766936 0.969744 0.126486
O O1 0.281613 0.208404 0.614936
O O2 0.462429 0.128567 0.710338
O O3 0.500000 0.500000 0.000000
O O4 0.500000 0.000000 0.000000
O O5 0.033250 0.822764 0.275591
O O6 0.074553 0.059333 0.192545
O O7 0.000000 0.500000 0.000000
O O8 0.821186 0.956933 0.867781
O O9 0.381540 0.690167 0.417030
O O10 0.142450 0.539798 0.985899
O O11 0.249461 0.809332 0.993938
O O12 0.095575 0.186396 0.708719
O O13 0.921560 0.622773 0.557032
O O14 0.227695 0.946796 0.703523
O O15 0.500000 0.000000 0.500000
O O16 0.644153 0.786067 0.888656
#
# Coordination Sequence:
#
# PCOD9013263 Si02
#       7
#     2   2   2   2   2   2   2
#     4  12  28  52  75 113 155 201 255 317 386 460
#     4  10  22  42  61  91 136 178 248 296 375 436
#     4   9  21  40  63  99 139 180 246 297 370 434
#     4  10  23  39  67 103 136 196 238 317 364 460
#     4  11  24  41  70  99 142 194 239 312 377 456
#     4  10  22  47  74 105 150 200 253 315 378 455
#     4  10  21  41  64 101 145 183 255 298 383 445
#
# _framework density 27.621835999999998
#
# number of rings (size 3 to 8) (size 9 to 14) (size 15 to 20)
#    0.000    1.714    1.429    1.286    2.000   11.429 
#   10.286    0.000    0.000    0.000    0.000    0.000 
#    0.000    0.000    0.000    0.000    0.000    0.000 
#
# Total GULP energy -78258.037050 kJ/mol
# GULP energy per Si atom -5589.859789 kJ/mol
# Density = 2.755897 g / cm^3
# Si number density = 27.621836 Si / 1000 Ang^3
#
#
#
# Elastic Constant Matrix: (Units=GPa)
#
#
# Indices 1 2 3 4 5 6 
#
# 1 212.3885 59.5379 85.9274 8.7516 -20.6011 15.5096
# 2 59.5379 142.5878 63.9364 3.8385 16.1466 29.0319
# 3 85.9274 63.9364 265.9395 20.6596 13.3294 5.3960
# 4 8.7516 3.8385 20.6596 41.1151 -2.7262 -0.4963
# 5 -20.6011 16.1466 13.3294 -2.7262 57.8992 -12.0570
# 6 15.5096 29.0319 5.3960 -0.4963 -12.0570 44.8336
#
#
#
# Elastic Compliance Matrix: (Units=1/GPa)
#
#
# Indices 1 2 3 4 5 6 
#
# 1 0.006343 -0.002385 -0.001650 -0.000068 0.003395 0.000461
# 2 -0.002385 0.010689 -0.001382 -0.000218 -0.005039 -0.007288
# 3 -0.001650 -0.001382 0.004839 -0.002031 -0.001305 0.000510
# 4 -0.000068 -0.000218 -0.002031 0.025522 0.001960 0.001219
# 5 0.003395 -0.005039 -0.001305 0.001960 0.021981 0.008179
# 6 0.000461 -0.007288 0.000510 0.001219 0.008179 0.029016
#
#
# Mechanical properties :
#
#
# Convention : Reuss Voigt Hill
#
# Bulk Modulus (GPa) = 90.60946 115.52437 103.06692
# Shear Modulus (GPa) = 44.28590 56.20384 50.24487
#
# Velocity S-wave (km/s) = 4.00846 4.51573 4.26963
# Velocity P-wave (km/s) = 7.36875 8.31285 7.85499
#
# Compressibility (1/GPa) = 0.01103637
#
# Stress axis : x y z
#
# Youngs Moduli (GPa) = 157.65348 93.55325 206.67116
#
# Poissons Ratio (x) = 0.22312 0.34108
# Poissons Ratio (y) = 0.37600 0.28559
# Poissons Ratio (z) = 0.26018 0.12928
#
# Static dielectric constant tensor:
#      x y z
#    x 2.246300 0.037900 0.038440 
#    y 0.037900 2.167600 0.044220 
#    z 0.038440 0.044220 2.208690 
# 
# From -- ./inp_files/468185.got.cif
#   From: 2010.05.17/outbox.cif.g08.bks.cpg/sg2_235_cif.got.tgz:468185.got - 2010.06.03 11:33:40.
