data_PCOD9013500
_publ_section_title
;
Structure prediction by ZEFSAII (Michael W. Deem and Ramdas Pophale) SiO2 
 PCOD9013500
Probable space group: P -1
;
_chemical_formula_sum "Si O2"
_cell_formula_units_Z 16
_cell_length_a 10.403390
_cell_length_b 8.980535
_cell_length_c 12.716249
_cell_angle_alpha 131.511175
_cell_angle_beta 105.698579
_cell_angle_gamma 51.439982
_cell_volume 674.734818
_symmetry_space_group_name_H-M "P -1"
_symmetry_group_IT_number 2
_symmetry_cell_setting 'triclinic'
loop_
_space_group_symop_operation_xyz
x,y,z
-x,-y,-z
loop_
_atom_site_type_symbol
_atom_site_label
_atom_site_fract_x
_atom_site_fract_y
_atom_site_fract_z
Si Si1 0.545165 0.575302 0.254474
Si Si2 0.059163 0.869399 0.839855
Si Si3 0.042797 0.279442 0.637496
Si Si4 0.212530 0.209175 0.254845
Si Si5 0.471952 0.204963 0.006673
Si Si6 0.595732 0.668321 0.530174
Si Si7 0.653165 0.798596 0.223740
Si Si8 0.913550 0.109372 0.370366
O O1 0.743296 0.347573 0.206364
O O2 0.503768 0.716215 0.421955
O O3 0.543609 0.733236 0.232713
O O4 0.457200 0.442707 0.157980
O O5 0.041729 0.002737 0.789331
O O6 0.946333 0.780699 0.751415
O O7 0.000000 0.000000 0.000000
O O8 0.188775 0.299308 0.712216
O O9 0.861447 0.554817 0.729452
O O10 0.033991 0.175232 0.474130
O O11 0.063347 0.089667 0.638246
O O12 0.273291 0.267874 0.400337
O O13 0.358829 0.959846 0.107436
O O14 0.320671 0.304297 0.936326
O O15 0.500000 0.000000 0.000000
O O16 0.718357 0.373611 0.450388
O O17 0.448343 0.900176 0.676654
#
# Coordination Sequence:
#
# PCOD9013500 Si02
#       8
#     2   2   2   2   2   2   2   2
#     4  11  22  42  65  94 126 167 220 261 319 382
#     4  11  21  38  68  93 127 173 211 262 320 390
#     4  10  21  41  64  99 127 164 219 274 319 370
#     4  10  21  43  65  95 127 164 217 262 321 381
#     4  11  26  46  63  89 134 176 207 258 329 395
#     4   9  22  39  66  91 127 166 211 262 321 379
#     4  11  23  40  66  94 127 165 217 271 312 379
#     4   9  22  40  62  94 135 166 211 268 324 383
#
# _framework density 23.71302
#
# number of rings (size 3 to 8) (size 9 to 14) (size 15 to 20)
#    0.000    1.750    2.500    0.750    5.250    2.000 
#    9.000    1.250    0.000    0.000    0.000    0.000 
#    0.000    0.000    0.000    0.000    0.000    0.000 
#
# Total GULP energy -89198.600066 kJ/mol
# GULP energy per Si atom -5574.912504 kJ/mol
# Density = 2.365905 g / cm^3
# Si number density = 23.713020 Si / 1000 Ang^3
#
#
#
# Elastic Constant Matrix: (Units=GPa)
#
#
# Indices 1 2 3 4 5 6 
#
# 1 48.0709 14.3713 24.7956 -8.5956 30.1521 4.7216
# 2 14.3713 115.7058 35.0000 -26.0006 7.9671 14.3616
# 3 24.7956 35.0000 116.9489 -23.6169 28.8637 3.7632
# 4 -8.5956 -26.0006 -23.6169 28.8816 -2.2790 -3.4112
# 5 30.1521 7.9671 28.8637 -2.2790 35.4575 3.1025
# 6 4.7216 14.3616 3.7632 -3.4112 3.1025 29.6153
#
#
#
# Elastic Compliance Matrix: (Units=1/GPa)
#
#
# Indices 1 2 3 4 5 6 
#
# 1 0.048787 -0.001012 0.003131 0.012581 -0.042847 -0.001747
# 2 -0.001012 0.011641 -0.001524 0.008450 0.000410 -0.004360
# 3 0.003131 -0.001524 0.013384 0.009619 -0.012682 0.000976
# 4 0.012581 0.008450 0.009619 0.052553 -0.017095 0.000518
# 5 -0.042847 0.000410 -0.012682 -0.017095 0.073900 -0.001467
# 6 -0.001747 -0.004360 0.000976 0.000518 -0.001467 0.036249
#
#
# Mechanical properties :
#
#
# Convention : Reuss Voigt Hill
#
# Bulk Modulus (GPa) = 13.33309 47.67325 30.50317
# Shear Modulus (GPa) = 19.20682 32.56147 25.88414
#
# Velocity S-wave (km/s) = 2.84908 3.70962 3.30746
# Velocity P-wave (km/s) = 4.05684 6.20454 5.24186
#
# Compressibility (1/GPa) = 0.07500137
#
# Stress axis : x y z
#
# Youngs Moduli (GPa) = 20.49736 85.90340 74.71564
#
# Poissons Ratio (x) = 0.08696 -0.23392
# Poissons Ratio (y) = 0.02075 0.11385
# Poissons Ratio (z) = -0.06417 0.13090
#
# Static dielectric constant tensor:
#      x y z
#    x 2.020560 -0.004620 -0.052100 
#    y -0.004620 1.934570 -0.069130 
#    z -0.052100 -0.069130 2.090270 
# 
# From -- ./inp_files/208663.got.cif
#   From: 2010.05.17/outbox.cif.g08.bks.cpg/sg2_105_cif.got.tgz:208663.got - 2010.06.03 11:33:40.
