data_PCOD9013725
_publ_section_title
;
Structure prediction by ZEFSAII (Michael W. Deem and Ramdas Pophale) SiO2 
 PCOD9013725
Probable space group: P -1
;
_chemical_formula_sum "Si O2"
_cell_formula_units_Z 16
_cell_length_a 8.377653
_cell_length_b 16.535801
_cell_length_c 9.040942
_cell_angle_alpha 58.789123
_cell_angle_beta 58.678346
_cell_angle_gamma 97.411416
_cell_volume 767.079220
_symmetry_space_group_name_H-M "P -1"
_symmetry_group_IT_number 2
_symmetry_cell_setting 'triclinic'
loop_
_space_group_symop_operation_xyz
x,y,z
-x,-y,-z
loop_
_atom_site_type_symbol
_atom_site_label
_atom_site_fract_x
_atom_site_fract_y
_atom_site_fract_z
Si Si1 0.983846 0.531553 0.644183
Si Si2 0.989777 0.035459 0.305061
Si Si3 0.539338 0.407913 0.139921
Si Si4 0.452606 0.084747 0.527409
Si Si5 0.943705 0.240050 0.204551
Si Si6 0.313427 0.496954 0.695308
Si Si7 0.704011 0.010882 0.980172
Si Si8 0.043918 0.253859 0.490504
O O1 0.190801 0.547174 0.620403
O O2 0.000000 0.500000 0.500000
O O3 0.977992 0.643642 0.544115
O O4 0.758124 0.432586 0.926409
O O5 0.759346 0.934981 0.439744
O O6 0.192392 0.048196 0.102829
O O7 0.990683 0.149598 0.198388
O O8 0.000000 0.000000 0.500000
O O9 0.588523 0.436345 0.261951
O O10 0.301916 0.294373 0.336820
O O11 0.500000 0.500000 0.000000
O O12 0.692853 0.200987 0.316206
O O13 0.500000 0.000000 0.500000
O O14 0.372234 0.040473 0.773282
O O15 0.961085 0.230110 0.382817
O O16 0.127249 0.366998 0.949083
O O17 0.500000 0.500000 0.500000
O O18 0.893860 0.143482 0.764636
O O19 0.500000 0.000000 0.000000
#
# Coordination Sequence:
#
# PCOD9013725 Si02
#       8
#     2   2   2   2   2   2   2   2
#     4  11  25  44  67 101 133 175 228 277 332 398
#     4  11  23  44  68 104 136 176 224 276 332 396
#     4  10  21  41  65  94 133 170 220 276 323 392
#     4  10  23  43  67  99 137 174 222 276 325 399
#     4  11  23  45  70  96 137 179 220 276 340 391
#     4  12  25  44  69  98 136 174 225 277 331 401
#     4  12  23  44  69 101 137 174 223 275 329 402
#     4  11  23  44  71  96 136 181 219 275 342 388
#
# _framework density 20.858342
#
# number of rings (size 3 to 8) (size 9 to 14) (size 15 to 20)
#    0.000    1.000    5.000    3.000    0.000    6.000 
#    0.000    0.000    0.000    0.000    0.000    0.000 
#    0.000    0.000    0.000    0.000    0.000    0.000 
#
# Total GULP energy -89473.886589 kJ/mol
# GULP energy per Si atom -5592.117912 kJ/mol
# Density = 2.081087 g / cm^3
# Si number density = 20.858342 Si / 1000 Ang^3
#
#
#
# Elastic Constant Matrix: (Units=GPa)
#
#
# Indices 1 2 3 4 5 6 
#
# 1 120.5054 27.5039 25.6163 22.7790 -11.7784 29.5787
# 2 27.5039 101.6451 29.3865 18.0666 -1.2026 0.0658
# 3 25.6163 29.3865 108.1750 16.2449 -11.7266 8.2951
# 4 22.7790 18.0666 16.2449 54.1075 1.4478 0.9631
# 5 -11.7784 -1.2026 -11.7266 1.4478 40.8319 -0.7905
# 6 29.5787 0.0658 8.2951 0.9631 -0.7905 42.2777
#
#
#
# Elastic Compliance Matrix: (Units=1/GPa)
#
#
# Indices 1 2 3 4 5 6 
#
# 1 0.012038 -0.002309 -0.000644 -0.004044 0.003205 -0.008140
# 2 -0.002309 0.011565 -0.002538 -0.002140 -0.000937 0.002127
# 3 -0.000644 -0.002538 0.010850 -0.002188 0.002903 -0.001570
# 4 -0.004044 -0.002140 -0.002188 0.021576 -0.002571 0.002723
# 5 0.003205 -0.000937 0.002903 -0.002571 0.026269 -0.002261
# 6 -0.008140 0.002127 -0.001570 0.002723 -0.002261 0.029549
#
#
# Mechanical properties :
#
#
# Convention : Reuss Voigt Hill
#
# Bulk Modulus (GPa) = 42.60787 55.03765 48.82276
# Shear Modulus (GPa) = 38.26926 43.96467 41.11696
#
# Velocity S-wave (km/s) = 4.28801 4.59603 4.44469
# Velocity P-wave (km/s) = 6.70728 7.38975 7.05677
#
# Compressibility (1/GPa) = 0.02346984
#
# Stress axis : x y z
#
# Youngs Moduli (GPa) = 83.06856 86.47024 92.16530
#
# Poissons Ratio (x) = 0.19966 0.05939
# Poissons Ratio (y) = 0.19181 0.23393
# Poissons Ratio (z) = 0.05353 0.21947
#
# Static dielectric constant tensor:
#      x y z
#    x 1.739510 0.022250 -0.044030 
#    y 0.022250 1.663000 0.012580 
#    z -0.044030 0.012580 1.717360 
# 
# From -- ./inp_files/206209.got.cif
#   From: 2010.05.17/outbox.cif.g08.bks.cpg/sg2_104_cif.got.tgz:206209.got - 2010.06.03 11:33:40.
