data_PCOD9013953
_publ_section_title
;
Structure prediction by ZEFSAII (Michael W. Deem and Ramdas Pophale) SiO2 
 PCOD9013953
Probable space group: P -1
;
_chemical_formula_sum "Si O2"
_cell_formula_units_Z 16
_cell_length_a 9.371442
_cell_length_b 17.404037
_cell_length_c 9.818494
_cell_angle_alpha 105.100018
_cell_angle_beta 119.085239
_cell_angle_gamma 123.859559
_cell_volume 791.517424
_symmetry_space_group_name_H-M "P -1"
_symmetry_group_IT_number 2
_symmetry_cell_setting 'triclinic'
loop_
_space_group_symop_operation_xyz
x,y,z
-x,-y,-z
loop_
_atom_site_type_symbol
_atom_site_label
_atom_site_fract_x
_atom_site_fract_y
_atom_site_fract_z
Si Si1 0.506119 0.282720 0.709928
Si Si2 0.425728 0.061395 0.851735
Si Si3 0.289410 0.045625 0.371410
Si Si4 0.624539 0.503781 0.848380
Si Si5 0.186229 0.742428 0.109164
Si Si6 0.114126 0.356317 0.690073
Si Si7 0.507366 0.102910 0.208778
Si Si8 0.085146 0.159693 0.672911
O O1 0.312086 0.147717 0.467708
O O2 0.537545 0.381489 0.705506
O O3 0.782796 0.339327 0.881241
O O4 0.366951 0.237761 0.773962
O O5 0.697124 0.196227 0.957829
O O6 0.442247 0.971936 0.817494
O O7 0.158067 0.974098 0.595872
O O8 0.404169 0.086802 0.004697
O O9 0.579116 0.127904 0.618222
O O10 0.314367 0.041081 0.221090
O O11 0.023104 0.902228 0.255385
O O12 0.347155 0.444640 0.721533
O O13 0.767786 0.548216 0.084280
O O14 0.868856 0.640033 0.937815
O O15 0.809245 0.259487 0.455171
O O16 0.093680 0.257580 0.693269
#
# Coordination Sequence:
#
# PCOD9013953 Si02
#       8
#     2   2   2   2   2   2   2   2
#     4   9  18  30  49  71 101 122 152 198 234 272
#     4   9  20  30  50  67 100 125 152 197 237 285
#     4   9  18  27  52  69  94 121 156 195 230 283
#     4  10  17  30  47  76  94 121 161 191 236 271
#     4   9  18  29  49  72  89 125 157 193 227 281
#     4   9  18  28  50  71  97 121 151 206 229 275
#     4  10  18  34  45  72  96 128 153 192 246 272
#     4   9  17  31  49  75  95 119 157 195 242 270
#
# _framework density 20.214335999999999
#
# number of rings (size 3 to 8) (size 9 to 14) (size 15 to 20)
#    0.750    2.000    1.250    0.750    1.750    1.500 
#    0.000    1.250    0.000    3.000    0.000    0.000 
#    0.000    0.000    0.000    0.000    0.000    0.000 
#
# Total GULP energy -89115.882068 kJ/mol
# GULP energy per Si atom -5569.742629 kJ/mol
# Density = 2.016833 g / cm^3
# Si number density = 20.214336 Si / 1000 Ang^3
#
#
#
# Elastic Constant Matrix: (Units=GPa)
#
#
# Indices 1 2 3 4 5 6 
#
# 1 45.7609 16.6348 16.1401 0.8092 -7.0107 25.0632
# 2 16.6348 68.1907 26.4805 -1.0288 -4.4004 37.2037
# 3 16.1401 26.4805 35.7840 -1.3322 -14.1383 12.6967
# 4 0.8092 -1.0288 -1.3322 26.0183 8.7432 -5.8914
# 5 -7.0107 -4.4004 -14.1383 8.7432 24.3497 1.8609
# 6 25.0632 37.2037 12.6967 -5.8914 1.8609 40.2522
#
#
#
# Elastic Compliance Matrix: (Units=1/GPa)
#
#
# Indices 1 2 3 4 5 6 
#
# 1 0.050575 0.022027 -0.012441 -0.020761 0.022748 -0.052016
# 2 0.022027 0.047730 -0.021957 -0.016194 0.012148 -0.053836
# 3 -0.012441 -0.021957 0.057418 -0.004769 0.026891 0.007988
# 4 -0.020761 -0.016194 -0.004769 0.059292 -0.036000 0.039742
# 5 0.022748 0.012148 0.026891 -0.036000 0.081633 -0.042917
# 6 -0.052016 -0.053836 0.007988 0.039742 -0.042917 0.112271
#
#
# Mechanical properties :
#
#
# Convention : Reuss Voigt Hill
#
# Bulk Modulus (GPa) = 7.63467 29.80515 18.71991
# Shear Modulus (GPa) = 10.47516 24.15606 17.31561
#
# Velocity S-wave (km/s) = 2.27888 3.46062 2.92995
# Velocity P-wave (km/s) = 3.27253 5.54477 4.55269
#
# Compressibility (1/GPa) = 0.13098142
#
# Stress axis : x y z
#
# Youngs Moduli (GPa) = 19.77280 20.95140 17.41617
#
# Poissons Ratio (x) = -0.46150 0.21667
# Poissons Ratio (y) = -0.43554 0.38240
# Poissons Ratio (z) = 0.24599 0.46003
#
# Static dielectric constant tensor:
#      x y z
#    x 1.760080 0.011620 -0.002200 
#    y 0.011620 1.737840 0.022110 
#    z -0.002200 0.022110 1.728460 
# 
# From -- ./inp_files/281106.got.cif
#   From: 2010.05.17/outbox.cif.g08.bks.cpg/sg2_141_cif.got.tgz:281106.got - 2010.06.03 11:33:40.
