data_PCOD9013115
_publ_section_title
;
Structure prediction by ZEFSAII (Michael W. Deem and Ramdas Pophale) SiO2 
 PCOD9013115
Probable space group: P -1
;
_chemical_formula_sum "Si O2"
_cell_formula_units_Z 16
_cell_length_a 6.990126
_cell_length_b 11.894525
_cell_length_c 22.053950
_cell_angle_alpha 145.827612
_cell_angle_beta 62.935685
_cell_angle_gamma 128.524251
_cell_volume 798.138505
_symmetry_space_group_name_H-M "P -1"
_symmetry_group_IT_number 2
_symmetry_cell_setting 'triclinic'
loop_
_space_group_symop_operation_xyz
x,y,z
-x,-y,-z
loop_
_atom_site_type_symbol
_atom_site_label
_atom_site_fract_x
_atom_site_fract_y
_atom_site_fract_z
Si Si1 0.376867 0.940666 0.057575
Si Si2 0.986705 0.530033 0.414945
Si Si3 0.360048 0.819520 0.592644
Si Si4 0.790686 0.751862 0.442114
Si Si5 0.611401 0.612325 0.745255
Si Si6 0.868870 0.566324 0.997809
Si Si7 0.476730 0.685740 0.161536
Si Si8 0.731149 0.770628 0.937536
O O1 0.093783 0.750966 0.007728
O O2 0.379668 0.161895 0.184269
O O3 0.540234 0.848363 0.025834
O O4 0.500000 0.000000 0.000000
O O5 0.762397 0.331782 0.397045
O O6 0.900612 0.630059 0.416178
O O7 0.152982 0.725716 0.527653
O O8 0.165154 0.430999 0.324172
O O9 0.584150 0.782236 0.522135
O O10 0.452760 0.085376 0.710410
O O11 0.643690 0.596977 0.335882
O O12 0.000000 0.000000 0.500000
O O13 0.643502 0.667217 0.836564
O O14 0.715349 0.676823 0.098560
O O15 0.687407 0.344026 0.886621
O O16 0.000000 0.500000 0.000000
O O17 0.311432 0.449765 0.116745
O O18 0.000000 0.000000 0.000000
#
# Coordination Sequence:
#
# PCOD9013115 Si02
#       8
#     2   2   2   2   2   2   2   2
#     4  10  21  41  63  90 132 171 214 259 322 390
#     4  10  23  46  67  94 132 168 221 274 325 392
#     4  10  24  43  68  95 128 175 220 267 327 391
#     4  11  26  41  67 101 130 167 220 275 331 393
#     4  10  24  41  67  94 129 172 216 264 332 381
#     4  11  23  42  61  96 133 166 219 270 318 386
#     4  11  24  40  68  95 132 176 220 267 335 383
#     4  11  24  40  65  97 135 176 219 271 324 400
#
# _framework density 20.046643
#
# number of rings (size 3 to 8) (size 9 to 14) (size 15 to 20)
#    0.000    1.500    1.250    2.625    5.250    6.000 
#    0.000    0.000    0.000    0.000    0.000    0.000 
#    0.000    0.000    0.000    0.000    0.000    0.000 
#
# Total GULP energy -89309.559287 kJ/mol
# GULP energy per Si atom -5581.847455 kJ/mol
# Density = 2.000102 g / cm^3
# Si number density = 20.046643 Si / 1000 Ang^3
#
#
#
# Elastic Constant Matrix: (Units=GPa)
#
#
# Indices 1 2 3 4 5 6 
#
# 1 131.4162 59.2041 71.1607 12.2470 10.8459 2.0269
# 2 59.2041 111.4611 48.9949 15.2983 7.6349 4.5381
# 3 71.1607 48.9949 116.7608 17.4483 9.3383 9.9543
# 4 12.2470 15.2983 17.4483 25.8725 -1.4423 3.7445
# 5 10.8459 7.6349 9.3383 -1.4423 20.6986 -0.7482
# 6 2.0269 4.5381 9.9543 3.7445 -0.7482 32.7234
#
#
#
# Elastic Compliance Matrix: (Units=1/GPa)
#
#
# Indices 1 2 3 4 5 6 
#
# 1 0.012934 -0.004086 -0.006113 0.000053 -0.002452 0.001563
# 2 -0.004086 0.012779 -0.002034 -0.004294 -0.001971 -0.000454
# 3 -0.006113 -0.002034 0.014463 -0.005365 -0.003061 -0.003195
# 4 0.000053 -0.004294 -0.005365 0.045586 0.007051 -0.002831
# 5 -0.002452 -0.001971 -0.003061 0.007051 0.052259 0.001744
# 6 0.001563 -0.000454 -0.003195 -0.002831 0.001744 0.031861
#
#
# Mechanical properties :
#
#
# Convention : Reuss Voigt Hill
#
# Bulk Modulus (GPa) = 63.65685 79.81749 71.73717
# Shear Modulus (GPa) = 25.05211 27.87747 26.46479
#
# Velocity S-wave (km/s) = 3.53893 3.73316 3.63734
# Velocity P-wave (km/s) = 6.96578 7.64750 7.31459
#
# Compressibility (1/GPa) = 0.01570923
#
# Stress axis : x y z
#
# Youngs Moduli (GPa) = 77.31848 78.25357 69.14323
#
# Poissons Ratio (x) = 0.31972 0.42268
# Poissons Ratio (y) = 0.31590 0.14065
# Poissons Ratio (z) = 0.47266 0.15918
#
# Static dielectric constant tensor:
#      x y z
#    x 1.773180 -0.076430 0.015180 
#    y -0.076430 1.807210 -0.009860 
#    z 0.015180 -0.009860 1.713600 
# 
# From -- ./inp_files/78693.got.cif
#   From: 2010.05.17/outbox.cif.g08.bks.cpg/sg2_40_cif.got.tgz:78693.got - 2010.06.03 11:33:40.
