data_PCOD9013085
_publ_section_title
;
Structure prediction by ZEFSAII (Michael W. Deem and Ramdas Pophale) SiO2 
 PCOD9013085
Probable space group: P -1
;
_chemical_formula_sum "Si O2"
_cell_formula_units_Z 16
_cell_length_a 15.431231
_cell_length_b 15.296344
_cell_length_c 5.394655
_cell_angle_alpha 52.334408
_cell_angle_beta 123.500959
_cell_angle_gamma 140.899205
_cell_volume 627.963507
_symmetry_space_group_name_H-M "P -1"
_symmetry_group_IT_number 2
_symmetry_cell_setting 'triclinic'
loop_
_space_group_symop_operation_xyz
x,y,z
-x,-y,-z
loop_
_atom_site_type_symbol
_atom_site_label
_atom_site_fract_x
_atom_site_fract_y
_atom_site_fract_z
Si Si1 0.773740 0.903658 0.223609
Si Si2 0.514144 0.875424 0.765898
Si Si3 0.074118 0.116084 0.128423
Si Si4 0.356250 0.417080 0.556384
Si Si5 0.019727 0.386252 0.668366
Si Si6 0.398613 0.821914 0.174447
Si Si7 0.265748 0.446757 0.848266
Si Si8 0.913919 0.326856 0.107901
O O1 0.795451 0.863158 0.597973
O O2 0.717333 0.755679 0.239811
O O3 0.664291 0.925320 0.972177
O O4 0.936980 0.046250 0.196024
O O5 0.454747 0.793921 0.548543
O O6 0.500000 0.000000 0.500000
O O7 0.418964 0.775777 0.023173
O O8 0.140481 0.275758 0.874174
O O9 0.000000 0.000000 0.000000
O O10 0.500000 0.500000 0.500000
O O11 0.369290 0.490026 0.713539
O O12 0.286072 0.436777 0.188687
O O13 0.177339 0.494547 0.626323
O O14 0.000000 0.500000 0.500000
O O15 0.918337 0.276402 0.476782
O O16 0.985702 0.314036 0.013764
O O17 0.244622 0.760818 0.060577
O O18 0.500000 0.000000 0.000000
O O19 0.000000 0.500000 0.000000
#
# Coordination Sequence:
#
# PCOD9013085 Si02
#       8
#     2   2   2   2   2   2   2   2
#     4  10  23  42  67 102 136 180 228 288 351 406
#     4  10  23  42  63 100 138 179 221 272 346 429
#     4  10  21  41  71  99 137 171 233 295 347 406
#     4  11  24  45  65  96 133 178 231 280 336 408
#     4  10  22  42  66  97 132 173 218 285 333 406
#     4  10  22  40  62  90 135 180 223 266 332 416
#     4  11  23  42  70 100 130 173 230 281 349 400
#     4  10  21  41  63  88 133 176 224 273 327 399
#
# _framework density 25.479189000000002
#
# number of rings (size 3 to 8) (size 9 to 14) (size 15 to 20)
#    0.000    1.750    1.250    1.875    1.750    4.000 
#   15.750    0.000    0.000    0.000    0.000    0.000 
#    0.000    0.000    0.000    0.000    0.000    0.000 
#
# Total GULP energy -89147.922273 kJ/mol
# GULP energy per Si atom -5571.745142 kJ/mol
# Density = 2.542120 g / cm^3
# Si number density = 25.479189 Si / 1000 Ang^3
#
#
#
# Elastic Constant Matrix: (Units=GPa)
#
#
# Indices 1 2 3 4 5 6 
#
# 1 145.8019 18.5097 77.9222 21.3100 -8.9057 22.0083
# 2 18.5097 77.0267 14.7156 10.4214 11.5083 13.3432
# 3 77.9222 14.7156 127.4496 30.4296 6.5497 -6.4484
# 4 21.3100 10.4214 30.4296 33.8851 6.6552 3.7702
# 5 -8.9057 11.5083 6.5497 6.6552 65.7809 11.7886
# 6 22.0083 13.3432 -6.4484 3.7702 11.7886 41.0658
#
#
#
# Elastic Compliance Matrix: (Units=1/GPa)
#
#
# Indices 1 2 3 4 5 6 
#
# 1 0.013398 -0.000513 -0.008816 -0.000164 0.004534 -0.009685
# 2 -0.000513 0.014533 -0.000850 -0.002645 -0.001563 -0.003889
# 3 -0.008816 -0.000850 0.016147 -0.009065 -0.003411 0.009348
# 4 -0.000164 -0.002645 -0.009065 0.039354 -0.002009 -0.003513
# 5 0.004534 -0.001563 -0.003411 -0.002009 0.017964 -0.007430
# 6 -0.009685 -0.003889 0.009348 -0.003513 -0.007430 0.034728
#
#
# Mechanical properties :
#
#
# Convention : Reuss Voigt Hill
#
# Bulk Modulus (GPa) = 42.15641 63.61925 52.88783
# Shear Modulus (GPa) = 30.41576 44.08840 37.25208
#
# Velocity S-wave (km/s) = 3.45882 4.16428 3.82784
# Velocity P-wave (km/s) = 5.70373 6.93866 6.35128
#
# Compressibility (1/GPa) = 0.02372119
#
# Stress axis : x y z
#
# Youngs Moduli (GPa) = 74.63673 68.80857 61.93051
#
# Poissons Ratio (x) = 0.03529 0.54600
# Poissons Ratio (y) = 0.03828 0.05261
# Poissons Ratio (z) = 0.65802 0.05846
#
# Static dielectric constant tensor:
#      x y z
#    x 2.170540 -0.067470 -0.009480 
#    y -0.067470 2.132970 0.003950 
#    z -0.009480 0.003950 2.281880 
# 
# From -- ./inp_files/99518.got.cif
#   From: 2010.05.17/outbox.cif.g08.bks.cpg/sg2_50_cif.got.tgz:99518.got - 2010.06.03 11:33:40.
