data_PCOD9013532
_publ_section_title
;
Structure prediction by ZEFSAII (Michael W. Deem and Ramdas Pophale) SiO2 
 PCOD9013532
Probable space group: P -1
;
_chemical_formula_sum "Si O2"
_cell_formula_units_Z 16
_cell_length_a 11.427799
_cell_length_b 5.846496
_cell_length_c 10.837614
_cell_angle_alpha 96.916953
_cell_angle_beta 110.910678
_cell_angle_gamma 81.360690
_cell_volume 666.971780
_symmetry_space_group_name_H-M "P -1"
_symmetry_group_IT_number 2
_symmetry_cell_setting 'triclinic'
loop_
_space_group_symop_operation_xyz
x,y,z
-x,-y,-z
loop_
_atom_site_type_symbol
_atom_site_label
_atom_site_fract_x
_atom_site_fract_y
_atom_site_fract_z
Si Si1 0.177407 0.839413 0.381954
Si Si2 0.633951 0.475010 0.979784
Si Si3 0.020584 0.783585 0.616779
Si Si4 0.108782 0.507135 0.867957
Si Si5 0.431260 0.030019 0.110016
Si Si6 0.411443 0.067603 0.589389
Si Si7 0.931724 0.189374 0.897415
Si Si8 0.786438 0.526119 0.462377
O O1 0.171595 0.890816 0.238304
O O2 0.204554 0.567649 0.400441
O O3 0.288695 0.947803 0.498322
O O4 0.040228 0.951829 0.385613
O O5 0.645825 0.199203 0.927468
O O6 0.630753 0.698971 0.900708
O O7 0.500000 0.500000 0.000000
O O8 0.745819 0.527148 0.119350
O O9 0.034548 0.680721 0.754478
O O10 0.158234 0.702213 0.608248
O O11 0.904310 0.673253 0.500972
O O12 0.034509 0.291041 0.854624
O O13 0.121585 0.611823 0.016099
O O14 0.521887 0.008445 0.262256
O O15 0.500000 0.000000 0.000000
O O16 0.349197 0.335698 0.599783
O O17 0.500000 0.000000 0.500000
O O18 0.000000 0.000000 0.000000
#
# Coordination Sequence:
#
# PCOD9013532 Si02
#       8
#     2   2   2   2   2   2   2   2
#     4  11  23  43  70 103 142 184 237 297 365 451
#     4  10  25  45  72 109 145 191 247 315 375 446
#     4  10  21  41  65 104 133 175 230 290 365 431
#     4  11  24  40  71 102 141 190 237 303 373 444
#     4  10  25  49  72 106 147 192 255 307 374 440
#     4  11  28  45  72 102 142 196 246 305 375 446
#     4  11  24  42  66 101 143 188 240 293 372 442
#     4  10  23  42  68  96 142 176 232 291 363 444
#
# _framework density 23.989021000000001
#
# number of rings (size 3 to 8) (size 9 to 14) (size 15 to 20)
#    0.000    1.500    2.500    0.375    8.750    2.500 
#    0.000    0.000    0.000    0.000    0.000    0.000 
#    0.000    0.000    0.000    0.000    0.000    0.000 
#
# Total GULP energy -89115.076264 kJ/mol
# GULP energy per Si atom -5569.692266 kJ/mol
# Density = 2.393442 g / cm^3
# Si number density = 23.989021 Si / 1000 Ang^3
#
#
#
# Elastic Constant Matrix: (Units=GPa)
#
#
# Indices 1 2 3 4 5 6 
#
# 1 108.2077 31.7543 26.2749 -5.7283 -0.8846 -7.0203
# 2 31.7543 132.0832 42.4997 -35.7332 4.2883 3.1595
# 3 26.2749 42.4997 133.0344 -24.4845 -0.3445 2.1540
# 4 -5.7283 -35.7332 -24.4845 53.2544 -6.0928 5.4828
# 5 -0.8846 4.2883 -0.3445 -6.0928 29.5138 3.7299
# 6 -7.0203 3.1595 2.1540 5.4828 3.7299 37.3246
#
#
#
# Elastic Compliance Matrix: (Units=1/GPa)
#
#
# Indices 1 2 3 4 5 6 
#
# 1 0.010433 -0.002467 -0.001592 -0.001518 0.000025 0.002483
# 2 -0.002467 0.010426 -0.001672 0.006176 -0.000061 -0.002151
# 3 -0.001592 -0.001672 0.008954 0.003076 0.001091 -0.001235
# 4 -0.001518 0.006176 0.003076 0.025276 0.004968 -0.005195
# 5 0.000025 -0.000061 0.001091 0.004968 0.035477 -0.004328
# 6 0.002483 -0.002151 -0.001235 -0.005195 -0.004328 0.028708
#
#
# Mechanical properties :
#
#
# Convention : Reuss Voigt Hill
#
# Bulk Modulus (GPa) = 54.49077 63.82034 59.15555
# Shear Modulus (GPa) = 36.53513 42.20498 39.37006
#
# Velocity S-wave (km/s) = 3.90679 4.19901 4.05553
# Velocity P-wave (km/s) = 6.56619 7.08312 6.82955
#
# Compressibility (1/GPa) = 0.01835173
#
# Stress axis : x y z
#
# Youngs Moduli (GPa) = 95.85040 95.90967 111.67706
#
# Poissons Ratio (x) = 0.23659 0.17779
# Poissons Ratio (y) = 0.23644 0.18676
# Poissons Ratio (z) = 0.15259 0.16039
#
# Static dielectric constant tensor:
#      x y z
#    x 2.053670 -0.012510 -0.053980 
#    y -0.012510 2.070580 0.035770 
#    z -0.053980 0.035770 2.022960 
# 
# From -- ./inp_files/70440.got.cif
#   From: 2010.05.17/outbox.cif.g08.bks.cpg/sg2_36_cif.got.tgz:70440.got - 2010.06.03 11:33:40.
