data_PCOD9013799
_publ_section_title
;
Structure prediction by ZEFSAII (Michael W. Deem and Ramdas Pophale) SiO2 
 PCOD9013799
Probable space group: P -1
;
_chemical_formula_sum "Si O2"
_cell_formula_units_Z 12
_cell_length_a 12.101239
_cell_length_b 9.376284
_cell_length_c 5.522376
_cell_angle_alpha 72.718677
_cell_angle_beta 113.676433
_cell_angle_gamma 98.013232
_cell_volume 547.802735
_symmetry_space_group_name_H-M "P -1"
_symmetry_group_IT_number 2
_symmetry_cell_setting 'triclinic'
loop_
_space_group_symop_operation_xyz
x,y,z
-x,-y,-z
loop_
_atom_site_type_symbol
_atom_site_label
_atom_site_fract_x
_atom_site_fract_y
_atom_site_fract_z
Si Si1 0.544179 0.664899 0.905879
Si Si2 0.058342 0.337952 0.096920
Si Si3 0.104870 0.927434 0.782302
Si Si4 0.808714 0.747102 0.233370
Si Si5 0.654564 0.130427 0.150302
Si Si6 0.476650 0.130494 0.603451
O O1 0.427881 0.762305 0.821051
O O2 0.572164 0.720631 0.630670
O O3 0.500000 0.500000 0.000000
O O4 0.667277 0.702742 0.134771
O O5 0.130538 0.298501 0.431899
O O6 0.955914 0.204913 0.049325
O O7 0.133991 0.330765 0.916113
O O8 0.000000 0.500000 0.000000
O O9 0.203376 0.854642 0.729194
O O10 0.170706 0.073264 0.885301
O O11 0.000000 0.000000 0.500000
O O12 0.615249 0.958914 0.257471
O O13 0.603957 0.163765 0.823354
O O14 0.500000 0.000000 0.500000
#
# Coordination Sequence:
#
# PCOD9013799 Si02
#       6
#     2   2   2   2   2   2
#     4  11  26  41  67 102 139 183 227 298 359 419
#     4  11  26  47  73 104 144 190 233 292 354 417
#     4  10  23  43  71 102 136 187 239 287 344 426
#     4  11  25  47  72 102 143 185 241 290 348 425
#     4  10  21  41  65  97 133 177 235 285 356 407
#     4   9  19  38  63  92 128 173 225 284 344 410
#
# _framework density 21.905697
#
# number of rings (size 3 to 8) (size 9 to 14) (size 15 to 20)
#    0.000    1.667    0.000    4.000    9.333    2.000 
#   12.000    0.000    0.000    0.000    0.000    0.000 
#    0.000    0.000    0.000    0.000    0.000    0.000 
#
# Total GULP energy -66894.717039 kJ/mol
# GULP energy per Si atom -5574.559753 kJ/mol
# Density = 2.185584 g / cm^3
# Si number density = 21.905697 Si / 1000 Ang^3
#
#
#
# Elastic Constant Matrix: (Units=GPa)
#
#
# Indices 1 2 3 4 5 6 
#
# 1 115.2452 24.9633 21.2651 1.2287 7.3979 -5.8135
# 2 24.9633 117.1656 28.9660 -26.9208 -11.7829 12.6841
# 3 21.2651 28.9660 103.3592 -14.0785 -7.7453 10.2438
# 4 1.2287 -26.9208 -14.0785 31.9106 -3.6609 -2.7794
# 5 7.3979 -11.7829 -7.7453 -3.6609 25.4820 12.3347
# 6 -5.8135 12.6841 10.2438 -2.7794 12.3347 35.7418
#
#
#
# Elastic Compliance Matrix: (Units=1/GPa)
#
#
# Indices 1 2 3 4 5 6 
#
# 1 0.011844 -0.005473 -0.003680 -0.007360 -0.012308 0.008599
# 2 -0.005473 0.015824 0.001154 0.015014 0.016997 -0.011535
# 3 -0.003680 0.001154 0.012592 0.007173 0.010114 -0.007549
# 4 -0.007360 0.015014 0.007173 0.049134 0.024759 -0.013305
# 5 -0.012308 0.016997 0.010114 0.024759 0.074035 -0.034557
# 6 0.008599 -0.011535 -0.007549 -0.013305 -0.034557 0.046525
#
#
# Mechanical properties :
#
#
# Convention : Reuss Voigt Hill
#
# Bulk Modulus (GPa) = 41.21984 54.01763 47.61873
# Shear Modulus (GPa) = 21.36388 35.99858 28.68123
#
# Velocity S-wave (km/s) = 3.12631 4.05821 3.62236
# Velocity P-wave (km/s) = 5.64709 6.83165 6.26742
#
# Compressibility (1/GPa) = 0.02426016
#
# Stress axis : x y z
#
# Youngs Moduli (GPa) = 84.43043 63.19598 79.41580
#
# Poissons Ratio (x) = 0.34590 0.29224
# Poissons Ratio (y) = 0.46213 -0.09161
# Poissons Ratio (z) = 0.31069 -0.07290
#
# Static dielectric constant tensor:
#      x y z
#    x 2.138740 0.012860 -0.285390 
#    y 0.012860 1.812550 -0.011300 
#    z -0.285390 -0.011300 2.157790 
# 
# From -- ./inp_files/19913.got.cif
#   From: 2010.05.17/outbox.cif.g08.bks.cpg/sg2_10_cif.got.tgz:19913.got - 2010.06.03 11:33:40.
