data_PCOD9013099
_publ_section_title
;
Structure prediction by ZEFSAII (Michael W. Deem and Ramdas Pophale) SiO2 
 PCOD9013099
Probable space group: P -1
;
_chemical_formula_sum "Si O2"
_cell_formula_units_Z 14
_cell_length_a 18.070830
_cell_length_b 17.395991
_cell_length_c 9.446190
_cell_angle_alpha 41.608070
_cell_angle_beta 139.200529
_cell_angle_gamma 161.210384
_cell_volume 618.126798
_symmetry_space_group_name_H-M "P -1"
_symmetry_group_IT_number 2
_symmetry_cell_setting 'triclinic'
loop_
_space_group_symop_operation_xyz
x,y,z
-x,-y,-z
loop_
_atom_site_type_symbol
_atom_site_label
_atom_site_fract_x
_atom_site_fract_y
_atom_site_fract_z
Si Si1 0.498617 0.174414 0.788756
Si Si2 0.224968 0.245582 0.893646
Si Si3 0.087814 0.580027 0.854340
Si Si4 0.454198 0.256483 0.045761
Si Si5 0.679632 0.557066 0.699890
Si Si6 0.869861 0.145817 0.093020
Si Si7 0.263222 0.545373 0.538761
O O1 0.589205 0.373898 0.718780
O O2 0.574163 0.256594 0.623797
O O3 0.232909 0.932254 0.790322
O O4 0.633498 0.188952 0.041217
O O5 0.185028 0.344278 0.663893
O O6 0.500000 0.500000 0.000000
O O7 0.264642 0.184473 0.915547
O O8 0.000000 0.000000 0.000000
O O9 0.967323 0.581178 0.606208
O O10 0.000000 0.500000 0.000000
O O11 0.998328 0.381953 0.923721
O O12 0.579153 0.317399 0.280660
O O13 0.653605 0.495908 0.909322
O O14 0.327022 0.053435 0.035762
O O15 0.500000 0.500000 0.500000
O O16 0.954842 0.806258 0.721029
#
# Coordination Sequence:
#
# PCOD9013099 Si02
#       7
#     2   2   2   2   2   2   2
#     4   9  20  41  62  98 129 170 231 269 335 403
#     4  10  23  44  64  98 140 178 226 282 351 418
#     4   9  20  41  64  95 135 175 230 275 335 411
#     4  10  23  40  64  98 134 172 225 284 346 408
#     4  10  21  41  63  89 130 172 223 272 344 407
#     4  10  22  41  66  94 135 177 219 289 333 417
#     4  10  21  42  66  97 134 179 225 288 342 406
#
# _framework density 22.649075
#
# number of rings (size 3 to 8) (size 9 to 14) (size 15 to 20)
#    0.000    2.286    0.000    0.857    4.000    5.143 
#   25.714    6.429    0.000    0.000    0.000    0.000 
#    0.000    0.000    0.000    0.000    0.000    0.000 
#
# Total GULP energy -78083.820171 kJ/mol
# GULP energy per Si atom -5577.415727 kJ/mol
# Density = 2.259752 g / cm^3
# Si number density = 22.649075 Si / 1000 Ang^3
#
#
#
# Elastic Constant Matrix: (Units=GPa)
#
#
# Indices 1 2 3 4 5 6 
#
# 1 97.2018 40.7119 54.8499 12.6258 7.6087 18.8829
# 2 40.7119 93.3768 48.4513 2.9469 2.3970 13.1269
# 3 54.8499 48.4513 147.0022 21.4669 18.0219 12.3069
# 4 12.6258 2.9469 21.4669 30.1775 7.7211 1.6930
# 5 7.6087 2.3970 18.0219 7.7211 47.9634 2.7700
# 6 18.8829 13.1269 12.3069 1.6930 2.7700 54.2639
#
#
#
# Elastic Compliance Matrix: (Units=1/GPa)
#
#
# Indices 1 2 3 4 5 6 
#
# 1 0.015086 -0.004198 -0.003478 -0.003197 -0.000169 -0.003337
# 2 -0.004198 0.014495 -0.003613 0.002748 0.000935 -0.001360
# 3 -0.003478 -0.003613 0.010295 -0.004916 -0.002346 0.000023
# 4 -0.003197 0.002748 -0.004916 0.038708 -0.004046 0.000562
# 5 -0.000169 0.000935 -0.002346 -0.004046 0.022400 -0.000653
# 6 -0.003337 -0.001360 0.000023 0.000562 -0.000653 0.019929
#
#
# Mechanical properties :
#
#
# Convention : Reuss Voigt Hill
#
# Bulk Modulus (GPa) = 57.81567 69.51188 63.66378
# Shear Modulus (GPa) = 33.49936 39.38546 36.44241
#
# Velocity S-wave (km/s) = 3.85003 4.17459 4.01559
# Velocity P-wave (km/s) = 6.73393 7.34804 7.04768
#
# Compressibility (1/GPa) = 0.01729635
#
# Stress axis : x y z
#
# Youngs Moduli (GPa) = 66.28816 68.98980 97.13538
#
# Poissons Ratio (x) = 0.28964 0.33785
# Poissons Ratio (y) = 0.27829 0.35097
# Poissons Ratio (z) = 0.23056 0.24927
#
# Static dielectric constant tensor:
#      x y z
#    x 1.871300 0.021870 0.030500 
#    y 0.021870 1.978160 -0.007290 
#    z 0.030500 -0.007290 1.849390 
# 
# From -- ./inp_files/73851.got.cif
#   From: 2010.05.17/outbox.cif.g08.bks.cpg/sg2_37_cif.got.tgz:73851.got - 2010.06.03 11:33:40.
