data_PCOD9013311
_publ_section_title
;
Structure prediction by ZEFSAII (Michael W. Deem and Ramdas Pophale) SiO2 
 PCOD9013311
Probable space group: P -1
;
_chemical_formula_sum "Si O2"
_cell_formula_units_Z 16
_cell_length_a 18.246882
_cell_length_b 10.913587
_cell_length_c 9.030169
_cell_angle_alpha 105.003496
_cell_angle_beta 104.840736
_cell_angle_gamma 140.161493
_cell_volume 754.306990
_symmetry_space_group_name_H-M "P -1"
_symmetry_group_IT_number 2
_symmetry_cell_setting 'triclinic'
loop_
_space_group_symop_operation_xyz
x,y,z
-x,-y,-z
loop_
_atom_site_type_symbol
_atom_site_label
_atom_site_fract_x
_atom_site_fract_y
_atom_site_fract_z
Si Si1 0.853679 0.241152 0.451957
Si Si2 0.800485 0.701214 0.811844
Si Si3 0.433628 0.489187 0.190598
Si Si4 0.322285 0.701470 0.154372
Si Si5 0.648271 0.056698 0.505570
Si Si6 0.513391 0.353428 0.058286
Si Si7 0.199509 0.330832 0.535598
Si Si8 0.982090 0.771763 0.376063
O O1 0.818931 0.292468 0.577349
O O2 0.906653 0.186266 0.531741
O O3 0.000000 0.500000 0.500000
O O4 0.676033 0.963047 0.186416
O O5 0.721653 0.710724 0.845478
O O6 0.744331 0.505647 0.831147
O O7 0.747928 0.594718 0.583850
O O8 0.000000 0.000000 0.000000
O O9 0.501387 0.448292 0.202368
O O10 0.571970 0.801363 0.404268
O O11 0.396095 0.463481 0.989343
O O12 0.332982 0.846058 0.298920
O O13 0.512782 0.935535 0.300783
O O14 0.187595 0.508241 0.893679
O O15 0.629422 0.417385 0.202074
O O16 0.081120 0.267400 0.511231
O O17 0.091915 0.044116 0.435243
#
# Coordination Sequence:
#
# PCOD9013311 Si02
#       8
#     2   2   2   2   2   2   2   2
#     4  11  25  42  62  95 127 164 205 263 311 369
#     4  11  22  35  60  99 132 156 206 266 310 360
#     4   9  19  38  66  87 123 164 207 253 311 367
#     4  10  21  41  64  90 125 173 206 255 308 380
#     4   9  20  40  64  85 127 168 207 246 321 368
#     4  10  21  42  66  88 123 168 208 252 314 377
#     4  11  23  38  66  97 122 165 211 261 307 370
#     4  11  23  40  65  93 127 165 213 251 318 374
#
# _framework density 21.211521000000001
#
# number of rings (size 3 to 8) (size 9 to 14) (size 15 to 20)
#    0.000    1.750    1.250    4.500    5.250    1.000 
#    6.750    1.250    0.000    0.000    0.000    0.000 
#    0.000    0.000    0.000    0.000    0.000    0.000 
#
# Total GULP energy -89371.333799 kJ/mol
# GULP energy per Si atom -5585.708362 kJ/mol
# Density = 2.116324 g / cm^3
# Si number density = 21.211521 Si / 1000 Ang^3
#
#
#
# Elastic Constant Matrix: (Units=GPa)
#
#
# Indices 1 2 3 4 5 6 
#
# 1 129.0410 33.2832 27.5868 1.2021 -8.8619 37.5631
# 2 33.2832 51.4995 2.5675 0.6424 4.3302 34.2740
# 3 27.5868 2.5675 86.9241 1.9513 7.0523 9.6116
# 4 1.2021 0.6424 1.9513 19.2697 2.5494 -0.0996
# 5 -8.8619 4.3302 7.0523 2.5494 34.4545 3.5415
# 6 37.5631 34.2740 9.6116 -0.0996 3.5415 37.9599
#
#
#
# Elastic Compliance Matrix: (Units=1/GPa)
#
#
# Indices 1 2 3 4 5 6 
#
# 1 0.012168 -0.000755 -0.002999 -0.001157 0.005062 -0.011075
# 2 -0.000755 0.050029 0.004008 -0.001928 -0.002513 -0.045209
# 3 -0.002999 0.004008 0.013042 -0.000821 -0.003511 -0.003628
# 4 -0.001157 -0.001928 -0.000821 0.052683 -0.004158 0.003620
# 5 0.005062 -0.002513 -0.003511 -0.004158 0.032168 -0.004864
# 6 -0.011075 -0.045209 -0.003628 0.003620 -0.004864 0.079504
#
#
# Mechanical properties :
#
#
# Convention : Reuss Voigt Hill
#
# Bulk Modulus (GPa) = 13.20205 43.81550 28.50878
# Shear Modulus (GPa) = 18.91537 31.93864 25.42701
#
# Velocity S-wave (km/s) = 2.98946 3.88457 3.46603
# Velocity P-wave (km/s) = 4.26067 6.38915 5.43022
#
# Compressibility (1/GPa) = 0.07574580
#
# Stress axis : x y z
#
# Youngs Moduli (GPa) = 82.18519 19.98843 76.67380
#
# Poissons Ratio (x) = 0.01509 0.22998
# Poissons Ratio (y) = 0.06205 -0.30731
# Poissons Ratio (z) = 0.24651 -0.08011
#
# Static dielectric constant tensor:
#      x y z
#    x 1.806700 0.028540 -0.049460 
#    y 0.028540 1.844300 -0.055350 
#    z -0.049460 -0.055350 1.867630 
# 
# From -- ./inp_files/332277.got.cif
#   From: 2010.05.17/outbox.cif.g08.bks.cpg/sg2_167_cif.got.tgz:332277.got - 2010.06.03 11:33:40.
