data_PCOD9013096
_publ_section_title
;
Structure prediction by ZEFSAII (Michael W. Deem and Ramdas Pophale) SiO2 
 PCOD9013096
Probable space group: P -1
;
_chemical_formula_sum "Si O2"
_cell_formula_units_Z 16
_cell_length_a 14.536190
_cell_length_b 11.870031
_cell_length_c 9.162592
_cell_angle_alpha 68.013776
_cell_angle_beta 50.831038
_cell_angle_gamma 106.240892
_cell_volume 791.144530
_symmetry_space_group_name_H-M "P -1"
_symmetry_group_IT_number 2
_symmetry_cell_setting 'triclinic'
loop_
_space_group_symop_operation_xyz
x,y,z
-x,-y,-z
loop_
_atom_site_type_symbol
_atom_site_label
_atom_site_fract_x
_atom_site_fract_y
_atom_site_fract_z
Si Si1 0.900210 0.738288 0.966313
Si Si2 0.321137 0.191541 0.823351
Si Si3 0.275897 0.717432 0.011645
Si Si4 0.587070 0.042681 0.735662
Si Si5 0.318011 0.651247 0.676711
Si Si6 0.849556 0.071461 0.612895
Si Si7 0.949643 0.100211 0.969682
Si Si8 0.969402 0.657149 0.443465
O O1 0.000835 0.871209 0.665211
O O2 0.748424 0.722168 0.163046
O O3 0.835869 0.556914 0.080458
O O4 0.023449 0.816354 0.944297
O O5 0.518096 0.310419 0.546067
O O6 0.254552 0.090484 0.093954
O O7 0.230663 0.043152 0.860431
O O8 0.196105 0.544370 0.262903
O O9 0.114446 0.690779 0.191520
O O10 0.321583 0.708677 0.807908
O O11 0.438983 0.893680 0.844051
O O12 0.675924 0.230046 0.496292
O O13 0.724047 0.041086 0.637365
O O14 0.500000 0.000000 0.000000
O O15 0.939535 0.236490 0.549058
O O16 0.068954 0.251953 0.656724
O O17 0.000000 0.000000 0.000000
#
# Coordination Sequence:
#
# PCOD9013096 Si02
#       8
#     2   2   2   2   2   2   2   2
#     4  11  24  40  65  94 120 163 214 250 299 366
#     4  10  22  44  65  87 128 163 203 254 309 361
#     4  11  24  40  62  91 125 167 202 250 314 368
#     4  12  24  40  62  93 127 160 203 254 314 366
#     4  12  25  41  64  92 126 162 205 258 310 365
#     4  11  22  41  64  94 123 163 202 251 306 372
#     4   9  21  39  64  89 120 162 205 249 299 360
#     4  10  21  41  63  89 130 161 199 255 309 365
#
# _framework density 20.223865
#
# number of rings (size 3 to 8) (size 9 to 14) (size 15 to 20)
#    0.000    1.250    3.750    1.875    5.250    0.500 
#    0.000    0.000    0.000    2.250    0.000    0.000 
#    0.000    0.000    0.000    0.000    0.000    0.000 
#
# Total GULP energy -89292.814781 kJ/mol
# GULP energy per Si atom -5580.800924 kJ/mol
# Density = 2.017783 g / cm^3
# Si number density = 20.223865 Si / 1000 Ang^3
#
#
#
# Elastic Constant Matrix: (Units=GPa)
#
#
# Indices 1 2 3 4 5 6 
#
# 1 85.5231 25.5111 35.0684 0.2578 21.1278 1.2984
# 2 25.5111 72.7712 24.3404 7.1624 15.3500 20.5379
# 3 35.0684 24.3404 83.4290 9.4733 18.6727 6.3440
# 4 0.2578 7.1624 9.4733 33.3079 -11.3951 5.6271
# 5 21.1278 15.3500 18.6727 -11.3951 28.3040 1.3105
# 6 1.2984 20.5379 6.3440 5.6271 1.3105 28.6690
#
#
#
# Elastic Compliance Matrix: (Units=1/GPa)
#
#
# Indices 1 2 3 4 5 6 
#
# 1 0.016443 -0.003336 -0.004048 -0.001777 -0.008662 0.003285
# 2 -0.003336 0.021837 -0.000977 -0.005612 -0.010334 -0.013702
# 3 -0.004048 -0.000977 0.017560 -0.008527 -0.011429 -0.000807
# 4 -0.001777 -0.005612 -0.008527 0.043846 0.027828 -0.003890
# 5 -0.008662 -0.010334 -0.011429 0.027828 0.066059 0.001843
# 6 0.003285 -0.013702 -0.000807 -0.003890 0.001843 0.045406
#
#
# Mechanical properties :
#
#
# Convention : Reuss Voigt Hill
#
# Bulk Modulus (GPa) = 25.56234 45.72924 35.64579
# Shear Modulus (GPa) = 20.75446 28.50972 24.63209
#
# Velocity S-wave (km/s) = 3.20697 3.75868 3.49373
# Velocity P-wave (km/s) = 5.13615 6.44186 5.82570
#
# Compressibility (1/GPa) = 0.03912005
#
# Stress axis : x y z
#
# Youngs Moduli (GPa) = 60.81656 45.79372 56.94696
#
# Poissons Ratio (x) = 0.15275 0.23050
# Poissons Ratio (y) = 0.20286 0.05563
# Poissons Ratio (z) = 0.24616 0.04473
#
# Static dielectric constant tensor:
#      x y z
#    x 1.764640 -0.058020 -0.018700 
#    y -0.058020 1.776140 0.008490 
#    z -0.018700 0.008490 1.733760 
# 
# From -- ./inp_files/206086.got.cif
#   From: 2010.05.17/outbox.cif.g08.bks.cpg/sg2_104_cif.got.tgz:206086.got - 2010.06.03 11:33:40.
