data_PCOD9013073
_publ_section_title
;
Structure prediction by ZEFSAII (Michael W. Deem and Ramdas Pophale) SiO2 
 PCOD9013073
Probable space group: P -1
;
_chemical_formula_sum "Si O2"
_cell_formula_units_Z 16
_cell_length_a 10.615348
_cell_length_b 7.169424
_cell_length_c 20.829165
_cell_angle_alpha 50.782716
_cell_angle_beta 29.765164
_cell_angle_gamma 56.251507
_cell_volume 609.621664
_symmetry_space_group_name_H-M "P -1"
_symmetry_group_IT_number 2
_symmetry_cell_setting 'triclinic'
loop_
_space_group_symop_operation_xyz
x,y,z
-x,-y,-z
loop_
_atom_site_type_symbol
_atom_site_label
_atom_site_fract_x
_atom_site_fract_y
_atom_site_fract_z
Si Si1 0.911145 0.890316 0.362024
Si Si2 0.275151 0.685674 0.971592
Si Si3 0.769966 0.538842 0.716657
Si Si4 0.989206 0.528034 0.240974
Si Si5 0.760264 0.775302 0.099499
Si Si6 0.516652 0.461133 0.616812
Si Si7 0.095111 0.911845 0.813143
Si Si8 0.675806 0.975992 0.579844
O O1 0.697903 0.688799 0.485901
O O2 0.919008 0.078611 0.259381
O O3 0.830579 0.007656 0.438747
O O4 0.162687 0.720729 0.287105
O O5 0.482366 0.571832 0.858638
O O6 0.354686 0.953861 0.900507
O O7 0.213472 0.502515 0.095852
O O8 0.009341 0.741119 0.041755
O O9 0.927418 0.567189 0.706500
O O10 0.817843 0.757850 0.600429
O O11 0.717706 0.481753 0.339666
O O12 0.977688 0.816785 0.193522
O O13 0.571521 0.596737 0.258574
O O14 0.890553 0.754911 0.976027
O O15 0.633237 0.212618 0.590485
O O16 0.388221 0.890460 0.709448
#
# Coordination Sequence:
#
# PCOD9013073 Si02
#       8
#     2   2   2   2   2   2   2   2
#     4  11  25  38  58  94 123 161 202 247 300 359
#     4   9  14  29  54  88 113 150 204 242 297 359
#     4  11  19  33  54  91 121 155 200 248 299 360
#     4   8  18  30  58  88 116 153 198 254 299 349
#     4   9  15  33  63  87 112 156 202 252 294 354
#     4  10  21  41  63  88 123 155 206 252 295 363
#     4   9  18  36  60  85 115 157 206 239 294 358
#     4  11  21  39  61  84 124 166 198 245 303 364
#
# _framework density 26.245787
#
# number of rings (size 3 to 8) (size 9 to 14) (size 15 to 20)
#    0.000    2.250    2.500    2.625    0.000    5.000 
#    0.000    0.625    0.000    1.500    0.000    3.500 
#    0.000    0.125    0.000    0.000    0.000    0.000 
#
# Total GULP energy -89613.581362 kJ/mol
# GULP energy per Si atom -5600.848835 kJ/mol
# Density = 2.618605 g / cm^3
# Si number density = 26.245787 Si / 1000 Ang^3
#
#
#
# Elastic Constant Matrix: (Units=GPa)
#
#
# Indices 1 2 3 4 5 6 
#
# 1 59.1122 61.2542 40.7834 -7.5761 23.9429 -10.8635
# 2 61.2542 114.0541 33.7856 -1.6692 6.5776 4.1161
# 3 40.7834 33.7856 159.2621 10.6643 47.9787 -1.7836
# 4 -7.5761 -1.6692 10.6643 35.2380 -10.7099 4.3376
# 5 23.9429 6.5776 47.9787 -10.7099 47.8671 -9.7370
# 6 -10.8635 4.1161 -1.7836 4.3376 -9.7370 49.3501
#
#
#
# Elastic Compliance Matrix: (Units=1/GPa)
#
#
# Indices 1 2 3 4 5 6 
#
# 1 0.064880 -0.032921 -0.003750 0.005816 -0.020354 0.012365
# 2 -0.032921 0.026211 -0.000719 -0.001138 0.011905 -0.007010
# 3 -0.003750 -0.000719 0.011322 -0.007507 -0.011452 -0.001956
# 4 0.005816 -0.001138 -0.007507 0.035693 0.012860 0.000504
# 5 -0.020354 0.011905 -0.011452 0.012860 0.044136 0.001691
# 6 0.012365 -0.007010 -0.001956 0.000504 0.001691 0.023789
#
#
# Mechanical properties :
#
#
# Convention : Reuss Voigt Hill
#
# Bulk Modulus (GPa) = 36.18742 67.11940 51.65341
# Shear Modulus (GPa) = 17.24000 39.59807 28.41904
#
# Velocity S-wave (km/s) = 2.56572 3.88846 3.29417
# Velocity P-wave (km/s) = 4.75343 6.76677 5.84740
#
# Compressibility (1/GPa) = 0.02763391
#
# Stress axis : x y z
#
# Youngs Moduli (GPa) = 15.41296 38.15145 88.32085
#
# Poissons Ratio (x) = 1.25600 0.33119
# Poissons Ratio (y) = 0.50742 0.06349
# Poissons Ratio (z) = 0.05780 0.02743
#
# Static dielectric constant tensor:
#      x y z
#    x 2.053310 0.010880 0.035330 
#    y 0.010880 2.035860 0.002340 
#    z 0.035330 0.002340 2.129860 
# 
# From -- ./inp_files/593446.got.cif
#   From: 2010.05.17/outbox.cif.g08.bks.cpg/sg2_297_cif.got.tgz:593446.got - 2010.06.03 11:33:40.
