data_PCOD9013462
_publ_section_title
;
Structure prediction by ZEFSAII (Michael W. Deem and Ramdas Pophale) SiO2 
 PCOD9013462
Probable space group: P -1
;
_chemical_formula_sum "Si O2"
_cell_formula_units_Z 16
_cell_length_a 14.851140
_cell_length_b 9.371149
_cell_length_c 11.905860
_cell_angle_alpha 39.758451
_cell_angle_beta 114.514928
_cell_angle_gamma 133.755298
_cell_volume 740.596855
_symmetry_space_group_name_H-M "P -1"
_symmetry_group_IT_number 2
_symmetry_cell_setting 'triclinic'
loop_
_space_group_symop_operation_xyz
x,y,z
-x,-y,-z
loop_
_atom_site_type_symbol
_atom_site_label
_atom_site_fract_x
_atom_site_fract_y
_atom_site_fract_z
Si Si1 0.162046 0.676814 0.176238
Si Si2 0.092703 0.439751 0.535183
Si Si3 0.189001 0.583985 0.004478
Si Si4 0.555847 0.809460 0.292388
Si Si5 0.626625 0.029190 0.568022
Si Si6 0.384363 0.468844 0.200761
Si Si7 0.023978 0.911968 0.948632
Si Si8 0.559110 0.925675 0.843926
O O1 0.105576 0.495383 0.373345
O O2 0.119278 0.531019 0.119369
O O3 0.313249 0.845346 0.157046
O O4 0.142188 0.914184 0.023881
O O5 0.232872 0.653920 0.540200
O O6 0.000000 0.500000 0.500000
O O7 0.040352 0.122449 0.734471
O O8 0.261847 0.451346 0.135543
O O9 0.092428 0.414571 0.953620
O O10 0.295652 0.929065 0.822598
O O11 0.500000 0.500000 0.500000
O O12 0.472933 0.703808 0.200068
O O13 0.518671 0.955115 0.268868
O O14 0.500000 0.000000 0.500000
O O15 0.638376 0.827435 0.618020
O O16 0.605895 0.921352 0.750239
O O17 0.468509 0.620284 0.041337
O O18 0.000000 0.000000 0.000000
#
# Coordination Sequence:
#
# PCOD9013462 Si02
#       8
#     2   2   2   2   2   2   2   2
#     4  11  23  46  71  96 141 178 239 290 347 427
#     4  11  25  48  70 100 143 189 239 296 359 418
#     4  11  24  46  67 102 137 183 235 280 361 424
#     4  11  22  41  69 101 141 176 221 285 349 420
#     4  11  25  39  66 105 134 172 240 289 343 419
#     4  11  21  41  67  94 138 178 214 280 352 414
#     4  12  27  45  73  97 135 189 236 293 348 418
#     4  10  21  41  64  96 134 179 217 275 352 407
#
# _framework density 21.604196999999999
#
# number of rings (size 3 to 8) (size 9 to 14) (size 15 to 20)
#    0.000    1.000    3.750    3.000    3.500    5.500 
#    2.250    0.000    0.000    0.000    0.000    0.000 
#    0.000    0.000    0.000    0.000    0.000    0.000 
#
# Total GULP energy -89286.820796 kJ/mol
# GULP energy per Si atom -5580.426300 kJ/mol
# Density = 2.155503 g / cm^3
# Si number density = 21.604197 Si / 1000 Ang^3
#
#
#
# Elastic Constant Matrix: (Units=GPa)
#
#
# Indices 1 2 3 4 5 6 
#
# 1 54.3289 13.3150 12.9471 0.2469 -21.7602 2.6449
# 2 13.3150 90.2619 15.6249 -5.9057 -14.4363 -7.1824
# 3 12.9471 15.6249 96.8377 -7.6577 0.3847 3.3992
# 4 0.2469 -5.9057 -7.6577 25.7845 -0.9528 0.4922
# 5 -21.7602 -14.4363 0.3847 -0.9528 20.3299 5.9402
# 6 2.6449 -7.1824 3.3992 0.4922 5.9402 34.0843
#
#
#
# Elastic Compliance Matrix: (Units=1/GPa)
#
#
# Indices 1 2 3 4 5 6 
#
# 1 0.037348 0.001672 -0.005070 0.000336 0.044119 -0.009734
# 2 0.001672 0.013244 -0.002219 0.002751 0.011100 0.000908
# 3 -0.005070 -0.002219 0.011607 0.002727 -0.007084 -0.000037
# 4 0.000336 0.002751 0.002727 0.040406 0.004471 -0.001081
# 5 0.044119 0.011100 -0.007084 0.004471 0.110387 -0.019681
# 6 -0.009734 0.000908 -0.000037 -0.001081 -0.019681 0.033735
#
#
# Mechanical properties :
#
#
# Convention : Reuss Voigt Hill
#
# Bulk Modulus (GPa) = 19.62126 36.13361 27.87743
# Shear Modulus (GPa) = 18.18514 29.34250 23.76382
#
# Velocity S-wave (km/s) = 2.90442 3.68935 3.32017
# Velocity P-wave (km/s) = 4.51104 5.90847 5.25640
#
# Compressibility (1/GPa) = 0.05096514
#
# Stress axis : x y z
#
# Youngs Moduli (GPa) = 26.77524 75.50660 86.15134
#
# Poissons Ratio (x) = -0.12624 0.43680
# Poissons Ratio (y) = -0.04477 0.19116
# Poissons Ratio (z) = 0.13576 0.16754
#
# Static dielectric constant tensor:
#      x y z
#    x 1.778120 -0.003600 -0.020520 
#    y -0.003600 1.869460 0.009960 
#    z -0.020520 0.009960 1.894130 
# 
# From -- ./inp_files/234716.got.cif
#   From: 2010.05.17/outbox.cif.g08.bks.cpg/sg2_118_cif.got.tgz:234716.got - 2010.06.03 11:33:40.
