data_PCOD9013719
_publ_section_title
;
Structure prediction by ZEFSAII (Michael W. Deem and Ramdas Pophale) SiO2 
 PCOD9013719
Probable space group: P -1
;
_chemical_formula_sum "Si O2"
_cell_formula_units_Z 16
_cell_length_a 12.539548
_cell_length_b 8.990454
_cell_length_c 18.024608
_cell_angle_alpha 104.551561
_cell_angle_beta 49.093347
_cell_angle_gamma 142.395549
_cell_volume 763.334161
_symmetry_space_group_name_H-M "P -1"
_symmetry_group_IT_number 2
_symmetry_cell_setting 'triclinic'
loop_
_space_group_symop_operation_xyz
x,y,z
-x,-y,-z
loop_
_atom_site_type_symbol
_atom_site_label
_atom_site_fract_x
_atom_site_fract_y
_atom_site_fract_z
Si Si1 0.407496 0.498927 0.755404
Si Si2 0.587449 0.151749 0.899742
Si Si3 0.210441 0.668558 0.493347
Si Si4 0.924548 0.251100 0.006274
Si Si5 0.766826 0.723858 0.355660
Si Si6 0.869497 0.136323 0.686549
Si Si7 0.539611 0.797567 0.250701
Si Si8 0.967608 0.694617 0.699155
O O1 0.335480 0.440721 0.695125
O O2 0.420061 0.334141 0.752738
O O3 0.693713 0.847726 0.686359
O O4 0.174372 0.373701 0.889856
O O5 0.668270 0.081471 0.802208
O O6 0.844259 0.505376 0.807539
O O7 0.321344 0.993793 0.971717
O O8 0.500000 0.000000 0.000000
O O9 0.477047 0.857644 0.353178
O O10 0.000000 0.500000 0.500000
O O11 0.086912 0.417501 0.568064
O O12 0.203644 0.809457 0.567841
O O13 0.798794 0.094369 0.123295
O O14 0.000000 0.500000 0.000000
O O15 0.500000 0.500000 0.500000
O O16 0.974088 0.801394 0.310800
O O17 0.921665 0.030291 0.309664
O O18 0.283745 0.550065 0.277317
#
# Coordination Sequence:
#
# PCOD9013719 Si02
#       8
#     2   2   2   2   2   2   2   2
#     4  12  25  42  68  97 137 175 217 271 335 390
#     4  10  21  43  69  93 132 180 220 275 336 385
#     4   9  20  38  72  94 121 178 220 259 337 388
#     4  11  23  40  64  99 128 168 232 270 313 399
#     4  12  27  42  66 103 136 173 223 273 332 402
#     4  11  23  45  68  98 134 174 216 277 333 393
#     4  10  21  41  65  94 131 175 214 271 337 386
#     4   9  21  42  64  96 133 171 224 272 327 400
#
# _framework density 20.960677
#
# number of rings (size 3 to 8) (size 9 to 14) (size 15 to 20)
#    0.000    1.500    2.500    2.625    3.500    2.000 
#    2.250    7.500    0.000    0.000    0.000    0.000 
#    0.000    0.000    0.000    0.000    0.000    0.000 
#
# Total GULP energy -89430.545939 kJ/mol
# GULP energy per Si atom -5589.409121 kJ/mol
# Density = 2.091297 g / cm^3
# Si number density = 20.960677 Si / 1000 Ang^3
#
#
#
# Elastic Constant Matrix: (Units=GPa)
#
#
# Indices 1 2 3 4 5 6 
#
# 1 110.0118 27.7651 19.2110 1.7636 12.0458 -1.8571
# 2 27.7651 18.3872 -2.0739 -6.2739 12.2598 5.1083
# 3 19.2110 -2.0739 89.1589 13.3030 14.2745 10.2663
# 4 1.7636 -6.2739 13.3030 19.2785 -3.3858 0.8760
# 5 12.0458 12.2598 14.2745 -3.3858 44.2341 2.8410
# 6 -1.8571 5.1083 10.2663 0.8760 2.8410 28.4426
#
#
#
# Elastic Compliance Matrix: (Units=1/GPa)
#
#
# Indices 1 2 3 4 5 6 
#
# 1 0.020747 -0.043422 -0.006196 -0.011056 0.006829 0.011048
# 2 -0.043422 0.170426 0.016762 0.043400 -0.035100 -0.037325
# 3 -0.006196 0.016762 0.016100 -0.006136 -0.008095 -0.008229
# 4 -0.011056 0.043400 -0.006136 0.071441 -0.001030 -0.008399
# 5 0.006829 -0.035100 -0.008095 -0.001030 0.032595 0.006448
# 6 0.011048 -0.037325 -0.008229 -0.008399 0.006448 0.045168
#
#
# Mechanical properties :
#
#
# Convention : Reuss Voigt Hill
#
# Bulk Modulus (GPa) = 7.06412 34.15137 20.60774
# Shear Modulus (GPa) = 10.65243 29.90142 20.27692
#
# Velocity S-wave (km/s) = 2.25680 3.78107 3.11365
# Velocity P-wave (km/s) = 3.18878 5.94898 4.77277
#
# Compressibility (1/GPa) = 0.14156053
#
# Stress axis : x y z
#
# Youngs Moduli (GPa) = 48.19966 5.86765 62.11217
#
# Poissons Ratio (x) = 0.25479 0.38486
# Poissons Ratio (y) = 2.09294 -1.04114
# Poissons Ratio (z) = 0.29865 -0.09835
#
# Static dielectric constant tensor:
#      x y z
#    x 1.762790 0.017090 -0.026310 
#    y 0.017090 1.787840 -0.000920 
#    z -0.026310 -0.000920 1.760320 
# 
# From -- ./inp_files/190098.got.cif
#   From: 2010.05.17/outbox.cif.g08.bks.cpg/sg2_96_cif.got.tgz:190098.got - 2010.06.03 11:33:40.
