data_PCOD9013016
_publ_section_title
;
Structure prediction by ZEFSAII (Michael W. Deem and Ramdas Pophale) SiO2 
 PCOD9013016
Probable space group: P -1
;
_chemical_formula_sum "Si O2"
_cell_formula_units_Z 16
_cell_length_a 9.323076
_cell_length_b 8.531747
_cell_length_c 14.335901
_cell_angle_alpha 85.291012
_cell_angle_beta 44.825129
_cell_angle_gamma 72.550098
_cell_volume 752.263211
_symmetry_space_group_name_H-M "P -1"
_symmetry_group_IT_number 2
_symmetry_cell_setting 'triclinic'
loop_
_space_group_symop_operation_xyz
x,y,z
-x,-y,-z
loop_
_atom_site_type_symbol
_atom_site_label
_atom_site_fract_x
_atom_site_fract_y
_atom_site_fract_z
Si Si1 0.037913 0.791490 0.156452
Si Si2 0.655080 0.678546 0.657679
Si Si3 0.388470 0.071916 0.769768
Si Si4 0.848729 0.707688 0.966111
Si Si5 0.788420 0.121741 0.641957
Si Si6 0.055009 0.600365 0.345556
Si Si7 0.748424 0.961474 0.859818
Si Si8 0.726215 0.430282 0.111166
O O1 0.790318 0.873845 0.231876
O O2 0.054953 0.654013 0.235698
O O3 0.132441 0.926444 0.148474
O O4 0.180355 0.709752 0.004595
O O5 0.815867 0.642307 0.497229
O O6 0.476517 0.589783 0.743751
O O7 0.805791 0.589537 0.680704
O O8 0.520961 0.874853 0.717682
O O9 0.572545 0.158896 0.677527
O O10 0.248703 0.136267 0.925526
O O11 0.084609 0.596405 0.899012
O O12 0.859243 0.773874 0.855391
O O13 0.693732 0.600326 0.060978
O O14 0.752773 0.011197 0.749210
O O15 0.841544 0.279067 0.650763
O O16 0.000000 0.000000 0.500000
O O17 0.500000 0.000000 0.000000
#
# Coordination Sequence:
#
# PCOD9013016 Si02
#       8
#     2   2   2   2   2   2   2   2
#     4  10  24  42  63  97 126 163 210 263 313 377
#     4  11  22  38  64  92 122 170 205 261 307 374
#     4  11  21  40  69  90 127 164 213 255 317 370
#     4  10  21  41  62  96 127 161 209 261 316 370
#     4  11  22  41  61  91 121 169 205 256 315 373
#     4  10  24  43  60  92 132 160 213 258 316 377
#     4  11  22  38  63  91 125 158 209 258 304 374
#     4  10  22  39  67  90 128 166 205 260 318 369
#
# _framework density 21.269151000000001
#
# number of rings (size 3 to 8) (size 9 to 14) (size 15 to 20)
#    0.000    1.500    2.500    2.250    1.750    4.000 
#    2.250    0.000    0.000    5.250    0.000    0.000 
#    0.000    0.000    0.000    0.000    0.000    0.000 
#
# Total GULP energy -89372.541393 kJ/mol
# GULP energy per Si atom -5585.783837 kJ/mol
# Density = 2.122074 g / cm^3
# Si number density = 21.269151 Si / 1000 Ang^3
#
#
#
# Elastic Constant Matrix: (Units=GPa)
#
#
# Indices 1 2 3 4 5 6 
#
# 1 93.8209 7.7953 28.0213 -7.1592 -18.2496 -5.8324
# 2 7.7953 73.6873 11.8144 -4.5651 -4.4178 -14.4652
# 3 28.0213 11.8144 109.3373 -24.9546 -26.6703 -7.3340
# 4 -7.1592 -4.5651 -24.9546 36.6908 1.2156 -4.8879
# 5 -18.2496 -4.4178 -26.6703 1.2156 23.2872 -3.0130
# 6 -5.8324 -14.4652 -7.3340 -4.8879 -3.0130 25.8080
#
#
#
# Elastic Compliance Matrix: (Units=1/GPa)
#
#
# Indices 1 2 3 4 5 6 
#
# 1 0.013322 0.000475 0.000490 0.003326 0.011616 0.005402
# 2 0.000475 0.016112 0.001378 0.004303 0.006215 0.011070
# 3 0.000490 0.001378 0.018014 0.013266 0.022017 0.011085
# 4 0.003326 0.004303 0.013266 0.039041 0.018715 0.016513
# 5 0.011616 0.006215 0.022017 0.018715 0.080742 0.025336
# 6 0.005402 0.011070 0.011085 0.016513 0.025336 0.055409
#
#
# Mechanical properties :
#
#
# Convention : Reuss Voigt Hill
#
# Bulk Modulus (GPa) = 19.18171 41.34527 30.26349
# Shear Modulus (GPa) = 21.24659 32.43815 26.84237
#
# Velocity S-wave (km/s) = 3.16403 3.90952 3.55636
# Velocity P-wave (km/s) = 4.73141 6.31351 5.57883
#
# Compressibility (1/GPa) = 0.05213300
#
# Stress axis : x y z
#
# Youngs Moduli (GPa) = 75.06295 62.06547 55.51390
#
# Poissons Ratio (x) = -0.02949 -0.02718
# Poissons Ratio (y) = -0.03567 -0.07650
# Poissons Ratio (z) = -0.03674 -0.08552
#
# Static dielectric constant tensor:
#      x y z
#    x 1.842150 0.000990 -0.012840 
#    y 0.000990 1.831690 0.009670 
#    z -0.012840 0.009670 1.742870 
# 
# From -- ./inp_files/299239.got.cif
#   From: 2010.05.17/outbox.cif.g08.bks.cpg/sg2_150_cif.got.tgz:299239.got - 2010.06.03 11:33:40.
