data_PCOD9013752
_publ_section_title
;
Structure prediction by ZEFSAII (Michael W. Deem and Ramdas Pophale) SiO2 
 PCOD9013752
Probable space group: P -1
;
_chemical_formula_sum "Si O2"
_cell_formula_units_Z 16
_cell_length_a 19.580174
_cell_length_b 5.953428
_cell_length_c 8.102118
_cell_angle_alpha 56.227771
_cell_angle_beta 68.821149
_cell_angle_gamma 84.585906
_cell_volume 725.116505
_symmetry_space_group_name_H-M "P -1"
_symmetry_group_IT_number 2
_symmetry_cell_setting 'triclinic'
loop_
_space_group_symop_operation_xyz
x,y,z
-x,-y,-z
loop_
_atom_site_type_symbol
_atom_site_label
_atom_site_fract_x
_atom_site_fract_y
_atom_site_fract_z
Si Si1 0.181068 0.663091 0.606822
Si Si2 0.914723 0.393591 0.597191
Si Si3 0.315775 0.815334 0.971880
Si Si4 0.661780 0.358410 0.646052
Si Si5 0.413909 0.766306 0.583967
Si Si6 0.208105 0.258367 0.318857
Si Si7 0.818202 0.875202 0.983434
Si Si8 0.471946 0.361918 0.249789
O O1 0.110964 0.660419 0.548362
O O2 0.249723 0.586617 0.468748
O O3 0.207601 0.967192 0.529983
O O4 0.166855 0.415511 0.846229
O O5 0.864039 0.612271 0.618173
O O6 0.000000 0.500000 0.500000
O O7 0.887384 0.113740 0.833584
O O8 0.352067 0.868610 0.101507
O O9 0.276533 0.500861 0.156622
O O10 0.252332 0.007454 0.923967
O O11 0.367770 0.824383 0.764380
O O12 0.637570 0.309109 0.497023
O O13 0.609001 0.573422 0.660848
O O14 0.468853 0.561637 0.686570
O O15 0.464707 0.038610 0.368636
O O16 0.201604 0.162202 0.175247
O O17 0.500000 0.500000 0.000000
#
# Coordination Sequence:
#
# PCOD9013752 Si02
#       8
#     2   2   2   2   2   2   2   2
#     4  11  23  40  67  98 127 172 222 270 332 393
#     4  10  23  43  64  94 138 174 214 269 326 394
#     4  11  22  44  68  98 135 173 225 281 332 392
#     4  12  23  42  69  97 128 175 222 277 333 396
#     4  11  26  43  67  95 130 178 220 279 336 395
#     4  10  21  41  65  95 131 168 216 271 331 381
#     4  10  22  41  63  98 130 172 227 267 326 399
#     4  11  25  46  64  93 135 175 222 275 339 397
#
# _framework density 22.06542
#
# number of rings (size 3 to 8) (size 9 to 14) (size 15 to 20)
#    0.000    1.250    5.000    1.875    1.750    6.000 
#    4.500    1.250    0.000    0.000    0.000    0.000 
#    0.000    0.000    0.000    0.000    0.000    0.000 
#
# Total GULP energy -89279.315715 kJ/mol
# GULP energy per Si atom -5579.957232 kJ/mol
# Density = 2.201520 g / cm^3
# Si number density = 22.065420 Si / 1000 Ang^3
#
#
#
# Elastic Constant Matrix: (Units=GPa)
#
#
# Indices 1 2 3 4 5 6 
#
# 1 111.6231 12.8770 41.9105 0.2872 1.0753 3.8082
# 2 12.8770 54.4629 39.6027 -10.2825 -2.5675 -8.7955
# 3 41.9105 39.6027 119.0347 -24.4389 16.4293 -9.6821
# 4 0.2872 -10.2825 -24.4389 41.4025 -4.9532 8.4788
# 5 1.0753 -2.5675 16.4293 -4.9532 33.8616 5.0644
# 6 3.8082 -8.7955 -9.6821 8.4788 5.0644 23.6479
#
#
#
# Elastic Compliance Matrix: (Units=1/GPa)
#
#
# Indices 1 2 3 4 5 6 
#
# 1 0.010872 0.000151 -0.004870 -0.001928 0.002268 -0.003483
# 2 0.000151 0.025995 -0.008945 0.000968 0.005790 0.004395
# 3 -0.004870 -0.008945 0.015558 0.005322 -0.007831 0.003596
# 4 -0.001928 0.000968 0.005322 0.029659 0.003156 -0.008460
# 5 0.002268 0.005790 -0.007831 0.003156 0.035684 -0.010192
# 6 -0.003483 0.004395 0.003596 -0.008460 -0.010192 0.051171
#
#
# Mechanical properties :
#
#
# Convention : Reuss Voigt Hill
#
# Bulk Modulus (GPa) = 39.84551 52.65566 46.25059
# Shear Modulus (GPa) = 24.43413 32.49778 28.46595
#
# Velocity S-wave (km/s) = 3.33130 3.84186 3.59565
# Velocity P-wave (km/s) = 5.73531 6.60266 6.18421
#
# Compressibility (1/GPa) = 0.02509693
#
# Stress axis : x y z
#
# Youngs Moduli (GPa) = 91.98063 38.46897 64.27659
#
# Poissons Ratio (x) = -0.00583 0.31305
# Poissons Ratio (y) = -0.01393 0.57495
# Poissons Ratio (z) = 0.44798 0.34410
#
# Static dielectric constant tensor:
#      x y z
#    x 1.883620 0.068510 0.035040 
#    y 0.068510 1.882120 -0.018920 
#    z 0.035040 -0.018920 1.822200 
# 
# From -- ./inp_files/55563.got.cif
#   From: 2010.05.17/outbox.cif.g08.bks.cpg/sg2_28_cif.got.tgz:55563.got - 2010.06.03 11:33:40.
