data_PCOD9013778
_publ_section_title
;
Structure prediction by ZEFSAII (Michael W. Deem and Ramdas Pophale) SiO2 
 PCOD9013778
Probable space group: P -1
;
_chemical_formula_sum "Si O2"
_cell_formula_units_Z 16
_cell_length_a 13.004010
_cell_length_b 8.414586
_cell_length_c 15.150994
_cell_angle_alpha 108.526503
_cell_angle_beta 152.723124
_cell_angle_gamma 76.765176
_cell_volume 714.938852
_symmetry_space_group_name_H-M "P -1"
_symmetry_group_IT_number 2
_symmetry_cell_setting 'triclinic'
loop_
_space_group_symop_operation_xyz
x,y,z
-x,-y,-z
loop_
_atom_site_type_symbol
_atom_site_label
_atom_site_fract_x
_atom_site_fract_y
_atom_site_fract_z
Si Si1 0.312278 0.542300 0.432246
Si Si2 0.945684 0.685176 0.523508
Si Si3 0.618319 0.137652 0.182717
Si Si4 0.486174 0.503680 0.095662
Si Si5 0.056384 0.688637 0.116407
Si Si6 0.427500 0.177923 0.224800
Si Si7 0.927928 0.311394 0.175788
Si Si8 0.770646 0.077174 0.859054
O O1 0.500000 0.500000 0.500000
O O2 0.161521 0.661682 0.286155
O O3 0.422374 0.642753 0.616745
O O4 0.162111 0.374347 0.318352
O O5 0.674594 0.654519 0.300452
O O6 0.000000 0.500000 0.500000
O O7 0.109825 0.822329 0.616788
O O8 0.024499 0.717381 0.690401
O O9 0.532328 0.320228 0.131377
O O10 0.531808 0.090510 0.206402
O O11 0.500000 0.000000 0.000000
O O12 0.500000 0.500000 0.000000
O O13 0.236314 0.544107 0.933290
O O14 0.231359 0.790731 0.198773
O O15 0.000000 0.500000 0.000000
O O16 0.829012 0.776792 0.970597
O O17 0.427686 0.071427 0.297447
O O18 0.808891 0.161975 0.999291
O O19 0.000000 0.000000 0.000000
#
# Coordination Sequence:
#
# PCOD9013778 Si02
#       8
#     2   2   2   2   2   2   2   2
#     4  12  23  38  69 101 130 169 218 276 330 398
#     4  10  21  41  65  96 131 172 221 271 323 390
#     4  11  23  43  67  94 139 175 214 275 337 389
#     4  11  23  41  69  96 125 174 230 270 318 389
#     4  11  21  43  65  96 128 168 220 268 324 394
#     4  11  24  41  63  97 132 172 216 268 337 388
#     4  12  22  41  70  94 131 173 220 270 329 384
#     4  10  23  43  66  91 135 174 212 272 329 392
#
# _framework density 22.379536999999999
#
# number of rings (size 3 to 8) (size 9 to 14) (size 15 to 20)
#    0.000    1.000    5.000    3.750    0.000    1.500 
#    0.000    5.625    0.000    0.000    0.000    0.000 
#    0.000    0.000    0.000    0.000    0.000    0.000 
#
# Total GULP energy -89351.792649 kJ/mol
# GULP energy per Si atom -5584.487041 kJ/mol
# Density = 2.232860 g / cm^3
# Si number density = 22.379537 Si / 1000 Ang^3
#
#
#
# Elastic Constant Matrix: (Units=GPa)
#
#
# Indices 1 2 3 4 5 6 
#
# 1 110.5896 14.0629 18.1256 0.6466 11.8730 6.1919
# 2 14.0629 44.2978 -2.2865 5.4176 10.2068 8.3510
# 3 18.1256 -2.2865 71.5997 8.5614 9.4506 -0.7209
# 4 0.6466 5.4176 8.5614 30.1228 6.8180 -2.6612
# 5 11.8730 10.2068 9.4506 6.8180 40.4956 12.4048
# 6 6.1919 8.3510 -0.7209 -2.6612 12.4048 38.8972
#
#
#
# Elastic Compliance Matrix: (Units=1/GPa)
#
#
# Indices 1 2 3 4 5 6 
#
# 1 0.010048 -0.003037 -0.002589 0.001422 -0.001707 -0.000354
# 2 -0.003037 0.025999 0.002691 -0.004767 -0.004257 -0.004017
# 3 -0.002589 0.002691 0.015618 -0.004083 -0.003135 0.000844
# 4 0.001422 -0.004767 -0.004083 0.037021 -0.006087 0.005196
# 5 -0.001707 -0.004257 -0.003135 -0.006087 0.030817 -0.009117
# 6 -0.000354 -0.004017 0.000844 0.005196 -0.009117 0.029906
#
#
# Mechanical properties :
#
#
# Convention : Reuss Voigt Hill
#
# Bulk Modulus (GPa) = 21.83690 31.81013 26.82351
# Shear Modulus (GPa) = 29.31783 35.00878 32.16330
#
# Velocity S-wave (km/s) = 3.62336 3.95944 3.79512
# Velocity P-wave (km/s) = 5.22338 5.92855 5.58710
#
# Compressibility (1/GPa) = 0.04579406
#
# Stress axis : x y z
#
# Youngs Moduli (GPa) = 99.52479 38.46339 64.02709
#
# Poissons Ratio (x) = 0.11682 0.16575
# Poissons Ratio (y) = 0.30228 -0.17227
# Poissons Ratio (z) = 0.25765 -0.10349
#
# Static dielectric constant tensor:
#      x y z
#    x 1.861940 0.046660 -0.017570 
#    y 0.046660 1.917850 -0.053450 
#    z -0.017570 -0.053450 1.887600 
# 
# From -- ./inp_files/272511.got.cif
#   From: 2010.05.17/outbox.cif.g08.bks.cpg/sg2_137_cif.got.tgz:272511.got - 2010.06.03 11:33:40.
