data_PCOD9013947
_publ_section_title
;
Structure prediction by ZEFSAII (Michael W. Deem and Ramdas Pophale) SiO2 
 PCOD9013947
Probable space group: P -1
;
_chemical_formula_sum "Si O2"
_cell_formula_units_Z 14
_cell_length_a 11.223646
_cell_length_b 9.037936
_cell_length_c 7.971761
_cell_angle_alpha 49.990942
_cell_angle_beta 72.458952
_cell_angle_gamma 75.326786
_cell_volume 588.609217
_symmetry_space_group_name_H-M "P -1"
_symmetry_group_IT_number 2
_symmetry_cell_setting 'triclinic'
loop_
_space_group_symop_operation_xyz
x,y,z
-x,-y,-z
loop_
_atom_site_type_symbol
_atom_site_label
_atom_site_fract_x
_atom_site_fract_y
_atom_site_fract_z
Si Si1 0.304650 0.745516 0.559484
Si Si2 0.730827 0.162456 0.100905
Si Si3 0.960555 0.143995 0.566068
Si Si4 0.906853 0.481331 0.791781
Si Si5 0.725959 0.643491 0.017672
Si Si6 0.536083 0.930008 0.723886
Si Si7 0.873801 0.850300 0.067998
O O1 0.270033 0.821812 0.707921
O O2 0.178898 0.764789 0.488972
O O3 0.409561 0.881747 0.353006
O O4 0.345368 0.521052 0.739666
O O5 0.590765 0.153409 0.098079
O O6 0.798701 0.348627 0.868371
O O7 0.802373 0.959254 0.169775
O O8 0.053121 0.311225 0.435231
O O9 0.949740 0.010952 0.828046
O O10 0.000000 0.000000 0.500000
O O11 0.852037 0.536500 0.960302
O O12 0.031722 0.339500 0.820593
O O13 0.645145 0.757162 0.825229
O O14 0.768393 0.795254 0.021610
O O15 0.500000 0.000000 0.500000
#
# Coordination Sequence:
#
# PCOD9013947 Si02
#       7
#     2   2   2   2   2   2   2
#     4  10  21  41  66  92 119 171 220 256 307 382
#     4  10  25  40  63  94 139 167 203 266 330 367
#     4  12  21  37  68  94 122 166 222 256 307 382
#     4  11  23  41  65  98 129 170 212 260 319 389
#     4  11  21  39  70  93 122 171 221 261 307 379
#     4  10  22  44  66  93 126 168 222 259 310 382
#     4  12  23  41  64 100 134 164 207 271 324 372
#
# _framework density 23.784880999999999
#
# number of rings (size 3 to 8) (size 9 to 14) (size 15 to 20)
#    0.000    1.143    4.286    2.571    0.000    7.429 
#    0.000    7.857    0.000    0.000    0.000    0.000 
#    0.000    0.000    0.000    0.000    0.000    0.000 
#
# Total GULP energy -78225.179500 kJ/mol
# GULP energy per Si atom -5587.512821 kJ/mol
# Density = 2.373075 g / cm^3
# Si number density = 23.784881 Si / 1000 Ang^3
#
#
#
# Elastic Constant Matrix: (Units=GPa)
#
#
# Indices 1 2 3 4 5 6 
#
# 1 129.0510 43.8533 33.2952 -17.5009 -14.9697 17.6934
# 2 43.8533 97.1708 34.6171 -26.3430 -13.4012 14.2217
# 3 33.2952 34.6171 72.4031 -37.5010 -9.1817 13.0952
# 4 -17.5009 -26.3430 -37.5010 38.4891 9.1777 -2.4037
# 5 -14.9697 -13.4012 -9.1817 9.1777 31.7873 -12.7527
# 6 17.6934 14.2217 13.0952 -2.4037 -12.7527 19.4953
#
#
#
# Elastic Compliance Matrix: (Units=1/GPa)
#
#
# Indices 1 2 3 4 5 6 
#
# 1 0.010101 -0.002946 -0.002392 -0.000287 0.000978 -0.004807
# 2 -0.002946 0.014977 -0.000172 0.008407 -0.000540 -0.007454
# 3 -0.002392 -0.000172 0.036407 0.035304 -0.010873 -0.024918
# 4 -0.000287 0.008407 0.035304 0.068616 -0.019903 -0.034146
# 5 0.000978 -0.000540 -0.010873 -0.019903 0.048871 0.036324
# 6 -0.004807 -0.007454 -0.024918 -0.034146 0.036324 0.097384
#
#
# Mechanical properties :
#
#
# Convention : Reuss Voigt Hill
#
# Bulk Modulus (GPa) = 19.81542 58.01733 38.91637
# Shear Modulus (GPa) = 16.43670 30.41162 23.42416
#
# Velocity S-wave (km/s) = 2.63165 3.57965 3.14161
# Velocity P-wave (km/s) = 4.19324 6.44443 5.43663
#
# Compressibility (1/GPa) = 0.05046575
#
# Stress axis : x y z
#
# Youngs Moduli (GPa) = 99.00476 66.76683 27.46692
#
# Poissons Ratio (x) = 0.19668 0.06569
# Poissons Ratio (y) = 0.29164 0.00474
# Poissons Ratio (z) = 0.23679 0.01151
#
# Static dielectric constant tensor:
#      x y z
#    x 1.939100 -0.002380 -0.031290 
#    y -0.002380 1.936120 0.018090 
#    z -0.031290 0.018090 1.980940 
# 
# From -- ./inp_files/236622.got.cif
#   From: 2010.05.17/outbox.cif.g08.bks.cpg/sg2_119_cif.got.tgz:236622.got - 2010.06.03 11:33:40.
