data_PCOD9013934
_publ_section_title
;
Structure prediction by ZEFSAII (Michael W. Deem and Ramdas Pophale) SiO2 
 PCOD9013934
Probable space group: P -1
;
_chemical_formula_sum "Si O2"
_cell_formula_units_Z 14
_cell_length_a 17.785968
_cell_length_b 7.951060
_cell_length_c 13.939687
_cell_angle_alpha 125.654984
_cell_angle_beta 159.374636
_cell_angle_gamma 49.857527
_cell_volume 529.299629
_symmetry_space_group_name_H-M "P -1"
_symmetry_group_IT_number 2
_symmetry_cell_setting 'triclinic'
loop_
_space_group_symop_operation_xyz
x,y,z
-x,-y,-z
loop_
_atom_site_type_symbol
_atom_site_label
_atom_site_fract_x
_atom_site_fract_y
_atom_site_fract_z
Si Si1 0.612647 0.075233 0.537153
Si Si2 0.127812 0.055350 0.958811
Si Si3 0.926608 0.320876 0.981143
Si Si4 0.596372 0.490571 0.217774
Si Si5 0.068307 0.246711 0.759228
Si Si6 0.743429 0.877099 0.450703
Si Si7 0.223958 0.341712 0.772810
O O1 0.843372 0.874414 0.774046
O O2 0.590243 0.086390 0.397480
O O3 0.383991 0.038340 0.286536
O O4 0.697530 0.278778 0.728711
O O5 0.964921 0.271449 0.895470
O O6 0.137419 0.051319 0.853085
O O7 0.997661 0.883561 0.766736
O O8 0.923385 0.550226 0.096325
O O9 0.809119 0.283381 0.433167
O O10 0.698821 0.684320 0.394385
O O11 0.500000 0.500000 0.000000
O O12 0.390227 0.481344 0.032546
O O13 0.178927 0.254056 0.791556
O O14 0.681803 0.849486 0.258625
O O15 0.000000 0.500000 0.500000
#
# Coordination Sequence:
#
# PCOD9013934 Si02
#       7
#     2   2   2   2   2   2   2
#     4  10  21  41  67  95 128 176 220 266 318 387
#     4  11  26  40  67  99 138 169 212 272 336 378
#     4  10  22  43  65  95 132 174 226 258 320 395
#     4  10  21  41  66  91 125 171 220 266 307 384
#     4  12  24  42  66 103 132 170 215 274 331 381
#     4  10  22  41  65  96 129 170 219 264 317 397
#     4  11  22  38  69  97 123 170 227 264 317 388
#
# _framework density 26.450047000000001
#
# number of rings (size 3 to 8) (size 9 to 14) (size 15 to 20)
#    0.000    1.429    4.286    0.857    2.000    4.571 
#    0.000    3.571    0.000    0.000    0.000    0.000 
#    0.000    0.000    0.000    0.000    0.000    0.000 
#
# Total GULP energy -78081.595021 kJ/mol
# GULP energy per Si atom -5577.256787 kJ/mol
# Density = 2.638985 g / cm^3
# Si number density = 26.450047 Si / 1000 Ang^3
#
#
#
# Elastic Constant Matrix: (Units=GPa)
#
#
# Indices 1 2 3 4 5 6 
#
# 1 161.0751 21.9186 58.1357 17.0749 2.1788 12.2525
# 2 21.9186 36.5941 33.4740 14.0507 13.5497 4.8442
# 3 58.1357 33.4740 204.3484 29.0380 46.6022 27.3700
# 4 17.0749 14.0507 29.0380 38.7652 9.3382 -0.7220
# 5 2.1788 13.5497 46.6022 9.3382 60.0190 6.1392
# 6 12.2525 4.8442 27.3700 -0.7220 6.1392 36.4725
#
#
#
# Elastic Compliance Matrix: (Units=1/GPa)
#
#
# Indices 1 2 3 4 5 6 
#
# 1 0.007454 -0.002928 -0.001759 -0.001433 0.002099 -0.001177
# 2 -0.002928 0.036873 -0.002717 -0.008960 -0.004583 -0.001281
# 3 -0.001759 -0.002717 0.007888 -0.003139 -0.004523 -0.004269
# 4 -0.001433 -0.008960 -0.003139 0.032362 -0.001018 0.004839
# 5 0.002099 -0.004583 -0.004523 -0.001018 0.021322 -0.000312
# 6 -0.001177 -0.001281 -0.004269 0.004839 -0.000312 0.031335
#
#
# Mechanical properties :
#
#
# Convention : Reuss Voigt Hill
#
# Bulk Modulus (GPa) = 26.73205 69.89713 48.31459
# Shear Modulus (GPa) = 30.39325 46.28398 38.33861
#
# Velocity S-wave (km/s) = 3.39349 4.18768 3.81132
# Velocity P-wave (km/s) = 5.04806 7.06156 6.13794
#
# Compressibility (1/GPa) = 0.03740828
#
# Stress axis : x y z
#
# Youngs Moduli (GPa) = 134.14878 27.12043 126.77050
#
# Poissons Ratio (x) = 0.07940 0.22294
# Poissons Ratio (y) = 0.39274 0.34447
# Poissons Ratio (z) = 0.23591 0.07369
#
# Static dielectric constant tensor:
#      x y z
#    x 2.162120 -0.042770 0.010120 
#    y -0.042770 2.213050 0.001220 
#    z 0.010120 0.001220 2.114620 
# 
# From -- ./inp_files/537528.got.cif
#   From: 2010.05.17/outbox.cif.g08.bks.cpg/sg2_269_cif.got.tgz:537528.got - 2010.06.03 11:33:40.
