data_PCOD9013833
_publ_section_title
;
Structure prediction by ZEFSAII (Michael W. Deem and Ramdas Pophale) SiO2 
 PCOD9013833
Probable space group: P -1
;
_chemical_formula_sum "Si O2"
_cell_formula_units_Z 16
_cell_length_a 9.315667
_cell_length_b 13.146628
_cell_length_c 14.200647
_cell_angle_alpha 132.591500
_cell_angle_beta 56.233279
_cell_angle_gamma 148.014460
_cell_volume 677.471643
_symmetry_space_group_name_H-M "P -1"
_symmetry_group_IT_number 2
_symmetry_cell_setting 'triclinic'
loop_
_space_group_symop_operation_xyz
x,y,z
-x,-y,-z
loop_
_atom_site_type_symbol
_atom_site_label
_atom_site_fract_x
_atom_site_fract_y
_atom_site_fract_z
Si Si1 0.972883 0.916156 0.309715
Si Si2 0.749444 0.569327 0.039688
Si Si3 0.042976 0.242420 0.583328
Si Si4 0.396147 0.819696 0.355415
Si Si5 0.682549 0.213638 0.999583
Si Si6 0.344330 0.093521 0.873407
Si Si7 0.048290 0.360632 0.199506
Si Si8 0.405050 0.698682 0.735792
O O1 0.283354 0.085276 0.268480
O O2 0.947960 0.062600 0.434896
O O3 0.927808 0.808855 0.357406
O O4 0.781666 0.732544 0.184544
O O5 0.456725 0.316496 0.994166
O O6 0.005879 0.639072 0.030487
O O7 0.831997 0.613348 0.927906
O O8 0.829319 0.235835 0.657674
O O9 0.309724 0.488632 0.607534
O O10 0.602638 0.899553 0.250718
O O11 0.262443 0.602033 0.315850
O O12 0.500000 0.000000 0.500000
O O13 0.649315 0.328760 0.148793
O O14 0.543940 0.139205 0.903016
O O15 0.500000 0.000000 0.000000
O O16 0.058157 0.843703 0.840764
O O17 0.791495 0.306014 0.240584
#
# Coordination Sequence:
#
# PCOD9013833 Si02
#       8
#     2   2   2   2   2   2   2   2
#     4  11  19  32  48  73 108 138 159 190 247 308
#     4  10  18  27  46  74 103 130 160 198 253 302
#     4  10  22  32  48  72 100 139 172 194 239 306
#     4  10  22  37  53  73  97 131 175 214 247 285
#     4  11  16  26  46  76 104 128 159 197 251 303
#     4  11  18  30  50  72 100 129 158 214 253 284
#     4   9  18  32  51  77  98 124 170 210 253 298
#     4  10  17  30  47  72 107 131 157 201 248 302
#
# _framework density 23.617225000000001
#
# number of rings (size 3 to 8) (size 9 to 14) (size 15 to 20)
#    0.000    1.750    3.750    3.750    0.000    0.500 
#    0.000    0.000    0.000    3.000    0.000    4.375 
#    0.000    0.000    0.000    0.000    0.000    0.000 
#
# Total GULP energy -89295.250496 kJ/mol
# GULP energy per Si atom -5580.953156 kJ/mol
# Density = 2.356347 g / cm^3
# Si number density = 23.617225 Si / 1000 Ang^3
#
#
#
# Elastic Constant Matrix: (Units=GPa)
#
#
# Indices 1 2 3 4 5 6 
#
# 1 54.0652 19.8105 5.7492 -6.2401 -17.7041 2.6864
# 2 19.8105 152.6282 70.6847 41.1187 -15.2475 -4.3844
# 3 5.7492 70.6847 153.2540 38.6473 -4.1398 1.6790
# 4 -6.2401 41.1187 38.6473 46.5835 -0.4646 -2.5638
# 5 -17.7041 -15.2475 -4.1398 -0.4646 29.8395 4.5736
# 6 2.6864 -4.3844 1.6790 -2.5638 4.5736 7.4729
#
#
#
# Elastic Compliance Matrix: (Units=1/GPa)
#
#
# Indices 1 2 3 4 5 6 
#
# 1 0.027515 -0.004123 -0.000040 0.006387 0.017503 -0.020822
# 2 -0.004123 0.010741 -0.002967 -0.007286 0.001771 0.004867
# 3 -0.000040 -0.002967 0.009360 -0.005480 0.000605 -0.006080
# 4 0.006387 -0.007286 -0.005480 0.033671 -0.001238 0.006970
# 5 0.017503 0.001771 0.000605 -0.001238 0.050495 -0.036718
# 6 -0.020822 0.004867 -0.006080 0.006970 -0.036718 0.170387
#
#
# Mechanical properties :
#
#
# Convention : Reuss Voigt Hill
#
# Bulk Modulus (GPa) = 29.98114 61.38178 45.68146
# Shear Modulus (GPa) = 15.26491 34.35938 24.81215
#
# Velocity S-wave (km/s) = 2.54509 3.81838 3.24481
# Velocity P-wave (km/s) = 4.62156 6.74438 5.78124
#
# Compressibility (1/GPa) = 0.03335430
#
# Stress axis : x y z
#
# Youngs Moduli (GPa) = 36.34439 93.10301 106.83476
#
# Poissons Ratio (x) = 0.38385 0.00431
# Poissons Ratio (y) = 0.14984 0.31703
# Poissons Ratio (z) = 0.00147 0.27628
#
# Static dielectric constant tensor:
#      x y z
#    x 1.953780 0.001470 -0.027900 
#    y 0.001470 1.932590 0.085460 
#    z -0.027900 0.085460 1.930060 
# 
# From -- ./inp_files/451044.got.cif
#   From: 2010.05.17/outbox.cif.g08.bks.cpg/sg2_226_cif.got.tgz:451044.got - 2010.06.03 11:33:40.
