data_PCOD9013039
_publ_section_title
;
Structure prediction by ZEFSAII (Michael W. Deem and Ramdas Pophale) SiO2 
 PCOD9013039
Probable space group: P -1
;
_chemical_formula_sum "Si O2"
_cell_formula_units_Z 16
_cell_length_a 7.386283
_cell_length_b 10.406370
_cell_length_c 13.349784
_cell_angle_alpha 61.710191
_cell_angle_beta 102.727533
_cell_angle_gamma 135.762834
_cell_volume 618.365478
_symmetry_space_group_name_H-M "P -1"
_symmetry_group_IT_number 2
_symmetry_cell_setting 'triclinic'
loop_
_space_group_symop_operation_xyz
x,y,z
-x,-y,-z
loop_
_atom_site_type_symbol
_atom_site_label
_atom_site_fract_x
_atom_site_fract_y
_atom_site_fract_z
Si Si1 0.464969 0.399752 0.869172
Si Si2 0.070974 0.163299 0.297323
Si Si3 0.135151 0.471056 0.609951
Si Si4 0.243816 0.015914 0.888201
Si Si5 0.785419 0.042584 0.696571
Si Si6 0.562081 0.917978 0.451389
Si Si7 0.642564 0.371817 0.096245
Si Si8 0.130477 0.677636 0.146759
O O1 0.232922 0.171585 0.879158
O O2 0.378855 0.490589 0.892237
O O3 0.685538 0.589529 0.753495
O O4 0.622854 0.389300 0.971243
O O5 0.926724 0.094821 0.193960
O O6 0.853465 0.067083 0.390044
O O7 0.187167 0.064415 0.345489
O O8 0.430324 0.692609 0.549880
O O9 0.000000 0.500000 0.500000
O O10 0.077772 0.272026 0.651767
O O11 0.016038 0.413137 0.729018
O O12 0.561791 0.186369 0.846159
O O13 0.162389 0.844200 0.021037
O O14 0.607577 0.088764 0.650372
O O15 0.622751 0.866162 0.825733
O O16 0.500000 0.000000 0.500000
O O17 0.918782 0.463412 0.134974
#
# Coordination Sequence:
#
# PCOD9013039 Si02
#       8
#     2   2   2   2   2   2   2   2
#     4  10  23  40  65  98 145 182 217 290 348 418
#     4  11  25  47  68 108 142 178 241 288 354 427
#     4  10  22  42  66  97 134 182 237 284 342 412
#     4  11  24  41  66 105 137 181 225 294 351 425
#     4  10  23  43  71 101 138 186 227 296 349 417
#     4  11  25  46  72  99 139 188 235 299 351 410
#     4  10  21  41  63 101 139 180 230 276 355 429
#     4  11  23  40  66 100 136 181 236 278 357 420
#
# _framework density 25.874666999999999
#
# number of rings (size 3 to 8) (size 9 to 14) (size 15 to 20)
#    0.000    1.500    1.250    3.000    5.250    3.000 
#    0.000    0.000    0.000    0.000    0.000    0.000 
#    0.000    0.000    0.000    0.000    0.000    0.000 
#
# Total GULP energy -89332.026605 kJ/mol
# GULP energy per Si atom -5583.251663 kJ/mol
# Density = 2.581578 g / cm^3
# Si number density = 25.874667 Si / 1000 Ang^3
#
#
#
# Elastic Constant Matrix: (Units=GPa)
#
#
# Indices 1 2 3 4 5 6 
#
# 1 63.2656 1.8790 35.3256 -14.7205 -15.4526 12.2158
# 2 1.8790 113.1030 46.8295 -18.2704 11.2406 4.6714
# 3 35.3256 46.8295 142.6049 -16.5114 -18.8258 -1.2413
# 4 -14.7205 -18.2704 -16.5114 61.1393 18.2940 5.6707
# 5 -15.4526 11.2406 -18.8258 18.2940 42.1446 -6.2240
# 6 12.2158 4.6714 -1.2413 5.6707 -6.2240 34.7106
#
#
#
# Elastic Compliance Matrix: (Units=1/GPa)
#
#
# Indices 1 2 3 4 5 6 
#
# 1 0.022244 0.003193 -0.005892 0.005255 0.001041 -0.009140
# 2 0.003193 0.013144 -0.005537 0.006214 -0.008332 -0.005600
# 3 -0.005892 -0.005537 0.010833 -0.002328 0.005851 0.004636
# 4 0.005255 0.006214 -0.002328 0.023307 -0.012181 -0.008761
# 5 0.001041 -0.008332 0.005851 -0.012181 0.035612 0.009340
# 6 -0.009140 -0.005600 0.004636 -0.008761 0.009340 0.036052
#
#
# Mechanical properties :
#
#
# Convention : Reuss Voigt Hill
#
# Bulk Modulus (GPa) = 33.61444 54.11573 43.86508
# Shear Modulus (GPa) = 29.83645 43.26153 36.54899
#
# Velocity S-wave (km/s) = 3.39944 4.09340 3.76245
# Velocity P-wave (km/s) = 5.33176 6.58037 5.98869
#
# Compressibility (1/GPa) = 0.02974912
#
# Stress axis : x y z
#
# Youngs Moduli (GPa) = 44.95691 76.08022 92.30823
#
# Poissons Ratio (x) = -0.24292 0.54391
# Poissons Ratio (y) = -0.14355 0.51107
# Poissons Ratio (z) = 0.26490 0.42122
#
# Static dielectric constant tensor:
#      x y z
#    x 2.202110 0.035140 0.058320 
#    y 0.035140 2.218780 0.118430 
#    z 0.058320 0.118430 2.061860 
# 
# From -- ./inp_files/500189.got.cif
#   From: 2010.05.17/outbox.cif.g08.bks.cpg/sg2_251_cif.got.tgz:500189.got - 2010.06.03 11:33:40.
