data_PCOD9013720
_publ_section_title
;
Structure prediction by ZEFSAII (Michael W. Deem and Ramdas Pophale) SiO2 
 PCOD9013720
Probable space group: P -1
;
_chemical_formula_sum "Si O2"
_cell_formula_units_Z 16
_cell_length_a 17.961090
_cell_length_b 5.434052
_cell_length_c 9.186990
_cell_angle_alpha 83.082769
_cell_angle_beta 48.996772
_cell_angle_gamma 92.350943
_cell_volume 663.083324
_symmetry_space_group_name_H-M "P -1"
_symmetry_group_IT_number 2
_symmetry_cell_setting 'triclinic'
loop_
_space_group_symop_operation_xyz
x,y,z
-x,-y,-z
loop_
_atom_site_type_symbol
_atom_site_label
_atom_site_fract_x
_atom_site_fract_y
_atom_site_fract_z
Si Si1 0.592835 0.467805 0.577959
Si Si2 0.888863 0.333353 0.661776
Si Si3 0.074001 0.813496 0.969374
Si Si4 0.774706 0.784600 0.858542
Si Si5 0.710244 0.145291 0.319992
Si Si6 0.102321 0.495783 0.668859
Si Si7 0.285295 0.223010 0.394018
Si Si8 0.590016 0.823512 0.293743
O O1 0.695779 0.415662 0.375484
O O2 0.624047 0.556651 0.692604
O O3 0.563896 0.675097 0.490124
O O4 0.505258 0.233184 0.684879
O O5 0.823023 0.528676 0.803819
O O6 0.866247 0.320289 0.516960
O O7 0.000000 0.500000 0.500000
O O8 0.856622 0.038127 0.765569
O O9 0.185197 0.916104 0.867273
O O10 0.096143 0.642250 0.816542
O O11 0.010931 0.652456 0.186169
O O12 0.000000 0.000000 0.000000
O O13 0.725747 0.820165 0.759647
O O14 0.684124 0.752570 0.090812
O O15 0.695355 0.992310 0.502843
O O16 0.632646 0.091107 0.290223
O O17 0.179515 0.301013 0.573885
#
# Coordination Sequence:
#
# PCOD9013720 Si02
#       8
#     2   2   2   2   2   2   2   2
#     4  10  22  44  68  96 133 180 223 287 352 396
#     4  11  26  45  67  94 140 185 225 274 343 411
#     4  11  21  33  60  93 125 163 225 269 328 396
#     4  11  26  45  70 100 137 182 230 284 336 409
#     4  11  21  38  67  93 133 174 223 278 346 400
#     4  10  22  37  58  91 129 173 217 280 329 400
#     4  10  21  41  65  94 131 181 220 282 337 406
#     4  10  25  42  66 100 135 173 233 284 343 413
#
# _framework density 24.129697
#
# number of rings (size 3 to 8) (size 9 to 14) (size 15 to 20)
#    0.000    1.500    2.500    1.500    7.000    1.500 
#    0.000    0.625    0.000    0.000    0.000    0.000 
#    0.000    0.000    0.000    0.000    0.000    0.000 
#
# Total GULP energy -89170.131654 kJ/mol
# GULP energy per Si atom -5573.133228 kJ/mol
# Density = 2.407478 g / cm^3
# Si number density = 24.129697 Si / 1000 Ang^3
#
#
#
# Elastic Constant Matrix: (Units=GPa)
#
#
# Indices 1 2 3 4 5 6 
#
# 1 90.9224 20.2791 13.1432 -2.6797 -14.4983 22.0173
# 2 20.2791 55.6569 17.4761 -1.3029 1.6467 13.4433
# 3 13.1432 17.4761 75.4669 13.5906 -4.1394 0.5084
# 4 -2.6797 -1.3029 13.5906 26.8126 3.9037 -2.4451
# 5 -14.4983 1.6467 -4.1394 3.9037 37.9966 3.5353
# 6 22.0173 13.4433 0.5084 -2.4451 3.5353 45.4342
#
#
#
# Elastic Compliance Matrix: (Units=1/GPa)
#
#
# Indices 1 2 3 4 5 6 
#
# 1 0.014523 -0.003445 -0.001454 0.000548 0.006076 -0.006445
# 2 -0.003445 0.022099 -0.005252 0.003394 -0.002783 -0.004411
# 3 -0.001454 -0.005252 0.016443 -0.008933 0.002250 0.001418
# 4 0.000548 0.003394 -0.008933 0.042983 -0.005473 0.001569
# 5 0.006076 -0.002783 0.002250 -0.005473 0.030009 -0.004776
# 6 -0.006445 -0.004411 0.001418 0.001569 -0.004776 0.026879
#
#
# Mechanical properties :
#
#
# Convention : Reuss Voigt Hill
#
# Bulk Modulus (GPa) = 30.52187 35.98256 33.25222
# Shear Modulus (GPa) = 27.15079 33.45853 30.30466
#
# Velocity S-wave (km/s) = 3.35804 3.72776 3.54772
# Velocity P-wave (km/s) = 5.26420 5.78557 5.53103
#
# Compressibility (1/GPa) = 0.03276339
#
# Stress axis : x y z
#
# Youngs Moduli (GPa) = 68.85801 45.25138 60.81726
#
# Poissons Ratio (x) = 0.15590 0.08840
# Poissons Ratio (y) = 0.23723 0.31939
# Poissons Ratio (z) = 0.10009 0.23764
#
# Static dielectric constant tensor:
#      x y z
#    x 2.045700 0.086560 -0.052420 
#    y 0.086560 2.048320 -0.082530 
#    z -0.052420 -0.082530 1.938540 
# 
# From -- ./inp_files/77551.got.cif
#   From: 2010.05.17/outbox.cif.g08.bks.cpg/sg2_39_cif.got.tgz:77551.got - 2010.06.03 11:33:40.
