data_PCOD9013663
_publ_section_title
;
Structure prediction by ZEFSAII (Michael W. Deem and Ramdas Pophale) SiO2 
 PCOD9013663
Probable space group: P -1
;
_chemical_formula_sum "Si O2"
_cell_formula_units_Z 14
_cell_length_a 9.350263
_cell_length_b 10.711465
_cell_length_c 14.302152
_cell_angle_alpha 150.663512
_cell_angle_beta 125.797971
_cell_angle_gamma 61.935542
_cell_volume 566.409062
_symmetry_space_group_name_H-M "P -1"
_symmetry_group_IT_number 2
_symmetry_cell_setting 'triclinic'
loop_
_space_group_symop_operation_xyz
x,y,z
-x,-y,-z
loop_
_atom_site_type_symbol
_atom_site_label
_atom_site_fract_x
_atom_site_fract_y
_atom_site_fract_z
Si Si1 0.133355 0.253613 0.717487
Si Si2 0.549686 0.292753 0.119827
Si Si3 0.133634 0.793102 0.060846
Si Si4 0.517413 0.772006 0.284152
Si Si5 0.395053 0.574843 0.390529
Si Si6 0.824194 0.704421 0.020191
Si Si7 0.309329 0.133628 0.208154
O O1 0.315547 0.193498 0.698877
O O2 0.141748 0.331494 0.881584
O O3 0.077769 0.509488 0.812661
O O4 0.000000 0.000000 0.500000
O O5 0.350795 0.145642 0.953218
O O6 0.682199 0.096570 0.012172
O O7 0.541197 0.512583 0.181560
O O8 0.558612 0.438919 0.317019
O O9 0.332220 0.758833 0.150159
O O10 0.994111 0.830538 0.113633
O O11 0.159462 0.031800 0.157079
O O12 0.500000 0.000000 0.500000
O O13 0.305161 0.391113 0.315785
O O14 0.499664 0.822689 0.636881
O O15 0.255529 0.552637 0.236253
#
# Coordination Sequence:
#
# PCOD9013663 Si02
#       7
#     2   2   2   2   2   2   2
#     4  12  25  40  63  95 133 175 213 261 334 383
#     4  10  21  41  65  92 131 166 217 265 321 384
#     4  12  23  39  63  94 130 170 215 265 323 385
#     4  12  24  41  66  97 130 170 217 266 322 401
#     4   9  23  42  68  95 125 169 222 270 330 375
#     4  10  24  41  60  94 136 168 211 272 321 386
#     4  11  21  42  73  92 124 173 223 271 323 388
#
# _framework density 24.717117999999999
#
# number of rings (size 3 to 8) (size 9 to 14) (size 15 to 20)
#    0.857    0.286    2.857    3.857    2.000    1.714 
#    0.000    0.000    0.000    2.571    0.000    0.000 
#    0.000    0.000    0.000    0.000    0.000    0.000 
#
# Total GULP energy -78153.779676 kJ/mol
# GULP energy per Si atom -5582.412834 kJ/mol
# Density = 2.466086 g / cm^3
# Si number density = 24.717118 Si / 1000 Ang^3
#
#
#
# Elastic Constant Matrix: (Units=GPa)
#
#
# Indices 1 2 3 4 5 6 
#
# 1 202.6840 42.3696 36.7572 4.9285 13.0837 46.0472
# 2 42.3696 87.4023 42.1964 0.5282 16.1783 34.7106
# 3 36.7572 42.1964 108.6771 0.2062 4.3804 19.6632
# 4 4.9285 0.5282 0.2062 35.2094 9.6680 9.5081
# 5 13.0837 16.1783 4.3804 9.6680 34.4064 4.8930
# 6 46.0472 34.7106 19.6632 9.5081 4.8930 43.5459
#
#
#
# Elastic Compliance Matrix: (Units=1/GPa)
#
#
# Indices 1 2 3 4 5 6 
#
# 1 0.006748 0.000450 -0.001091 0.001540 -0.002061 -0.007106
# 2 0.000450 0.021761 -0.005389 0.006446 -0.009289 -0.015752
# 3 -0.001091 -0.005389 0.011582 -0.000286 0.001539 0.000109
# 4 0.001540 0.006446 -0.000286 0.034741 -0.011504 -0.012930
# 5 -0.002061 -0.009289 0.001539 -0.011504 0.036209 0.007331
# 6 -0.007106 -0.015752 0.000109 -0.012930 0.007331 0.044984
#
#
# Mechanical properties :
#
#
# Convention : Reuss Voigt Hill
#
# Bulk Modulus (GPa) = 35.67665 71.26775 53.47220
# Shear Modulus (GPa) = 28.18018 41.12835 34.65426
#
# Velocity S-wave (km/s) = 3.38021 4.08359 3.74844
# Velocity P-wave (km/s) = 5.44975 7.15054 6.35728
#
# Compressibility (1/GPa) = 0.02802954
#
# Stress axis : x y z
#
# Youngs Moduli (GPa) = 148.20284 45.95344 86.34229
#
# Poissons Ratio (x) = -0.02067 0.09420
# Poissons Ratio (y) = -0.06666 0.46532
# Poissons Ratio (z) = 0.16170 0.24765
#
# Static dielectric constant tensor:
#      x y z
#    x 1.987050 -0.031350 0.009580 
#    y -0.031350 2.116910 0.008150 
#    z 0.009580 0.008150 2.007880 
# 
# From -- ./inp_files/501266.got.cif
#   From: 2010.05.17/outbox.cif.g08.bks.cpg/sg2_251_cif.got.tgz:501266.got - 2010.06.03 11:33:40.
