data_PCOD9013070
_publ_section_title
;
Structure prediction by ZEFSAII (Michael W. Deem and Ramdas Pophale) SiO2 
 PCOD9013070
Probable space group: P -1
;
_chemical_formula_sum "Si O2"
_cell_formula_units_Z 16
_cell_length_a 13.441489
_cell_length_b 11.266529
_cell_length_c 6.785117
_cell_angle_alpha 97.667961
_cell_angle_beta 130.511179
_cell_angle_gamma 82.535866
_cell_volume 772.949505
_symmetry_space_group_name_H-M "P -1"
_symmetry_group_IT_number 2
_symmetry_cell_setting 'triclinic'
loop_
_space_group_symop_operation_xyz
x,y,z
-x,-y,-z
loop_
_atom_site_type_symbol
_atom_site_label
_atom_site_fract_x
_atom_site_fract_y
_atom_site_fract_z
Si Si1 0.594130 0.598294 0.559247
Si Si2 0.443640 0.637368 0.006465
Si Si3 0.174340 0.395455 0.426821
Si Si4 0.008427 0.213880 0.924852
Si Si5 0.353067 0.255693 0.956000
Si Si6 0.824293 0.939269 0.216105
Si Si7 0.058222 0.856828 0.769822
Si Si8 0.865148 0.354830 0.433652
O O1 0.500000 0.500000 0.500000
O O2 0.501387 0.671204 0.300255
O O3 0.717819 0.553809 0.574619
O O4 0.648864 0.672335 0.825928
O O5 0.504678 0.725512 0.947541
O O6 0.500000 0.500000 0.000000
O O7 0.288870 0.638415 0.806726
O O8 0.252703 0.320438 0.682819
O O9 0.097739 0.510103 0.448301
O O10 0.090202 0.309776 0.168882
O O11 0.106317 0.136265 0.891356
O O12 0.903220 0.279944 0.661633
O O13 0.942454 0.140162 0.996267
O O14 0.306730 0.123288 0.907748
O O15 0.925016 0.921111 0.524782
O O16 0.825770 0.074785 0.171380
O O17 0.065272 0.720797 0.669204
#
# Coordination Sequence:
#
# PCOD9013070 Si02
#       8
#     2   2   2   2   2   2   2   2
#     4  11  19  33  59  84 116 160 194 239 287 346
#     4  11  21  38  57  89 120 160 203 239 292 363
#     4  11  21  36  56  95 123 149 196 241 306 363
#     4  11  22  38  61  91 120 159 196 250 301 358
#     4  11  20  36  64  89 117 155 202 252 290 351
#     4  10  21  41  63  88 114 158 214 241 296 349
#     4  10  23  40  61  85 122 163 196 252 293 355
#     4  11  23  39  56  90 130 155 195 238 312 364
#
# _framework density 20.699929999999998
#
# number of rings (size 3 to 8) (size 9 to 14) (size 15 to 20)
#    0.000    1.250    6.250    0.750    0.000    3.500 
#    0.000    0.625    0.000    1.500    0.000    0.000 
#    0.000    0.000    0.000    0.000    0.000    0.000 
#
# Total GULP energy -89347.199894 kJ/mol
# GULP energy per Si atom -5584.199993 kJ/mol
# Density = 2.065282 g / cm^3
# Si number density = 20.699930 Si / 1000 Ang^3
#
#
#
# Elastic Constant Matrix: (Units=GPa)
#
#
# Indices 1 2 3 4 5 6 
#
# 1 52.0295 10.6842 19.3378 -2.4524 -11.6389 19.3894
# 2 10.6842 62.0259 -1.5447 13.7039 -3.6514 14.5415
# 3 19.3378 -1.5447 90.1070 0.7172 -18.5018 -8.5121
# 4 -2.4524 13.7039 0.7172 23.2087 4.9441 4.3933
# 5 -11.6389 -3.6514 -18.5018 4.9441 30.0881 -0.8999
# 6 19.3894 14.5415 -8.5121 4.3933 -0.8999 35.4339
#
#
#
# Elastic Compliance Matrix: (Units=1/GPa)
#
#
# Indices 1 2 3 4 5 6 
#
# 1 0.030872 -0.002481 -0.007364 0.007298 0.005363 -0.018412
# 2 -0.002481 0.020827 0.001387 -0.012541 0.004326 -0.005191
# 3 -0.007364 0.001387 0.015068 -0.005197 0.007676 0.007919
# 4 0.007298 -0.012541 -0.005197 0.055172 -0.011177 -0.007219
# 5 0.005363 0.004326 0.007676 -0.011177 0.042380 -0.000404
# 6 -0.018412 -0.005191 0.007919 -0.007219 -0.000404 0.043214
#
#
# Mechanical properties :
#
#
# Convention : Reuss Voigt Hill
#
# Bulk Modulus (GPa) = 20.06016 29.01300 24.53658
# Shear Modulus (GPa) = 20.74131 29.45849 25.09990
#
# Velocity S-wave (km/s) = 3.16887 3.77652 3.48596
# Velocity P-wave (km/s) = 4.80635 5.75000 5.29922
#
# Compressibility (1/GPa) = 0.04985006
#
# Stress axis : x y z
#
# Youngs Moduli (GPa) = 32.39224 48.01495 66.36711
#
# Poissons Ratio (x) = 0.11913 0.48874
# Poissons Ratio (y) = 0.08037 -0.09207
# Poissons Ratio (z) = 0.23854 -0.06661
#
# Static dielectric constant tensor:
#      x y z
#    x 1.765480 0.026680 -0.014730 
#    y 0.026680 1.782510 0.018380 
#    z -0.014730 0.018380 1.723700 
# 
# From -- ./inp_files/70695.got.cif
#   From: 2010.05.17/outbox.cif.g08.bks.cpg/sg2_36_cif.got.tgz:70695.got - 2010.06.03 11:33:40.
