data_PCOD9013853
_publ_section_title
;
Structure prediction by ZEFSAII (Michael W. Deem and Ramdas Pophale) SiO2 
 PCOD9013853
Probable space group: P -1
;
_chemical_formula_sum "Si O2"
_cell_formula_units_Z 12
_cell_length_a 7.783254
_cell_length_b 8.144585
_cell_length_c 11.775027
_cell_angle_alpha 109.875260
_cell_angle_beta 38.902993
_cell_angle_gamma 94.644175
_cell_volume 418.998316
_symmetry_space_group_name_H-M "P -1"
_symmetry_group_IT_number 2
_symmetry_cell_setting 'triclinic'
loop_
_space_group_symop_operation_xyz
x,y,z
-x,-y,-z
loop_
_atom_site_type_symbol
_atom_site_label
_atom_site_fract_x
_atom_site_fract_y
_atom_site_fract_z
Si Si1 0.300355 0.516376 0.801823
Si Si2 0.891611 0.625140 0.852355
Si Si3 0.926027 0.315052 0.458799
Si Si4 0.192456 0.871334 0.045066
Si Si5 0.611001 0.932891 0.217962
Si Si6 0.000188 0.193320 0.641387
O O1 0.190009 0.612549 0.760898
O O2 0.594085 0.354572 0.599856
O O3 0.000000 0.500000 0.000000
O O4 0.371245 0.658533 0.883092
O O5 0.889902 0.735572 0.763050
O O6 0.923124 0.411397 0.763596
O O7 0.640909 0.735258 0.094095
O O8 0.000000 0.500000 0.500000
O O9 0.961497 0.195544 0.525922
O O10 0.871445 0.899327 0.165843
O O11 0.164187 0.889253 0.198982
O O12 0.326918 0.968264 0.904301
O O13 0.332469 0.069987 0.451444
#
# Coordination Sequence:
#
# PCOD9013853 Si02
#       6
#     2   2   2   2   2   2
#     4  11  21  41  69 105 128 181 241 275 336 420
#     4  10  22  44  70  96 134 184 236 279 333 419
#     4  10  23  41  67 103 138 179 227 286 352 406
#     4  10  21  41  66 101 135 178 230 289 336 410
#     4  10  23  41  66 102 136 178 234 282 342 409
#     4  11  22  44  68 100 138 180 223 292 348 407
#
# _framework density 28.639735000000002
#
# number of rings (size 3 to 8) (size 9 to 14) (size 15 to 20)
#    0.000    1.667    1.667    3.000    0.000    4.000 
#    9.000    0.833    0.000    0.000    0.000    0.000 
#    0.000    0.000    0.000    0.000    0.000    0.000 
#
# Total GULP energy -67117.549031 kJ/mol
# GULP energy per Si atom -5593.129086 kJ/mol
# Density = 2.857455 g / cm^3
# Si number density = 28.639735 Si / 1000 Ang^3
#
#
#
# Elastic Constant Matrix: (Units=GPa)
#
#
# Indices 1 2 3 4 5 6 
#
# 1 103.2657 22.3503 37.4143 -19.7379 6.2856 -22.9219
# 2 22.3503 133.4628 44.9561 -10.2547 9.4485 -21.7325
# 3 37.4143 44.9561 125.5083 -23.2956 13.6079 -8.5775
# 4 -19.7379 -10.2547 -23.2956 41.6807 -12.6548 19.7986
# 5 6.2856 9.4485 13.6079 -12.6548 63.3070 -3.1704
# 6 -22.9219 -21.7325 -8.5775 19.7986 -3.1704 48.8657
#
#
#
# Elastic Compliance Matrix: (Units=1/GPa)
#
#
# Indices 1 2 3 4 5 6 
#
# 1 0.012102 -0.000218 -0.002860 0.002089 0.000076 0.004236
# 2 -0.000218 0.009194 -0.003198 -0.001833 -0.000824 0.004114
# 3 -0.002860 -0.003198 0.010782 0.005091 -0.000688 -0.002979
# 4 0.002089 -0.001833 0.005091 0.035082 0.005343 -0.012809
# 5 0.000076 -0.000824 -0.000688 0.005343 0.017052 -0.001510
# 6 0.004236 0.004114 -0.002979 -0.012809 -0.001510 0.028850
#
#
# Mechanical properties :
#
#
# Convention : Reuss Voigt Hill
#
# Bulk Modulus (GPa) = 51.21680 63.51979 57.36829
# Shear Modulus (GPa) = 37.84338 47.93841 42.89089
#
# Velocity S-wave (km/s) = 3.63899 4.09570 3.87408
# Velocity P-wave (km/s) = 5.96476 6.67783 6.33134
#
# Compressibility (1/GPa) = 0.01952484
#
# Stress axis : x y z
#
# Youngs Moduli (GPa) = 82.62801 108.76785 92.75012
#
# Poissons Ratio (x) = 0.02373 0.26531
# Poissons Ratio (y) = 0.01803 0.29661
# Poissons Ratio (z) = 0.23635 0.34783
#
# Static dielectric constant tensor:
#      x y z
#    x 2.311030 0.066660 -0.003330 
#    y 0.066660 2.406500 0.069720 
#    z -0.003330 0.069720 2.166200 
# 
# From -- ./inp_files/376529.got.cif
#   From: 2010.05.17/outbox.cif.g08.bks.cpg/sg2_189_cif.got.tgz:376529.got - 2010.06.03 11:33:40.
