data_PCOD9013140
_publ_section_title
;
Structure prediction by ZEFSAII (Michael W. Deem and Ramdas Pophale) SiO2 
 PCOD9013140
Probable space group: P -1
;
_chemical_formula_sum "Si O2"
_cell_formula_units_Z 14
_cell_length_a 8.210894
_cell_length_b 13.974481
_cell_length_c 13.859559
_cell_angle_alpha 144.663718
_cell_angle_beta 73.522122
_cell_angle_gamma 125.359148
_cell_volume 687.657245
_symmetry_space_group_name_H-M "P -1"
_symmetry_group_IT_number 2
_symmetry_cell_setting 'triclinic'
loop_
_space_group_symop_operation_xyz
x,y,z
-x,-y,-z
loop_
_atom_site_type_symbol
_atom_site_label
_atom_site_fract_x
_atom_site_fract_y
_atom_site_fract_z
Si Si1 0.079791 0.067313 0.303823
Si Si2 0.812995 0.831927 0.967891
Si Si3 0.947049 0.311114 0.647545
Si Si4 0.827751 0.017496 0.592361
Si Si5 0.517759 0.209463 0.286431
Si Si6 0.665127 0.364881 0.597852
Si Si7 0.373823 0.746597 0.909120
O O1 0.093836 0.927084 0.264517
O O2 0.319984 0.218770 0.340063
O O3 0.024569 0.198083 0.480297
O O4 0.903164 0.928095 0.137513
O O5 0.763120 0.607513 0.783767
O O6 0.593057 0.795763 0.951017
O O7 0.000000 0.000000 0.000000
O O8 0.829416 0.177469 0.654889
O O9 0.796735 0.326967 0.615792
O O10 0.161900 0.545750 0.830292
O O11 0.587084 0.793175 0.455821
O O12 0.000000 0.000000 0.500000
O O13 0.659774 0.302210 0.435732
O O14 0.645452 0.308757 0.247117
O O15 0.403763 0.960673 0.090765
#
# Coordination Sequence:
#
# PCOD9013140 Si02
#       7
#     2   2   2   2   2   2   2
#     4  10  21  41  63  92 126 161 209 252 308 366
#     4  12  24  39  62  92 126 164 207 253 308 369
#     4  11  23  40  67  93 125 166 204 256 309 366
#     4   9  20  43  66  91 122 162 209 256 305 365
#     4  10  22  40  61  90 125 166 203 260 305 369
#     4  11  24  41  64  92 129 161 210 251 313 365
#     4  11  23  39  62  90 129 160 212 251 311 365
#
# _framework density 20.358981
#
# number of rings (size 3 to 8) (size 9 to 14) (size 15 to 20)
#    0.000    1.429    1.429    4.714    4.000    1.714 
#    0.000   14.286    0.000    0.000    0.000    0.000 
#    0.000    0.000    0.000    0.000    0.000    0.000 
#
# Total GULP energy -78238.304440 kJ/mol
# GULP energy per Si atom -5588.450317 kJ/mol
# Density = 2.031264 g / cm^3
# Si number density = 20.358981 Si / 1000 Ang^3
#
#
#
# Elastic Constant Matrix: (Units=GPa)
#
#
# Indices 1 2 3 4 5 6 
#
# 1 113.1830 27.9328 16.0032 7.0315 12.6901 -10.6361
# 2 27.9328 84.8586 34.7179 19.5530 -0.2726 -16.5064
# 3 16.0032 34.7179 69.5291 20.2835 3.7111 -10.7467
# 4 7.0315 19.5530 20.2835 30.3943 0.3280 -2.7899
# 5 12.6901 -0.2726 3.7111 0.3280 33.2095 -6.1865
# 6 -10.6361 -16.5064 -10.7467 -2.7899 -6.1865 22.6225
#
#
#
# Elastic Compliance Matrix: (Units=1/GPa)
#
#
# Indices 1 2 3 4 5 6 
#
# 1 0.010151 -0.002866 -0.000485 -0.000007 -0.003574 0.001472
# 2 -0.002866 0.018328 -0.005201 -0.006803 0.003707 0.009729
# 3 -0.000485 -0.005201 0.020723 -0.009968 -0.001285 0.004241
# 4 -0.000007 -0.006803 -0.009968 0.043531 -0.000186 -0.004385
# 5 -0.003574 0.003707 -0.001285 -0.000186 0.033429 0.009533
# 6 0.001472 0.009729 0.004241 -0.004385 0.009533 0.056075
#
#
# Mechanical properties :
#
#
# Convention : Reuss Voigt Hill
#
# Bulk Modulus (GPa) = 31.15541 47.20873 39.18207
# Shear Modulus (GPa) = 23.80489 29.83971 26.82230
#
# Velocity S-wave (km/s) = 3.42315 3.83257 3.63363
# Velocity P-wave (km/s) = 5.56419 6.54395 6.07386
#
# Compressibility (1/GPa) = 0.03209716
#
# Stress axis : x y z
#
# Youngs Moduli (GPa) = 98.51534 54.56206 48.25498
#
# Poissons Ratio (x) = 0.15640 0.02339
# Poissons Ratio (y) = 0.28239 0.25098
# Poissons Ratio (z) = 0.04774 0.28379
#
# Static dielectric constant tensor:
#      x y z
#    x 1.727880 -0.013880 -0.013380 
#    y -0.013880 1.747070 0.000910 
#    z -0.013380 0.000910 1.694970 
# 
# From -- ./inp_files/188172.got.cif
#   From: 2010.05.17/outbox.cif.g08.bks.cpg/sg2_95_cif.got.tgz:188172.got - 2010.06.03 11:33:40.
