data_PCOD9013317
_publ_section_title
;
Structure prediction by ZEFSAII (Michael W. Deem and Ramdas Pophale) SiO2 
 PCOD9013317
Probable space group: P -1
;
_chemical_formula_sum "Si O2"
_cell_formula_units_Z 14
_cell_length_a 24.011383
_cell_length_b 6.913413
_cell_length_c 5.192536
_cell_angle_alpha 72.496005
_cell_angle_beta 77.489708
_cell_angle_gamma 52.471158
_cell_volume 651.289632
_symmetry_space_group_name_H-M "P -1"
_symmetry_group_IT_number 2
_symmetry_cell_setting 'triclinic'
loop_
_space_group_symop_operation_xyz
x,y,z
-x,-y,-z
loop_
_atom_site_type_symbol
_atom_site_label
_atom_site_fract_x
_atom_site_fract_y
_atom_site_fract_z
Si Si1 0.851935 0.722260 0.998816
Si Si2 0.343719 0.206663 0.349948
Si Si3 0.062829 0.824317 0.809892
Si Si4 0.237879 0.058549 0.495275
Si Si5 0.348417 0.479536 0.735973
Si Si6 0.502354 0.137451 0.692982
Si Si7 0.034401 0.259382 0.383132
O O1 0.795643 0.900973 0.768003
O O2 0.919219 0.726087 0.883162
O O3 0.875540 0.440682 0.031490
O O4 0.821608 0.803082 0.281522
O O5 0.281671 0.175560 0.404975
O O6 0.341886 0.328126 0.574319
O O7 0.419405 0.934846 0.358408
O O8 0.340218 0.378989 0.054896
O O9 0.027903 0.748027 0.664939
O O10 0.082038 0.998761 0.595580
O O11 0.000000 0.000000 0.000000
O O12 0.290346 0.769799 0.635176
O O13 0.427903 0.406253 0.668233
O O14 0.500000 0.000000 0.500000
O O15 0.500000 0.000000 0.000000
O O16 0.000000 0.500000 0.500000
#
# Coordination Sequence:
#
# PCOD9013317 Si02
#       7
#     2   2   2   2   2   2   2
#     4  12  27  45  65  97 134 165 213 258 319 391
#     4  10  21  41  64  91 131 167 217 271 310 369
#     4  11  25  44  73  97 121 163 215 267 328 377
#     4  12  27  42  61  96 133 176 212 250 316 402
#     4  10  21  41  64  90 128 171 217 265 322 365
#     4   8  16  33  62  91 117 163 217 270 313 358
#     4  11  24  46  71  98 128 160 209 275 325 380
#
# _framework density 21.495811
#
# number of rings (size 3 to 8) (size 9 to 14) (size 15 to 20)
#    0.000    1.429    1.429    3.000    4.000    4.000 
#    0.000    0.000    0.000   12.000    0.000    0.000 
#    0.000    0.000    0.000    0.000    0.000    0.000 
#
# Total GULP energy -78252.983402 kJ/mol
# GULP energy per Si atom -5589.498814 kJ/mol
# Density = 2.144689 g / cm^3
# Si number density = 21.495811 Si / 1000 Ang^3
#
#
#
# Elastic Constant Matrix: (Units=GPa)
#
#
# Indices 1 2 3 4 5 6 
#
# 1 111.3065 -23.1051 -3.1424 8.1481 -22.2121 14.4177
# 2 -23.1051 121.9255 15.9270 -23.3731 -1.2525 -20.0834
# 3 -3.1424 15.9270 87.0298 -2.4648 -1.6222 0.9584
# 4 8.1481 -23.3731 -2.4648 45.6141 -4.3429 8.8540
# 5 -22.2121 -1.2525 -1.6222 -4.3429 45.8919 -3.4331
# 6 14.4177 -20.0834 0.9584 8.8540 -3.4331 35.5937
#
#
#
# Elastic Compliance Matrix: (Units=1/GPa)
#
#
# Indices 1 2 3 4 5 6 
#
# 1 0.010699 0.001550 0.000227 -0.000052 0.005002 -0.002970
# 2 0.001550 0.010256 -0.001718 0.004208 0.001691 0.004322
# 3 0.000227 -0.001718 0.011835 0.000017 0.000382 -0.001347
# 4 -0.000052 0.004208 0.000017 0.024999 0.002186 -0.003613
# 5 0.005002 0.001691 0.000382 0.002186 0.024533 0.000740
# 6 -0.002970 0.004322 -0.001347 -0.003613 0.000740 0.032743
#
#
# Mechanical properties :
#
#
# Convention : Reuss Voigt Hill
#
# Bulk Modulus (GPa) = 30.38717 33.29120 31.83919
# Shear Modulus (GPa) = 39.70928 47.45875 43.58402
#
# Velocity S-wave (km/s) = 4.30269 4.70384 4.50773
# Velocity P-wave (km/s) = 6.23307 6.70987 6.47586
#
# Compressibility (1/GPa) = 0.03290863
#
# Stress axis : x y z
#
# Youngs Moduli (GPa) = 93.46675 97.50723 84.49289
#
# Poissons Ratio (x) = -0.15114 -0.01919
# Poissons Ratio (y) = -0.14488 0.14514
# Poissons Ratio (z) = -0.02123 0.16750
#
# Static dielectric constant tensor:
#      x y z
#    x 1.802680 -0.051840 0.022020 
#    y -0.051840 1.798700 -0.034560 
#    z 0.022020 -0.034560 1.778890 
# 
# From -- ./inp_files/9422.got.cif
#   From: 2010.05.17/outbox.cif.g08.bks.cpg/sg2_5_cif.got.tgz:9422.got - 2010.06.03 11:33:40.
