data_PCOD9013900
_publ_section_title
;
Structure prediction by ZEFSAII (Michael W. Deem and Ramdas Pophale) SiO2 
 PCOD9013900
Probable space group: P -1
;
_chemical_formula_sum "Si O2"
_cell_formula_units_Z 16
_cell_length_a 8.082999
_cell_length_b 10.511667
_cell_length_c 15.641571
_cell_angle_alpha 122.411769
_cell_angle_beta 62.875076
_cell_angle_gamma 76.515310
_cell_volume 770.913715
_symmetry_space_group_name_H-M "P -1"
_symmetry_group_IT_number 2
_symmetry_cell_setting 'triclinic'
loop_
_space_group_symop_operation_xyz
x,y,z
-x,-y,-z
loop_
_atom_site_type_symbol
_atom_site_label
_atom_site_fract_x
_atom_site_fract_y
_atom_site_fract_z
Si Si1 0.645313 0.057072 0.653952
Si Si2 0.416031 0.375076 0.953120
Si Si3 0.912904 0.719375 0.594354
Si Si4 0.676431 0.288649 0.418767
Si Si5 0.920187 0.746664 0.146468
Si Si6 0.990933 0.971185 0.092900
Si Si7 0.594355 0.051912 0.921051
Si Si8 0.312785 0.963156 0.550239
O O1 0.623085 0.201530 0.779776
O O2 0.358668 0.161425 0.756591
O O3 0.743530 0.059873 0.540442
O O4 0.806257 0.835759 0.571622
O O5 0.415602 0.257201 0.988828
O O6 0.500000 0.500000 0.000000
O O7 0.145852 0.523564 0.032509
O O8 0.000000 0.500000 0.500000
O O9 0.121847 0.724223 0.580008
O O10 0.699892 0.875882 0.765823
O O11 0.500000 0.500000 0.500000
O O12 0.767870 0.155538 0.264489
O O13 0.566332 0.227707 0.489610
O O14 0.982561 0.802207 0.064147
O O15 0.902552 0.868892 0.277401
O O16 0.209671 0.939530 0.078855
O O17 0.000000 0.000000 0.000000
O O18 0.500000 0.000000 0.000000
O O19 0.500000 0.000000 0.500000
#
# Coordination Sequence:
#
# PCOD9013900 Si02
#       8
#     2   2   2   2   2   2   2   2
#     4  10  23  41  65  93 127 160 215 254 308 379
#     4  11  22  42  64  89 129 162 206 258 312 366
#     4  10  24  41  64  92 127 166 207 257 314 369
#     4  10  23  42  62  92 129 161 208 260 307 371
#     4  10  21  41  66  89 126 168 200 258 314 362
#     4  10  22  38  63  90 123 168 206 248 311 373
#     4  10  23  43  60  92 128 159 206 264 304 366
#     4   9  21  41  65  91 125 162 206 260 314 365
#
# _framework density 20.754594000000001
#
# number of rings (size 3 to 8) (size 9 to 14) (size 15 to 20)
#    0.000    2.000    1.250    0.375   10.500    2.500 
#    9.000    0.000    0.000    0.000    0.000    0.000 
#    0.000    0.000    0.000    0.000    0.000    0.000 
#
# Total GULP energy -89159.184522 kJ/mol
# GULP energy per Si atom -5572.449033 kJ/mol
# Density = 2.070736 g / cm^3
# Si number density = 20.754594 Si / 1000 Ang^3
#
#
#
# Elastic Constant Matrix: (Units=GPa)
#
#
# Indices 1 2 3 4 5 6 
#
# 1 55.3002 33.8293 13.6072 7.4241 4.3199 -7.8016
# 2 33.8293 217.4665 82.0373 -1.2257 -2.5749 -22.7190
# 3 13.6072 82.0373 63.5753 -2.4399 10.6014 -13.2818
# 4 7.4241 -1.2257 -2.4399 49.9610 -4.8584 -1.2970
# 5 4.3199 -2.5749 10.6014 -4.8584 26.6422 4.0256
# 6 -7.8016 -22.7190 -13.2818 -1.2970 4.0256 37.7401
#
#
#
# Elastic Compliance Matrix: (Units=1/GPa)
#
#
# Indices 1 2 3 4 5 6 
#
# 1 0.021320 -0.003705 0.001699 -0.003641 -0.005647 0.003252
# 2 -0.003705 0.010555 -0.014050 0.000838 0.007382 -0.000115
# 3 0.001699 -0.014050 0.037958 -0.000296 -0.017872 0.007148
# 4 -0.003641 0.000838 -0.000296 0.021011 0.004639 -0.000125
# 5 -0.005647 0.007382 -0.017872 0.004639 0.048331 -0.008009
# 6 0.003252 -0.000115 0.007148 -0.000125 -0.008009 0.030466
#
#
# Mechanical properties :
#
#
# Convention : Reuss Voigt Hill
#
# Bulk Modulus (GPa) = 26.51025 66.14329 46.32677
# Shear Modulus (GPa) = 23.32881 36.65988 29.99434
#
# Velocity S-wave (km/s) = 3.35629 4.20736 3.80569
# Velocity P-wave (km/s) = 5.27452 7.45258 6.45606
#
# Compressibility (1/GPa) = 0.03772126
#
# Stress axis : x y z
#
# Youngs Moduli (GPa) = 46.90364 94.73956 26.34473
#
# Poissons Ratio (x) = 0.35104 -0.04477
# Poissons Ratio (y) = 0.17379 0.37015
# Poissons Ratio (z) = -0.07970 1.33112
#
# Static dielectric constant tensor:
#      x y z
#    x 1.857890 0.001200 0.070200 
#    y 0.001200 1.762290 0.019900 
#    z 0.070200 0.019900 1.783450 
# 
# From -- ./inp_files/495564.got.cif
#   From: 2010.05.17/outbox.cif.g08.bks.cpg/sg2_248_cif.got.tgz:495564.got - 2010.06.03 11:33:40.
