data_PCOD9013807
_publ_section_title
;
Structure prediction by ZEFSAII (Michael W. Deem and Ramdas Pophale) SiO2 
 PCOD9013807
Probable space group: P -1
;
_chemical_formula_sum "Si O2"
_cell_formula_units_Z 10
_cell_length_a 6.963144
_cell_length_b 7.252701
_cell_length_c 13.054265
_cell_angle_alpha 134.000158
_cell_angle_beta 113.598590
_cell_angle_gamma 78.924793
_cell_volume 430.859088
_symmetry_space_group_name_H-M "P -1"
_symmetry_group_IT_number 2
_symmetry_cell_setting 'triclinic'
loop_
_space_group_symop_operation_xyz
x,y,z
-x,-y,-z
loop_
_atom_site_type_symbol
_atom_site_label
_atom_site_fract_x
_atom_site_fract_y
_atom_site_fract_z
Si Si1 0.883416 0.665690 0.383360
Si Si2 0.445021 0.263644 0.822840
Si Si3 0.708725 0.032239 0.632459
Si Si4 0.455865 0.824376 0.820883
Si Si5 0.718614 0.619296 0.644962
O O1 0.768377 0.695916 0.263896
O O2 0.730856 0.415120 0.301549
O O3 0.112971 0.578800 0.393442
O O4 0.867368 0.927484 0.543758
O O5 0.630095 0.255390 0.773852
O O6 0.415198 0.008528 0.788075
O O7 0.779316 0.858005 0.674971
O O8 0.500000 0.500000 0.000000
O O9 0.500000 0.000000 0.500000
O O10 0.663964 0.705808 0.780548
O O11 0.500000 0.000000 0.000000
O O12 0.500000 0.500000 0.500000
#
# Coordination Sequence:
#
# PCOD9013807 Si02
#       5
#     2   2   2   2   2
#     4  11  22  43  67  95 129 167 213 264 323 373
#     4  10  21  41  65  98 130 165 216 260 314 394
#     4   9  20  39  65  89 126 165 206 270 314 369
#     4  11  23  42  67  91 132 172 205 269 322 369
#     4  11  23  41  65  96 126 165 222 261 311 388
#
# _framework density 23.209443
#
# number of rings (size 3 to 8) (size 9 to 14) (size 15 to 20)
#    0.000    1.600    4.000    0.600    0.000    0.800 
#    3.600    4.000    0.000    0.000    0.000    0.000 
#    0.000    0.000    0.000    0.000    0.000    0.000 
#
# Total GULP energy -55695.007802 kJ/mol
# GULP energy per Si atom -5569.500780 kJ/mol
# Density = 2.315662 g / cm^3
# Si number density = 23.209443 Si / 1000 Ang^3
#
#
#
# Elastic Constant Matrix: (Units=GPa)
#
#
# Indices 1 2 3 4 5 6 
#
# 1 99.2187 67.2006 71.4663 8.1835 -20.9652 -31.7965
# 2 67.2006 169.5773 39.0893 6.7848 -18.2344 -20.8098
# 3 71.4663 39.0893 192.4773 0.2732 -49.9243 -25.1633
# 4 8.1835 6.7848 0.2732 31.7757 5.3003 -12.0492
# 5 -20.9652 -18.2344 -49.9243 5.3003 41.8273 22.1389
# 6 -31.7965 -20.8098 -25.1633 -12.0492 22.1389 57.0423
#
#
#
# Elastic Compliance Matrix: (Units=1/GPa)
#
#
# Indices 1 2 3 4 5 6 
#
# 1 0.020547 -0.006128 -0.006449 -0.000183 -0.004278 0.007995
# 2 -0.006128 0.008248 0.001130 -0.001064 0.002616 -0.001148
# 3 -0.006449 0.001130 0.009757 -0.001845 0.011015 -0.003543
# 4 -0.000183 -0.001064 -0.001845 0.038858 -0.014267 0.012441
# 5 -0.004278 0.002616 0.011015 -0.014267 0.047371 -0.017970
# 6 0.007995 -0.001148 -0.003543 0.012441 -0.017970 0.029608
#
#
# Mechanical properties :
#
#
# Convention : Reuss Voigt Hill
#
# Bulk Modulus (GPa) = 63.86181 90.75396 77.30789
# Shear Modulus (GPa) = 27.39702 45.03019 36.21360
#
# Velocity S-wave (km/s) = 3.43946 4.40951 3.95434
# Velocity P-wave (km/s) = 6.58395 8.06921 7.36412
#
# Compressibility (1/GPa) = 0.01565881
#
# Stress axis : x y z
#
# Youngs Moduli (GPa) = 48.66824 121.24541 102.49198
#
# Poissons Ratio (x) = 0.74294 0.66096
# Poissons Ratio (y) = 0.29822 -0.11581
# Poissons Ratio (z) = 0.31386 -0.13701
#
# Static dielectric constant tensor:
#      x y z
#    x 2.051760 0.076460 -0.017470 
#    y 0.076460 1.898140 0.048030 
#    z -0.017470 0.048030 1.860240 
# 
# From -- ./inp_files/480150.got.cif
#   From: 2010.05.17/outbox.cif.g08.bks.cpg/sg2_241_cif.got.tgz:480150.got - 2010.06.03 11:33:40.
