data_PCOD9013454
_publ_section_title
;
Structure prediction by ZEFSAII (Michael W. Deem and Ramdas Pophale) SiO2 
 PCOD9013454
Probable space group: P -1
;
_chemical_formula_sum "Si O2"
_cell_formula_units_Z 14
_cell_length_a 16.813527
_cell_length_b 9.995326
_cell_length_c 13.791142
_cell_angle_alpha 147.459683
_cell_angle_beta 25.006949
_cell_angle_gamma 136.696215
_cell_volume 520.259528
_symmetry_space_group_name_H-M "P -1"
_symmetry_group_IT_number 2
_symmetry_cell_setting 'triclinic'
loop_
_space_group_symop_operation_xyz
x,y,z
-x,-y,-z
loop_
_atom_site_type_symbol
_atom_site_label
_atom_site_fract_x
_atom_site_fract_y
_atom_site_fract_z
Si Si1 0.600326 0.766404 0.519035
Si Si2 0.407274 0.833964 0.366235
Si Si3 0.855154 0.489423 0.466139
Si Si4 0.614003 0.357899 0.082649
Si Si5 0.820904 0.077384 0.838651
Si Si6 0.811145 0.654892 0.417478
Si Si7 0.758907 0.751389 0.036782
O O1 0.613257 0.573747 0.297796
O O2 0.728014 0.658569 0.402246
O O3 0.654652 0.028038 0.580813
O O4 0.378400 0.825375 0.829413
O O5 0.336410 0.576402 0.314815
O O6 0.633808 0.825112 0.125210
O O7 0.309018 0.022782 0.674810
O O8 0.884241 0.434731 0.283718
O O9 0.873593 0.783936 0.626037
O O10 0.016349 0.319407 0.247784
O O11 0.404818 0.290876 0.260268
O O12 0.689886 0.494326 0.992162
O O13 0.756781 0.120927 0.822208
O O14 0.994124 0.231550 0.749739
#
# Coordination Sequence:
#
# PCOD9013454 Si02
#       7
#     2   2   2   2   2   2   2
#     4  10  25  43  64  95 127 167 207 256 319 372
#     4  10  23  45  64  89 128 169 207 258 309 374
#     4  12  24  40  67  97 123 165 214 258 309 371
#     4  10  21  41  64  96 125 163 208 259 313 369
#     4  11  24  40  62  95 132 162 210 256 311 373
#     4  11  22  39  64  97 125 162 205 260 315 361
#     4  10  21  41  67  92 125 162 214 258 308 369
#
# _framework density 26.909645999999999
#
# number of rings (size 3 to 8) (size 9 to 14) (size 15 to 20)
#    0.000    1.429    2.857    2.571    0.000    8.571 
#    0.000    1.429    0.000    0.000    0.000    0.000 
#    0.000    0.000    0.000    0.000    0.000    0.000 
#
# Total GULP energy -78147.004543 kJ/mol
# GULP energy per Si atom -5581.928896 kJ/mol
# Density = 2.684840 g / cm^3
# Si number density = 26.909646 Si / 1000 Ang^3
#
#
#
# Elastic Constant Matrix: (Units=GPa)
#
#
# Indices 1 2 3 4 5 6 
#
# 1 68.6365 33.8981 17.8799 -10.8231 -13.8820 -3.3252
# 2 33.8981 147.8032 0.6566 -15.5658 -4.0285 -7.9482
# 3 17.8799 0.6566 97.6581 -17.8104 -27.6783 12.0743
# 4 -10.8231 -15.5658 -17.8104 33.8038 -1.0439 -17.0920
# 5 -13.8820 -4.0285 -27.6783 -1.0439 31.2786 -12.7171
# 6 -3.3252 -7.9482 12.0743 -17.0920 -12.7171 40.8347
#
#
#
# Elastic Compliance Matrix: (Units=1/GPa)
#
#
# Indices 1 2 3 4 5 6 
#
# 1 0.020835 -0.002595 0.001199 0.011760 0.014550 0.010290
# 2 -0.002595 0.008453 0.002237 0.006866 0.004154 0.004940
# 3 0.001199 0.002237 0.017494 0.015304 0.020071 0.008017
# 4 0.011760 0.006866 0.015304 0.063785 0.036322 0.035779
# 5 0.014550 0.004154 0.020071 0.036322 0.071578 0.033553
# 6 0.010290 0.004940 0.008017 0.035779 0.033553 0.049343
#
#
# Mechanical properties :
#
#
# Convention : Reuss Voigt Hill
#
# Bulk Modulus (GPa) = 20.63422 46.55189 33.59306
# Shear Modulus (GPa) = 20.32849 38.62763 29.47806
#
# Velocity S-wave (km/s) = 2.75150 3.79285 3.31334
# Velocity P-wave (km/s) = 4.21651 6.04300 5.21041
#
# Compressibility (1/GPa) = 0.04846317
#
# Stress axis : x y z
#
# Youngs Moduli (GPa) = 47.99724 118.30023 57.16387
#
# Poissons Ratio (x) = 0.30702 -0.06854
# Poissons Ratio (y) = 0.12456 -0.12789
# Poissons Ratio (z) = -0.05755 -0.26466
#
# Static dielectric constant tensor:
#      x y z
#    x 2.241360 0.110720 0.133600 
#    y 0.110720 2.196070 0.184300 
#    z 0.133600 0.184300 2.260160 
# 
# From -- ./inp_files/578008.got.cif
#   From: 2010.05.17/outbox.cif.g08.bks.cpg/sg2_290_cif.got.tgz:578008.got - 2010.06.03 11:33:40.
