data_PCOD9013984
_publ_section_title
;
Structure prediction by ZEFSAII (Michael W. Deem and Ramdas Pophale) SiO2 
 PCOD9013984
Probable space group: P -1
;
_chemical_formula_sum "Si O2"
_cell_formula_units_Z 12
_cell_length_a 4.956306
_cell_length_b 20.357772
_cell_length_c 10.767165
_cell_angle_alpha 148.745430
_cell_angle_beta 58.797603
_cell_angle_gamma 122.130017
_cell_volume 472.343107
_symmetry_space_group_name_H-M "P -1"
_symmetry_group_IT_number 2
_symmetry_cell_setting 'triclinic'
loop_
_space_group_symop_operation_xyz
x,y,z
-x,-y,-z
loop_
_atom_site_type_symbol
_atom_site_label
_atom_site_fract_x
_atom_site_fract_y
_atom_site_fract_z
Si Si1 0.060672 0.805107 0.600209
Si Si2 0.725800 0.931020 0.677871
Si Si3 0.780705 0.819550 0.947014
Si Si4 0.258372 0.620897 0.080450
Si Si5 0.247889 0.869142 0.302659
Si Si6 0.307353 0.439351 0.325624
O O1 0.348362 0.928845 0.756423
O O2 0.282810 0.708669 0.340465
O O3 0.810829 0.829292 0.594564
O O4 0.861257 0.768904 0.712714
O O5 0.896191 0.901034 0.459915
O O6 0.943522 0.060011 0.888591
O O7 0.800909 0.711492 0.867666
O O8 0.419498 0.844355 0.093776
O O9 0.217958 0.734137 0.171497
O O10 0.512220 0.552930 0.837365
O O11 0.000000 0.500000 0.000000
O O12 0.500000 0.000000 0.500000
O O13 0.500000 0.500000 0.500000
O O14 0.000000 0.500000 0.500000
#
# Coordination Sequence:
#
# PCOD9013984 Si02
#       6
#     2   2   2   2   2   2
#     4  11  23  40  64  97 130 166 210 264 320 383
#     4  10  22  41  64  96 130 169 213 262 320 383
#     4  10  21  41  66  93 129 171 214 265 321 381
#     4  10  22  42  66  94 128 169 214 264 320 383
#     4   8  18  39  62  91 126 164 208 259 315 373
#     4  11  26  45  65  93 127 169 218 268 320 381
#
# _framework density 25.405260999999999
#
# number of rings (size 3 to 8) (size 9 to 14) (size 15 to 20)
#    0.000    2.000    0.000    2.000    0.000    9.333 
#    0.000   36.667    0.000    0.000    0.000    0.000 
#    0.000    0.000    0.000    0.000    0.000    0.000 
#
# Total GULP energy -66945.283623 kJ/mol
# GULP energy per Si atom -5578.773635 kJ/mol
# Density = 2.534744 g / cm^3
# Si number density = 25.405261 Si / 1000 Ang^3
#
#
#
# Elastic Constant Matrix: (Units=GPa)
#
#
# Indices 1 2 3 4 5 6 
#
# 1 114.4103 31.7117 15.8193 -14.5992 -4.1687 1.6297
# 2 31.7117 204.8759 61.8211 -44.2634 -6.7471 10.4977
# 3 15.8193 61.8211 123.0558 -49.3157 -7.2833 6.5642
# 4 -14.5992 -44.2634 -49.3157 76.9077 8.9674 1.5424
# 5 -4.1687 -6.7471 -7.2833 8.9674 24.3715 2.2376
# 6 1.6297 10.4977 6.5642 1.5424 2.2376 13.1744
#
#
#
# Elastic Compliance Matrix: (Units=1/GPa)
#
#
# Indices 1 2 3 4 5 6 
#
# 1 0.009232 -0.001130 -0.000190 0.000881 0.000923 -0.000407
# 2 -0.001130 0.006351 -0.001874 0.002260 0.000573 -0.004349
# 3 -0.000190 -0.001874 0.012108 0.006627 0.001132 -0.005484
# 4 0.000881 0.002260 0.006627 0.019290 -0.003713 -0.006839
# 5 0.000923 0.000573 0.001132 -0.003713 0.043800 -0.008139
# 6 -0.000407 -0.004349 -0.005484 -0.006839 -0.008139 0.084336
#
#
# Mechanical properties :
#
#
# Convention : Reuss Voigt Hill
#
# Bulk Modulus (GPa) = 46.94128 73.44958 60.19543
# Shear Modulus (GPa) = 26.51035 45.09007 35.80021
#
# Velocity S-wave (km/s) = 3.23383 4.21745 3.75796
# Velocity P-wave (km/s) = 5.69742 7.25877 6.52497
#
# Compressibility (1/GPa) = 0.02130321
#
# Stress axis : x y z
#
# Youngs Moduli (GPa) = 108.32158 157.44721 82.59170
#
# Poissons Ratio (x) = 0.17794 0.01566
# Poissons Ratio (y) = 0.12242 0.15478
# Poissons Ratio (z) = 0.02054 0.29506
#
# Static dielectric constant tensor:
#      x y z
#    x 2.363730 -0.089000 0.043220 
#    y -0.089000 2.048530 0.051840 
#    z 0.043220 0.051840 2.143550 
# 
# From -- ./inp_files/28947.got.cif
#   From: 2010.05.17/outbox.cif.g08.bks.cpg/sg2_15_cif.got.tgz:28947.got - 2010.06.03 11:33:40.
