data_PCOD9013658
_publ_section_title
;
Structure prediction by ZEFSAII (Michael W. Deem and Ramdas Pophale) SiO2 
 PCOD9013658
Probable space group: P -1
;
_chemical_formula_sum "Si O2"
_cell_formula_units_Z 15
_cell_length_a 6.470085
_cell_length_b 24.003504
_cell_length_c 12.356339
_cell_angle_alpha 27.554224
_cell_angle_beta 49.297612
_cell_angle_gamma 48.746531
_cell_volume 654.673446
_symmetry_space_group_name_H-M "P -1"
_symmetry_group_IT_number 2
_symmetry_cell_setting 'triclinic'
loop_
_space_group_symop_operation_xyz
x,y,z
-x,-y,-z
loop_
_atom_site_type_symbol
_atom_site_label
_atom_site_fract_x
_atom_site_fract_y
_atom_site_fract_z
Si Si1 0.194206 0.096587 0.281879
Si Si2 0.801552 0.267141 0.961919
Si Si3 0.198309 0.239757 0.249445
Si Si4 0.184106 0.892382 0.983356
Si Si5 0.000000 0.500000 0.500000
Si Si6 0.652518 0.634911 0.589899
Si Si7 0.156191 0.508564 0.041663
Si Si8 0.811106 0.152058 0.693587
O O1 0.164493 0.143490 0.334305
O O2 0.528606 0.058536 0.213615
O O3 0.000000 0.000000 0.500000
O O4 0.064949 0.206588 0.052429
O O5 0.769951 0.413022 0.724407
O O6 0.521399 0.237130 0.158968
O O7 0.827561 0.202643 0.946016
O O8 0.045767 0.212805 0.455515
O O9 0.031043 0.374064 0.032608
O O10 0.205593 0.834500 0.195061
O O11 0.915517 0.007461 0.877745
O O12 0.164954 0.416689 0.486441
O O13 0.817683 0.611762 0.686075
O O14 0.476794 0.773040 0.390241
O O15 0.437403 0.547249 0.840048
O O16 0.000000 0.500000 0.000000
#
# Coordination Sequence:
#
# PCOD9013658 Si02
#       8
#     2   2   2   2   1   2   2   2
#     4  11  22  41  69 100 133 174 222 275 334 399
#     4  11  24  43  67  97 135 179 224 275 334 397
#     4  10  22  40  66  97 130 174 223 273 333 399
#     4  10  23  44  67  99 136 176 224 275 333 397
#     4  12  24  42  66  96 134 178 224 274 330 398
#     4  10  23  41  63  93 130 170 218 272 330 391
#     4  10  21  41  65  92 129 171 219 270 325 393
#     4  10  21  43  68  95 136 175 219 278 337 395
#
# _framework density 22.912189000000001
#
# number of rings (size 3 to 8) (size 9 to 14) (size 15 to 20)
#    0.000    1.600    0.000    4.000    0.000    7.467 
#    0.000   28.667    0.000    0.000    0.000    0.000 
#    0.000    0.000    0.000    0.000    0.000    0.000 
#
# Total GULP energy -83607.472460 kJ/mol
# GULP energy per Si atom -5573.831497 kJ/mol
# Density = 2.286004 g / cm^3
# Si number density = 22.912189 Si / 1000 Ang^3
#
#
#
# Elastic Constant Matrix: (Units=GPa)
#
#
# Indices 1 2 3 4 5 6 
#
# 1 81.7210 44.8654 44.7744 -3.1082 2.7270 4.0106
# 2 44.8654 106.2595 34.7951 17.5176 11.6484 -2.3364
# 3 44.7744 34.7951 79.2755 2.0170 8.8463 10.6940
# 4 -3.1082 17.5176 2.0170 23.4722 1.3128 2.6260
# 5 2.7270 11.6484 8.8463 1.3128 50.0154 -12.5141
# 6 4.0106 -2.3364 10.6940 2.6260 -12.5141 25.9466
#
#
#
# Elastic Compliance Matrix: (Units=1/GPa)
#
#
# Indices 1 2 3 4 5 6 
#
# 1 0.022142 -0.008105 -0.009379 0.009708 0.002009 -0.000300
# 2 -0.008105 0.016133 -0.002611 -0.013310 -0.001388 0.004459
# 3 -0.009379 -0.002611 0.020951 0.000297 -0.005070 -0.009895
# 4 0.009708 -0.013310 0.000297 0.054861 -0.001157 -0.008932
# 5 0.002009 -0.001388 -0.005070 -0.001157 0.024539 0.013606
# 6 -0.000300 0.004459 -0.009895 -0.008932 0.013606 0.050533
#
#
# Mechanical properties :
#
#
# Convention : Reuss Voigt Hill
#
# Bulk Modulus (GPa) = 52.53507 57.34733 54.94120
# Shear Modulus (GPa) = 21.21393 29.40823 25.31108
#
# Velocity S-wave (km/s) = 3.04613 3.58651 3.32731
# Velocity P-wave (km/s) = 5.94563 6.49879 6.22835
#
# Compressibility (1/GPa) = 0.01903490
#
# Stress axis : x y z
#
# Youngs Moduli (GPa) = 45.16268 61.98634 47.73138
#
# Poissons Ratio (x) = 0.50240 0.44768
# Poissons Ratio (y) = 0.36605 0.12463
# Poissons Ratio (z) = 0.42359 0.16185
#
# Static dielectric constant tensor:
#      x y z
#    x 1.924430 -0.117240 0.132790 
#    y -0.117240 1.939590 -0.161770 
#    z 0.132790 -0.161770 2.038620 
# 
# From -- ./inp_files/370933.got.cif
#   From: 2010.05.17/outbox.cif.g08.bks.cpg/sg2_186_cif.got.tgz:370933.got - 2010.06.03 11:33:40.
