data_PCOD9013154
_publ_section_title
;
Structure prediction by ZEFSAII (Michael W. Deem and Ramdas Pophale) SiO2 
 PCOD9013154
Probable space group: P -1
;
_chemical_formula_sum "Si O2"
_cell_formula_units_Z 16
_cell_length_a 11.733196
_cell_length_b 7.934681
_cell_length_c 16.401679
_cell_angle_alpha 33.629148
_cell_angle_beta 43.841440
_cell_angle_gamma 56.615955
_cell_volume 580.705776
_symmetry_space_group_name_H-M "P -1"
_symmetry_group_IT_number 2
_symmetry_cell_setting 'triclinic'
loop_
_space_group_symop_operation_xyz
x,y,z
-x,-y,-z
loop_
_atom_site_type_symbol
_atom_site_label
_atom_site_fract_x
_atom_site_fract_y
_atom_site_fract_z
Si Si1 0.989949 0.292490 0.830911
Si Si2 0.327515 0.646510 0.939862
Si Si3 0.175370 0.892179 0.277134
Si Si4 0.514057 0.934825 0.875867
Si Si5 0.382103 0.118857 0.582319
Si Si6 0.202297 0.275720 0.459425
Si Si7 0.711133 0.352798 0.382812
Si Si8 0.207899 0.188968 0.987060
O O1 0.171547 0.487203 0.670174
O O2 0.911131 0.109894 0.865891
O O3 0.844758 0.462466 0.878746
O O4 0.000000 0.000000 0.000000
O O5 0.420758 0.893123 0.856022
O O6 0.310372 0.840049 0.789651
O O7 0.455855 0.397133 0.970359
O O8 0.248281 0.639261 0.284393
O O9 0.989995 0.779526 0.441396
O O10 0.296437 0.920963 0.279185
O O11 0.171614 0.191942 0.100906
O O12 0.399170 0.128358 0.908729
O O13 0.239370 0.222727 0.557559
O O14 0.513533 0.357194 0.469002
O O15 0.500000 0.000000 0.500000
O O16 0.277550 0.012213 0.477583
O O17 0.796511 0.523239 0.187653
#
# Coordination Sequence:
#
# PCOD9013154 Si02
#       8
#     2   2   2   2   2   2   2   2
#     4   9  20  40  61  94 130 160 215 262 311 376
#     4  10  22  41  67  96 127 170 211 265 315 380
#     4  11  23  40  61  92 128 171 210 267 313 375
#     4  10  22  40  65  93 127 165 218 257 318 380
#     4  10  23  39  63  95 128 162 210 266 313 376
#     4  10  24  40  59  90 133 161 215 260 324 374
#     4  10  21  41  63  93 125 166 214 260 321 381
#     4  10  22  37  65  91 124 168 213 266 309 374
#
# _framework density 27.552678
#
# number of rings (size 3 to 8) (size 9 to 14) (size 15 to 20)
#    0.000    2.000    0.000    1.875   10.500    0.500 
#    4.500    6.875    0.000    0.000    0.000    0.000 
#    0.000    0.000    0.000    0.000    0.000    0.000 
#
# Total GULP energy -89383.573607 kJ/mol
# GULP energy per Si atom -5586.473350 kJ/mol
# Density = 2.748997 g / cm^3
# Si number density = 27.552678 Si / 1000 Ang^3
#
#
#
# Elastic Constant Matrix: (Units=GPa)
#
#
# Indices 1 2 3 4 5 6 
#
# 1 172.8321 2.4965 22.9216 6.5727 -35.8106 -10.2349
# 2 2.4965 60.5237 -2.0716 0.7287 -12.0578 -16.5271
# 3 22.9216 -2.0716 96.8073 -10.9867 -2.9371 -0.2931
# 4 6.5727 0.7287 -10.9867 36.6118 -4.7510 -4.4692
# 5 -35.8106 -12.0578 -2.9371 -4.7510 60.9197 2.5707
# 6 -10.2349 -16.5271 -0.2931 -4.4692 2.5707 39.2404
#
#
#
# Elastic Compliance Matrix: (Units=1/GPa)
#
#
# Indices 1 2 3 4 5 6 
#
# 1 0.006974 0.000980 -0.001616 -0.001005 0.004060 0.001839
# 2 0.000980 0.019611 0.000471 0.001144 0.004216 0.008373
# 3 -0.001616 0.000471 0.011136 0.003650 -0.000047 0.000279
# 4 -0.001005 0.001144 0.003650 0.029240 0.001946 0.003450
# 5 0.004060 0.004216 -0.000047 0.001946 0.019711 0.001765
# 6 0.001839 0.008373 0.000279 0.003450 0.001765 0.029770
#
#
# Mechanical properties :
#
#
# Convention : Reuss Voigt Hill
#
# Bulk Modulus (GPa) = 26.74387 41.87290 34.30839
# Shear Modulus (GPa) = 38.68890 47.80880 43.24885
#
# Velocity S-wave (km/s) = 3.75130 4.17007 3.96622
# Velocity P-wave (km/s) = 5.33765 6.19809 5.78389
#
# Compressibility (1/GPa) = 0.03739175
#
# Stress axis : x y z
#
# Youngs Moduli (GPa) = 143.38045 50.99250 89.79758
#
# Poissons Ratio (x) = -0.04999 0.14509
# Poissons Ratio (y) = -0.14055 -0.04227
# Poissons Ratio (z) = 0.23166 -0.02400
#
# Static dielectric constant tensor:
#      x y z
#    x 2.140740 0.053660 -0.062630 
#    y 0.053660 2.272410 -0.048670 
#    z -0.062630 -0.048670 2.187300 
# 
# From -- ./inp_files/333741.got.cif
#   From: 2010.05.17/outbox.cif.g08.bks.cpg/sg2_167_cif.got.tgz:333741.got - 2010.06.03 11:33:40.
