data_PCOD9013659
_publ_section_title
;
Structure prediction by ZEFSAII (Michael W. Deem and Ramdas Pophale) SiO2 
 PCOD9013659
Probable space group: P -1
;
_chemical_formula_sum "Si O2"
_cell_formula_units_Z 16
_cell_length_a 14.701890
_cell_length_b 9.721776
_cell_length_c 8.021677
_cell_angle_alpha 134.930166
_cell_angle_beta 87.148248
_cell_angle_gamma 117.742808
_cell_volume 643.243999
_symmetry_space_group_name_H-M "P -1"
_symmetry_group_IT_number 2
_symmetry_cell_setting 'triclinic'
loop_
_space_group_symop_operation_xyz
x,y,z
-x,-y,-z
loop_
_atom_site_type_symbol
_atom_site_label
_atom_site_fract_x
_atom_site_fract_y
_atom_site_fract_z
Si Si1 0.742488 0.618245 0.472497
Si Si2 0.056807 0.286454 0.257860
Si Si3 0.477475 0.843941 0.089553
Si Si4 0.427555 0.699522 0.351343
Si Si5 0.608182 0.709447 0.779482
Si Si6 0.119306 0.304960 0.777212
Si Si7 0.900787 0.095574 0.406860
Si Si8 0.792315 0.321394 0.678810
O O1 0.819918 0.583993 0.553712
O O2 0.713148 0.778073 0.711202
O O3 0.823641 0.747943 0.417824
O O4 0.630673 0.365830 0.191172
O O5 0.092489 0.453739 0.235557
O O6 0.965448 0.251192 0.368263
O O7 0.000000 0.000000 0.000000
O O8 0.467412 0.744030 0.193727
O O9 0.484855 0.082009 0.339501
O O10 0.583542 0.887304 0.013398
O O11 0.391965 0.444346 0.200398
O O12 0.321950 0.712985 0.385869
O O13 0.500000 0.500000 0.500000
O O14 0.996478 0.214135 0.646014
O O15 0.129580 0.171879 0.819126
O O16 0.188585 0.587991 0.055403
O O17 0.795277 0.097176 0.457645
#
# Coordination Sequence:
#
# PCOD9013659 Si02
#       8
#     2   2   2   2   2   2   2   2
#     4  10  21  41  65  92 129 174 206 265 322 372
#     4  11  22  40  66  92 132 168 211 264 322 378
#     4  10  23  43  67  92 127 168 216 265 326 378
#     4  11  23  42  67  97 127 165 215 274 315 378
#     4  10  22  42  65  93 128 170 214 261 325 381
#     4  10  21  42  63  90 134 165 212 265 308 380
#     4  10  23  40  65  93 124 173 212 256 324 377
#     4  12  22  40  65  94 128 166 214 262 319 379
#
# _framework density 24.873922
#
# number of rings (size 3 to 8) (size 9 to 14) (size 15 to 20)
#    0.000    1.500    3.750    1.125    0.000    4.000 
#    9.000    1.250    2.750    0.000    0.000    0.000 
#    0.000    0.000    0.000    0.000    0.000    0.000 
#
# Total GULP energy -89264.784911 kJ/mol
# GULP energy per Si atom -5579.049057 kJ/mol
# Density = 2.481731 g / cm^3
# Si number density = 24.873922 Si / 1000 Ang^3
#
#
#
# Elastic Constant Matrix: (Units=GPa)
#
#
# Indices 1 2 3 4 5 6 
#
# 1 55.5335 5.2508 13.5356 -7.7626 -18.6744 17.9201
# 2 5.2508 71.7147 6.0778 -26.3421 -9.8711 8.2321
# 3 13.5356 6.0778 111.8185 -7.2802 -10.6807 7.3291
# 4 -7.7626 -26.3421 -7.2802 28.2145 13.8332 -11.0797
# 5 -18.6744 -9.8711 -10.6807 13.8332 34.6387 -4.4301
# 6 17.9201 8.2321 7.3291 -11.0797 -4.4301 29.3569
#
#
#
# Elastic Compliance Matrix: (Units=1/GPa)
#
#
# Indices 1 2 3 4 5 6 
#
# 1 0.027997 -0.000587 -0.001256 -0.007383 0.015302 -0.017089
# 2 -0.000587 0.021477 -0.000069 0.022123 -0.002760 0.002287
# 3 -0.001256 -0.000069 0.009383 0.000748 0.001769 -0.001007
# 4 -0.007383 0.022123 0.000748 0.075274 -0.024588 0.022815
# 5 0.015302 -0.002760 0.001769 -0.024588 0.045231 -0.011462
# 6 -0.017089 0.002287 -0.001007 0.022815 -0.011462 0.050986
#
#
# Mechanical properties :
#
#
# Convention : Reuss Voigt Hill
#
# Bulk Modulus (GPa) = 18.17174 32.08835 25.13004
# Shear Modulus (GPa) = 19.80064 32.72219 26.26141
#
# Velocity S-wave (km/s) = 2.82448 3.63095 3.25280
# Velocity P-wave (km/s) = 4.23772 5.52329 4.92266
#
# Compressibility (1/GPa) = 0.05503051
#
# Stress axis : x y z
#
# Youngs Moduli (GPa) = 35.71836 46.56155 106.58118
#
# Poissons Ratio (x) = 0.02735 0.13388
# Poissons Ratio (y) = 0.02098 0.00740
# Poissons Ratio (z) = 0.04487 0.00323
#
# Static dielectric constant tensor:
#      x y z
#    x 1.556530 0.350970 0.008540 
#    y 0.350970 1.849110 -0.008230 
#    z 0.008540 -0.008230 2.050860 
# 
# From -- ./inp_files/90178.got.cif
#   From: 2010.05.17/outbox.cif.g08.bks.cpg/sg2_46_cif.got.tgz:90178.got - 2010.06.03 11:33:40.
