data_PCOD9013929
_publ_section_title
;
Structure prediction by ZEFSAII (Michael W. Deem and Ramdas Pophale) SiO2 
 PCOD9013929
Probable space group: P -1
;
_chemical_formula_sum "Si O2"
_cell_formula_units_Z 12
_cell_length_a 5.191903
_cell_length_b 8.077698
_cell_length_c 13.056916
_cell_angle_alpha 80.042663
_cell_angle_beta 98.458999
_cell_angle_gamma 60.214822
_cell_volume 450.366933
_symmetry_space_group_name_H-M "P -1"
_symmetry_group_IT_number 2
_symmetry_cell_setting 'triclinic'
loop_
_space_group_symop_operation_xyz
x,y,z
-x,-y,-z
loop_
_atom_site_type_symbol
_atom_site_label
_atom_site_fract_x
_atom_site_fract_y
_atom_site_fract_z
Si Si1 0.352995 0.708880 0.128584
Si Si2 0.656240 0.853809 0.272490
Si Si3 0.097134 0.662663 0.482876
Si Si4 0.667087 0.077988 0.074683
Si Si5 0.185769 0.120072 0.366604
Si Si6 0.503739 0.636326 0.690511
O O1 0.617831 0.711976 0.208644
O O2 0.334582 0.534148 0.196785
O O3 0.032662 0.915757 0.111832
O O4 0.397701 0.724918 0.008129
O O5 0.992289 0.748081 0.353536
O O6 0.560817 0.052058 0.181893
O O7 0.412936 0.917511 0.343573
O O8 0.862064 0.863795 0.515651
O O9 0.000000 0.500000 0.500000
O O10 0.403715 0.588044 0.578168
O O11 0.500000 0.000000 0.000000
O O12 0.304944 0.265750 0.334800
O O13 0.837813 0.215565 0.298942
#
# Coordination Sequence:
#
# PCOD9013929 Si02
#       6
#     2   2   2   2   2   2
#     4  10  21  41  66  91 123 166 220 262 308 379
#     4  11  21  41  65  92 129 168 208 264 313 379
#     4  10  22  40  62  98 125 170 212 254 313 377
#     4   9  22  37  66  92 120 163 220 261 317 367
#     4  10  25  41  60 100 131 168 206 258 323 371
#     4  10  24  42  65  91 134 165 211 258 314 376
#
# _framework density 26.644939000000001
#
# number of rings (size 3 to 8) (size 9 to 14) (size 15 to 20)
#    1.000    1.000    1.667    0.500    9.333    2.667 
#    0.000    1.667    0.000    0.000    0.000    0.000 
#    0.000    0.000    0.000    0.000    0.000    0.000 
#
# Total GULP energy -67039.558507 kJ/mol
# GULP energy per Si atom -5586.629876 kJ/mol
# Density = 2.658429 g / cm^3
# Si number density = 26.644939 Si / 1000 Ang^3
#
#
#
# Elastic Constant Matrix: (Units=GPa)
#
#
# Indices 1 2 3 4 5 6 
#
# 1 123.5930 21.8552 20.0792 -7.0131 27.7743 17.9053
# 2 21.8552 59.0415 22.6747 -15.8815 9.6154 13.3430
# 3 20.0792 22.6747 123.1139 -33.7137 20.0133 3.2552
# 4 -7.0131 -15.8815 -33.7137 36.0206 4.4058 -6.2406
# 5 27.7743 9.6154 20.0133 4.4058 27.2024 -5.7200
# 6 17.9053 13.3430 3.2552 -6.2406 -5.7200 54.5821
#
#
#
# Elastic Compliance Matrix: (Units=1/GPa)
#
#
# Indices 1 2 3 4 5 6 
#
# 1 0.012538 -0.000122 0.002371 0.005710 -0.016543 -0.005305
# 2 -0.000122 0.022831 0.000997 0.011450 -0.011693 -0.005517
# 3 0.002371 0.000997 0.014853 0.016546 -0.016753 -0.001771
# 4 0.005710 0.011450 0.016546 0.052722 -0.031200 -0.002901
# 5 -0.016543 -0.011693 -0.016753 -0.031200 0.078087 0.013900
# 6 -0.005305 -0.005517 -0.001771 -0.002901 0.013900 0.022641
#
#
# Mechanical properties :
#
#
# Convention : Reuss Voigt Hill
#
# Bulk Modulus (GPa) = 17.63257 48.32965 32.98111
# Shear Modulus (GPa) = 23.13914 39.63698 31.38806
#
# Velocity S-wave (km/s) = 2.95010 3.86112 3.43594
# Velocity P-wave (km/s) = 4.27038 6.16891 5.30526
#
# Compressibility (1/GPa) = 0.05671323
#
# Stress axis : x y z
#
# Youngs Moduli (GPa) = 79.75950 43.80084 67.32491
#
# Poissons Ratio (x) = 0.00537 -0.15962
# Poissons Ratio (y) = 0.00977 -0.06715
# Poissons Ratio (z) = -0.18910 -0.04369
#
# Static dielectric constant tensor:
#      x y z
#    x 2.196430 -0.088360 -0.091600 
#    y -0.088360 2.211090 0.040560 
#    z -0.091600 0.040560 2.131010 
# 
# From -- ./inp_files/36932.got.cif
#   From: 2010.05.17/outbox.cif.g08.bks.cpg/sg2_19_cif.got.tgz:36932.got - 2010.06.03 11:33:40.
