data_PCOD9013365
_publ_section_title
;
Structure prediction by ZEFSAII (Michael W. Deem and Ramdas Pophale) SiO2 
 PCOD9013365
Probable space group: P -1
;
_chemical_formula_sum "Si O2"
_cell_formula_units_Z 15
_cell_length_a 20.806094
_cell_length_b 9.386794
_cell_length_c 8.570192
_cell_angle_alpha 135.708243
_cell_angle_beta 50.627306
_cell_angle_gamma 139.065134
_cell_volume 749.611803
_symmetry_space_group_name_H-M "P -1"
_symmetry_group_IT_number 2
_symmetry_cell_setting 'triclinic'
loop_
_space_group_symop_operation_xyz
x,y,z
-x,-y,-z
loop_
_atom_site_type_symbol
_atom_site_label
_atom_site_fract_x
_atom_site_fract_y
_atom_site_fract_z
Si Si1 0.435399 0.726360 0.816383
Si Si2 0.513947 0.592035 0.301991
Si Si3 0.655125 0.835515 0.993293
Si Si4 0.827732 0.787796 0.593815
Si Si5 0.988953 0.879461 0.638212
Si Si6 0.745409 0.367568 0.141423
Si Si7 0.024623 0.407727 0.047696
Si Si8 0.000000 0.500000 0.500000
O O1 0.477578 0.716070 0.574082
O O2 0.447816 0.547080 0.765429
O O3 0.319752 0.629842 0.896555
O O4 0.500000 0.000000 0.000000
O O5 0.422162 0.384431 0.175814
O O6 0.601522 0.779170 0.197666
O O7 0.756452 0.842423 0.839567
O O8 0.681122 0.092754 0.090427
O O9 0.763483 0.564043 0.398114
O O10 0.890140 0.727294 0.564501
O O11 0.911118 0.017540 0.540526
O O12 0.992257 0.739740 0.672653
O O13 0.992704 0.128184 0.860443
O O14 0.855347 0.435734 0.984407
O O15 0.978293 0.442339 0.300436
O O16 0.000000 0.500000 0.000000
#
# Coordination Sequence:
#
# PCOD9013365 Si02
#       8
#     2   2   2   2   2   2   2   1
#     4  11  22  43  60  86 127 165 209 260 322 382
#     4  10  24  39  61  90 123 161 207 270 317 373
#     4  11  21  39  63  93 119 160 213 263 320 380
#     4  10  21  41  64  92 129 170 215 261 325 391
#     4  10  22  40  65  94 132 173 213 271 320 392
#     4  11  22  38  66  91 122 174 209 254 325 391
#     4  11  24  44  66  98 134 173 222 269 329 392
#     4  12  22  40  66  94 132 172 214 270 332 382
#
# _framework density 20.010358
#
# number of rings (size 3 to 8) (size 9 to 14) (size 15 to 20)
#    0.000    1.333    2.667    4.400    0.000    2.667 
#    0.000    8.000    0.000    0.000    0.000    0.000 
#    0.000    0.000    0.000    0.000    0.000    0.000 
#
# Total GULP energy -83552.120814 kJ/mol
# GULP energy per Si atom -5570.141388 kJ/mol
# Density = 1.996481 g / cm^3
# Si number density = 20.010358 Si / 1000 Ang^3
#
#
#
# Elastic Constant Matrix: (Units=GPa)
#
#
# Indices 1 2 3 4 5 6 
#
# 1 135.5889 32.6939 23.1930 -3.2543 -7.4606 -4.2647
# 2 32.6939 39.9201 5.2868 7.2151 -2.7016 -4.7118
# 3 23.1930 5.2868 69.2918 6.6978 7.8585 -1.7607
# 4 -3.2543 7.2151 6.6978 28.8754 -1.0029 -2.5520
# 5 -7.4606 -2.7016 7.8585 -1.0029 34.9531 0.4967
# 6 -4.2647 -4.7118 -1.7607 -2.5520 0.4967 38.2361
#
#
#
# Elastic Compliance Matrix: (Units=1/GPa)
#
#
# Indices 1 2 3 4 5 6 
#
# 1 0.010260 -0.008516 -0.003460 0.004187 0.002427 0.000184
# 2 -0.008516 0.033902 0.001222 -0.009472 0.000219 0.002649
# 3 -0.003460 0.001222 0.016461 -0.004645 -0.004482 0.000271
# 4 0.004187 -0.009472 -0.004645 0.038773 0.002295 0.001644
# 5 0.002427 0.000219 -0.004482 0.002295 0.030220 -0.000148
# 6 0.000184 0.002649 0.000271 0.001644 -0.000148 0.026624
#
#
# Mechanical properties :
#
#
# Convention : Reuss Voigt Hill
#
# Bulk Modulus (GPa) = 25.56527 40.79424 33.17976
# Shear Modulus (GPa) = 26.20735 32.65474 29.43104
#
# Velocity S-wave (km/s) = 3.62289 4.04405 3.83925
# Velocity P-wave (km/s) = 5.50492 6.49897 6.02249
#
# Compressibility (1/GPa) = 0.03911556
#
# Stress axis : x y z
#
# Youngs Moduli (GPa) = 97.46385 29.49691 60.75043
#
# Poissons Ratio (x) = 0.25118 0.21019
# Poissons Ratio (y) = 0.82996 -0.07423
# Poissons Ratio (z) = 0.33721 -0.03604
#
# Static dielectric constant tensor:
#      x y z
#    x 1.690880 0.007390 -0.032720 
#    y 0.007390 1.708300 0.012030 
#    z -0.032720 0.012030 1.740250 
# 
# From -- ./inp_files/327993.got.cif
#   From: 2010.05.17/outbox.cif.g08.bks.cpg/sg2_164_cif.got.tgz:327993.got - 2010.06.03 11:33:40.
