data_PCOD9013066
_publ_section_title
;
Structure prediction by ZEFSAII (Michael W. Deem and Ramdas Pophale) SiO2 
 PCOD9013066
Probable space group: P -1
;
_chemical_formula_sum "Si O2"
_cell_formula_units_Z 16
_cell_length_a 9.126024
_cell_length_b 8.278133
_cell_length_c 15.941491
_cell_angle_alpha 49.116534
_cell_angle_beta 77.775487
_cell_angle_gamma 106.516642
_cell_volume 729.725411
_symmetry_space_group_name_H-M "P -1"
_symmetry_group_IT_number 2
_symmetry_cell_setting 'triclinic'
loop_
_space_group_symop_operation_xyz
x,y,z
-x,-y,-z
loop_
_atom_site_type_symbol
_atom_site_label
_atom_site_fract_x
_atom_site_fract_y
_atom_site_fract_z
Si Si1 0.809969 0.933807 0.699250
Si Si2 0.039412 0.918830 0.193920
Si Si3 0.161557 0.991619 0.571573
Si Si4 0.734454 0.967694 0.136138
Si Si5 0.426326 0.195734 0.612125
Si Si6 0.281283 0.804324 0.093398
Si Si7 0.399250 0.473013 0.260717
Si Si8 0.207306 0.681273 0.531411
O O1 0.623453 0.692327 0.763057
O O2 0.971757 0.957907 0.617244
O O3 0.843460 0.906281 0.800615
O O4 0.828677 0.199408 0.585602
O O5 0.173890 0.898807 0.123771
O O6 0.915093 0.990635 0.136752
O O7 0.898863 0.627564 0.347410
O O8 0.158512 0.779725 0.586071
O O9 0.237814 0.015454 0.646892
O O10 0.309607 0.267786 0.416517
O O11 0.610138 0.908660 0.253123
O O12 0.602409 0.709394 0.182267
O O13 0.776236 0.208698 0.992026
O O14 0.500000 0.500000 0.500000
O O15 0.578208 0.190745 0.544394
O O16 0.270724 0.572304 0.222030
O O17 0.500000 0.000000 0.000000
#
# Coordination Sequence:
#
# PCOD9013066 Si02
#       8
#     2   2   2   2   2   2   2   2
#     4  11  23  37  63  98 128 160 205 263 310 368
#     4  12  22  41  65  93 122 164 212 255 310 370
#     4  11  20  39  60  96 131 163 200 259 314 369
#     4  11  23  41  65  87 127 168 208 253 304 368
#     4  12  21  38  63  94 132 162 208 254 310 371
#     4  10  24  42  67  87 121 168 214 254 308 368
#     4  10  21  41  63  87 128 164 200 255 307 362
#     4  11  23  35  64  96 130 165 199 253 321 374
#
# _framework density 21.926055999999999
#
# number of rings (size 3 to 8) (size 9 to 14) (size 15 to 20)
#    0.000    1.000    3.750    4.125    3.500    1.000 
#    0.000    3.125    2.750    0.000    0.000    0.000 
#    0.000    0.000    0.000    0.000    0.000    0.000 
#
# Total GULP energy -89353.386005 kJ/mol
# GULP energy per Si atom -5584.586625 kJ/mol
# Density = 2.187615 g / cm^3
# Si number density = 21.926056 Si / 1000 Ang^3
#
#
#
# Elastic Constant Matrix: (Units=GPa)
#
#
# Indices 1 2 3 4 5 6 
#
# 1 83.4678 -0.5828 11.9493 5.5041 14.0144 7.4208
# 2 -0.5828 42.1271 23.2766 7.6939 23.4476 20.9711
# 3 11.9493 23.2766 21.8621 28.3804 -3.7811 7.8951
# 4 5.5041 7.6939 28.3804 22.3934 11.7034 0.7412
# 5 14.0144 23.4476 -3.7811 11.7034 32.0844 9.8981
# 6 7.4208 20.9711 7.8951 0.7412 9.8981 36.9715
#
#
#
# Elastic Compliance Matrix: (Units=1/GPa)
#
#
# Indices 1 2 3 4 5 6 
#
# 1 0.012411 0.001613 0.005433 -0.009756 -0.001147 -0.004064
# 2 0.001613 0.029759 0.020205 -0.035055 -0.000941 -0.020564
# 3 0.005433 0.020205 -0.014952 0.024983 -0.027221 -0.002571
# 4 -0.009756 -0.035055 0.024983 0.014224 0.024669 0.009618
# 5 -0.001147 -0.000941 -0.027221 0.024669 0.019919 0.000749
# 6 -0.004064 -0.020564 -0.002571 0.009618 0.000749 0.039683
#
#
# Mechanical properties :
#
#
# Convention : Reuss Voigt Hill
#
# Bulk Modulus (GPa) = 12.23690 24.08257 18.15974
# Shear Modulus (GPa) = 67.76570 25.81078 46.78824
#
# Velocity S-wave (km/s) = 5.56539 3.43472 4.62444
# Velocity P-wave (km/s) = 6.84771 5.17079 6.06747
#
# Compressibility (1/GPa) = 0.08172004
#
# Stress axis : x y z
#
# Youngs Moduli (GPa) = 80.57092 33.60346 -66.88153
#
# Poissons Ratio (x) = -0.05421 0.36338
# Poissons Ratio (y) = -0.12997 1.35131
# Poissons Ratio (z) = -0.43775 -0.67894
#
# Static dielectric constant tensor:
#      x y z
#    x 1.794270 0.005890 0.041850 
#    y 0.005890 1.840220 -0.026860 
#    z 0.041850 -0.026860 1.837850 
# 
# From -- ./inp_files/181789.got.cif
#   From: 2010.05.17/outbox.cif.g08.bks.cpg/sg2_91_cif.got.tgz:181789.got - 2010.06.03 11:33:40.
