data_PCOD9013198
_publ_section_title
;
Structure prediction by ZEFSAII (Michael W. Deem and Ramdas Pophale) SiO2 
 PCOD9013198
Probable space group: P -1
;
_chemical_formula_sum "Si O2"
_cell_formula_units_Z 14
_cell_length_a 11.303973
_cell_length_b 13.986870
_cell_length_c 8.227535
_cell_angle_alpha 115.365400
_cell_angle_beta 65.965427
_cell_angle_gamma 149.438232
_cell_volume 595.572446
_symmetry_space_group_name_H-M "P -1"
_symmetry_group_IT_number 2
_symmetry_cell_setting 'triclinic'
loop_
_space_group_symop_operation_xyz
x,y,z
-x,-y,-z
loop_
_atom_site_type_symbol
_atom_site_label
_atom_site_fract_x
_atom_site_fract_y
_atom_site_fract_z
Si Si1 0.656643 0.269351 0.661276
Si Si2 0.122402 0.591583 0.826139
Si Si3 0.678928 0.111750 0.253898
Si Si4 0.860779 0.813913 0.533998
Si Si5 0.984245 0.843488 0.856089
Si Si6 0.595486 0.721364 0.053139
Si Si7 0.347235 0.530242 0.722133
O O1 0.639250 0.182639 0.451707
O O2 0.522917 0.291635 0.745671
O O3 0.920292 0.462087 0.710402
O O4 0.525013 0.110691 0.759415
O O5 0.284373 0.804280 0.874579
O O6 0.260812 0.577359 0.720472
O O7 0.000000 0.500000 0.000000
O O8 0.915869 0.206051 0.222648
O O9 0.959994 0.854481 0.686648
O O10 0.594574 0.668711 0.605379
O O11 0.838929 0.689757 0.357329
O O12 0.000000 0.000000 0.500000
O O13 0.739451 0.709322 0.980510
O O14 0.190354 0.057800 0.966726
O O15 0.405246 0.585780 0.919451
#
# Coordination Sequence:
#
# PCOD9013198 Si02
#       7
#     2   2   2   2   2   2   2
#     4  10  21  41  63  95 128 173 226 268 332 397
#     4  12  24  41  64  96 136 174 218 275 327 391
#     4  10  23  41  67  93 130 180 223 271 329 399
#     4  10  22  42  69  95 127 175 217 272 340 398
#     4   9  19  40  64  92 131 169 221 274 326 403
#     4   9  18  39  62  90 132 163 214 281 323 388
#     4  10  22  41  62  95 135 163 222 276 323 400
#
# _framework density 23.506793999999999
#
# number of rings (size 3 to 8) (size 9 to 14) (size 15 to 20)
#    0.000    2.000    1.429    1.286    0.000    5.143 
#   12.857    7.143    0.000    0.000    0.000    0.000 
#    0.000    0.000    0.000    0.000    0.000    0.000 
#
# Total GULP energy -78234.983443 kJ/mol
# GULP energy per Si atom -5588.213103 kJ/mol
# Density = 2.345329 g / cm^3
# Si number density = 23.506794 Si / 1000 Ang^3
#
#
#
# Elastic Constant Matrix: (Units=GPa)
#
#
# Indices 1 2 3 4 5 6 
#
# 1 128.9313 42.6144 37.1478 0.4434 -31.7350 -12.5428
# 2 42.6144 112.5425 20.1536 7.4766 10.6981 -24.2925
# 3 37.1478 20.1536 82.8358 12.8981 -19.1775 -3.7026
# 4 0.4434 7.4766 12.8981 32.1111 3.6775 8.1988
# 5 -31.7350 10.6981 -19.1775 3.6775 34.5486 -8.8629
# 6 -12.5428 -24.2925 -3.7026 8.1988 -8.8629 36.2888
#
#
#
# Elastic Compliance Matrix: (Units=1/GPa)
#
#
# Indices 1 2 3 4 5 6 
#
# 1 0.014264 -0.005456 -0.000859 -0.001804 0.015914 0.005484
# 2 -0.005456 0.013514 -0.002245 -0.002528 -0.008800 0.005353
# 3 -0.000859 -0.002245 0.017346 -0.009023 0.011747 0.004878
# 4 -0.001804 -0.002528 -0.009023 0.041121 -0.014375 -0.016038
# 5 0.015914 -0.008800 0.011747 -0.014375 0.059080 0.018485
# 6 0.005484 0.005353 0.004878 -0.016038 0.018485 0.041672
#
#
# Mechanical properties :
#
#
# Convention : Reuss Voigt Hill
#
# Bulk Modulus (GPa) = 35.71107 58.23791 46.97449
# Shear Modulus (GPa) = 23.42456 35.54931 29.48693
#
# Velocity S-wave (km/s) = 3.16017 3.89305 3.54559
# Velocity P-wave (km/s) = 5.34231 6.71092 6.06534
#
# Compressibility (1/GPa) = 0.02800252
#
# Stress axis : x y z
#
# Youngs Moduli (GPa) = 70.10839 73.99921 57.65008
#
# Poissons Ratio (x) = 0.40376 0.04950
# Poissons Ratio (y) = 0.38253 0.12945
# Poissons Ratio (z) = 0.06020 0.16616
#
# Static dielectric constant tensor:
#      x y z
#    x 1.901640 -0.018010 -0.050020 
#    y -0.018010 1.893730 -0.000480 
#    z -0.050020 -0.000480 1.963550 
# 
# From -- ./inp_files/270846.got.cif
#   From: 2010.05.17/outbox.cif.g08.bks.cpg/sg2_136_cif.got.tgz:270846.got - 2010.06.03 11:33:40.
