data_PCOD9013793
_publ_section_title
;
Structure prediction by ZEFSAII (Michael W. Deem and Ramdas Pophale) SiO2 
 PCOD9013793
Probable space group: P -1
;
_chemical_formula_sum "Si O2"
_cell_formula_units_Z 14
_cell_length_a 8.943426
_cell_length_b 9.803026
_cell_length_c 11.426665
_cell_angle_alpha 65.758674
_cell_angle_beta 128.194325
_cell_angle_gamma 133.884233
_cell_volume 567.178934
_symmetry_space_group_name_H-M "P -1"
_symmetry_group_IT_number 2
_symmetry_cell_setting 'triclinic'
loop_
_space_group_symop_operation_xyz
x,y,z
-x,-y,-z
loop_
_atom_site_type_symbol
_atom_site_label
_atom_site_fract_x
_atom_site_fract_y
_atom_site_fract_z
Si Si1 0.288168 0.942950 0.004103
Si Si2 0.959955 0.370777 0.167409
Si Si3 0.447136 0.649494 0.411193
Si Si4 0.317373 0.945724 0.667325
Si Si5 0.578727 0.244688 0.384900
Si Si6 0.730879 0.517757 0.144437
Si Si7 0.974679 0.054648 0.837666
O O1 0.424830 0.990362 0.176544
O O2 0.084581 0.726247 0.945098
O O3 0.500000 0.000000 0.000000
O O4 0.182180 0.052778 0.880485
O O5 0.790509 0.424745 0.106898
O O6 0.230980 0.552530 0.249364
O O7 0.889395 0.212774 0.289690
O O8 0.500000 0.500000 0.500000
O O9 0.657054 0.864484 0.398616
O O10 0.356627 0.670081 0.484779
O O11 0.311413 0.860063 0.569324
O O12 0.673792 0.404921 0.276497
O O13 0.287831 0.102455 0.284800
O O14 0.947520 0.737044 0.192219
O O15 0.500000 0.500000 0.000000
O O16 0.000000 0.000000 0.000000
#
# Coordination Sequence:
#
# PCOD9013793 Si02
#       7
#     2   2   2   2   2   2   2
#     4  10  21  41  65  97 130 165 208 267 334 379
#     4  10  24  42  65  93 130 171 207 263 334 373
#     4  12  27  42  60  93 127 173 223 259 311 386
#     4  10  22  43  64  89 126 165 214 268 316 380
#     4  11  24  41  64  94 127 169 217 260 315 389
#     4  11  22  40  68  99 129 160 214 269 322 390
#     4  12  21  39  67  96 128 164 212 266 325 376
#
# _framework density 24.683568999999999
#
# number of rings (size 3 to 8) (size 9 to 14) (size 15 to 20)
#    0.000    1.143    2.857    3.857    0.000    8.000 
#    0.000    0.000    0.000    0.000    0.000    0.000 
#    0.000    0.000    0.000    0.000    0.000    0.000 
#
# Total GULP energy -78383.846839 kJ/mol
# GULP energy per Si atom -5598.846203 kJ/mol
# Density = 2.462739 g / cm^3
# Si number density = 24.683569 Si / 1000 Ang^3
#
#
#
# Elastic Constant Matrix: (Units=GPa)
#
#
# Indices 1 2 3 4 5 6 
#
# 1 42.1795 17.4800 -10.1799 -18.2635 -2.4401 -7.8751
# 2 17.4800 158.6977 21.1032 -19.9349 -4.1759 -10.0422
# 3 -10.1799 21.1032 56.4667 -3.4785 -11.2022 -5.0306
# 4 -18.2635 -19.9349 -3.4785 51.7285 -9.3790 -3.0289
# 5 -2.4401 -4.1759 -11.2022 -9.3790 34.3688 -0.4282
# 6 -7.8751 -10.0422 -5.0306 -3.0289 -0.4282 45.2296
#
#
#
# Elastic Compliance Matrix: (Units=1/GPa)
#
#
# Indices 1 2 3 4 5 6 
#
# 1 0.035949 -0.002840 0.011116 0.014608 0.009916 0.007937
# 2 -0.002840 0.007289 -0.003017 0.001688 0.000172 0.000903
# 3 0.011116 -0.003017 0.023596 0.006405 0.009916 0.004413
# 4 0.014608 0.001688 0.006405 0.027895 0.011012 0.005603
# 5 0.009916 0.000172 0.009916 0.011012 0.036108 0.003947
# 6 0.007937 0.000903 0.004413 0.005603 0.003947 0.024595
#
#
# Mechanical properties :
#
#
# Convention : Reuss Voigt Hill
#
# Bulk Modulus (GPa) = 12.92787 34.90561 23.91674
# Shear Modulus (GPa) = 29.29160 41.52808 35.40984
#
# Velocity S-wave (km/s) = 3.44857 4.10618 3.79166
# Velocity P-wave (km/s) = 4.59408 6.05416 5.37394
#
# Compressibility (1/GPa) = 0.07735226
#
# Stress axis : x y z
#
# Youngs Moduli (GPa) = 27.81752 137.19337 42.37952
#
# Poissons Ratio (x) = 0.38958 -0.47110
# Poissons Ratio (y) = 0.07899 0.12788
# Poissons Ratio (z) = -0.30923 0.41397
#
# Static dielectric constant tensor:
#      x y z
#    x 2.067660 -0.061370 -0.002190 
#    y -0.061370 2.044150 0.010390 
#    z -0.002190 0.010390 1.971130 
# 
# From -- ./inp_files/185617.got.cif
#   From: 2010.05.17/outbox.cif.g08.bks.cpg/sg2_93_cif.got.tgz:185617.got - 2010.06.03 11:33:40.
