data_PCOD9013490
_publ_section_title
;
Structure prediction by ZEFSAII (Michael W. Deem and Ramdas Pophale) SiO2 
 PCOD9013490
Probable space group: P -1
;
_chemical_formula_sum "Si O2"
_cell_formula_units_Z 13
_cell_length_a 8.671154
_cell_length_b 13.060875
_cell_length_c 10.575219
_cell_angle_alpha 145.851172
_cell_angle_beta 101.236217
_cell_angle_gamma 100.457393
_cell_volume 516.053615
_symmetry_space_group_name_H-M "P -1"
_symmetry_group_IT_number 2
_symmetry_cell_setting 'triclinic'
loop_
_space_group_symop_operation_xyz
x,y,z
-x,-y,-z
loop_
_atom_site_type_symbol
_atom_site_label
_atom_site_fract_x
_atom_site_fract_y
_atom_site_fract_z
Si Si1 0.614595 0.599603 0.408122
Si Si2 0.848306 0.668672 0.258806
Si Si3 0.447103 0.011829 0.204086
Si Si4 0.188752 0.796974 0.698976
Si Si5 0.186705 0.211005 0.892459
Si Si6 0.000000 0.000000 0.000000
Si Si7 0.899727 0.341392 0.048754
O O1 0.714648 0.615282 0.306447
O O2 0.566764 0.780353 0.581476
O O3 0.400871 0.348661 0.137143
O O4 0.791107 0.722097 0.665245
O O5 0.752595 0.666442 0.110913
O O6 0.891374 0.484399 0.083127
O O7 0.053082 0.934636 0.571164
O O8 0.670896 0.121479 0.317840
O O9 0.318450 0.847503 0.895660
O O10 0.328500 0.862286 0.155219
O O11 0.010950 0.528322 0.370683
O O12 0.111928 0.943803 0.863401
O O13 0.027919 0.248879 0.957573
#
# Coordination Sequence:
#
# PCOD9013490 Si02
#       7
#     2   2   2   2   2   1   2
#     4  11  21  45  68  99 138 179 224 285 341 405
#     4  11  25  45  67 102 140 179 238 282 330 410
#     4  10  22  39  69  96 136 180 220 275 352 406
#     4  10  21  41  64  98 135 179 221 274 346 410
#     4  11  25  45  71  96 141 187 224 287 345 390
#     4  10  22  42  68 102 136 166 234 280 328 422
#     4  12  22  43  69 101 135 181 228 284 335 412
#
# _framework density 25.191182999999999
#
# number of rings (size 3 to 8) (size 9 to 14) (size 15 to 20)
#    0.000    1.231    4.615    1.385    0.000    1.231 
#    0.000    2.308    0.000    0.000    0.000    0.000 
#    0.000    0.000    0.000    0.000    0.000    0.000 
#
# Total GULP energy -72455.549060 kJ/mol
# GULP energy per Si atom -5573.503774 kJ/mol
# Density = 2.513385 g / cm^3
# Si number density = 25.191183 Si / 1000 Ang^3
#
#
#
# Elastic Constant Matrix: (Units=GPa)
#
#
# Indices 1 2 3 4 5 6 
#
# 1 93.3951 29.6285 0.7449 12.7560 2.8247 30.0481
# 2 29.6285 48.7403 4.6961 19.2857 4.8080 13.6666
# 3 0.7449 4.6961 73.1038 27.0996 23.5399 4.4411
# 4 12.7560 19.2857 27.0996 42.7285 6.6599 3.0901
# 5 2.8247 4.8080 23.5399 6.6599 49.7672 -2.4790
# 6 30.0481 13.6666 4.4411 3.0901 -2.4790 39.8706
#
#
#
# Elastic Compliance Matrix: (Units=1/GPa)
#
#
# Indices 1 2 3 4 5 6 
#
# 1 0.016372 -0.006049 0.002360 -0.002647 -0.001626 -0.010424
# 2 -0.006049 0.031439 0.004854 -0.014520 -0.003338 -0.005840
# 3 0.002360 0.004854 0.022330 -0.015208 -0.009396 -0.005335
# 4 -0.002647 -0.014520 -0.015208 0.039383 0.003767 0.005848
# 5 -0.001626 -0.003338 -0.009396 0.003767 0.024680 0.004659
# 6 -0.010424 -0.005840 -0.005335 0.005848 0.004659 0.035370
#
#
# Mechanical properties :
#
#
# Convention : Reuss Voigt Hill
#
# Bulk Modulus (GPa) = 13.79868 31.70869 22.75369
# Shear Modulus (GPa) = 26.12326 38.48457 32.30391
#
# Velocity S-wave (km/s) = 3.22374 3.91282 3.58488
# Velocity P-wave (km/s) = 4.39843 5.74701 5.11734
#
# Compressibility (1/GPa) = 0.07247069
#
# Stress axis : x y z
#
# Youngs Moduli (GPa) = 61.08116 31.80800 44.78185
#
# Poissons Ratio (x) = 0.19241 -0.10567
# Poissons Ratio (y) = 0.36948 -0.21739
# Poissons Ratio (z) = -0.14413 -0.15441
#
# Static dielectric constant tensor:
#      x y z
#    x 1.999450 -0.057550 0.029770 
#    y -0.057550 2.045700 0.004450 
#    z 0.029770 0.004450 1.945050 
# 
# From -- ./inp_files/24323.got.cif
#   From: 2010.05.17/outbox.cif.g08.bks.cpg/sg2_13_cif.got.tgz:24323.got - 2010.06.03 11:33:40.
