data_PCOD9013842
_publ_section_title
;
Structure prediction by ZEFSAII (Michael W. Deem and Ramdas Pophale) SiO2 
 PCOD9013842
Probable space group: P -1
;
_chemical_formula_sum "Si O2"
_cell_formula_units_Z 12
_cell_length_a 8.199811
_cell_length_b 14.758783
_cell_length_c 17.862173
_cell_angle_alpha 22.665990
_cell_angle_beta 140.102571
_cell_angle_gamma 143.961460
_cell_volume 487.975978
_symmetry_space_group_name_H-M "P -1"
_symmetry_group_IT_number 2
_symmetry_cell_setting 'triclinic'
loop_
_space_group_symop_operation_xyz
x,y,z
-x,-y,-z
loop_
_atom_site_type_symbol
_atom_site_label
_atom_site_fract_x
_atom_site_fract_y
_atom_site_fract_z
Si Si1 0.567005 0.369050 0.527062
Si Si2 0.900216 0.422626 0.940626
Si Si3 0.543769 0.346081 0.368425
Si Si4 0.972392 0.220250 0.872099
Si Si5 0.938962 0.150416 0.433996
Si Si6 0.781781 0.975407 0.143242
O O1 0.630165 0.293432 0.522702
O O2 0.689646 0.243822 0.728388
O O3 0.720992 0.677541 0.352665
O O4 0.231825 0.275814 0.485048
O O5 0.875383 0.144357 0.121896
O O6 0.615369 0.469005 0.805828
O O7 0.000000 0.500000 0.000000
O O8 0.093620 0.615158 0.798712
O O9 0.788325 0.509027 0.275022
O O10 0.338316 0.080516 0.459333
O O11 0.982880 0.130266 0.028466
O O12 0.000000 0.000000 0.000000
O O13 0.000000 0.000000 0.500000
O O14 0.500000 0.000000 0.000000
#
# Coordination Sequence:
#
# PCOD9013842 Si02
#       6
#     2   2   2   2   2   2
#     4  10  21  43  69 101 137 177 229 283 332 405
#     4  10  21  43  69  96 136 185 228 282 340 408
#     4  10  21  41  66 100 136 179 224 278 347 406
#     4  12  25  41  69 102 142 180 223 286 350 398
#     4   8  18  38  65  95 131 177 226 271 331 413
#     4  12  23  43  69 105 135 173 246 277 330 420
#
# _framework density 24.591376
#
# number of rings (size 3 to 8) (size 9 to 14) (size 15 to 20)
#    0.000    2.000    5.000    0.500    0.000    8.667 
#    9.000    1.667    0.000    0.000    0.000    0.000 
#    0.000    0.000    0.000    0.000    0.000    0.000 
#
# Total GULP energy -67070.505825 kJ/mol
# GULP energy per Si atom -5589.208819 kJ/mol
# Density = 2.453540 g / cm^3
# Si number density = 24.591376 Si / 1000 Ang^3
#
#
#
# Elastic Constant Matrix: (Units=GPa)
#
#
# Indices 1 2 3 4 5 6 
#
# 1 80.8755 57.1710 30.0881 -16.6916 -24.0976 -4.2137
# 2 57.1710 153.1974 69.3969 -38.4425 -19.5239 -4.6624
# 3 30.0881 69.3969 139.1454 -21.8843 -18.1399 -6.7246
# 4 -16.6916 -38.4425 -21.8843 43.0540 4.3334 -11.5844
# 5 -24.0976 -19.5239 -18.1399 4.3334 33.6303 -13.0531
# 6 -4.2137 -4.6624 -6.7246 -11.5844 -13.0531 43.0569
#
#
#
# Elastic Compliance Matrix: (Units=1/GPa)
#
#
# Indices 1 2 3 4 5 6 
#
# 1 0.021589 -0.005102 0.001022 0.004854 0.015423 0.007702
# 2 -0.005102 0.012256 -0.003404 0.007850 0.001753 0.002939
# 3 0.001022 -0.003404 0.009966 0.002878 0.005169 0.003629
# 4 0.004854 0.007850 0.002878 0.036497 0.010637 0.014819
# 5 0.015423 0.001753 0.005169 0.010637 0.051347 0.020935
# 6 0.007702 0.002939 0.003629 0.014819 0.020935 0.035197
#
#
# Mechanical properties :
#
#
# Convention : Reuss Voigt Hill
#
# Bulk Modulus (GPa) = 34.66976 76.28115 55.47545
# Shear Modulus (GPa) = 26.11851 38.38572 32.25211
#
# Velocity S-wave (km/s) = 3.26252 3.95516 3.62542
# Velocity P-wave (km/s) = 5.32175 7.20726 6.33504
#
# Compressibility (1/GPa) = 0.02884358
#
# Stress axis : x y z
#
# Youngs Moduli (GPa) = 46.31884 81.59165 100.34606
#
# Poissons Ratio (x) = 0.41628 -0.10260
# Poissons Ratio (y) = 0.23632 0.34161
# Poissons Ratio (z) = -0.04736 0.27776
#
# Static dielectric constant tensor:
#      x y z
#    x 2.045580 0.042380 -0.057780 
#    y 0.042380 2.072730 0.004050 
#    z -0.057780 0.004050 2.020160 
# 
# From -- ./inp_files/590950.got.cif
#   From: 2010.05.17/outbox.cif.g08.bks.cpg/sg2_296_cif.got.tgz:590950.got - 2010.06.03 11:33:40.
