data_PCOD9013990
_publ_section_title
;
Structure prediction by ZEFSAII (Michael W. Deem and Ramdas Pophale) SiO2 
 PCOD9013990
Probable space group: P -1
;
_chemical_formula_sum "Si O2"
_cell_formula_units_Z 16
_cell_length_a 8.854540
_cell_length_b 18.312574
_cell_length_c 9.821051
_cell_angle_alpha 143.988350
_cell_angle_beta 107.495347
_cell_angle_gamma 57.008921
_cell_volume 753.096259
_symmetry_space_group_name_H-M "P -1"
_symmetry_group_IT_number 2
_symmetry_cell_setting 'triclinic'
loop_
_space_group_symop_operation_xyz
x,y,z
-x,-y,-z
loop_
_atom_site_type_symbol
_atom_site_label
_atom_site_fract_x
_atom_site_fract_y
_atom_site_fract_z
Si Si1 0.850842 0.397398 0.182380
Si Si2 0.506934 0.117792 0.584006
Si Si3 0.133131 0.192735 0.487002
Si Si4 0.830929 0.368412 0.433758
Si Si5 0.535532 0.590661 0.905147
Si Si6 0.118832 0.551213 0.023572
Si Si7 0.894132 0.069795 0.938167
Si Si8 0.897640 0.948453 0.293722
O O1 0.866382 0.426925 0.390539
O O2 0.646282 0.418884 0.144920
O O3 0.877254 0.474621 0.175336
O O4 0.006820 0.226131 0.941893
O O5 0.315672 0.199087 0.567562
O O6 0.500000 0.000000 0.500000
O O7 0.683264 0.034199 0.406767
O O8 0.520502 0.240782 0.856439
O O9 0.009732 0.276252 0.445077
O O10 0.202255 0.021208 0.252589
O O11 0.995576 0.276327 0.703981
O O12 0.663671 0.497377 0.670847
O O13 0.783756 0.245943 0.188966
O O14 0.675118 0.519502 0.964813
O O15 0.000000 0.500000 0.000000
O O16 0.054392 0.022551 0.798604
O O17 0.000000 0.000000 0.000000
O O18 0.000000 0.000000 0.500000
#
# Coordination Sequence:
#
# PCOD9013990 Si02
#       8
#     2   2   2   2   2   2   2   2
#     4  11  22  41  65  94 126 166 223 262 313 384
#     4  12  24  38  66 101 131 165 215 269 322 374
#     4  10  21  41  66  93 131 169 209 265 326 375
#     4   9  22  41  68  94 128 172 214 261 321 386
#     4  11  23  41  67  95 130 165 216 265 319 382
#     4  11  22  40  65  95 131 167 208 269 329 373
#     4   9  19  40  65  90 123 166 208 256 313 377
#     4  11  21  37  65  95 121 164 218 261 307 377
#
# _framework density 21.245623999999999
#
# number of rings (size 3 to 8) (size 9 to 14) (size 15 to 20)
#    0.000    1.500    2.500    3.000    1.750    0.000 
#    2.250    8.125    2.750    0.000    0.000    0.000 
#    0.000    0.000    0.000    0.000    0.000    0.000 
#
# Total GULP energy -89344.280180 kJ/mol
# GULP energy per Si atom -5584.017511 kJ/mol
# Density = 2.119727 g / cm^3
# Si number density = 21.245624 Si / 1000 Ang^3
#
#
#
# Elastic Constant Matrix: (Units=GPa)
#
#
# Indices 1 2 3 4 5 6 
#
# 1 98.8838 53.9471 36.4797 -8.1038 -16.0640 -2.3060
# 2 53.9471 109.9709 35.9275 -29.5026 -27.6766 12.1390
# 3 36.4797 35.9275 120.1459 -6.5565 -24.6521 12.3961
# 4 -8.1038 -29.5026 -6.5565 36.7200 1.6323 -12.4126
# 5 -16.0640 -27.6766 -24.6521 1.6323 32.1300 -0.3618
# 6 -2.3060 12.1390 12.3961 -12.4126 -0.3618 43.6884
#
#
#
# Elastic Compliance Matrix: (Units=1/GPa)
#
#
# Indices 1 2 3 4 5 6 
#
# 1 0.015098 -0.007693 -0.002979 -0.002270 -0.001213 0.003125
# 2 -0.007693 0.019687 -0.000098 0.012844 0.012361 -0.002097
# 3 -0.002979 -0.000098 0.010982 -0.000173 0.006825 -0.003239
# 4 -0.002270 0.012844 -0.000173 0.039230 0.007888 0.007572
# 5 -0.001213 0.012361 0.006825 0.007888 0.045969 -0.002813
# 6 0.003125 -0.002097 -0.003239 0.007572 -0.002813 0.026684
#
#
# Mechanical properties :
#
#
# Convention : Reuss Voigt Hill
#
# Bulk Modulus (GPa) = 41.27360 64.63435 52.95397
# Shear Modulus (GPa) = 26.70010 36.01743 31.35877
#
# Velocity S-wave (km/s) = 3.54889 4.12185 3.84606
# Velocity P-wave (km/s) = 6.02178 7.28981 6.68593
#
# Compressibility (1/GPa) = 0.02422856
#
# Stress axis : x y z
#
# Youngs Moduli (GPa) = 66.23181 50.79459 91.05774
#
# Poissons Ratio (x) = 0.39074 0.27127
# Poissons Ratio (y) = 0.50950 0.00891
# Poissons Ratio (z) = 0.19731 0.00497
#
# Static dielectric constant tensor:
#      x y z
#    x 1.751870 0.019710 0.059650 
#    y 0.019710 1.820960 0.020380 
#    z 0.059650 0.020380 1.829560 
# 
# From -- ./inp_files/218918.got.cif
#   From: 2010.05.17/outbox.cif.g08.bks.cpg/sg2_110_cif.got.tgz:218918.got - 2010.06.03 11:33:40.
