data_PCOD9013741
_publ_section_title
;
Structure prediction by ZEFSAII (Michael W. Deem and Ramdas Pophale) SiO2 
 PCOD9013741
Probable space group: P -1
;
_chemical_formula_sum "Si O2"
_cell_formula_units_Z 14
_cell_length_a 8.928402
_cell_length_b 12.082910
_cell_length_c 9.550085
_cell_angle_alpha 106.245590
_cell_angle_beta 73.974665
_cell_angle_gamma 138.763689
_cell_volume 648.483265
_symmetry_space_group_name_H-M "P -1"
_symmetry_group_IT_number 2
_symmetry_cell_setting 'triclinic'
loop_
_space_group_symop_operation_xyz
x,y,z
-x,-y,-z
loop_
_atom_site_type_symbol
_atom_site_label
_atom_site_fract_x
_atom_site_fract_y
_atom_site_fract_z
Si Si1 0.422836 0.428092 0.338265
Si Si2 0.371949 0.100634 0.794332
Si Si3 0.583190 0.915529 0.916987
Si Si4 0.803784 0.494137 0.119877
Si Si5 0.649288 0.483112 0.876164
Si Si6 0.994461 0.098827 0.425198
Si Si7 0.199842 0.830961 0.286244
O O1 0.500000 0.500000 0.500000
O O2 0.647837 0.509798 0.231187
O O3 0.293939 0.443561 0.268796
O O4 0.241214 0.230239 0.336612
O O5 0.497366 0.289765 0.823129
O O6 0.559381 0.101278 0.718097
O O7 0.185274 0.003001 0.688723
O O8 0.288327 0.047606 0.958687
O O9 0.362513 0.708780 0.888900
O O10 0.741351 0.029708 0.783319
O O11 0.500000 0.000000 0.000000
O O12 0.043584 0.647183 0.188814
O O13 0.833848 0.541531 0.964439
O O14 0.500000 0.500000 0.000000
O O15 0.935387 0.185083 0.555288
O O16 0.000000 0.000000 0.500000
#
# Coordination Sequence:
#
# PCOD9013741 Si02
#       7
#     2   2   2   2   2   2   2
#     4  11  21  40  62  92 126 165 216 260 316 378
#     4  10  23  43  64  97 126 166 214 264 327 375
#     4   9  21  40  64  94 129 164 211 259 317 386
#     4  10  21  41  65  95 127 167 213 261 324 375
#     4   9  21  39  63  91 126 163 213 265 311 382
#     4  12  25  41  67  91 130 171 213 269 318 385
#     4  11  23  43  68  94 134 169 209 270 321 386
#
# _framework density 21.588836000000001
#
# number of rings (size 3 to 8) (size 9 to 14) (size 15 to 20)
#    0.000    1.714    1.429    2.143    4.000    5.143 
#    2.571    3.571    0.000    0.000    0.000    0.000 
#    0.000    0.000    0.000    0.000    0.000    0.000 
#
# Total GULP energy -77984.714263 kJ/mol
# GULP energy per Si atom -5570.336733 kJ/mol
# Density = 2.153970 g / cm^3
# Si number density = 21.588836 Si / 1000 Ang^3
#
#
#
# Elastic Constant Matrix: (Units=GPa)
#
#
# Indices 1 2 3 4 5 6 
#
# 1 58.0460 26.2384 23.4567 8.4319 16.5102 5.0559
# 2 26.2384 62.8782 28.7929 5.9960 34.8776 -6.4106
# 3 23.4567 28.7929 94.9504 7.0042 28.5809 0.7856
# 4 8.4319 5.9960 7.0042 46.1765 1.5767 7.2827
# 5 16.5102 34.8776 28.5809 1.5767 44.9748 1.9141
# 6 5.0559 -6.4106 0.7856 7.2827 1.9141 44.5902
#
#
#
# Elastic Compliance Matrix: (Units=1/GPa)
#
#
# Indices 1 2 3 4 5 6 
#
# 1 0.022764 -0.008463 -0.002970 -0.002079 0.000312 -0.003419
# 2 -0.008463 0.033282 -0.001171 -0.002978 -0.022162 0.007203
# 3 -0.002970 -0.001171 0.013723 -0.001224 -0.006697 0.000414
# 4 -0.002079 -0.002978 -0.001224 0.023143 0.003213 -0.004089
# 5 0.000312 -0.022162 -0.006697 0.003213 0.043684 -0.005503
# 6 -0.003419 0.007203 0.000414 -0.004089 -0.005503 0.024746
#
#
# Mechanical properties :
#
#
# Convention : Reuss Voigt Hill
#
# Bulk Modulus (GPa) = 22.43993 41.42784 31.93389
# Shear Modulus (GPa) = 24.82561 36.30740 30.56651
#
# Velocity S-wave (km/s) = 3.39474 4.10538 3.76686
# Velocity P-wave (km/s) = 5.07764 6.45782 5.80887
#
# Compressibility (1/GPa) = 0.04456341
#
# Stress axis : x y z
#
# Youngs Moduli (GPa) = 43.92839 30.04597 72.86814
#
# Poissons Ratio (x) = 0.25427 0.21639
# Poissons Ratio (y) = 0.37175 0.08533
# Poissons Ratio (z) = 0.13045 0.03519
#
# Static dielectric constant tensor:
#      x y z
#    x 1.961720 0.060150 0.007380 
#    y 0.060150 1.828090 -0.076830 
#    z 0.007380 -0.076830 1.843130 
# 
# From -- ./inp_files/154263.got.cif
#   From: 2010.05.17/outbox.cif.g08.bks.cpg/sg2_78_cif.got.tgz:154263.got - 2010.06.03 11:33:40.
