data_PCOD9013849
_publ_section_title
;
Structure prediction by ZEFSAII (Michael W. Deem and Ramdas Pophale) SiO2 
 PCOD9013849
Probable space group: P -1
;
_chemical_formula_sum "Si O2"
_cell_formula_units_Z 11
_cell_length_a 15.880985
_cell_length_b 5.337538
_cell_length_c 10.375650
_cell_angle_alpha 92.202434
_cell_angle_beta 146.187280
_cell_angle_gamma 96.739040
_cell_volume 471.108451
_symmetry_space_group_name_H-M "P -1"
_symmetry_group_IT_number 2
_symmetry_cell_setting 'triclinic'
loop_
_space_group_symop_operation_xyz
x,y,z
-x,-y,-z
loop_
_atom_site_type_symbol
_atom_site_label
_atom_site_fract_x
_atom_site_fract_y
_atom_site_fract_z
Si Si1 0.000000 0.500000 0.500000
Si Si2 0.887757 0.506419 0.647555
Si Si3 0.313741 0.946869 0.240229
Si Si4 0.161887 0.006683 0.319760
Si Si5 0.269426 0.420757 0.023494
Si Si6 0.428373 0.421879 0.768203
O O1 0.075834 0.454307 0.455199
O O2 0.130921 0.384790 0.742584
O O3 0.940786 0.267864 0.767005
O O4 0.697700 0.419604 0.424164
O O5 0.934360 0.776970 0.788283
O O6 0.240470 0.991879 0.283650
O O7 0.255169 0.652624 0.106080
O O8 0.500000 0.000000 0.500000
O O9 0.278717 0.155696 0.099010
O O10 0.308382 0.133987 0.605238
O O11 0.433773 0.534028 0.158723
O O12 0.500000 0.500000 0.000000
#
# Coordination Sequence:
#
# PCOD9013849 Si02
#       6
#     1   2   2   2   2   2
#     4  12  28  50  64 106 144 186 230 272 358 418
#     4  10  23  42  69  91 138 176 223 288 327 411
#     4  12  23  44  73 106 137 176 237 289 342 397
#     4  10  22  41  68  98 131 167 232 287 336 393
#     4  12  26  42  73 104 142 182 224 289 341 416
#     4  10  21  41  66 101 128 177 227 285 335 386
#
# _framework density 23.349188000000002
#
# number of rings (size 3 to 8) (size 9 to 14) (size 15 to 20)
#    1.091    0.000    3.636    2.727    0.000    6.545 
#    0.000    5.455    0.000    0.000    0.000    0.000 
#    0.000    0.000    0.000    0.000    0.000    0.000 
#
# Total GULP energy -61235.928559 kJ/mol
# GULP energy per Si atom -5566.902596 kJ/mol
# Density = 2.329604 g / cm^3
# Si number density = 23.349188 Si / 1000 Ang^3
#
#
#
# Elastic Constant Matrix: (Units=GPa)
#
#
# Indices 1 2 3 4 5 6 
#
# 1 157.6689 47.6517 28.3519 6.1962 -16.2335 -25.5957
# 2 47.6517 159.6639 46.9813 -5.1016 -6.8646 4.5537
# 3 28.3519 46.9813 147.2073 -16.7526 1.2445 5.0555
# 4 6.1962 -5.1016 -16.7526 24.4353 -4.7295 -3.7252
# 5 -16.2335 -6.8646 1.2445 -4.7295 39.7603 -3.1819
# 6 -25.5957 4.5537 5.0555 -3.7252 -3.1819 22.5102
#
#
#
# Elastic Compliance Matrix: (Units=1/GPa)
#
#
# Indices 1 2 3 4 5 6 
#
# 1 0.010075 -0.002718 -0.001718 -0.001470 0.004547 0.012791
# 2 -0.002718 0.007722 -0.001744 0.000468 -0.000001 -0.004183
# 3 -0.001718 -0.001744 0.008377 0.005231 -0.000862 -0.002738
# 4 -0.001470 0.000468 0.005231 0.046863 0.005337 0.005569
# 5 0.004547 -0.000001 -0.000862 0.005337 0.028491 0.010274
# 6 0.012791 -0.004183 -0.002738 0.005569 0.010274 0.062804
#
#
# Mechanical properties :
#
#
# Convention : Reuss Voigt Hill
#
# Bulk Modulus (GPa) = 72.38861 78.94553 75.66707
# Shear Modulus (GPa) = 27.57918 40.11152 33.84535
#
# Velocity S-wave (km/s) = 3.44053 4.14925 3.81140
# Velocity P-wave (km/s) = 6.84492 7.53918 7.20042
#
# Compressibility (1/GPa) = 0.01381433
#
# Stress axis : x y z
#
# Youngs Moduli (GPa) = 99.25442 129.50617 119.37083
#
# Poissons Ratio (x) = 0.35195 0.20509
# Poissons Ratio (y) = 0.26974 0.20819
# Poissons Ratio (z) = 0.17053 0.22587
#
# Static dielectric constant tensor:
#      x y z
#    x 1.856570 -0.013950 0.052790 
#    y -0.013950 1.928330 -0.000810 
#    z 0.052790 -0.000810 1.899220 
# 
# From -- ./inp_files/287175.got.cif
#   From: 2010.05.17/outbox.cif.g08.bks.cpg/sg2_144_cif.got.tgz:287175.got - 2010.06.03 11:33:40.
