data_PCOD9013136
_publ_section_title
;
Structure prediction by ZEFSAII (Michael W. Deem and Ramdas Pophale) SiO2 
 PCOD9013136
Probable space group: P -1
;
_chemical_formula_sum "Si O2"
_cell_formula_units_Z 16
_cell_length_a 7.685753
_cell_length_b 5.482382
_cell_length_c 18.894273
_cell_angle_alpha 116.029850
_cell_angle_beta 75.263012
_cell_angle_gamma 116.892573
_cell_volume 636.461085
_symmetry_space_group_name_H-M "P -1"
_symmetry_group_IT_number 2
_symmetry_cell_setting 'triclinic'
loop_
_space_group_symop_operation_xyz
x,y,z
-x,-y,-z
loop_
_atom_site_type_symbol
_atom_site_label
_atom_site_fract_x
_atom_site_fract_y
_atom_site_fract_z
Si Si1 0.011236 0.505267 0.915355
Si Si2 0.462889 0.972981 0.352311
Si Si3 0.920814 0.565508 0.682377
Si Si4 0.527988 0.155316 0.093794
Si Si5 0.000967 0.912357 0.857433
Si Si6 0.543718 0.775875 0.166657
Si Si7 0.216814 0.285574 0.413127
Si Si8 0.198420 0.828210 0.565343
O O1 0.240413 0.662843 0.892495
O O2 0.928017 0.722861 0.912484
O O3 0.925485 0.154641 0.865872
O O4 0.000000 0.500000 0.000000
O O5 0.418107 0.260150 0.410090
O O6 0.601724 0.932990 0.393727
O O7 0.232938 0.764237 0.345298
O O8 0.538979 0.921341 0.261625
O O9 0.799576 0.725628 0.672450
O O10 0.977178 0.676461 0.768840
O O11 0.108086 0.640907 0.622854
O O12 0.451651 0.420561 0.137617
O O13 0.457287 0.910364 0.130901
O O14 0.500000 0.000000 0.000000
O O15 0.230580 0.118914 0.866647
O O16 0.231302 0.607546 0.478788
O O17 0.983801 0.094482 0.432095
#
# Coordination Sequence:
#
# PCOD9013136 Si02
#       8
#     2   2   2   2   2   2   2   2
#     4  10  22  38  64  91 127 176 223 276 345 410
#     4  12  23  39  69  97 131 183 235 280 355 419
#     4  10  23  40  63  98 126 176 235 271 351 415
#     4  10  22  39  63  92 131 174 224 278 348 412
#     4  10  21  41  63  91 134 177 222 285 346 407
#     4  10  22  40  63  94 132 181 222 285 350 405
#     4   9  22  44  64  95 137 175 231 288 352 421
#     4   9  21  47  61  95 143 168 229 304 339 415
#
# _framework density 25.139004
#
# number of rings (size 3 to 8) (size 9 to 14) (size 15 to 20)
#    0.750    1.250    1.250    1.125    3.500    3.000 
#    4.500    0.000    0.000    0.000    0.000    0.000 
#    0.000    0.000    0.000    0.000    0.000    0.000 
#
# Total GULP energy -89139.699405 kJ/mol
# GULP energy per Si atom -5571.231213 kJ/mol
# Density = 2.508179 g / cm^3
# Si number density = 25.139004 Si / 1000 Ang^3
#
#
#
# Elastic Constant Matrix: (Units=GPa)
#
#
# Indices 1 2 3 4 5 6 
#
# 1 118.1893 27.7472 7.0568 7.5846 2.1210 -11.3565
# 2 27.7472 93.2811 31.6453 1.9650 2.1501 -12.1192
# 3 7.0568 31.6453 104.6840 2.5253 10.9268 -15.5319
# 4 7.5846 1.9650 2.5253 24.2774 1.4312 -1.8091
# 5 2.1210 2.1501 10.9268 1.4312 34.5389 -0.6981
# 6 -11.3565 -12.1192 -15.5319 -1.8091 -0.6981 21.6373
#
#
#
# Elastic Compliance Matrix: (Units=1/GPa)
#
#
# Indices 1 2 3 4 5 6 
#
# 1 0.009562 -0.002545 0.000826 -0.002542 -0.000505 0.003957
# 2 -0.002545 0.013050 -0.003285 0.000327 0.000444 0.003657
# 3 0.000826 -0.003285 0.011898 -0.000506 -0.003448 0.006981
# 4 -0.002542 0.000327 -0.000506 0.042241 -0.001415 0.001971
# 5 -0.000505 0.000444 -0.003448 -0.001415 0.030073 -0.001640
# 6 0.003957 0.003657 0.006981 0.001971 -0.001640 0.055464
#
#
# Mechanical properties :
#
#
# Convention : Reuss Voigt Hill
#
# Bulk Modulus (GPa) = 40.81468 49.89478 45.35473
# Shear Modulus (GPa) = 27.70659 32.73773 30.22216
#
# Velocity S-wave (km/s) = 3.32344 3.61261 3.47104
# Velocity P-wave (km/s) = 5.56757 6.10671 5.84336
#
# Compressibility (1/GPa) = 0.02450099
#
# Stress axis : x y z
#
# Youngs Moduli (GPa) = 104.58471 76.62987 84.04985
#
# Poissons Ratio (x) = 0.19503 -0.06942
# Poissons Ratio (y) = 0.26618 0.27609
# Poissons Ratio (z) = -0.08638 0.25172
#
# Static dielectric constant tensor:
#      x y z
#    x 2.012100 0.024930 -0.033620 
#    y 0.024930 2.079360 0.041940 
#    z -0.033620 0.041940 1.944410 
# 
# From -- ./inp_files/585862.got.cif
#   From: 2010.05.17/outbox.cif.g08.bks.cpg/sg2_293_cif.got.tgz:585862.got - 2010.06.03 11:33:40.
