data_PCOD9013571
_publ_section_title
;
Structure prediction by ZEFSAII (Michael W. Deem and Ramdas Pophale) SiO2 
 PCOD9013571
Probable space group: P -1
;
_chemical_formula_sum "Si O2"
_cell_formula_units_Z 6
_cell_length_a 3.983827
_cell_length_b 11.874361
_cell_length_c 5.667356
_cell_angle_alpha 44.282722
_cell_angle_beta 89.999385
_cell_angle_gamma 88.109897
_cell_volume 186.975977
_symmetry_space_group_name_H-M "P -1"
_symmetry_group_IT_number 2
_symmetry_cell_setting 'triclinic'
loop_
_space_group_symop_operation_xyz
x,y,z
-x,-y,-z
loop_
_atom_site_type_symbol
_atom_site_label
_atom_site_fract_x
_atom_site_fract_y
_atom_site_fract_z
Si Si1 0.712057 0.662002 0.256996
Si Si2 0.209661 0.988907 0.266638
Si Si3 0.693492 0.664638 0.753042
O O1 0.500000 0.500000 0.500000
O O2 0.574922 0.848675 0.976989
O O3 0.890911 0.661278 0.511258
O O4 0.890912 0.661277 0.004907
O O5 0.444336 0.824423 0.513365
O O6 0.000000 0.000000 0.500000
O O7 0.000000 0.000000 0.000000
O O8 0.500000 0.500000 0.000000
#
# Coordination Sequence:
#
# PCOD9013571 Si02
#       3
#     2   2   2
#     4  10  21  41  65  89 122 170 209 242 304 387
#     4  12  24  40  64  98 126 154 206 272 310 344
#     4  10  21  41  65  89 122 170 209 242 304 387
#
# _framework density 32.089686
#
# number of rings (size 3 to 8) (size 9 to 14) (size 15 to 20)
#    0.000    1.333    0.000    6.000    0.000    0.000 
#    0.000   40.000    0.000    0.000    0.000    0.000 
#    0.000    0.000    0.000    0.000    0.000    0.000 
#
# Total GULP energy -33504.865056 kJ/mol
# GULP energy per Si atom -5584.144176 kJ/mol
# Density = 3.201665 g / cm^3
# Si number density = 32.089686 Si / 1000 Ang^3
#
#
#
# Elastic Constant Matrix: (Units=GPa)
#
#
# Indices 1 2 3 4 5 6 
#
# 1 116.8670 99.5296 99.9365 -7.3006 36.6916 -37.2442
# 2 99.5296 268.8140 182.0574 10.8386 17.0606 -9.0674
# 3 99.9365 182.0574 269.2445 12.4649 8.8418 -17.8841
# 4 -7.3006 10.8386 12.4649 226.7370 -0.8059 -0.1812
# 5 36.6916 17.0606 8.8418 -0.8059 76.8908 -28.2285
# 6 -37.2442 -9.0674 -17.8841 -0.1812 -28.2285 76.8486
#
#
#
# Elastic Compliance Matrix: (Units=1/GPa)
#
#
# Indices 1 2 3 4 5 6 
#
# 1 0.018716 -0.003817 -0.003851 0.000982 -0.005542 0.005690
# 2 -0.003817 0.007756 -0.003936 -0.000279 -0.000149 -0.001907
# 3 -0.003851 -0.003936 0.007771 -0.000356 0.001874 0.000165
# 4 0.000982 -0.000279 -0.000356 0.004474 -0.000211 0.000293
# 5 -0.005542 -0.000149 0.001874 -0.000211 0.016914 0.003945
# 6 0.005690 -0.001907 0.000165 0.000293 0.003945 0.017034
#
#
# Mechanical properties :
#
#
# Convention : Reuss Voigt Hill
#
# Bulk Modulus (GPa) = 90.63521 157.55249 124.09385
# Shear Modulus (GPa) = 50.22570 94.32207 72.27388
#
# Velocity S-wave (km/s) = 3.96051 5.42744 4.75093
# Velocity P-wave (km/s) = 7.01569 9.40639 8.29759
#
# Compressibility (1/GPa) = 0.01103324
#
# Stress axis : x y z
#
# Youngs Moduli (GPa) = 53.43157 128.93864 128.68460
#
# Poissons Ratio (x) = 0.49219 0.49557
# Poissons Ratio (y) = 0.20396 0.50652
# Poissons Ratio (z) = 0.20577 0.50752
#
# Static dielectric constant tensor:
#      x y z
#    x 2.469170 0.020180 -0.019850 
#    y 0.020180 2.444400 -0.017260 
#    z -0.019850 -0.017260 2.443950 
# 
# From -- ./inp_files/1209.got.cif
#   From: 2010.05.17/outbox.cif.g08.bks.cpg/sg2_1_cif.got.tgz:1209.got - 2010.06.03 11:33:40.
