data_PCOD9014007
_publ_section_title
;
Structure prediction by ZEFSAII (Michael W. Deem and Ramdas Pophale) SiO2 
 PCOD9014007
Probable space group: P -1
;
_chemical_formula_sum "Si O2"
_cell_formula_units_Z 16
_cell_length_a 15.694738
_cell_length_b 14.812703
_cell_length_c 12.157830
_cell_angle_alpha 58.173832
_cell_angle_beta 27.895523
_cell_angle_gamma 41.404191
_cell_volume 786.185869
_symmetry_space_group_name_H-M "P -1"
_symmetry_group_IT_number 2
_symmetry_cell_setting 'triclinic'
loop_
_space_group_symop_operation_xyz
x,y,z
-x,-y,-z
loop_
_atom_site_type_symbol
_atom_site_label
_atom_site_fract_x
_atom_site_fract_y
_atom_site_fract_z
Si Si1 0.358601 0.361714 0.911369
Si Si2 0.746207 0.669197 0.709432
Si Si3 0.767811 0.110302 0.971522
Si Si4 0.068669 0.374984 0.915258
Si Si5 0.246412 0.188513 0.039854
Si Si6 0.415910 0.923899 0.587403
Si Si7 0.199937 0.101213 0.490467
Si Si8 0.957249 0.115398 0.393138
O O1 0.246700 0.296669 0.036361
O O2 0.659297 0.252326 0.608240
O O3 0.358966 0.343407 0.052567
O O4 0.167228 0.526792 0.966303
O O5 0.813887 0.765829 0.582010
O O6 0.000000 0.500000 0.500000
O O7 0.530195 0.747876 0.811883
O O8 0.941489 0.142369 0.732774
O O9 0.762600 0.065185 0.129188
O O10 0.872646 0.980557 0.847319
O O11 0.117312 0.261290 0.020236
O O12 0.339581 0.253468 0.615174
O O13 0.000000 0.500000 0.000000
O O14 0.547894 0.032053 0.785033
O O15 0.071275 0.167173 0.297054
O O16 0.500000 0.000000 0.500000
O O17 0.275259 0.022662 0.574586
O O18 0.000000 0.000000 0.500000
#
# Coordination Sequence:
#
# PCOD9014007 Si02
#       8
#     2   2   2   2   2   2   2   2
#     4  11  23  39  67  91 129 167 210 268 326 382
#     4  12  26  43  62  92 130 175 213 268 326 381
#     4  12  23  41  66  98 129 165 220 267 319 393
#     4   9  21  42  65  95 129 169 213 267 327 383
#     4  10  21  41  66  94 125 164 211 265 324 376
#     4  11  21  42  71  96 129 172 218 268 324 388
#     4  11  23  41  67  94 126 168 213 266 319 386
#     4  12  23  39  64  99 128 164 218 265 318 390
#
# _framework density 20.351423
#
# number of rings (size 3 to 8) (size 9 to 14) (size 15 to 20)
#    0.000    1.000    5.000    1.875    1.750    2.000 
#    0.000    2.500    0.000    0.000    0.000    0.000 
#    0.000    0.000    0.000    0.000    0.000    0.000 
#
# Total GULP energy -89247.103155 kJ/mol
# GULP energy per Si atom -5577.943947 kJ/mol
# Density = 2.030510 g / cm^3
# Si number density = 20.351423 Si / 1000 Ang^3
#
#
#
# Elastic Constant Matrix: (Units=GPa)
#
#
# Indices 1 2 3 4 5 6 
#
# 1 41.1170 0.8511 3.1567 2.7387 -4.1113 -5.1589
# 2 0.8511 72.9800 32.3199 15.9592 -6.6893 -2.2160
# 3 3.1567 32.3199 68.4210 4.1843 -6.8757 0.8581
# 4 2.7387 15.9592 4.1843 31.9734 6.1682 0.4670
# 5 -4.1113 -6.6893 -6.8757 6.1682 43.7499 -9.8500
# 6 -5.1589 -2.2160 0.8581 0.4670 -9.8500 29.8029
#
#
#
# Elastic Compliance Matrix: (Units=1/GPa)
#
#
# Indices 1 2 3 4 5 6 
#
# 1 0.025864 0.001762 -0.001425 -0.003849 0.004407 0.006166
# 2 0.001762 0.020157 -0.008629 -0.009924 0.004092 0.003560
# 3 -0.001425 -0.008629 0.018761 0.001800 0.000987 -0.001130
# 4 -0.003849 -0.009924 0.001800 0.037936 -0.008002 -0.004695
# 5 0.004407 0.004092 0.000987 -0.008002 0.027488 0.010249
# 6 0.006166 0.003560 -0.001130 -0.004695 0.010249 0.038379
#
#
# Mechanical properties :
#
#
# Convention : Reuss Voigt Hill
#
# Bulk Modulus (GPa) = 20.74776 28.35261 24.55018
# Shear Modulus (GPa) = 24.84667 30.85126 27.84896
#
# Velocity S-wave (km/s) = 3.49790 3.89771 3.70321
# Velocity P-wave (km/s) = 5.15079 5.84961 5.51129
#
# Compressibility (1/GPa) = 0.04819797
#
# Stress axis : x y z
#
# Youngs Moduli (GPa) = 38.66320 49.61109 53.30334
#
# Poissons Ratio (x) = -0.08742 0.07595
# Poissons Ratio (y) = -0.06813 0.45997
# Poissons Ratio (z) = 0.05509 0.42811
#
# Static dielectric constant tensor:
#      x y z
#    x 1.767540 -0.010330 0.024650 
#    y -0.010330 1.766330 -0.025530 
#    z 0.024650 -0.025530 1.824540 
# 
# From -- ./inp_files/427822.got.cif
#   From: 2010.05.17/outbox.cif.g08.bks.cpg/sg2_214_cif.got.tgz:427822.got - 2010.06.03 11:33:40.
