data_PCOD9014973
_publ_section_title
;
Structure prediction by ZEFSAII (Michael W. Deem and Ramdas Pophale) SiO2 
 PCOD9014973
Probable space group: P -1
;
_chemical_formula_sum "Si O2"
_cell_formula_units_Z 16
_cell_length_a 12.809823
_cell_length_b 7.738951
_cell_length_c 16.931536
_cell_angle_alpha 81.239464
_cell_angle_beta 144.709170
_cell_angle_gamma 73.837174
_cell_volume 679.475083
_symmetry_space_group_name_H-M "P -1"
_symmetry_group_IT_number 2
_symmetry_cell_setting 'triclinic'
loop_
_space_group_symop_operation_xyz
x,y,z
-x,-y,-z
loop_
_atom_site_type_symbol
_atom_site_label
_atom_site_fract_x
_atom_site_fract_y
_atom_site_fract_z
Si Si1 0.233499 0.135107 0.734053
Si Si2 0.657892 0.971853 0.886040
Si Si3 0.616452 0.412476 0.805038
Si Si4 0.937990 0.564287 0.761837
Si Si5 0.840182 0.831831 0.841558
Si Si6 0.205524 0.706627 0.645027
Si Si7 0.672834 0.614905 0.108820
Si Si8 0.509565 0.628597 0.427576
O O1 0.951801 0.312087 0.510963
O O2 0.413673 0.081432 0.777945
O O3 0.389929 0.858447 0.884250
O O4 0.237545 0.269474 0.798817
O O5 0.674806 0.892483 0.811522
O O6 0.674988 0.170529 0.881749
O O7 0.897451 0.716905 0.092597
O O8 0.457565 0.601433 0.764593
O O9 0.448217 0.505599 0.616816
O O10 0.862802 0.356936 0.940305
O O11 0.828231 0.731897 0.760533
O O12 0.710294 0.645453 0.563446
O O13 0.131663 0.549430 0.831052
O O14 0.757450 0.088235 0.759169
O O15 0.290765 0.554893 0.788968
O O16 0.000000 0.000000 0.500000
O O17 0.500000 0.500000 0.500000
#
# Coordination Sequence:
#
# PCOD9014973 Si02
#       8
#     2   2   2   2   2   2   2   2
#     4  10  22  44  70  99 126 180 234 280 334 407
#     4  10  21  41  70  92 131 177 223 273 338 415
#     4  11  24  44  65  94 134 181 226 275 332 419
#     4  11  23  40  67 103 134 171 223 287 339 397
#     4  11  24  41  65  99 138 175 216 278 346 397
#     4  12  27  43  67 100 139 176 228 289 348 399
#     4  10  23  43  69  97 131 177 234 277 340 406
#     4  11  23  42  66  98 134 177 228 269 333 412
#
# _framework density 23.547588999999999
#
# number of rings (size 3 to 8) (size 9 to 14) (size 15 to 20)
#    0.000    1.250    1.250    4.875    7.000    1.500 
#    2.250    0.000    0.000    0.000    0.000    0.000 
#    0.000    0.000    0.000    0.000    0.000    0.000 
#
# Total GULP energy -89461.040282 kJ/mol
# GULP energy per Si atom -5591.315018 kJ/mol
# Density = 2.349399 g / cm^3
# Si number density = 23.547589 Si / 1000 Ang^3
#
#
#
# Elastic Constant Matrix: (Units=GPa)
#
#
# Indices 1 2 3 4 5 6 
#
# 1 104.7714 20.0452 40.0654 -14.7302 -26.5845 -19.5334
# 2 20.0452 66.9370 0.7561 -8.9866 -7.9446 -16.4961
# 3 40.0654 0.7561 66.6686 4.6639 -7.0422 -12.3045
# 4 -14.7302 -8.9866 4.6639 39.2126 2.1709 -3.7682
# 5 -26.5845 -7.9446 -7.0422 2.1709 33.0813 -9.2121
# 6 -19.5334 -16.4961 -12.3045 -3.7682 -9.2121 39.3472
#
#
#
# Elastic Compliance Matrix: (Units=1/GPa)
#
#
# Indices 1 2 3 4 5 6 
#
# 1 0.021433 0.000381 -0.009178 0.009475 0.018400 0.013145
# 2 0.000381 0.019227 0.002166 0.004925 0.008214 0.011322
# 3 -0.009178 0.002166 0.021091 -0.005177 -0.001437 0.002115
# 4 0.009475 0.004925 -0.005177 0.031311 0.008461 0.010129
# 5 0.018400 0.008214 -0.001437 0.008461 0.053199 0.025394
# 6 0.013145 0.011322 0.002115 0.010129 0.025394 0.044264
#
#
# Mechanical properties :
#
#
# Convention : Reuss Voigt Hill
#
# Bulk Modulus (GPa) = 20.62323 40.01229 30.31776
# Shear Modulus (GPa) = 22.73233 34.16223 28.44728
#
# Velocity S-wave (km/s) = 3.11042 3.81303 3.47951
# Velocity P-wave (km/s) = 4.65583 6.03445 5.38941
#
# Compressibility (1/GPa) = 0.04848902
#
# Stress axis : x y z
#
# Youngs Moduli (GPa) = 46.65651 52.00939 47.41259
#
# Poissons Ratio (x) = -0.01980 0.43515
# Poissons Ratio (y) = -0.01776 -0.10269
# Poissons Ratio (z) = 0.42821 -0.11265
#
# Static dielectric constant tensor:
#      x y z
#    x 1.878520 0.023820 0.026520 
#    y 0.023820 1.903270 -0.068180 
#    z 0.026520 -0.068180 1.748490 
# 
# From -- ./inp_files/572884.got.cif
#   From: 2010.05.17/outbox.cif.g08.bks.cpg/sg2_287_cif.got.tgz:572884.got - 2010.06.03 11:33:40.
