data_PCOD9014005
_publ_section_title
;
Structure prediction by ZEFSAII (Michael W. Deem and Ramdas Pophale) SiO2 
 PCOD9014005
Probable space group: P -1
;
_chemical_formula_sum "Si O2"
_cell_formula_units_Z 16
_cell_length_a 9.946422
_cell_length_b 14.915098
_cell_length_c 9.499439
_cell_angle_alpha 132.669209
_cell_angle_beta 81.912105
_cell_angle_gamma 71.691237
_cell_volume 848.192148
_symmetry_space_group_name_H-M "P -1"
_symmetry_group_IT_number 2
_symmetry_cell_setting 'triclinic'
loop_
_space_group_symop_operation_xyz
x,y,z
-x,-y,-z
loop_
_atom_site_type_symbol
_atom_site_label
_atom_site_fract_x
_atom_site_fract_y
_atom_site_fract_z
Si Si1 0.827110 0.227627 0.351256
Si Si2 0.327978 0.108691 0.215532
Si Si3 0.032484 0.339174 0.302742
Si Si4 0.137014 0.832208 0.265828
Si Si5 0.571886 0.342694 0.752938
Si Si6 0.732126 0.676221 0.295101
Si Si7 0.163092 0.943086 0.097867
Si Si8 0.015517 0.342883 0.975938
O O1 0.670369 0.322837 0.574206
O O2 0.894450 0.319450 0.370865
O O3 0.793728 0.146406 0.148048
O O4 0.977471 0.089608 0.268904
O O5 0.196546 0.219615 0.236041
O O6 0.324667 0.204026 0.446514
O O7 0.270884 0.007136 0.173731
O O8 0.500000 0.000000 0.000000
O O9 0.000000 0.500000 0.500000
O O10 0.044756 0.306222 0.098717
O O11 0.289646 0.772888 0.282687
O O12 0.186113 0.835030 0.102016
O O13 0.058766 0.737440 0.177746
O O14 0.000000 0.000000 0.500000
O O15 0.423557 0.324792 0.729680
O O16 0.500000 0.500000 0.000000
O O17 0.820702 0.698190 0.174016
O O18 0.876422 0.517259 0.167193
#
# Coordination Sequence:
#
# PCOD9014005 Si02
#       8
#     2   2   2   2   2   2   2   2
#     4  10  22  41  66  94 132 168 221 267 327 388
#     4  11  24  42  66  97 138 171 215 275 338 385
#     4  11  23  41  72  97 125 178 225 269 323 400
#     4  12  23  42  69  98 130 174 223 266 323 400
#     4  12  26  42  65  99 137 174 216 273 333 386
#     4  11  25  44  66  97 139 174 215 278 332 392
#     4  10  21  41  66  94 124 176 219 268 321 389
#     4  11  24  44  69 100 130 174 227 267 332 396
#
# _framework density 18.863651000000001
#
# number of rings (size 3 to 8) (size 9 to 14) (size 15 to 20)
#    0.000    1.000    5.000    1.500    3.500    2.000 
#    0.000    3.125    0.000    0.000    0.000    0.000 
#    0.000    0.000    0.000    0.000    0.000    0.000 
#
# Total GULP energy -89388.707781 kJ/mol
# GULP energy per Si atom -5586.794236 kJ/mol
# Density = 1.882072 g / cm^3
# Si number density = 18.863651 Si / 1000 Ang^3
#
#
#
# Elastic Constant Matrix: (Units=GPa)
#
#
# Indices 1 2 3 4 5 6 
#
# 1 165.0524 49.3418 85.8837 -13.9079 1.9405 5.8802
# 2 49.3418 77.9284 28.2341 -15.6768 -12.9035 7.0358
# 3 85.8837 28.2341 146.1291 -4.3514 -10.4144 6.7498
# 4 -13.9079 -15.6768 -4.3514 33.8411 6.4540 4.0484
# 5 1.9405 -12.9035 -10.4144 6.4540 33.4327 1.4033
# 6 5.8802 7.0358 6.7498 4.0484 1.4033 27.9628
#
#
#
# Elastic Compliance Matrix: (Units=1/GPa)
#
#
# Indices 1 2 3 4 5 6 
#
# 1 0.010750 -0.005156 -0.005613 0.002185 -0.004798 0.000316
# 2 -0.005156 0.018728 0.000290 0.005904 0.006683 -0.004888
# 3 -0.005613 0.000290 0.010394 -0.001434 0.004011 -0.001395
# 4 0.002185 0.005904 -0.001434 0.034661 -0.004718 -0.006380
# 5 -0.004798 0.006683 0.004011 -0.004718 0.035043 -0.002716
# 6 0.000316 -0.004888 -0.001395 -0.006380 -0.002716 0.038322
#
#
# Mechanical properties :
#
#
# Convention : Reuss Voigt Hill
#
# Bulk Modulus (GPa) = 52.87565 79.55878 66.21721
# Shear Modulus (GPa) = 28.54499 34.09067 31.31783
#
# Velocity S-wave (km/s) = 3.89424 4.25575 4.07900
# Velocity P-wave (km/s) = 6.95064 8.14959 7.57388
#
# Compressibility (1/GPa) = 0.01891230
#
# Stress axis : x y z
#
# Youngs Moduli (GPa) = 93.02065 53.39681 96.20977
#
# Poissons Ratio (x) = 0.27534 0.54006
# Poissons Ratio (y) = 0.47965 -0.02790
# Poissons Ratio (z) = 0.52216 -0.01548
#
# Static dielectric constant tensor:
#      x y z
#    x 1.471480 -0.066000 0.180160 
#    y -0.066000 1.619250 0.058460 
#    z 0.180160 0.058460 1.450360 
# 
# From -- ./inp_files/207938.got.cif
#   From: 2010.05.17/outbox.cif.g08.bks.cpg/sg2_104_cif.got.tgz:207938.got - 2010.06.03 11:33:40.
