data_PCOD9014485
_publ_section_title
;
Structure prediction by ZEFSAII (Michael W. Deem and Ramdas Pophale) SiO2 
 PCOD9014485
Probable space group: P -1
;
_chemical_formula_sum "Si O2"
_cell_formula_units_Z 16
_cell_length_a 9.099786
_cell_length_b 21.666063
_cell_length_c 13.018685
_cell_angle_alpha 39.121688
_cell_angle_beta 48.433633
_cell_angle_gamma 28.290443
_cell_volume 765.898368
_symmetry_space_group_name_H-M "P -1"
_symmetry_group_IT_number 2
_symmetry_cell_setting 'triclinic'
loop_
_space_group_symop_operation_xyz
x,y,z
-x,-y,-z
loop_
_atom_site_type_symbol
_atom_site_label
_atom_site_fract_x
_atom_site_fract_y
_atom_site_fract_z
Si Si1 0.265289 0.617648 0.096838
Si Si2 0.211881 0.372233 0.946112
Si Si3 0.762676 0.130473 0.527975
Si Si4 0.809792 0.425107 0.234995
Si Si5 0.336460 0.121243 0.827951
Si Si6 0.615384 0.606060 0.803168
Si Si7 0.262924 0.976621 0.886153
Si Si8 0.856270 0.889737 0.452521
O O1 0.576031 0.468510 0.205815
O O2 0.237753 0.551549 0.103254
O O3 0.985205 0.722211 0.171290
O O4 0.351130 0.685136 0.909436
O O5 0.382645 0.408010 0.846882
O O6 0.916268 0.531232 0.817203
O O7 0.421220 0.208690 0.009502
O O8 0.080667 0.369274 0.112344
O O9 0.560604 0.122540 0.685158
O O10 0.520311 0.285321 0.370700
O O11 0.963754 0.114932 0.538337
O O12 0.000000 0.000000 0.500000
O O13 0.949968 0.286340 0.418731
O O14 0.277883 0.066439 0.834519
O O15 0.500000 0.000000 0.000000
O O16 0.183493 0.039534 0.726659
O O17 0.000000 0.000000 0.000000
O O18 0.500000 0.000000 0.500000
#
# Coordination Sequence:
#
# PCOD9014485 Si02
#       8
#     2   2   2   2   2   2   2   2
#     4  10  21  43  69  97 136 183 225 288 345 424
#     4  10  22  39  69  98 135 179 234 281 348 412
#     4  12  27  43  70 108 139 187 235 292 353 417
#     4  10  21  41  68 101 131 181 229 288 344 411
#     4  12  26  45  70 101 144 184 235 290 357 418
#     4  10  22  41  71 101 137 175 235 287 350 418
#     4  12  26  46  69 103 141 191 233 288 356 421
#     4  12  25  45  73 100 142 179 241 291 346 421
#
# _framework density 20.890498999999998
#
# number of rings (size 3 to 8) (size 9 to 14) (size 15 to 20)
#    0.000    1.000    2.500    3.750    3.500    1.500 
#    2.250    1.250    0.000    0.000    0.000    0.000 
#    0.000    0.000    0.000    0.000    0.000    0.000 
#
# Total GULP energy -89226.396236 kJ/mol
# GULP energy per Si atom -5576.649765 kJ/mol
# Density = 2.084295 g / cm^3
# Si number density = 20.890499 Si / 1000 Ang^3
#
#
#
# Elastic Constant Matrix: (Units=GPa)
#
#
# Indices 1 2 3 4 5 6 
#
# 1 116.2178 41.6127 50.5342 7.4226 5.2730 -5.1973
# 2 41.6127 101.8811 53.1174 13.9182 -11.8553 4.3306
# 3 50.5342 53.1174 163.2463 13.0128 7.7514 -22.7448
# 4 7.4226 13.9182 13.0128 32.3625 -4.9977 -0.9435
# 5 5.2730 -11.8553 7.7514 -4.9977 37.6820 -3.1760
# 6 -5.1973 4.3306 -22.7448 -0.9435 -3.1760 29.6139
#
#
#
# Elastic Compliance Matrix: (Units=1/GPa)
#
#
# Indices 1 2 3 4 5 6 
#
# 1 0.010934 -0.003687 -0.001940 -0.000476 -0.002294 0.000707
# 2 -0.003687 0.014983 -0.004552 -0.003127 0.005257 -0.005870
# 3 -0.001940 -0.004552 0.009477 -0.001615 -0.002712 0.007261
# 4 -0.000476 -0.003127 -0.001615 0.033628 0.003928 0.000626
# 5 -0.002294 0.005257 -0.002712 0.003928 0.029595 0.000045
# 6 0.000707 -0.005870 0.007261 0.000626 0.000045 0.040352
#
#
# Mechanical properties :
#
#
# Convention : Reuss Voigt Hill
#
# Bulk Modulus (GPa) = 66.50484 74.65267 70.57876
# Shear Modulus (GPa) = 30.42491 35.67038 33.04765
#
# Velocity S-wave (km/s) = 3.82042 4.13667 3.98168
# Velocity P-wave (km/s) = 7.16693 7.65694 7.41599
#
# Compressibility (1/GPa) = 0.01503650
#
# Stress axis : x y z
#
# Youngs Moduli (GPa) = 91.45647 66.74266 105.52293
#
# Poissons Ratio (x) = 0.24606 0.20469
# Poissons Ratio (y) = 0.33717 0.48036
# Poissons Ratio (z) = 0.17741 0.30382
#
# Static dielectric constant tensor:
#      x y z
#    x 1.838370 0.366530 0.040640 
#    y 0.366530 3.589200 0.235230 
#    z 0.040640 0.235230 1.762280 
# 
# From -- ./inp_files/405382.got.cif
#   From: 2010.05.17/outbox.cif.g08.bks.cpg/sg2_203_cif.got.tgz:405382.got - 2010.06.03 11:33:40.
