data_PCOD9014892
_publ_section_title
;
Structure prediction by ZEFSAII (Michael W. Deem and Ramdas Pophale) SiO2 
 PCOD9014892
Probable space group: P -1
;
_chemical_formula_sum "Si O2"
_cell_formula_units_Z 14
_cell_length_a 17.291341
_cell_length_b 8.001407
_cell_length_c 24.886841
_cell_angle_alpha 32.053585
_cell_angle_beta 18.912895
_cell_angle_gamma 30.151650
_cell_volume 551.280112
_symmetry_space_group_name_H-M "P -1"
_symmetry_group_IT_number 2
_symmetry_cell_setting 'triclinic'
loop_
_space_group_symop_operation_xyz
x,y,z
-x,-y,-z
loop_
_atom_site_type_symbol
_atom_site_label
_atom_site_fract_x
_atom_site_fract_y
_atom_site_fract_z
Si Si1 0.721766 0.566502 0.691172
Si Si2 0.542919 0.787751 0.105864
Si Si3 0.549781 0.568301 0.512228
Si Si4 0.002805 0.250529 0.380746
Si Si5 0.766817 0.310569 0.845782
Si Si6 0.201016 0.948007 0.813121
Si Si7 0.768973 0.785517 0.167963
O O1 0.562629 0.321064 0.849545
O O2 0.765038 0.530861 0.734836
O O3 0.000000 0.500000 0.500000
O O4 0.510367 0.927248 0.718253
O O5 0.636562 0.437620 0.172689
O O6 0.280386 0.052059 0.228315
O O7 0.754360 0.956705 0.929605
O O8 0.500000 0.500000 0.500000
O O9 0.298554 0.539143 0.713033
O O10 0.791015 0.311211 0.457040
O O11 0.611680 0.908108 0.379914
O O12 0.005026 0.625100 0.290330
O O13 0.000000 0.000000 0.500000
O O14 0.500000 0.500000 0.000000
O O15 0.112436 0.211198 0.851280
O O16 0.931572 0.912352 0.984315
#
# Coordination Sequence:
#
# PCOD9014892 Si02
#       7
#     2   2   2   2   2   2   2
#     4  11  21  39  67 104 135 178 248 306 341 429
#     4  10  22  42  66 104 134 180 244 298 341 433
#     4  10  21  41  69  98 133 187 236 287 358 439
#     4  11  23  44  71 100 141 187 233 299 375 433
#     4  10  23  40  64  98 141 184 228 294 377 426
#     4   9  20  39  62  94 137 173 233 288 355 419
#     4   9  19  37  62  96 134 178 221 293 361 408
#
# _framework density 25.395437999999999
#
# number of rings (size 3 to 8) (size 9 to 14) (size 15 to 20)
#    0.000    2.000    0.000    3.000    4.000    0.000 
#   23.143    1.429    0.000    0.000    0.000    0.000 
#    0.000    0.000    0.000    0.000    0.000    0.000 
#
# Total GULP energy -77953.065456 kJ/mol
# GULP energy per Si atom -5568.076104 kJ/mol
# Density = 2.533764 g / cm^3
# Si number density = 25.395438 Si / 1000 Ang^3
#
#
#
# Elastic Constant Matrix: (Units=GPa)
#
#
# Indices 1 2 3 4 5 6 
#
# 1 84.1728 29.9745 51.3328 -6.9422 -27.0342 -9.0083
# 2 29.9745 80.5444 49.5632 -14.4294 -21.4034 -12.3696
# 3 51.3328 49.5632 207.6380 -30.7628 -44.0003 -1.5548
# 4 -6.9422 -14.4294 -30.7628 57.6458 8.7497 -12.9403
# 5 -27.0342 -21.4034 -44.0003 8.7497 51.9422 -6.1897
# 6 -9.0083 -12.3696 -1.5548 -12.9403 -6.1897 28.9989
#
#
#
# Elastic Compliance Matrix: (Units=1/GPa)
#
#
# Indices 1 2 3 4 5 6 
#
# 1 0.016734 -0.002160 -0.002065 0.000685 0.006657 0.005893
# 2 -0.002160 0.018205 -0.001936 0.004776 0.005151 0.010221
# 3 -0.002065 -0.001936 0.006965 0.002617 0.003689 0.000861
# 4 0.000685 0.004776 0.002617 0.022584 0.002281 0.012955
# 5 0.006657 0.005151 0.003689 0.002281 0.028970 0.011664
# 6 0.005893 0.010221 0.000861 0.012955 0.011664 0.048991
#
#
# Mechanical properties :
#
#
# Convention : Reuss Voigt Hill
#
# Bulk Modulus (GPa) = 33.80511 70.45513 52.13012
# Shear Modulus (GPa) = 30.37089 43.81636 37.09363
#
# Velocity S-wave (km/s) = 3.46196 4.15826 3.82598
# Velocity P-wave (km/s) = 5.41485 7.13150 6.33162
#
# Compressibility (1/GPa) = 0.02958133
#
# Stress axis : x y z
#
# Youngs Moduli (GPa) = 59.75798 54.93068 143.58357
#
# Poissons Ratio (x) = 0.11866 0.29653
# Poissons Ratio (y) = 0.12909 0.27794
# Poissons Ratio (z) = 0.12341 0.10633
#
# Static dielectric constant tensor:
#      x y z
#    x 2.062080 0.013800 -0.015870 
#    y 0.013800 1.946900 0.027020 
#    z -0.015870 0.027020 1.948750 
# 
# From -- ./inp_files/620221.got.cif
#   From: 2010.05.17/outbox.cif.g08.bks.cpg/sg2_311_cif.got.tgz:620221.got - 2010.06.03 11:33:40.
