data_PCOD9014864
_publ_section_title
;
Structure prediction by ZEFSAII (Michael W. Deem and Ramdas Pophale) SiO2 
 PCOD9014864
Probable space group: P -1
;
_chemical_formula_sum "Si O2"
_cell_formula_units_Z 15
_cell_length_a 16.893038
_cell_length_b 5.336333
_cell_length_c 9.268841
_cell_angle_alpha 104.822808
_cell_angle_beta 56.233279
_cell_angle_gamma 75.222276
_cell_volume 583.709041
_symmetry_space_group_name_H-M "P -1"
_symmetry_group_IT_number 2
_symmetry_cell_setting 'triclinic'
loop_
_space_group_symop_operation_xyz
x,y,z
-x,-y,-z
loop_
_atom_site_type_symbol
_atom_site_label
_atom_site_fract_x
_atom_site_fract_y
_atom_site_fract_z
Si Si1 0.440328 0.751632 0.220664
Si Si2 0.687429 0.577773 0.670503
Si Si3 0.419098 0.553246 0.719045
Si Si4 0.288828 0.175998 0.035212
Si Si5 0.899124 0.919214 0.646817
Si Si6 0.192469 0.590294 0.963958
Si Si7 0.076050 0.531678 0.631753
Si Si8 0.000000 0.000000 0.000000
O O1 0.352005 0.659367 0.356273
O O2 0.521250 0.709222 0.263889
O O3 0.386027 0.086267 0.265309
O O4 0.500000 0.500000 0.000000
O O5 0.687976 0.617305 0.849782
O O6 0.809138 0.474037 0.473371
O O7 0.500000 0.500000 0.500000
O O8 0.299931 0.603788 0.806586
O O9 0.393788 0.850716 0.875064
O O10 0.193251 0.150319 0.210002
O O11 0.248681 0.259726 0.923321
O O12 0.909174 0.796995 0.455683
O O13 0.014944 0.717168 0.577194
O O14 0.856505 0.239253 0.807546
O O15 0.097245 0.742461 0.968399
O O16 0.998867 0.732565 0.865927
#
# Coordination Sequence:
#
# PCOD9014864 Si02
#       8
#     2   2   2   2   2   2   2   1
#     4  12  25  46  71 106 142 186 241 302 352 425
#     4  11  25  42  74 107 138 183 245 299 355 420
#     4  11  26  42  65  99 143 187 230 293 367 435
#     4  10  21  41  69  97 130 188 233 295 354 429
#     4   8  18  40  62  96 126 173 237 282 364 405
#     4  10  22  42  69  94 138 180 237 290 359 435
#     4   9  19  40  64  95 137 175 229 294 347 433
#     4  10  22  42  68  98 136 184 234 294 364 430
#
# _framework density 25.697734000000001
#
# number of rings (size 3 to 8) (size 9 to 14) (size 15 to 20)
#    0.000    1.867    1.333    1.200    7.467    1.600 
#    4.800   12.000    0.000    0.000    0.000    0.000 
#    0.000    0.000    0.000    0.000    0.000    0.000 
#
# Total GULP energy -83560.185099 kJ/mol
# GULP energy per Si atom -5570.679007 kJ/mol
# Density = 2.563925 g / cm^3
# Si number density = 25.697734 Si / 1000 Ang^3
#
#
#
# Elastic Constant Matrix: (Units=GPa)
#
#
# Indices 1 2 3 4 5 6 
#
# 1 107.1287 43.6681 9.1744 -13.5525 -2.5364 -20.5306
# 2 43.6681 101.4945 8.6042 -10.0138 -8.9518 -33.2538
# 3 9.1744 8.6042 85.4880 2.3174 -3.1841 3.1002
# 4 -13.5525 -10.0138 2.3174 21.7585 -3.9532 -2.1616
# 5 -2.5364 -8.9518 -3.1841 -3.9532 33.3833 -8.0783
# 6 -20.5306 -33.2538 3.1002 -2.1616 -8.0783 57.8525
#
#
#
# Elastic Compliance Matrix: (Units=1/GPa)
#
#
# Indices 1 2 3 4 5 6 
#
# 1 0.012281 -0.003450 -0.001206 0.006729 0.001388 0.002885
# 2 -0.003450 0.015831 -0.001501 0.007475 0.006953 0.009206
# 3 -0.001206 -0.001501 0.012127 -0.002975 -0.000193 -0.002078
# 4 0.006729 0.007475 -0.002975 0.057058 0.011551 0.010589
# 5 0.001388 0.006953 -0.000193 0.011551 0.035673 0.009912
# 6 0.002885 0.009206 -0.002078 0.010589 0.009912 0.025492
#
#
# Mechanical properties :
#
#
# Convention : Reuss Voigt Hill
#
# Bulk Modulus (GPa) = 35.80930 46.33384 41.07157
# Shear Modulus (GPa) = 27.76472 38.10984 32.93728
#
# Velocity S-wave (km/s) = 3.29056 3.85516 3.58399
# Velocity P-wave (km/s) = 5.32936 6.15514 5.75708
#
# Compressibility (1/GPa) = 0.02792570
#
# Stress axis : x y z
#
# Youngs Moduli (GPa) = 81.42496 63.16531 82.46163
#
# Poissons Ratio (x) = 0.21793 0.09945
# Poissons Ratio (y) = 0.28094 0.12374
# Poissons Ratio (z) = 0.09820 0.09479
#
# Static dielectric constant tensor:
#      x y z
#    x 1.925200 -0.111080 -0.004810 
#    y -0.111080 1.969570 0.019200 
#    z -0.004810 0.019200 2.096650 
# 
# From -- ./inp_files/322713.got.cif
#   From: 2010.05.17/outbox.cif.g08.bks.cpg/sg2_162_cif.got.tgz:322713.got - 2010.06.03 11:33:40.
