data_PCOD9014090
_publ_section_title
;
Structure prediction by ZEFSAII (Michael W. Deem and Ramdas Pophale) SiO2 
 PCOD9014090
Probable space group: P -1
;
_chemical_formula_sum "Si O2"
_cell_formula_units_Z 16
_cell_length_a 14.167978
_cell_length_b 9.471228
_cell_length_c 11.551840
_cell_angle_alpha 82.303772
_cell_angle_beta 148.678299
_cell_angle_gamma 86.853572
_cell_volume 754.209756
_symmetry_space_group_name_H-M "P -1"
_symmetry_group_IT_number 2
_symmetry_cell_setting 'triclinic'
loop_
_space_group_symop_operation_xyz
x,y,z
-x,-y,-z
loop_
_atom_site_type_symbol
_atom_site_label
_atom_site_fract_x
_atom_site_fract_y
_atom_site_fract_z
Si Si1 0.509962 0.161118 0.153150
Si Si2 0.968772 0.390539 0.813815
Si Si3 0.507934 0.153824 0.787007
Si Si4 0.856658 0.129592 0.988656
Si Si5 0.848601 0.538140 0.234163
Si Si6 0.600946 0.348008 0.048561
Si Si7 0.852963 0.707448 0.763081
Si Si8 0.769938 0.157909 0.630942
O O1 0.651288 0.209555 0.207855
O O2 0.591566 0.155579 0.368777
O O3 0.486097 0.999696 0.125263
O O4 0.314635 0.302101 0.925993
O O5 0.057554 0.436737 0.789250
O O6 0.866224 0.539084 0.763675
O O7 0.816205 0.309142 0.633932
O O8 0.128743 0.281697 0.080218
O O9 0.706891 0.130464 0.930753
O O10 0.336459 0.189625 0.510139
O O11 0.480427 0.292797 0.831731
O O12 0.753402 0.147693 0.753012
O O13 0.959134 0.257277 0.090567
O O14 0.039878 0.977910 0.192081
O O15 0.765701 0.398846 0.155052
O O16 0.000000 0.500000 0.500000
O O17 0.500000 0.500000 0.000000
#
# Coordination Sequence:
#
# PCOD9014090 Si02
#       8
#     2   2   2   2   2   2   2   2
#     4  11  24  42  67  98 131 180 222 275 340 388
#     4  10  22  41  63  95 135 177 223 267 338 391
#     4  12  24  42  71  99 135 175 225 278 337 403
#     4  10  22  42  64 102 139 175 213 269 335 396
#     4  11  24  42  68  95 129 177 229 273 325 406
#     4  10  25  45  64  92 129 172 228 278 335 389
#     4  10  23  41  64  98 139 173 213 284 331 394
#     4  10  21  41  66  96 142 173 214 272 325 404
#
# _framework density 21.214255999999999
#
# number of rings (size 3 to 8) (size 9 to 14) (size 15 to 20)
#    0.000    1.500    1.250    2.625    8.750    0.500 
#    0.000    3.750    0.000    0.000    0.000    0.000 
#    0.000    0.000    0.000    0.000    0.000    0.000 
#
# Total GULP energy -89332.987936 kJ/mol
# GULP energy per Si atom -5583.311746 kJ/mol
# Density = 2.116597 g / cm^3
# Si number density = 21.214256 Si / 1000 Ang^3
#
#
#
# Elastic Constant Matrix: (Units=GPa)
#
#
# Indices 1 2 3 4 5 6 
#
# 1 91.7180 32.1008 15.7714 3.6729 -11.7022 17.9277
# 2 32.1008 132.2753 36.8990 15.5954 -5.2244 20.9273
# 3 15.7714 36.8990 111.5046 3.8216 -17.9129 1.6703
# 4 3.6729 15.5954 3.8216 27.7014 -3.2285 -4.2479
# 5 -11.7022 -5.2244 -17.9129 -3.2285 15.8413 -0.6331
# 6 17.9277 20.9273 1.6703 -4.2479 -0.6331 33.6496
#
#
#
# Elastic Compliance Matrix: (Units=1/GPa)
#
#
# Indices 1 2 3 4 5 6 
#
# 1 0.014024 -0.002106 0.000389 -0.000520 0.009757 -0.006063
# 2 -0.002106 0.010672 -0.003488 -0.006622 -0.003580 -0.006245
# 3 0.000389 -0.003488 0.012109 0.002082 0.013330 0.001874
# 4 -0.000520 -0.006622 0.002082 0.042130 0.008763 0.009776
# 5 0.009757 -0.003580 0.013330 0.008763 0.085976 -0.000910
# 6 -0.006063 -0.006245 0.001874 0.009776 -0.000910 0.037956
#
#
# Mechanical properties :
#
#
# Convention : Reuss Voigt Hill
#
# Bulk Modulus (GPa) = 37.88512 56.11560 47.00036
# Shear Modulus (GPa) = 22.51493 32.15354 27.33424
#
# Velocity S-wave (km/s) = 3.26131 3.89737 3.59344
# Velocity P-wave (km/s) = 5.66380 6.83827 6.27856
#
# Compressibility (1/GPa) = 0.02639559
#
# Stress axis : x y z
#
# Youngs Moduli (GPa) = 71.30604 93.70729 82.58078
#
# Poissons Ratio (x) = 0.19735 -0.03216
# Poissons Ratio (y) = 0.15017 0.28805
# Poissons Ratio (z) = -0.02777 0.32686
#
# Static dielectric constant tensor:
#      x y z
#    x 1.803630 0.001930 -0.015760 
#    y 0.001930 1.775410 -0.008610 
#    z -0.015760 -0.008610 1.773390 
# 
# From -- ./inp_files/447399.got.cif
#   From: 2010.05.17/outbox.cif.g08.bks.cpg/sg2_224_cif.got.tgz:447399.got - 2010.06.03 11:33:40.
