data_PCOD9014023
_publ_section_title
;
Structure prediction by ZEFSAII (Michael W. Deem and Ramdas Pophale) SiO2 
 PCOD9014023
Probable space group: P -1
;
_chemical_formula_sum "Si O2"
_cell_formula_units_Z 16
_cell_length_a 9.866087
_cell_length_b 15.845159
_cell_length_c 10.188812
_cell_angle_alpha 62.969741
_cell_angle_beta 135.843758
_cell_angle_gamma 85.017488
_cell_volume 737.804529
_symmetry_space_group_name_H-M "P -1"
_symmetry_group_IT_number 2
_symmetry_cell_setting 'triclinic'
loop_
_space_group_symop_operation_xyz
x,y,z
-x,-y,-z
loop_
_atom_site_type_symbol
_atom_site_label
_atom_site_fract_x
_atom_site_fract_y
_atom_site_fract_z
Si Si1 0.229144 0.501846 0.181501
Si Si2 0.472621 0.298103 0.880915
Si Si3 0.611252 0.438253 0.982533
Si Si4 0.187498 0.215943 0.629181
Si Si5 0.784049 0.060956 0.419592
Si Si6 0.565610 0.001219 0.847140
Si Si7 0.866775 0.967932 0.836021
Si Si8 0.751512 0.293431 0.847595
O O1 0.462407 0.393305 0.514301
O O2 0.157438 0.631458 0.094014
O O3 0.359167 0.481442 0.146583
O O4 0.000000 0.500000 0.000000
O O5 0.249908 0.299362 0.674610
O O6 0.700381 0.238748 0.972091
O O7 0.420899 0.423706 0.791611
O O8 0.591675 0.210978 0.153733
O O9 0.906244 0.304430 0.303977
O O10 0.500000 0.500000 0.000000
O O11 0.420841 0.124640 0.750422
O O12 0.215450 0.122972 0.823355
O O13 0.640867 0.013597 0.306310
O O14 0.829588 0.031814 0.625691
O O15 0.000000 0.000000 0.500000
O O16 0.636551 0.009655 0.743439
O O17 0.045621 0.819645 0.030009
O O18 0.000000 0.000000 0.000000
#
# Coordination Sequence:
#
# PCOD9014023 Si02
#       8
#     2   2   2   2   2   2   2   2
#     4  10  23  45  70  92 126 185 227 280 342 400
#     4  10  21  41  66  94 130 184 214 273 336 413
#     4  11  25  41  67  97 129 170 229 287 333 400
#     4  10  22  42  67  94 137 178 223 269 345 406
#     4  11  22  42  68  95 136 181 222 266 347 411
#     4  10  24  41  66  97 136 181 223 273 335 409
#     4  12  26  40  66 107 144 176 224 290 338 412
#     4  10  22  43  67  96 137 172 230 279 340 402
#
# _framework density 21.685960000000001
#
# number of rings (size 3 to 8) (size 9 to 14) (size 15 to 20)
#    0.000    1.500    1.250    2.625    8.750    0.500 
#    6.750    0.000    0.000    0.000    0.000    0.000 
#    0.000    0.000    0.000    0.000    0.000    0.000 
#
# Total GULP energy -89260.795962 kJ/mol
# GULP energy per Si atom -5578.799748 kJ/mol
# Density = 2.163660 g / cm^3
# Si number density = 21.685960 Si / 1000 Ang^3
#
#
#
# Elastic Constant Matrix: (Units=GPa)
#
#
# Indices 1 2 3 4 5 6 
#
# 1 126.5460 37.0204 34.9477 1.9718 -21.0056 3.8072
# 2 37.0204 71.7645 20.6591 10.4173 -0.9673 8.9849
# 3 34.9477 20.6591 93.1385 14.9963 -23.1803 6.5463
# 4 1.9718 10.4173 14.9963 18.8854 -1.7498 5.2227
# 5 -21.0056 -0.9673 -23.1803 -1.7498 32.9355 13.9729
# 6 3.8072 8.9849 6.5463 5.2227 13.9729 44.2750
#
#
#
# Elastic Compliance Matrix: (Units=1/GPa)
#
#
# Indices 1 2 3 4 5 6 
#
# 1 0.011162 -0.005520 -0.001832 0.004603 0.006881 -0.002283
# 2 -0.005520 0.018532 -0.001705 -0.008514 -0.004350 -0.000657
# 3 -0.001832 -0.001705 0.016660 -0.009726 0.011932 -0.004578
# 4 0.004603 -0.008514 -0.009726 0.066616 0.001777 -0.005649
# 5 0.006881 -0.004350 0.011932 0.001777 0.050605 -0.017653
# 6 -0.002283 -0.000657 -0.004578 -0.005649 -0.017653 0.029830
#
#
# Mechanical properties :
#
#
# Convention : Reuss Voigt Hill
#
# Bulk Modulus (GPa) = 35.41131 52.96704 44.18917
# Shear Modulus (GPa) = 22.63120 32.47397 27.55259
#
# Velocity S-wave (km/s) = 3.23397 3.87391 3.56831
# Velocity P-wave (km/s) = 5.50539 6.66987 6.11541
#
# Compressibility (1/GPa) = 0.02823957
#
# Stress axis : x y z
#
# Youngs Moduli (GPa) = 89.58734 53.95926 60.02489
#
# Poissons Ratio (x) = 0.29788 0.10997
# Poissons Ratio (y) = 0.49456 0.10234
# Poissons Ratio (z) = 0.16413 0.09200
#
# Static dielectric constant tensor:
#      x y z
#    x 1.797570 0.092470 -0.079550 
#    y 0.092470 1.783880 -0.070210 
#    z -0.079550 -0.070210 1.917340 
# 
# From -- ./inp_files/206549.got.cif
#   From: 2010.05.17/outbox.cif.g08.bks.cpg/sg2_104_cif.got.tgz:206549.got - 2010.06.03 11:33:40.
