data_PCOD9014286
_publ_section_title
;
Structure prediction by ZEFSAII (Michael W. Deem and Ramdas Pophale) SiO2 
 PCOD9014286
Probable space group: P -1
;
_chemical_formula_sum "Si O2"
_cell_formula_units_Z 14
_cell_length_a 5.173040
_cell_length_b 11.903692
_cell_length_c 10.279329
_cell_angle_alpha 90.336647
_cell_angle_beta 112.468805
_cell_angle_gamma 80.693450
_cell_volume 576.146176
_symmetry_space_group_name_H-M "P -1"
_symmetry_group_IT_number 2
_symmetry_cell_setting 'triclinic'
loop_
_space_group_symop_operation_xyz
x,y,z
-x,-y,-z
loop_
_atom_site_type_symbol
_atom_site_label
_atom_site_fract_x
_atom_site_fract_y
_atom_site_fract_z
Si Si1 0.264182 0.539656 0.843873
Si Si2 0.678193 0.687610 0.815625
Si Si3 0.854435 0.897603 0.375949
Si Si4 0.514653 0.807626 0.518048
Si Si5 0.778525 0.028051 0.124174
Si Si6 0.406479 0.313171 0.724964
Si Si7 0.947639 0.189931 0.961361
O O1 0.403647 0.632129 0.791232
O O2 0.246336 0.431889 0.748016
O O3 0.958652 0.592574 0.843084
O O4 0.500000 0.500000 0.000000
O O5 0.624271 0.764378 0.678052
O O6 0.768988 0.760341 0.954088
O O7 0.699493 0.890410 0.482957
O O8 0.759063 0.010385 0.273623
O O9 0.752023 0.793476 0.275725
O O10 0.188015 0.864650 0.455929
O O11 0.550420 0.700423 0.422107
O O12 0.019620 0.922136 0.123470
O O13 0.855392 0.142810 0.081749
O O14 0.500000 0.000000 0.000000
O O15 0.708787 0.284081 0.854293
#
# Coordination Sequence:
#
# PCOD9014286 Si02
#       7
#     2   2   2   2   2   2   2
#     4  12  27  42  69 100 134 173 219 268 327 385
#     4  12  28  45  65 100 138 169 219 270 325 388
#     4  10  21  41  67  92 132 169 221 266 318 386
#     4  10  23  43  66  92 137 177 211 265 325 386
#     4  11  21  39  69 101 122 170 225 270 327 391
#     4  10  23  41  70  91 135 175 219 265 323 380
#     4  11  24  41  68  98 133 167 219 278 328 381
#
# _framework density 24.299392000000001
#
# number of rings (size 3 to 8) (size 9 to 14) (size 15 to 20)
#    0.857    0.286    4.286    1.286    8.000    1.143 
#    0.000    1.429    0.000    0.000    0.000    0.000 
#    0.000    0.000    0.000    0.000    0.000    0.000 
#
# Total GULP energy -78413.117998 kJ/mol
# GULP energy per Si atom -5600.937000 kJ/mol
# Density = 2.424409 g / cm^3
# Si number density = 24.299392 Si / 1000 Ang^3
#
#
#
# Elastic Constant Matrix: (Units=GPa)
#
#
# Indices 1 2 3 4 5 6 
#
# 1 87.1757 12.2474 -0.7869 -3.0203 -3.7188 -6.4584
# 2 12.2474 77.7613 12.2265 30.3826 -11.1845 -14.0262
# 3 -0.7869 12.2265 105.5259 -1.0474 -5.8995 -5.4520
# 4 -3.0203 30.3826 -1.0474 34.9255 5.7021 0.9543
# 5 -3.7188 -11.1845 -5.8995 5.7021 34.8733 -5.1618
# 6 -6.4584 -14.0262 -5.4520 0.9543 -5.1618 41.2999
#
#
#
# Elastic Compliance Matrix: (Units=1/GPa)
#
#
# Indices 1 2 3 4 5 6 
#
# 1 0.012159 -0.003609 0.000562 0.004252 -0.000371 0.000605
# 2 -0.003609 0.029157 -0.002254 -0.028502 0.014958 0.011568
# 3 0.000562 -0.002254 0.009839 0.002165 0.000746 0.000664
# 4 0.004252 -0.028502 0.002165 0.057394 -0.019556 -0.012500
# 5 -0.000371 0.014958 0.000746 -0.019556 0.038290 0.010358
# 6 0.000605 0.011568 0.000664 -0.012500 0.010358 0.029908
#
#
# Mechanical properties :
#
#
# Convention : Reuss Voigt Hill
#
# Bulk Modulus (GPa) = 24.65934 35.31518 29.98726
# Shear Modulus (GPa) = 24.89194 38.67148 31.78171
#
# Velocity S-wave (km/s) = 3.20407 3.99364 3.62044
# Velocity P-wave (km/s) = 4.88449 5.98585 5.46300
#
# Compressibility (1/GPa) = 0.04055259
#
# Stress axis : x y z
#
# Youngs Moduli (GPa) = 82.24026 34.29698 101.63420
#
# Poissons Ratio (x) = 0.12378 -0.05707
# Poissons Ratio (y) = 0.29681 0.22910
# Poissons Ratio (z) = -0.04618 0.07731
#
# Static dielectric constant tensor:
#      x y z
#    x 1.961840 -0.027810 -0.059050 
#    y -0.027810 1.967040 0.038880 
#    z -0.059050 0.038880 1.908130 
# 
# From -- ./inp_files/364380.got.cif
#   From: 2010.05.17/outbox.cif.g08.bks.cpg/sg2_183_cif.got.tgz:364380.got - 2010.06.03 11:33:40.
