data_PCOD9014420
_publ_section_title
;
Structure prediction by ZEFSAII (Michael W. Deem and Ramdas Pophale) SiO2 
 PCOD9014420
Probable space group: P -1
;
_chemical_formula_sum "Si O2"
_cell_formula_units_Z 14
_cell_length_a 8.771317
_cell_length_b 10.593411
_cell_length_c 9.125441
_cell_angle_alpha 48.093404
_cell_angle_beta 86.345920
_cell_angle_gamma 101.521906
_cell_volume 595.309948
_symmetry_space_group_name_H-M "P -1"
_symmetry_group_IT_number 2
_symmetry_cell_setting 'triclinic'
loop_
_space_group_symop_operation_xyz
x,y,z
-x,-y,-z
loop_
_atom_site_type_symbol
_atom_site_label
_atom_site_fract_x
_atom_site_fract_y
_atom_site_fract_z
Si Si1 0.016072 0.730247 0.399554
Si Si2 0.988644 0.661369 0.770605
Si Si3 0.173090 0.315522 0.829224
Si Si4 0.884284 0.051185 0.238617
Si Si5 0.671875 0.496616 0.038565
Si Si6 0.656102 0.978699 0.925775
Si Si7 0.433732 0.905109 0.728765
O O1 0.027055 0.629915 0.626608
O O2 0.887844 0.626711 0.364555
O O3 0.192124 0.837752 0.239426
O O4 0.942767 0.882445 0.344577
O O5 0.087773 0.855810 0.675567
O O6 0.802164 0.641741 0.819758
O O7 0.000000 0.500000 0.000000
O O8 0.280622 0.456783 0.830913
O O9 0.270250 0.173684 0.905005
O O10 0.007051 0.200422 0.011159
O O11 0.695842 0.015960 0.248848
O O12 0.665999 0.299449 0.144789
O O13 0.500000 0.500000 0.000000
O O14 0.583572 0.919932 0.813587
O O15 0.500000 0.000000 0.000000
O O16 0.500000 0.000000 0.500000
#
# Coordination Sequence:
#
# PCOD9014420 Si02
#       7
#     2   2   2   2   2   2   2
#     4  11  23  42  70 102 131 180 227 264 338 401
#     4  11  23  42  68  96 137 177 223 273 324 396
#     4  10  22  43  69  94 133 180 220 275 335 397
#     4  10  21  41  67  97 134 174 223 271 326 403
#     4  11  24  45  66  93 137 175 220 279 337 390
#     4  11  22  41  67 103 138 171 221 283 332 391
#     4  12  24  39  69 102 129 173 228 275 328 399
#
# _framework density 23.517163
#
# number of rings (size 3 to 8) (size 9 to 14) (size 15 to 20)
#    0.000    1.143    2.857    4.714    2.000    0.000 
#    0.000    5.000    0.000    0.000    0.000    0.000 
#    0.000    0.000    0.000    0.000    0.000    0.000 
#
# Total GULP energy -78289.962151 kJ/mol
# GULP energy per Si atom -5592.140154 kJ/mol
# Density = 2.346364 g / cm^3
# Si number density = 23.517163 Si / 1000 Ang^3
#
#
#
# Elastic Constant Matrix: (Units=GPa)
#
#
# Indices 1 2 3 4 5 6 
#
# 1 164.5962 29.0825 30.3871 15.3965 -3.4390 3.0010
# 2 29.0825 118.0590 30.6819 28.8823 9.2176 12.4026
# 3 30.3871 30.6819 74.7546 30.3315 19.6100 10.8064
# 4 15.3965 28.8823 30.3315 36.0146 7.2127 6.6577
# 5 -3.4390 9.2176 19.6100 7.2127 22.1006 8.8693
# 6 3.0010 12.4026 10.8064 6.6577 8.8693 53.0355
#
#
#
# Elastic Compliance Matrix: (Units=1/GPa)
#
#
# Indices 1 2 3 4 5 6 
#
# 1 0.007060 -0.001161 -0.003677 0.000065 0.004907 -0.000208
# 2 -0.001161 0.010918 -0.000479 -0.007344 -0.001418 -0.001231
# 3 -0.003677 -0.000479 0.026815 -0.016903 -0.018690 0.000104
# 4 0.000065 -0.007344 -0.016903 0.047487 0.003104 -0.001322
# 5 0.004907 -0.001418 -0.018690 0.003104 0.065153 -0.007423
# 6 -0.000208 -0.001231 0.000104 -0.001322 -0.007423 0.020541
#
#
# Mechanical properties :
#
#
# Convention : Reuss Voigt Hill
#
# Bulk Modulus (GPa) = 29.27605 59.74586 44.51095
# Shear Modulus (GPa) = 25.00092 40.04737 32.52414
#
# Velocity S-wave (km/s) = 3.26405 4.13110 3.72290
# Velocity P-wave (km/s) = 5.16538 6.94370 6.11948
#
# Compressibility (1/GPa) = 0.03415762
#
# Stress axis : x y z
#
# Youngs Moduli (GPa) = 141.65073 91.59592 37.29276
#
# Poissons Ratio (x) = 0.10632 0.13713
# Poissons Ratio (y) = 0.16442 0.01788
# Poissons Ratio (z) = 0.52085 0.04392
#
# Static dielectric constant tensor:
#      x y z
#    x 1.977630 0.000480 0.061190 
#    y 0.000480 1.991710 0.013430 
#    z 0.061190 0.013430 1.934740 
# 
# From -- ./inp_files/174313.got.cif
#   From: 2010.05.17/outbox.cif.g08.bks.cpg/sg2_88_cif.got.tgz:174313.got - 2010.06.03 11:33:40.
