data_PCOD9014710
_publ_section_title
;
Structure prediction by ZEFSAII (Michael W. Deem and Ramdas Pophale) SiO2 
 PCOD9014710
Probable space group: P -1
;
_chemical_formula_sum "Si O2"
_cell_formula_units_Z 14
_cell_length_a 8.682915
_cell_length_b 12.643529
_cell_length_c 7.227258
_cell_angle_alpha 111.851841
_cell_angle_beta 102.173344
_cell_angle_gamma 49.773341
_cell_volume 561.765502
_symmetry_space_group_name_H-M "P -1"
_symmetry_group_IT_number 2
_symmetry_cell_setting 'triclinic'
loop_
_space_group_symop_operation_xyz
x,y,z
-x,-y,-z
loop_
_atom_site_type_symbol
_atom_site_label
_atom_site_fract_x
_atom_site_fract_y
_atom_site_fract_z
Si Si1 0.300139 0.597728 0.253799
Si Si2 0.210339 0.884053 0.384144
Si Si3 0.828446 0.788046 0.865217
Si Si4 0.643096 0.720014 0.479786
Si Si5 0.771715 0.056375 0.961780
Si Si6 0.333665 0.329699 0.984392
Si Si7 0.240676 0.578267 0.641152
O O1 0.222359 0.746619 0.231106
O O2 0.250946 0.494907 0.098927
O O3 0.227992 0.640369 0.476853
O O4 0.543270 0.496105 0.259525
O O5 0.405245 0.810735 0.513740
O O6 0.236928 0.958621 0.271081
O O7 0.000000 0.000000 0.500000
O O8 0.720455 0.793832 0.654065
O O9 0.782225 0.714206 0.958261
O O10 0.060704 0.691735 0.802785
O O11 0.752835 0.948050 0.998277
O O12 0.759621 0.557440 0.482513
O O13 0.672283 0.700069 0.253121
O O14 0.567700 0.221627 0.046118
O O15 0.000000 0.000000 0.000000
#
# Coordination Sequence:
#
# PCOD9014710 Si02
#       7
#     2   2   2   2   2   2   2
#     4  10  21  42  72  97 137 175 230 287 325 407
#     4  10  23  43  68 103 130 184 232 273 336 404
#     4  12  24  45  70  95 144 177 220 289 340 401
#     4  10  24  42  69 100 138 176 228 276 342 407
#     4  11  26  45  67  98 134 182 230 276 340 410
#     4  11  25  43  68 104 134 176 228 281 343 399
#     4  10  21  41  69 100 130 183 220 271 347 397
#
# _framework density 24.921431999999999
#
# number of rings (size 3 to 8) (size 9 to 14) (size 15 to 20)
#    0.000    1.429    1.429    2.571    2.000    9.143 
#    5.143    0.000    0.000    0.000    0.000    0.000 
#    0.000    0.000    0.000    0.000    0.000    0.000 
#
# Total GULP energy -78404.555339 kJ/mol
# GULP energy per Si atom -5600.325381 kJ/mol
# Density = 2.486471 g / cm^3
# Si number density = 24.921432 Si / 1000 Ang^3
#
#
#
# Elastic Constant Matrix: (Units=GPa)
#
#
# Indices 1 2 3 4 5 6 
#
# 1 113.6219 51.7574 41.7688 3.9229 -15.3447 16.2461
# 2 51.7574 87.4596 24.9699 13.3646 3.8748 10.7973
# 3 41.7688 24.9699 80.7222 -4.2594 -0.5875 2.0958
# 4 3.9229 13.3646 -4.2594 35.0821 3.7674 0.3771
# 5 -15.3447 3.8748 -0.5875 3.7674 41.1574 7.6625
# 6 16.2461 10.7973 2.0958 0.3771 7.6625 46.8233
#
#
#
# Elastic Compliance Matrix: (Units=1/GPa)
#
#
# Indices 1 2 3 4 5 6 
#
# 1 0.016112 -0.007546 -0.005844 -0.000398 0.007569 -0.004824
# 2 -0.007546 0.017536 -0.001828 -0.005638 -0.003850 -0.000668
# 3 -0.005844 -0.001828 0.016092 0.003549 -0.002494 0.002108
# 4 -0.000398 -0.005638 0.003549 0.031403 -0.002715 0.001471
# 5 0.007569 -0.003850 -0.002494 -0.002715 0.028873 -0.006330
# 6 -0.004824 -0.000668 0.002108 0.001471 -0.006330 0.024114
#
#
# Mechanical properties :
#
#
# Convention : Reuss Voigt Hill
#
# Bulk Modulus (GPa) = 51.80010 57.64399 54.72205
# Shear Modulus (GPa) = 29.23983 35.49974 32.36979
#
# Velocity S-wave (km/s) = 3.42903 3.77831 3.60790
# Velocity P-wave (km/s) = 6.04220 6.49728 6.27387
#
# Compressibility (1/GPa) = 0.01930498
#
# Stress axis : x y z
#
# Youngs Moduli (GPa) = 62.06506 57.02631 62.14378
#
# Poissons Ratio (x) = 0.43030 0.36314
# Poissons Ratio (y) = 0.46832 0.11361
# Poissons Ratio (z) = 0.36268 0.10425
#
# Static dielectric constant tensor:
#      x y z
#    x 1.972850 -0.025360 0.018290 
#    y -0.025360 1.986470 -0.020680 
#    z 0.018290 -0.020680 1.972580 
# 
# From -- ./inp_files/181618.got.cif
#   From: 2010.05.17/outbox.cif.g08.bks.cpg/sg2_91_cif.got.tgz:181618.got - 2010.06.03 11:33:40.
