data_PCOD9014875
_publ_section_title
;
Structure prediction by ZEFSAII (Michael W. Deem and Ramdas Pophale) SiO2 
 PCOD9014875
Probable space group: P -1
;
_chemical_formula_sum "Si O2"
_cell_formula_units_Z 12
_cell_length_a 11.514419
_cell_length_b 8.657524
_cell_length_c 5.305403
_cell_angle_alpha 98.869442
_cell_angle_beta 67.505972
_cell_angle_gamma 104.999049
_cell_volume 471.088509
_symmetry_space_group_name_H-M "P -1"
_symmetry_group_IT_number 2
_symmetry_cell_setting 'triclinic'
loop_
_space_group_symop_operation_xyz
x,y,z
-x,-y,-z
loop_
_atom_site_type_symbol
_atom_site_label
_atom_site_fract_x
_atom_site_fract_y
_atom_site_fract_z
Si Si1 0.454559 0.126083 0.744739
Si Si2 0.776122 0.696795 0.775057
Si Si3 0.334658 0.824479 0.078376
Si Si4 0.917007 0.637082 0.116252
Si Si5 0.905359 0.059685 0.785304
Si Si6 0.535280 0.669424 0.636433
O O1 0.387089 0.217607 0.619243
O O2 0.500000 0.000000 0.500000
O O3 0.389096 0.011108 0.997309
O O4 0.593279 0.223293 0.750975
O O5 0.817703 0.604852 0.956181
O O6 0.626121 0.671444 0.807027
O O7 0.821238 0.883249 0.871568
O O8 0.848190 0.651660 0.449361
O O9 0.400196 0.722710 0.804970
O O10 0.186273 0.828088 0.225574
O O11 0.012464 0.815410 0.053391
O O12 0.000000 0.500000 0.000000
O O13 0.000000 0.000000 0.500000
O O14 0.500000 0.500000 0.500000
#
# Coordination Sequence:
#
# PCOD9014875 Si02
#       6
#     2   2   2   2   2   2
#     4   9  19  39  64 100 133 178 229 287 359 425
#     4  11  25  47  72 103 145 189 246 299 356 442
#     4  10  21  41  69  97 140 178 234 296 363 418
#     4  11  26  47  73 104 146 192 241 300 365 427
#     4  10  23  45  72 106 137 190 246 292 352 438
#     4  11  26  42  67 107 140 185 234 300 371 429
#
# _framework density 25.472918
#
# number of rings (size 3 to 8) (size 9 to 14) (size 15 to 20)
#    0.000    1.667    0.000    4.000    7.000    2.000 
#   15.000    0.000    0.000    0.000    0.000    0.000 
#    0.000    0.000    0.000    0.000    0.000    0.000 
#
# Total GULP energy -66809.382329 kJ/mol
# GULP energy per Si atom -5567.448527 kJ/mol
# Density = 2.541494 g / cm^3
# Si number density = 25.472918 Si / 1000 Ang^3
#
#
#
# Elastic Constant Matrix: (Units=GPa)
#
#
# Indices 1 2 3 4 5 6 
#
# 1 181.0573 39.6943 68.5704 14.9512 -3.7891 -39.7627
# 2 39.6943 101.7638 35.6646 31.6183 -1.9803 -11.9174
# 3 68.5704 35.6646 106.9631 14.2624 -2.9009 -25.7621
# 4 14.9512 31.6183 14.2624 39.2107 -14.1726 -4.7096
# 5 -3.7891 -1.9803 -2.9009 -14.1726 59.6556 8.4590
# 6 -39.7627 -11.9174 -25.7621 -4.7096 8.4590 43.2949
#
#
#
# Elastic Compliance Matrix: (Units=1/GPa)
#
#
# Indices 1 2 3 4 5 6 
#
# 1 0.008342 -0.001251 -0.003634 -0.000414 -0.000526 0.005212
# 2 -0.001251 0.014741 -0.002510 -0.011318 -0.002496 0.000672
# 3 -0.003634 -0.002510 0.013646 -0.001256 -0.000524 0.004057
# 4 -0.000414 -0.011318 -0.001256 0.038236 0.008879 -0.001819
# 5 -0.000526 -0.002496 -0.000524 0.008879 0.019339 -0.004295
# 6 0.005212 0.000672 0.004057 -0.001819 -0.004295 0.031124
#
#
# Mechanical properties :
#
#
# Convention : Reuss Voigt Hill
#
# Bulk Modulus (GPa) = 45.58219 75.29365 60.43792
# Shear Modulus (GPa) = 33.89121 44.82256 39.35689
#
# Velocity S-wave (km/s) = 3.65153 4.19933 3.93497
# Velocity P-wave (km/s) = 5.97591 7.28937 6.66507
#
# Compressibility (1/GPa) = 0.02193839
#
# Stress axis : x y z
#
# Youngs Moduli (GPa) = 119.88233 67.83768 73.28183
#
# Poissons Ratio (x) = 0.08490 0.26631
# Poissons Ratio (y) = 0.15003 0.18391
# Poissons Ratio (z) = 0.43565 0.17025
#
# Static dielectric constant tensor:
#      x y z
#    x 2.622120 -0.004730 -0.160520 
#    y -0.004730 2.073640 -0.006330 
#    z -0.160520 -0.006330 1.942380 
# 
# From -- ./inp_files/61154.got.cif
#   From: 2010.05.17/outbox.cif.g08.bks.cpg/sg2_31_cif.got.tgz:61154.got - 2010.06.03 11:33:40.
