data_PCOD9014263
_publ_section_title
;
Structure prediction by ZEFSAII (Michael W. Deem and Ramdas Pophale) SiO2 
 PCOD9014263
Probable space group: P -1
;
_chemical_formula_sum "Si O2"
_cell_formula_units_Z 16
_cell_length_a 15.568442
_cell_length_b 12.013199
_cell_length_c 8.589100
_cell_angle_alpha 76.283319
_cell_angle_beta 66.261288
_cell_angle_gamma 27.944462
_cell_volume 662.270315
_symmetry_space_group_name_H-M "P -1"
_symmetry_group_IT_number 2
_symmetry_cell_setting 'triclinic'
loop_
_space_group_symop_operation_xyz
x,y,z
-x,-y,-z
loop_
_atom_site_type_symbol
_atom_site_label
_atom_site_fract_x
_atom_site_fract_y
_atom_site_fract_z
Si Si1 0.394201 0.743494 0.378862
Si Si2 0.500432 0.044755 0.238855
Si Si3 0.096129 0.470544 0.800690
Si Si4 0.934849 0.993263 0.231207
Si Si5 0.276096 0.503228 0.304735
Si Si6 0.692616 0.936172 0.815459
Si Si7 0.420261 0.639400 0.851127
Si Si8 0.171792 0.651709 0.677201
O O1 0.221759 0.905351 0.575668
O O2 0.455049 0.562049 0.306769
O O3 0.598164 0.572199 0.363370
O O4 0.325137 0.910027 0.246901
O O5 0.319271 0.322568 0.328527
O O6 0.422622 0.006148 0.253926
O O7 0.685856 0.820348 0.293830
O O8 0.593348 0.003867 0.028134
O O9 0.113935 0.585983 0.796015
O O10 0.926589 0.648515 0.734608
O O11 0.000000 0.500000 0.000000
O O12 0.811582 0.124867 0.114138
O O13 0.947477 0.108469 0.252297
O O14 0.146417 0.696948 0.193229
O O15 0.498461 0.319675 0.214092
O O16 0.162970 0.657991 0.494827
O O17 0.500000 0.500000 0.000000
#
# Coordination Sequence:
#
# PCOD9014263 Si02
#       8
#     2   2   2   2   2   2   2   2
#     4  11  20  43  71  96 134 178 224 276 335 402
#     4  10  23  42  61  98 132 173 224 278 333 395
#     4  10  22  41  67  94 124 173 227 273 327 398
#     4  11  24  43  69 101 135 178 228 268 336 413
#     4  12  24  41  68  99 138 175 225 280 333 397
#     4  10  21  41  67  91 128 178 226 269 338 398
#     4  11  24  42  64 101 138 174 219 280 336 393
#     4  11  21  42  69  97 134 178 225 276 330 401
#
# _framework density 24.159319
#
# number of rings (size 3 to 8) (size 9 to 14) (size 15 to 20)
#    0.000    1.250    3.750    2.625    1.750    2.000 
#    0.000    3.750    0.000    0.000    0.000    0.000 
#    0.000    0.000    0.000    0.000    0.000    0.000 
#
# Total GULP energy -89519.820754 kJ/mol
# GULP energy per Si atom -5594.988797 kJ/mol
# Density = 2.410433 g / cm^3
# Si number density = 24.159319 Si / 1000 Ang^3
#
#
#
# Elastic Constant Matrix: (Units=GPa)
#
#
# Indices 1 2 3 4 5 6 
#
# 1 78.4513 21.7038 23.0046 -4.7054 -14.8532 6.6419
# 2 21.7038 156.0702 9.8409 -10.3477 9.8653 -8.4450
# 3 23.0046 9.8409 46.1053 -2.2586 -7.5180 -7.7829
# 4 -4.7054 -10.3477 -2.2586 31.5239 3.5893 -2.1145
# 5 -14.8532 9.8653 -7.5180 3.5893 27.3177 -18.6866
# 6 6.6419 -8.4450 -7.7829 -2.1145 -18.6866 39.2320
#
#
#
# Elastic Compliance Matrix: (Units=1/GPa)
#
#
# Indices 1 2 3 4 5 6 
#
# 1 0.016964 -0.002427 -0.006970 0.000324 0.007243 -0.001310
# 2 -0.002427 0.007260 -0.001078 0.002468 -0.004847 -0.000416
# 3 -0.006970 -0.001078 0.030026 0.000056 0.014211 0.013676
# 4 0.000324 0.002468 0.000056 0.033162 -0.005193 -0.000198
# 5 0.007243 -0.004847 0.014211 -0.005193 0.069822 0.033527
# 6 -0.001310 -0.000416 0.013676 -0.000198 0.033527 0.044293
#
#
# Mechanical properties :
#
#
# Convention : Reuss Voigt Hill
#
# Bulk Modulus (GPa) = 30.03086 43.30284 36.66685
# Shear Modulus (GPa) = 21.40605 34.68656 28.04630
#
# Velocity S-wave (km/s) = 2.97987 3.79323 3.41088
# Velocity P-wave (km/s) = 4.92918 6.09488 5.54276
#
# Compressibility (1/GPa) = 0.03329908
#
# Stress axis : x y z
#
# Youngs Moduli (GPa) = 58.94926 137.73448 33.30421
#
# Poissons Ratio (x) = 0.33426 0.23214
# Poissons Ratio (y) = 0.14306 0.03592
# Poissons Ratio (z) = 0.41089 0.14855
#
# Static dielectric constant tensor:
#      x y z
#    x 1.876590 -0.036610 -0.028710 
#    y -0.036610 1.944640 -0.006870 
#    z -0.028710 -0.006870 1.965320 
# 
# From -- ./inp_files/307309.got.cif
#   From: 2010.05.17/outbox.cif.g08.bks.cpg/sg2_154_cif.got.tgz:307309.got - 2010.06.03 11:33:40.
