data_PCOD9014742
_publ_section_title
;
Structure prediction by ZEFSAII (Michael W. Deem and Ramdas Pophale) SiO2 
 PCOD9014742
Probable space group: P -1
;
_chemical_formula_sum "Si O2"
_cell_formula_units_Z 16
_cell_length_a 12.784833
_cell_length_b 14.264218
_cell_length_c 5.147369
_cell_angle_alpha 55.560870
_cell_angle_beta 91.802760
_cell_angle_gamma 112.714283
_cell_volume 692.241426
_symmetry_space_group_name_H-M "P -1"
_symmetry_group_IT_number 2
_symmetry_cell_setting 'triclinic'
loop_
_space_group_symop_operation_xyz
x,y,z
-x,-y,-z
loop_
_atom_site_type_symbol
_atom_site_label
_atom_site_fract_x
_atom_site_fract_y
_atom_site_fract_z
Si Si1 0.506293 0.896092 0.850995
Si Si2 0.887230 0.937065 0.905703
Si Si3 0.430569 0.649134 0.794758
Si Si4 0.093681 0.796722 0.566292
Si Si5 0.057856 0.281547 0.846603
Si Si6 0.681864 0.520249 0.447550
Si Si7 0.656475 0.156601 0.661763
Si Si8 0.365884 0.253978 0.733410
O O1 0.500000 0.000000 0.500000
O O2 0.599282 0.003401 0.890311
O O3 0.378723 0.820844 0.087938
O O4 0.569894 0.806391 0.980697
O O5 0.873827 0.055579 0.597617
O O6 0.908871 0.834293 0.897967
O O7 0.765460 0.850005 0.175635
O O8 0.000000 0.000000 0.000000
O O9 0.352674 0.554930 0.706206
O O10 0.406276 0.772926 0.615528
O O11 0.558426 0.696290 0.600978
O O12 0.383964 0.570300 0.175683
O O13 0.211590 0.790551 0.501018
O O14 0.008540 0.753374 0.378463
O O15 0.026967 0.716387 0.936843
O O16 0.177889 0.408383 0.629914
O O17 0.641844 0.631570 0.294764
#
# Coordination Sequence:
#
# PCOD9014742 Si02
#       8
#     2   2   2   2   2   2   2   2
#     4  10  22  42  65  98 139 175 215 276 338 403
#     4   9  19  38  63  97 134 170 209 272 336 400
#     4  11  25  43  68  94 136 177 228 275 329 386
#     4  11  21  40  63  96 127 173 215 270 334 402
#     4  10  23  39  65  91 130 168 226 271 328 387
#     4  11  24  47  66  97 131 179 227 283 323 388
#     4  10  24  40  63  97 134 175 223 271 334 398
#     4  10  21  41  69 102 132 174 223 272 341 401
#
# _framework density 23.113325
#
# number of rings (size 3 to 8) (size 9 to 14) (size 15 to 20)
#    0.000    1.750    1.250    1.875    5.250    0.000 
#    4.500   11.250    0.000    0.000    0.000    0.000 
#    0.000    0.000    0.000    0.000    0.000    0.000 
#
# Total GULP energy -89339.253461 kJ/mol
# GULP energy per Si atom -5583.703341 kJ/mol
# Density = 2.306072 g / cm^3
# Si number density = 23.113325 Si / 1000 Ang^3
#
#
#
# Elastic Constant Matrix: (Units=GPa)
#
#
# Indices 1 2 3 4 5 6 
#
# 1 105.9829 7.0618 29.1197 -19.9809 -39.0472 7.5025
# 2 7.0618 55.9888 20.4374 -18.4464 -11.6539 2.1054
# 3 29.1197 20.4374 94.5742 -6.5769 -15.4937 10.1708
# 4 -19.9809 -18.4464 -6.5769 37.4800 -2.1575 -2.7717
# 5 -39.0472 -11.6539 -15.4937 -2.1575 48.9067 -13.7586
# 6 7.5025 2.1054 10.1708 -2.7717 -13.7586 29.3722
#
#
#
# Elastic Compliance Matrix: (Units=1/GPa)
#
#
# Indices 1 2 3 4 5 6 
#
# 1 0.018989 0.007392 -0.004130 0.014495 0.017884 0.005795
# 2 0.007392 0.027193 -0.005415 0.017557 0.013078 0.005821
# 3 -0.004130 -0.005415 0.012962 -0.003003 -0.001785 -0.004165
# 4 0.014495 0.017557 -0.003003 0.044330 0.019389 0.009344
# 5 0.017884 0.013078 -0.001785 0.019389 0.042928 0.017051
# 6 0.005795 0.005821 -0.004165 0.009344 0.017051 0.042460
#
#
# Mechanical properties :
#
#
# Convention : Reuss Voigt Hill
#
# Bulk Modulus (GPa) = 18.23503 41.08709 29.66106
# Shear Modulus (GPa) = 23.64676 36.48025 30.06351
#
# Velocity S-wave (km/s) = 3.20203 3.97712 3.61043
# Velocity P-wave (km/s) = 4.64513 6.23738 5.49919
#
# Compressibility (1/GPa) = 0.05483950
#
# Stress axis : x y z
#
# Youngs Moduli (GPa) = 52.66236 36.77441 77.14850
#
# Poissons Ratio (x) = -0.27185 0.31859
# Poissons Ratio (y) = -0.38930 0.41775
# Poissons Ratio (z) = 0.21748 0.19913
#
# Static dielectric constant tensor:
#      x y z
#    x 1.891090 0.019250 0.065450 
#    y 0.019250 2.009510 0.070930 
#    z 0.065450 0.070930 1.955240 
# 
# From -- ./inp_files/76994.got.cif
#   From: 2010.05.17/outbox.cif.g08.bks.cpg/sg2_39_cif.got.tgz:76994.got - 2010.06.03 11:33:40.
