data_PCOD9014081
_publ_section_title
;
Structure prediction by ZEFSAII (Michael W. Deem and Ramdas Pophale) SiO2 
 PCOD9014081
Probable space group: P -1
;
_chemical_formula_sum "Si O2"
_cell_formula_units_Z 16
_cell_length_a 16.668124
_cell_length_b 9.259267
_cell_length_c 12.061942
_cell_angle_alpha 131.338669
_cell_angle_beta 149.522126
_cell_angle_gamma 62.869702
_cell_volume 676.863616
_symmetry_space_group_name_H-M "P -1"
_symmetry_group_IT_number 2
_symmetry_cell_setting 'triclinic'
loop_
_space_group_symop_operation_xyz
x,y,z
-x,-y,-z
loop_
_atom_site_type_symbol
_atom_site_label
_atom_site_fract_x
_atom_site_fract_y
_atom_site_fract_z
Si Si1 0.578118 0.318142 0.514873
Si Si2 0.839409 0.634634 0.102362
Si Si3 0.748904 0.382502 0.513287
Si Si4 0.358837 0.016483 0.254181
Si Si5 0.855417 0.432875 0.207706
Si Si6 0.544834 0.597914 0.982498
Si Si7 0.093317 0.225047 0.999166
Si Si8 0.209222 0.028667 0.615100
O O1 0.500000 0.500000 0.500000
O O2 0.662721 0.312866 0.495721
O O3 0.455983 0.106757 0.302481
O O4 0.698586 0.415754 0.809021
O O5 0.951113 0.544768 0.268818
O O6 0.863030 0.706319 0.041282
O O7 0.819274 0.824227 0.246041
O O8 0.618541 0.442794 0.309193
O O9 0.785714 0.175641 0.421140
O O10 0.904982 0.575726 0.828626
O O11 0.500000 0.000000 0.500000
O O12 0.242883 0.162648 0.202515
O O13 0.223551 0.802549 0.991268
O O14 0.000000 0.500000 0.500000
O O15 0.696743 0.515402 0.082554
O O16 0.500000 0.500000 0.000000
O O17 0.627199 0.838042 0.185707
O O18 0.927686 0.044512 0.683944
#
# Coordination Sequence:
#
# PCOD9014081 Si02
#       8
#     2   2   2   2   2   2   2   2
#     4  11  20  40  67  95 129 167 228 280 311 387
#     4  10  21  41  66  96 133 172 220 277 326 391
#     4  11  24  44  69  96 131 174 226 272 329 399
#     4  12  22  36  68  95 128 174 220 266 339 387
#     4  11  24  42  62  98 138 168 220 278 335 394
#     4  11  26  45  64  96 140 177 218 276 332 403
#     4  11  24  43  68 100 134 170 222 281 329 399
#     4  11  24  43  68  97 134 173 223 268 338 397
#
# _framework density 23.638439999999999
#
# number of rings (size 3 to 8) (size 9 to 14) (size 15 to 20)
#    0.000    1.000    3.750    4.875    1.750    2.000 
#    0.000    0.625    0.000    0.000    0.000    0.000 
#    0.000    0.000    0.000    0.000    0.000    0.000 
#
# Total GULP energy -89076.416542 kJ/mol
# GULP energy per Si atom -5567.276034 kJ/mol
# Density = 2.358464 g / cm^3
# Si number density = 23.638440 Si / 1000 Ang^3
#
#
#
# Elastic Constant Matrix: (Units=GPa)
#
#
# Indices 1 2 3 4 5 6 
#
# 1 79.9243 37.8055 30.6148 13.8214 -16.6413 16.2305
# 2 37.8055 132.4692 55.9163 -0.6010 -18.4541 19.8428
# 3 30.6148 55.9163 161.1016 -1.5018 -12.6698 16.7772
# 4 13.8214 -0.6010 -1.5018 55.9706 3.1365 1.5184
# 5 -16.6413 -18.4541 -12.6698 3.1365 26.2634 -1.2651
# 6 16.2305 19.8428 16.7772 1.5184 -1.2651 31.4023
#
#
#
# Elastic Compliance Matrix: (Units=1/GPa)
#
#
# Indices 1 2 3 4 5 6 
#
# 1 0.018329 -0.002389 -0.001250 -0.004942 0.009601 -0.006670
# 2 -0.002389 0.010456 -0.002414 0.000496 0.004420 -0.003929
# 3 -0.001250 -0.002414 0.007559 0.000479 0.001012 -0.001850
# 4 -0.004942 0.000496 0.000479 0.019352 -0.004822 0.000855
# 5 0.009601 0.004420 0.001012 -0.004822 0.048034 -0.006128
# 6 -0.006670 -0.003929 -0.001850 0.000855 -0.006128 0.038475
#
#
# Mechanical properties :
#
#
# Convention : Reuss Voigt Hill
#
# Bulk Modulus (GPa) = 41.25690 69.12983 55.19336
# Shear Modulus (GPa) = 30.78979 39.33783 35.06381
#
# Velocity S-wave (km/s) = 3.61297 4.08382 3.85559
# Velocity P-wave (km/s) = 5.90728 7.17948 6.57423
#
# Compressibility (1/GPa) = 0.02423837
#
# Stress axis : x y z
#
# Youngs Moduli (GPa) = 54.55807 95.63769 132.28655
#
# Poissons Ratio (x) = 0.22847 0.16540
# Poissons Ratio (y) = 0.13034 0.31931
# Poissons Ratio (z) = 0.06822 0.23085
#
# Static dielectric constant tensor:
#      x y z
#    x 1.952020 -0.045170 0.148320 
#    y -0.045170 1.974960 0.005960 
#    z 0.148320 0.005960 1.947620 
# 
# From -- ./inp_files/462527.got.cif
#   From: 2010.05.17/outbox.cif.g08.bks.cpg/sg2_232_cif.got.tgz:462527.got - 2010.06.03 11:33:40.
