data_PCOD9014141
_publ_section_title
;
Structure prediction by ZEFSAII (Michael W. Deem and Ramdas Pophale) SiO2 
 PCOD9014141
Probable space group: P -1
;
_chemical_formula_sum "Si O2"
_cell_formula_units_Z 14
_cell_length_a 11.838954
_cell_length_b 8.533037
_cell_length_c 9.142345
_cell_angle_alpha 86.736138
_cell_angle_beta 144.096271
_cell_angle_gamma 103.724725
_cell_volume 511.103745
_symmetry_space_group_name_H-M "P -1"
_symmetry_group_IT_number 2
_symmetry_cell_setting 'triclinic'
loop_
_space_group_symop_operation_xyz
x,y,z
-x,-y,-z
loop_
_atom_site_type_symbol
_atom_site_label
_atom_site_fract_x
_atom_site_fract_y
_atom_site_fract_z
Si Si1 0.739182 0.378129 0.873612
Si Si2 0.555241 0.695574 0.027636
Si Si3 0.873082 0.310788 0.335947
Si Si4 0.500000 0.000000 0.500000
Si Si5 0.998961 0.743320 0.017254
Si Si6 0.211682 0.125148 0.988841
Si Si7 0.679554 0.812458 0.468381
Si Si8 0.000000 0.000000 0.500000
O O1 0.867100 0.557835 0.939188
O O2 0.507669 0.351904 0.670475
O O3 0.837081 0.332930 0.124353
O O4 0.772733 0.249565 0.791357
O O5 0.349464 0.738838 0.822696
O O6 0.642550 0.721314 0.955552
O O7 0.500000 0.500000 0.000000
O O8 0.693845 0.805780 0.304028
O O9 0.000000 0.500000 0.500000
O O10 0.979307 0.183799 0.515488
O O11 0.652479 0.918744 0.744868
O O12 0.587145 0.948894 0.427118
O O13 0.977220 0.851192 0.124403
O O14 0.877821 0.792190 0.754389
O O15 0.138195 0.997186 0.788188
#
# Coordination Sequence:
#
# PCOD9014141 Si02
#       8
#     2   2   2   1   2   2   2   1
#     4  10  21  41  66  98 140 189 244 301 371 439
#     4  11  24  44  76 106 148 200 252 318 385 461
#     4  11  25  46  71 108 150 193 255 317 380 456
#     4  10  24  48  68  94 152 192 246 304 372 460
#     4  10  22  41  68  99 143 189 241 304 366 453
#     4  11  24  48  69 110 144 198 250 302 386 454
#     4  10  22  42  65  99 135 191 244 308 366 451
#     4  12  26  46  76 108 152 194 252 320 374 448
#
# _framework density 27.3917
#
# number of rings (size 3 to 8) (size 9 to 14) (size 15 to 20)
#    0.000    1.429    0.000    5.571    4.000    3.429 
#   15.429    2.143    0.000    0.000    0.000    0.000 
#    0.000    0.000    0.000    0.000    0.000    0.000 
#
# Total GULP energy -78062.824593 kJ/mol
# GULP energy per Si atom -5575.916042 kJ/mol
# Density = 2.732936 g / cm^3
# Si number density = 27.391700 Si / 1000 Ang^3
#
#
#
# Elastic Constant Matrix: (Units=GPa)
#
#
# Indices 1 2 3 4 5 6 
#
# 1 166.1096 0.7014 38.1333 -13.6085 1.6409 -12.8343
# 2 0.7014 115.2460 4.9328 -22.9727 -12.9643 10.9760
# 3 38.1333 4.9328 106.5616 -3.7236 -14.2425 -16.2131
# 4 -13.6085 -22.9727 -3.7236 34.6824 -13.8214 -11.4791
# 5 1.6409 -12.9643 -14.2425 -13.8214 55.2040 -6.2944
# 6 -12.8343 10.9760 -16.2131 -11.4791 -6.2944 45.6719
#
#
#
# Elastic Compliance Matrix: (Units=1/GPa)
#
#
# Indices 1 2 3 4 5 6 
#
# 1 0.006955 0.000708 -0.001954 0.003995 0.000706 0.002192
# 2 0.000708 0.011206 0.000457 0.010227 0.005401 0.000983
# 3 -0.001954 0.000457 0.011681 0.004499 0.004909 0.005295
# 4 0.003995 0.010227 0.004499 0.049704 0.017619 0.015183
# 5 0.000706 0.005401 0.004909 0.017619 0.026027 0.008658
# 6 0.002192 0.000983 0.005295 0.015183 0.008658 0.029164
#
#
# Mechanical properties :
#
#
# Convention : Reuss Voigt Hill
#
# Bulk Modulus (GPa) = 35.38109 52.82802 44.10456
# Shear Modulus (GPa) = 34.30802 50.05499 42.18151
#
# Velocity S-wave (km/s) = 3.54290 4.27942 3.92846
# Velocity P-wave (km/s) = 5.44802 6.61407 6.05916
#
# Compressibility (1/GPa) = 0.02826369
#
# Stress axis : x y z
#
# Youngs Moduli (GPa) = 143.77134 89.23952 85.60564
#
# Poissons Ratio (x) = -0.06321 0.16731
# Poissons Ratio (y) = -0.10183 -0.03909
# Poissons Ratio (z) = 0.28099 -0.04075
#
# Static dielectric constant tensor:
#      x y z
#    x 2.169240 -0.061950 -0.078030 
#    y -0.061950 2.176500 0.072780 
#    z -0.078030 0.072780 2.037960 
# 
# From -- ./inp_files/183795.got.cif
#   From: 2010.05.17/outbox.cif.g08.bks.cpg/sg2_92_cif.got.tgz:183795.got - 2010.06.03 11:33:40.
