data_PCOD9014333
_publ_section_title
;
Structure prediction by ZEFSAII (Michael W. Deem and Ramdas Pophale) SiO2 
 PCOD9014333
Probable space group: P -1
;
_chemical_formula_sum "Si O2"
_cell_formula_units_Z 16
_cell_length_a 14.718494
_cell_length_b 9.743941
_cell_length_c 9.538217
_cell_angle_alpha 45.682708
_cell_angle_beta 97.083866
_cell_angle_gamma 64.388549
_cell_volume 663.648347
_symmetry_space_group_name_H-M "P -1"
_symmetry_group_IT_number 2
_symmetry_cell_setting 'triclinic'
loop_
_space_group_symop_operation_xyz
x,y,z
-x,-y,-z
loop_
_atom_site_type_symbol
_atom_site_label
_atom_site_fract_x
_atom_site_fract_y
_atom_site_fract_z
Si Si1 0.590608 0.625724 0.839156
Si Si2 0.276225 0.365072 0.364989
Si Si3 0.074150 0.582410 0.920537
Si Si4 0.142176 0.954326 0.010846
Si Si5 0.374756 0.837990 0.847646
Si Si6 0.282410 0.339838 0.905644
Si Si7 0.074650 0.889461 0.323981
Si Si8 0.408825 0.786397 0.190941
O O1 0.594484 0.742571 0.614630
O O2 0.448522 0.762014 0.766969
O O3 0.678554 0.297281 0.068589
O O4 0.646744 0.650046 0.965490
O O5 0.215546 0.636600 0.239377
O O6 0.286531 0.163167 0.606557
O O7 0.185092 0.447275 0.157777
O O8 0.151605 0.452880 0.880279
O O9 0.978129 0.912986 0.691881
O O10 0.000000 0.500000 0.000000
O O11 0.081044 0.038178 0.094832
O O12 0.257343 0.935582 0.037337
O O13 0.028218 0.112825 0.756446
O O14 0.463379 0.712316 0.095280
O O15 0.216682 0.578007 0.607658
O O16 0.384599 0.027308 0.086985
O O17 0.500000 0.500000 0.500000
#
# Coordination Sequence:
#
# PCOD9014333 Si02
#       8
#     2   2   2   2   2   2   2   2
#     4  10  24  42  64 101 135 174 237 281 331 414
#     4  10  21  41  67  94 135 179 225 279 337 413
#     4  10  22  39  64 102 135 172 221 289 346 399
#     4  10  22  43  66  95 141 177 228 286 339 408
#     4  11  24  42  70  94 130 197 221 274 351 406
#     4  11  25  42  68 103 136 179 227 291 345 406
#     4  10  22  41  69  96 133 184 226 284 347 402
#     4  12  28  44  67 103 140 183 233 286 343 412
#
# _framework density 24.109154
#
# number of rings (size 3 to 8) (size 9 to 14) (size 15 to 20)
#    0.000    1.500    1.250    2.250    5.250    6.000 
#    0.000    0.000    0.000    0.000    0.000    0.000 
#    0.000    0.000    0.000    0.000    0.000    0.000 
#
# Total GULP energy -89383.320252 kJ/mol
# GULP energy per Si atom -5586.457516 kJ/mol
# Density = 2.405428 g / cm^3
# Si number density = 24.109154 Si / 1000 Ang^3
#
#
#
# Elastic Constant Matrix: (Units=GPa)
#
#
# Indices 1 2 3 4 5 6 
#
# 1 68.2371 9.3580 -3.9637 6.5058 -10.0340 5.8463
# 2 9.3580 126.1669 37.6871 0.2223 -9.6908 11.5257
# 3 -3.9637 37.6871 112.9095 -12.5808 -10.4661 19.1367
# 4 6.5058 0.2223 -12.5808 30.8784 -1.9008 -8.3698
# 5 -10.0340 -9.6908 -10.4661 -1.9008 26.8918 -1.8162
# 6 5.8463 11.5257 19.1367 -8.3698 -1.8162 45.2423
#
#
#
# Elastic Compliance Matrix: (Units=1/GPa)
#
#
# Indices 1 2 3 4 5 6 
#
# 1 0.016301 -0.000954 0.001572 -0.003204 0.005929 -0.002883
# 2 -0.000954 0.009083 -0.002857 -0.001238 0.001640 -0.001145
# 3 0.001572 -0.002857 0.011205 0.003577 0.003941 -0.003395
# 4 -0.003204 -0.001238 0.003577 0.036333 0.002727 0.006048
# 5 0.005929 0.001640 0.003941 0.002727 0.041671 -0.000674
# 6 -0.002883 -0.001145 -0.003395 0.006048 -0.000674 0.025295
#
#
# Mechanical properties :
#
#
# Convention : Reuss Voigt Hill
#
# Bulk Modulus (GPa) = 31.14238 43.71959 37.43098
# Shear Modulus (GPa) = 32.24346 38.21798 35.23072
#
# Velocity S-wave (km/s) = 3.66101 3.98578 3.82684
# Velocity P-wave (km/s) = 5.55121 6.27338 5.92331
#
# Compressibility (1/GPa) = 0.03211059
#
# Stress axis : x y z
#
# Youngs Moduli (GPa) = 61.34494 110.09583 89.24815
#
# Poissons Ratio (x) = 0.10506 -0.14030
# Poissons Ratio (y) = 0.05854 0.25498
# Poissons Ratio (z) = -0.09644 0.31454
#
# Static dielectric constant tensor:
#      x y z
#    x 2.086570 -0.086740 -0.011510 
#    y -0.086740 2.013830 -0.061220 
#    z -0.011510 -0.061220 1.946400 
# 
# From -- ./inp_files/297479.got.cif
#   From: 2010.05.17/outbox.cif.g08.bks.cpg/sg2_149_cif.got.tgz:297479.got - 2010.06.03 11:33:40.
