data_PCOD9014472
_publ_section_title
;
Structure prediction by ZEFSAII (Michael W. Deem and Ramdas Pophale) SiO2 
 PCOD9014472
Probable space group: P -1
;
_chemical_formula_sum "Si O2"
_cell_formula_units_Z 16
_cell_length_a 8.683405
_cell_length_b 8.929817
_cell_length_c 12.219800
_cell_angle_alpha 127.203477
_cell_angle_beta 119.695360
_cell_angle_gamma 69.634127
_cell_volume 653.981963
_symmetry_space_group_name_H-M "P -1"
_symmetry_group_IT_number 2
_symmetry_cell_setting 'triclinic'
loop_
_space_group_symop_operation_xyz
x,y,z
-x,-y,-z
loop_
_atom_site_type_symbol
_atom_site_label
_atom_site_fract_x
_atom_site_fract_y
_atom_site_fract_z
Si Si1 0.947754 0.171287 0.750747
Si Si2 0.378998 0.971997 0.161595
Si Si3 0.101656 0.689413 0.956561
Si Si4 0.770364 0.492536 0.678366
Si Si5 0.331352 0.120305 0.444660
Si Si6 0.497350 0.268104 0.170530
Si Si7 0.685558 0.705795 0.116429
Si Si8 0.207496 0.529729 0.577444
O O1 0.938763 0.268266 0.910624
O O2 0.839747 0.311643 0.692365
O O3 0.150026 0.162507 0.778247
O O4 0.847794 0.981709 0.636953
O O5 0.201942 0.867134 0.029877
O O6 0.529299 0.808915 0.177559
O O7 0.352440 0.110156 0.315995
O O8 0.449911 0.075176 0.126281
O O9 0.231567 0.498636 0.908553
O O10 0.919877 0.643956 0.814565
O O11 0.592171 0.578250 0.708972
O O12 0.757791 0.442273 0.526125
O O13 0.306441 0.334547 0.567393
O O14 0.500000 0.000000 0.500000
O O15 0.705604 0.301640 0.254444
O O16 0.401494 0.309100 0.040397
O O17 0.000000 0.500000 0.500000
#
# Coordination Sequence:
#
# PCOD9014472 Si02
#       8
#     2   2   2   2   2   2   2   2
#     4  10  21  41  71 100 129 175 223 278 332 398
#     4  11  26  39  65 102 130 178 217 279 329 396
#     4  10  21  41  68 100 134 172 219 274 338 395
#     4  11  21  44  70  96 133 177 218 271 342 401
#     4  11  26  46  70  98 138 181 230 275 333 404
#     4  12  24  44  68  94 137 175 222 271 337 403
#     4  11  22  42  68 100 135 171 225 277 335 394
#     4  12  30  46  68  98 137 182 227 279 339 404
#
# _framework density 24.465506000000001
#
# number of rings (size 3 to 8) (size 9 to 14) (size 15 to 20)
#    0.000    1.000    3.750    2.625    7.000    3.500 
#    0.000    1.250    0.000    0.000    0.000    0.000 
#    0.000    0.000    0.000    0.000    0.000    0.000 
#
# Total GULP energy -89686.071073 kJ/mol
# GULP energy per Si atom -5605.379442 kJ/mol
# Density = 2.440982 g / cm^3
# Si number density = 24.465506 Si / 1000 Ang^3
#
#
#
# Elastic Constant Matrix: (Units=GPa)
#
#
# Indices 1 2 3 4 5 6 
#
# 1 81.3319 16.4269 15.3441 5.2200 29.4837 4.3815
# 2 16.4269 69.5796 26.8773 -6.8994 16.3126 7.8187
# 3 15.3441 26.8773 66.9581 -17.8127 20.7315 18.0495
# 4 5.2200 -6.8994 -17.8127 33.4668 4.6423 8.4815
# 5 29.4837 16.3126 20.7315 4.6423 48.6066 5.8053
# 6 4.3815 7.8187 18.0495 8.4815 5.8053 29.8113
#
#
#
# Elastic Compliance Matrix: (Units=1/GPa)
#
#
# Indices 1 2 3 4 5 6 
#
# 1 0.016092 -0.001668 -0.001590 -0.002913 -0.008425 0.001504
# 2 -0.001668 0.017696 -0.004882 0.002081 -0.002868 -0.001474
# 3 -0.001590 -0.004882 0.033792 0.024832 -0.011338 -0.023802
# 4 -0.002913 0.002081 0.024832 0.052616 -0.011211 -0.027939
# 5 -0.008425 -0.002868 -0.011338 -0.011211 0.031855 0.005842
# 6 0.001504 -0.001474 -0.023802 -0.027939 0.005842 0.054932
#
#
# Mechanical properties :
#
#
# Convention : Reuss Voigt Hill
#
# Bulk Modulus (GPa) = 19.49346 37.24067 28.36706
# Shear Modulus (GPa) = 20.80178 32.99171 26.89675
#
# Velocity S-wave (km/s) = 2.91907 3.67618 3.31928
# Velocity P-wave (km/s) = 4.39844 5.76834 5.12933
#
# Compressibility (1/GPa) = 0.05129927
#
# Stress axis : x y z
#
# Youngs Moduli (GPa) = 62.14249 56.51017 29.59286
#
# Poissons Ratio (x) = 0.09424 0.04706
# Poissons Ratio (y) = 0.10363 0.14449
# Poissons Ratio (z) = 0.09882 0.27591
#
# Static dielectric constant tensor:
#      x y z
#    x 1.961200 -0.003220 0.002390 
#    y -0.003220 1.947320 0.039300 
#    z 0.002390 0.039300 1.899920 
# 
# From -- ./inp_files/189932.got.cif
#   From: 2010.05.17/outbox.cif.g08.bks.cpg/sg2_95_cif.got.tgz:189932.got - 2010.06.03 11:33:40.
