data_PCOD9014619
_publ_section_title
;
Structure prediction by ZEFSAII (Michael W. Deem and Ramdas Pophale) SiO2 
 PCOD9014619
Probable space group: P -1
;
_chemical_formula_sum "Si O2"
_cell_formula_units_Z 16
_cell_length_a 8.651708
_cell_length_b 21.560448
_cell_length_c 11.813114
_cell_angle_alpha 20.507528
_cell_angle_beta 99.760300
_cell_angle_gamma 96.047333
_cell_volume 751.632523
_symmetry_space_group_name_H-M "P -1"
_symmetry_group_IT_number 2
_symmetry_cell_setting 'triclinic'
loop_
_space_group_symop_operation_xyz
x,y,z
-x,-y,-z
loop_
_atom_site_type_symbol
_atom_site_label
_atom_site_fract_x
_atom_site_fract_y
_atom_site_fract_z
Si Si1 0.877708 0.632598 0.833948
Si Si2 0.654839 0.971095 0.907888
Si Si3 0.441914 0.055197 0.522670
Si Si4 0.555900 0.717178 0.509834
Si Si5 0.063116 0.969647 0.305275
Si Si6 0.686156 0.530887 0.182883
Si Si7 0.115878 0.643436 0.289920
Si Si8 0.831205 0.120553 0.289773
O O1 0.704383 0.658219 0.710875
O O2 0.945782 0.821765 0.528183
O O3 0.840498 0.545973 0.097845
O O4 0.000000 0.500000 0.000000
O O5 0.555562 0.975452 0.772653
O O6 0.565317 0.129561 0.703908
O O7 0.829713 0.004217 0.835796
O O8 0.635177 0.794697 0.277279
O O9 0.500000 0.000000 0.500000
O O10 0.281131 0.973036 0.644873
O O11 0.399145 0.266986 0.159347
O O12 0.445602 0.572584 0.711201
O O13 0.183902 0.889573 0.559461
O O14 0.974587 0.167565 0.992348
O O15 0.748494 0.438196 0.466400
O O16 0.000000 0.500000 0.500000
O O17 0.173347 0.688163 0.094947
O O18 0.000000 0.000000 0.500000
#
# Coordination Sequence:
#
# PCOD9014619 Si02
#       8
#     2   2   2   2   2   2   2   2
#     4  12  27  44  72 102 136 184 239 290 349 410
#     4  11  25  46  71  97 140 184 236 277 354 415
#     4  12  24  44  71 100 135 185 229 282 352 417
#     4  11  27  46  71  99 141 185 232 289 346 415
#     4  11  24  44  70  98 139 182 231 289 343 411
#     4  12  25  46  70 103 143 180 234 291 351 415
#     4  11  24  42  69 104 140 179 229 283 348 415
#     4  10  21  41  68  95 132 180 224 272 349 408
#
# _framework density 21.286997
#
# number of rings (size 3 to 8) (size 9 to 14) (size 15 to 20)
#    0.000    0.750    2.500    5.625    7.000    0.500 
#    2.250    1.250    0.000    0.000    0.000    0.000 
#    0.000    0.000    0.000    0.000    0.000    0.000 
#
# Total GULP energy -89380.817698 kJ/mol
# GULP energy per Si atom -5586.301106 kJ/mol
# Density = 2.123855 g / cm^3
# Si number density = 21.286997 Si / 1000 Ang^3
#
#
#
# Elastic Constant Matrix: (Units=GPa)
#
#
# Indices 1 2 3 4 5 6 
#
# 1 74.2683 15.8877 13.8760 -6.3276 -29.2002 5.0985
# 2 15.8877 76.3382 30.1634 1.5526 -18.5318 5.4998
# 3 13.8760 30.1634 76.7550 2.1291 -26.8765 9.1245
# 4 -6.3276 1.5526 2.1291 51.7262 6.0405 -9.4275
# 5 -29.2002 -18.5318 -26.8765 6.0405 38.5182 -3.3211
# 6 5.0985 5.4998 9.1245 -9.4275 -3.3211 56.0021
#
#
#
# Elastic Compliance Matrix: (Units=1/GPa)
#
#
# Indices 1 2 3 4 5 6 
#
# 1 0.019616 -0.001164 0.002646 0.000252 0.016022 -0.001110
# 2 -0.001164 0.016182 -0.004754 -0.000982 0.003683 -0.000656
# 3 0.002646 -0.004754 0.019509 -0.002377 0.013485 -0.002553
# 4 0.000252 -0.000982 -0.002377 0.020727 -0.004874 0.003661
# 5 0.016022 0.003683 0.013485 -0.004874 0.049892 -0.001879
# 6 -0.001110 -0.000656 -0.002553 0.003661 -0.001879 0.018943
#
#
# Mechanical properties :
#
#
# Convention : Reuss Voigt Hill
#
# Bulk Modulus (GPa) = 20.50643 38.57950 29.54297
# Shear Modulus (GPa) = 29.82110 40.41158 35.11634
#
# Velocity S-wave (km/s) = 3.74693 4.36181 4.06601
# Velocity P-wave (km/s) = 5.32668 6.59773 5.99598
#
# Compressibility (1/GPa) = 0.04876519
#
# Stress axis : x y z
#
# Youngs Moduli (GPa) = 50.97753 61.79875 51.25740
#
# Poissons Ratio (x) = 0.07193 -0.13565
# Poissons Ratio (y) = 0.05933 0.24366
# Poissons Ratio (z) = -0.13491 0.29377
#
# Static dielectric constant tensor:
#      x y z
#    x 1.814290 -0.036360 -0.040100 
#    y -0.036360 1.779680 0.031730 
#    z -0.040100 0.031730 1.760490 
# 
# From -- ./inp_files/405210.got.cif
#   From: 2010.05.17/outbox.cif.g08.bks.cpg/sg2_203_cif.got.tgz:405210.got - 2010.06.03 11:33:40.
