data_PCOD9014522
_publ_section_title
;
Structure prediction by ZEFSAII (Michael W. Deem and Ramdas Pophale) SiO2 
 PCOD9014522
Probable space group: P -1
;
_chemical_formula_sum "Si O2"
_cell_formula_units_Z 14
_cell_length_a 13.712615
_cell_length_b 10.504931
_cell_length_c 8.345564
_cell_angle_alpha 74.578930
_cell_angle_beta 39.983625
_cell_angle_gamma 53.212843
_cell_volume 573.527102
_symmetry_space_group_name_H-M "P -1"
_symmetry_group_IT_number 2
_symmetry_cell_setting 'triclinic'
loop_
_space_group_symop_operation_xyz
x,y,z
-x,-y,-z
loop_
_atom_site_type_symbol
_atom_site_label
_atom_site_fract_x
_atom_site_fract_y
_atom_site_fract_z
Si Si1 0.369808 0.789312 0.353556
Si Si2 0.838070 0.554322 0.486669
Si Si3 0.464916 0.869603 0.523068
Si Si4 0.192428 0.556084 0.127701
Si Si5 0.928123 0.184832 0.071583
Si Si6 0.391501 0.892141 0.945702
Si Si7 0.852097 0.743042 0.012221
O O1 0.367726 0.900460 0.462236
O O2 0.230024 0.752369 0.609294
O O3 0.593897 0.617469 0.126141
O O4 0.322399 0.863248 0.207996
O O5 0.808315 0.445561 0.679066
O O6 0.632509 0.750035 0.694709
O O7 0.012694 0.556916 0.315822
O O8 0.942975 0.428835 0.246245
O O9 0.371982 0.846917 0.801682
O O10 0.500000 0.000000 0.500000
O O11 0.697498 0.712764 0.256409
O O12 0.157100 0.703219 0.017862
O O13 0.093284 0.191710 0.930820
O O14 0.000000 0.000000 0.000000
O O15 0.265611 0.098713 0.022093
#
# Coordination Sequence:
#
# PCOD9014522 Si02
#       7
#     2   2   2   2   2   2   2
#     4  11  24  46  69  99 143 191 225 289 363 407
#     4  10  22  45  74 108 134 183 235 300 355 400
#     4  10  21  41  68 104 135 178 240 288 343 414
#     4  10  23  46  70 103 141 177 243 289 348 429
#     4  12  27  45  68 102 143 191 230 285 359 426
#     4  10  24  42  69 104 144 177 232 294 343 427
#     4  11  24  44  70 106 137 187 238 293 350 411
#
# _framework density 24.410354999999999
#
# number of rings (size 3 to 8) (size 9 to 14) (size 15 to 20)
#    0.000    1.429    1.429    3.000    4.000    5.143 
#    5.143    1.429    0.000    0.000    0.000    0.000 
#    0.000    0.000    0.000    0.000    0.000    0.000 
#
# Total GULP energy -77980.016831 kJ/mol
# GULP energy per Si atom -5570.001202 kJ/mol
# Density = 2.435480 g / cm^3
# Si number density = 24.410355 Si / 1000 Ang^3
#
#
#
# Elastic Constant Matrix: (Units=GPa)
#
#
# Indices 1 2 3 4 5 6 
#
# 1 68.0032 15.6969 24.4893 -17.1009 10.4857 -3.0050
# 2 15.6969 132.9322 35.5568 -16.3388 22.5006 -46.7134
# 3 24.4893 35.5568 132.2148 -19.9377 21.6469 -19.9415
# 4 -17.1009 -16.3388 -19.9377 43.4001 -12.2802 7.2938
# 5 10.4857 22.5006 21.6469 -12.2802 42.5702 -2.9433
# 6 -3.0050 -46.7134 -19.9415 7.2938 -2.9433 35.7069
#
#
#
# Elastic Compliance Matrix: (Units=1/GPa)
#
#
# Indices 1 2 3 4 5 6 
#
# 1 0.017280 -0.001807 -0.002270 0.005418 -0.000816 -0.003351
# 2 -0.001807 0.015929 0.000206 0.000097 -0.006652 0.020234
# 3 -0.002270 0.000206 0.009484 0.001743 -0.003543 0.004728
# 4 0.005418 0.000097 0.001743 0.028232 0.005613 -0.003748
# 5 -0.000816 -0.006652 -0.003543 0.005613 0.029977 -0.009426
# 6 -0.003351 0.020234 0.004728 -0.003748 -0.009426 0.056824
#
#
# Mechanical properties :
#
#
# Convention : Reuss Voigt Hill
#
# Bulk Modulus (GPa) = 28.60952 53.84849 41.22900
# Shear Modulus (GPa) = 28.22984 41.49591 34.86287
#
# Velocity S-wave (km/s) = 3.40438 4.12749 3.78325
# Velocity P-wave (km/s) = 5.21524 6.69496 6.00089
#
# Compressibility (1/GPa) = 0.03495340
#
# Stress axis : x y z
#
# Youngs Moduli (GPa) = 57.87083 62.77764 105.43666
#
# Poissons Ratio (x) = 0.11344 0.23929
# Poissons Ratio (y) = 0.10457 -0.02177
# Poissons Ratio (z) = 0.13134 -0.01296
#
# Static dielectric constant tensor:
#      x y z
#    x 2.004960 -0.031450 0.037160 
#    y -0.031450 2.013890 0.021280 
#    z 0.037160 0.021280 2.120930 
# 
# From -- ./inp_files/306881.got.cif
#   From: 2010.05.17/outbox.cif.g08.bks.cpg/sg2_154_cif.got.tgz:306881.got - 2010.06.03 11:33:40.
