data_PCOD9014911
_publ_section_title
;
Structure prediction by ZEFSAII (Michael W. Deem and Ramdas Pophale) SiO2 
 PCOD9014911
Probable space group: P -1
;
_chemical_formula_sum "Si O2"
_cell_formula_units_Z 14
_cell_length_a 18.946338
_cell_length_b 5.393787
_cell_length_c 6.890389
_cell_angle_alpha 66.214325
_cell_angle_beta 88.497734
_cell_angle_gamma 95.870853
_cell_volume 639.193648
_symmetry_space_group_name_H-M "P -1"
_symmetry_group_IT_number 2
_symmetry_cell_setting 'triclinic'
loop_
_space_group_symop_operation_xyz
x,y,z
-x,-y,-z
loop_
_atom_site_type_symbol
_atom_site_label
_atom_site_fract_x
_atom_site_fract_y
_atom_site_fract_z
Si Si1 0.949014 0.291321 0.355493
Si Si2 0.531102 0.400732 0.227078
Si Si3 0.244524 0.067731 0.612429
Si Si4 0.819657 0.541053 0.204676
Si Si5 0.591367 0.836560 0.390432
Si Si6 0.137370 0.087682 0.261602
Si Si7 0.941831 0.217257 0.934778
O O1 0.885572 0.472180 0.355644
O O2 0.018689 0.505597 0.250540
O O3 0.935259 0.029160 0.579516
O O4 0.926233 0.208935 0.165249
O O5 0.576200 0.649072 0.259957
O O6 0.464697 0.291705 0.404452
O O7 0.574821 0.146548 0.264821
O O8 0.500000 0.500000 0.000000
O O9 0.218446 0.239744 0.740313
O O10 0.327756 0.159933 0.550108
O O11 0.198432 0.112510 0.408645
O O12 0.230638 0.739845 0.741287
O O13 0.852407 0.652366 0.961021
O O14 0.128285 0.864309 0.160200
O O15 0.000000 0.000000 0.000000
#
# Coordination Sequence:
#
# PCOD9014911 Si02
#       7
#     2   2   2   2   2   2   2
#     4  10  24  42  63  90 123 160 217 278 332 382
#     4  10  21  41  70 100 134 168 211 260 313 366
#     4  11  26  43  64  94 133 173 214 259 318 381
#     4  11  24  45  62  91 130 168 219 272 310 387
#     4  10  22  41  65 100 135 168 213 263 305 376
#     4  11  23  42  65  88 124 171 213 263 331 384
#     4  11  22  43  63  92 123 161 218 280 327 386
#
# _framework density 21.902593
#
# number of rings (size 3 to 8) (size 9 to 14) (size 15 to 20)
#    0.000    1.429    1.429    3.429    0.000    7.429 
#    0.000    0.000    0.000    0.000    0.000    0.000 
#    0.000    0.000    0.000    0.000    0.000    0.000 
#
# Total GULP energy -78135.560737 kJ/mol
# GULP energy per Si atom -5581.111481 kJ/mol
# Density = 2.185274 g / cm^3
# Si number density = 21.902593 Si / 1000 Ang^3
#
#
#
# Elastic Constant Matrix: (Units=GPa)
#
#
# Indices 1 2 3 4 5 6 
#
# 1 58.6813 27.7593 24.9030 18.5869 1.3603 7.5444
# 2 27.7593 151.4539 55.0044 9.3638 4.5016 -0.5534
# 3 24.9030 55.0044 121.8632 -6.9152 25.6078 -0.6970
# 4 18.5869 9.3638 -6.9152 32.8870 5.6247 5.1214
# 5 1.3603 4.5016 25.6078 5.6247 19.7367 2.6961
# 6 7.5444 -0.5534 -0.6970 5.1214 2.6961 34.8367
#
#
#
# Elastic Compliance Matrix: (Units=1/GPa)
#
#
# Indices 1 2 3 4 5 6 
#
# 1 0.028586 -0.000675 -0.010620 -0.020611 0.018495 -0.004815
# 2 -0.000675 0.008761 -0.005365 -0.004355 0.006205 0.000338
# 3 -0.010620 -0.005365 0.019743 0.016194 -0.028609 0.002443
# 4 -0.020611 -0.004355 0.016194 0.052494 -0.033502 -0.000406
# 5 0.018495 0.006205 -0.028609 -0.033502 0.095594 -0.006952
# 6 -0.004815 0.000338 0.002443 -0.000406 -0.006952 0.030400
#
#
# Mechanical properties :
#
#
# Convention : Reuss Voigt Hill
#
# Bulk Modulus (GPa) = 42.07419 60.81466 51.44443
# Shear Modulus (GPa) = 18.06209 32.44752 25.25480
#
# Velocity S-wave (km/s) = 2.87480 3.85313 3.39934
# Velocity P-wave (km/s) = 5.50188 6.90085 6.24069
#
# Compressibility (1/GPa) = 0.02376754
#
# Stress axis : x y z
#
# Youngs Moduli (GPa) = 34.98165 114.14066 50.65194
#
# Poissons Ratio (x) = 0.07709 0.53795
# Poissons Ratio (y) = 0.02363 0.27177
# Poissons Ratio (z) = 0.37152 0.61241
#
# Static dielectric constant tensor:
#      x y z
#    x 1.789530 -0.035920 -0.017980 
#    y -0.035920 1.907680 -0.005260 
#    z -0.017980 -0.005260 1.778120 
# 
# From -- ./inp_files/8734.got.cif
#   From: 2010.05.17/outbox.cif.g08.bks.cpg/sg2_5_cif.got.tgz:8734.got - 2010.06.03 11:33:40.
