data_PCOD9014988
_publ_section_title
;
Structure prediction by ZEFSAII (Michael W. Deem and Ramdas Pophale) SiO2 
 PCOD9014988
Probable space group: P -1
;
_chemical_formula_sum "Si O2"
_cell_formula_units_Z 12
_cell_length_a 6.677612
_cell_length_b 9.782453
_cell_length_c 22.170432
_cell_angle_alpha 25.389933
_cell_angle_beta 106.204042
_cell_angle_gamma 118.617066
_cell_volume 497.641199
_symmetry_space_group_name_H-M "P -1"
_symmetry_group_IT_number 2
_symmetry_cell_setting 'triclinic'
loop_
_space_group_symop_operation_xyz
x,y,z
-x,-y,-z
loop_
_atom_site_type_symbol
_atom_site_label
_atom_site_fract_x
_atom_site_fract_y
_atom_site_fract_z
Si Si1 0.577747 0.096866 0.777329
Si Si2 0.267159 0.050065 0.956615
Si Si3 0.460525 0.655767 0.826158
Si Si4 0.839238 0.459803 0.334365
Si Si5 0.176525 0.574048 0.041534
Si Si6 0.460930 0.203646 0.510222
O O1 0.555708 0.441479 0.616250
O O2 0.866761 0.256936 0.746519
O O3 0.451331 0.754154 0.855221
O O4 0.430988 0.945133 0.888146
O O5 0.919480 0.345510 0.936871
O O6 0.278547 0.351335 0.790074
O O7 0.267537 0.240530 0.944082
O O8 0.500000 0.000000 0.000000
O O9 0.732204 0.705531 0.825473
O O10 0.458737 0.967008 0.660794
O O11 0.705273 0.346696 0.432693
O O12 0.764636 0.086503 0.438163
O O13 0.000000 0.500000 0.000000
#
# Coordination Sequence:
#
# PCOD9014988 Si02
#       6
#     2   2   2   2   2   2
#     4  12  23  41  69  96 126 168 222 257 318 383
#     4   9  19  41  65  90 129 166 207 259 321 370
#     4  10  23  40  63  98 130 163 213 267 316 378
#     4  10  21  41  70  94 127 173 210 262 319 382
#     4  11  23  44  67  92 129 174 213 264 321 376
#     4  10  22  43  65  94 135 163 210 265 325 374
#
# _framework density 24.113757
#
# number of rings (size 3 to 8) (size 9 to 14) (size 15 to 20)
#    0.000    1.667    1.667    2.500    0.000    0.667 
#    3.000   16.667    0.000    0.000    0.000    0.000 
#    0.000    0.000    0.000    0.000    0.000    0.000 
#
# Total GULP energy -66994.027892 kJ/mol
# GULP energy per Si atom -5582.835658 kJ/mol
# Density = 2.405887 g / cm^3
# Si number density = 24.113757 Si / 1000 Ang^3
#
#
#
# Elastic Constant Matrix: (Units=GPa)
#
#
# Indices 1 2 3 4 5 6 
#
# 1 101.2206 76.5313 35.6911 -1.2051 4.1522 7.8203
# 2 76.5313 185.1316 26.4457 -10.7521 6.9936 -12.7089
# 3 35.6911 26.4457 91.7333 11.8898 24.2602 4.0146
# 4 -1.2051 -10.7521 11.8898 34.6769 1.2971 4.5554
# 5 4.1522 6.9936 24.2602 1.2971 44.7335 -12.3159
# 6 7.8203 -12.7089 4.0146 4.5554 -12.3159 51.4025
#
#
#
# Elastic Compliance Matrix: (Units=1/GPa)
#
#
# Indices 1 2 3 4 5 6 
#
# 1 0.016719 -0.006464 -0.004863 0.000671 0.001097 -0.003559
# 2 -0.006464 0.008448 -0.000393 0.002129 0.000249 0.002974
# 3 -0.004863 -0.000393 0.015942 -0.005146 -0.008591 -0.002205
# 4 0.000671 0.002129 -0.005146 0.031474 0.001009 -0.001721
# 5 0.001097 0.000249 -0.008591 0.001009 0.028880 0.007396
# 6 -0.003559 0.002974 -0.002205 -0.001721 0.007396 0.022828
#
#
# Mechanical properties :
#
#
# Convention : Reuss Voigt Hill
#
# Bulk Modulus (GPa) = 56.59107 72.82464 64.70785
# Shear Modulus (GPa) = 32.54820 42.12376 37.33598
#
# Velocity S-wave (km/s) = 3.67792 4.18410 3.93915
# Velocity P-wave (km/s) = 6.44635 7.32177 6.89796
#
# Compressibility (1/GPa) = 0.01767063
#
# Stress axis : x y z
#
# Youngs Moduli (GPa) = 59.81220 118.37075 62.72850
#
# Poissons Ratio (x) = 0.76510 0.30504
# Poissons Ratio (y) = 0.38660 0.02463
# Poissons Ratio (z) = 0.29085 0.04648
#
# Static dielectric constant tensor:
#      x y z
#    x 1.980570 0.019700 -0.004750 
#    y 0.019700 1.999640 -0.083320 
#    z -0.004750 -0.083320 1.896150 
# 
# From -- ./inp_files/416043.got.cif
#   From: 2010.05.17/outbox.cif.g08.bks.cpg/sg2_209_cif.got.tgz:416043.got - 2010.06.03 11:33:40.
