data_PCOD9014447
_publ_section_title
;
Structure prediction by ZEFSAII (Michael W. Deem and Ramdas Pophale) SiO2 
 PCOD9014447
Probable space group: P -1
;
_chemical_formula_sum "Si O2"
_cell_formula_units_Z 16
_cell_length_a 11.336003
_cell_length_b 11.959460
_cell_length_c 14.020939
_cell_angle_alpha 133.629863
_cell_angle_beta 150.492794
_cell_angle_gamma 59.108044
_cell_volume 657.130573
_symmetry_space_group_name_H-M "P -1"
_symmetry_group_IT_number 2
_symmetry_cell_setting 'triclinic'
loop_
_space_group_symop_operation_xyz
x,y,z
-x,-y,-z
loop_
_atom_site_type_symbol
_atom_site_label
_atom_site_fract_x
_atom_site_fract_y
_atom_site_fract_z
Si Si1 0.746940 0.391637 0.212117
Si Si2 0.522724 0.880997 0.665032
Si Si3 0.289914 0.557664 0.002207
Si Si4 0.140380 0.542535 0.223779
Si Si5 0.679295 0.174589 0.214012
Si Si6 0.291562 0.235313 0.103099
Si Si7 0.614088 0.850402 0.505809
Si Si8 0.891323 0.958265 0.582462
O O1 0.511685 0.469618 0.098628
O O2 0.687634 0.240704 0.151905
O O3 0.000000 0.500000 0.500000
O O4 0.773228 0.378761 0.108336
O O5 0.332900 0.709955 0.446682
O O6 0.686586 0.897707 0.882926
O O7 0.674993 0.859734 0.665224
O O8 0.362920 0.012787 0.620826
O O9 0.399405 0.699257 0.236777
O O10 0.048084 0.453925 0.821475
O O11 0.249916 0.387446 0.218416
O O12 0.000000 0.500000 0.000000
O O13 0.541619 0.281085 0.243859
O O14 0.947412 0.149279 0.417880
O O15 0.500000 0.000000 0.000000
O O16 0.064144 0.137217 0.821990
O O17 0.500000 0.000000 0.500000
O O18 0.821118 0.871735 0.583902
#
# Coordination Sequence:
#
# PCOD9014447 Si02
#       8
#     2   2   2   2   2   2   2   2
#     4  11  26  47  71 104 142 188 237 289 351 423
#     4  11  24  39  66  98 131 178 224 285 344 414
#     4  11  25  44  72 102 141 186 231 289 354 416
#     4  12  21  42  69  96 136 174 223 287 347 408
#     4  10  24  43  67  97 137 180 231 289 343 416
#     4  11  24  41  64  98 130 176 227 280 347 406
#     4  10  21  41  67  98 135 176 228 281 349 417
#     4  10  22  43  63  93 133 179 227 280 347 408
#
# _framework density 24.348281
#
# number of rings (size 3 to 8) (size 9 to 14) (size 15 to 20)
#    0.000    1.250    2.500    2.625    3.500    7.000 
#    0.000    0.000    0.000    0.000    0.000    0.000 
#    0.000    0.000    0.000    0.000    0.000    0.000 
#
# Total GULP energy -89433.527880 kJ/mol
# GULP energy per Si atom -5589.595493 kJ/mol
# Density = 2.429286 g / cm^3
# Si number density = 24.348281 Si / 1000 Ang^3
#
#
#
# Elastic Constant Matrix: (Units=GPa)
#
#
# Indices 1 2 3 4 5 6 
#
# 1 119.9980 35.6994 10.6715 -11.1103 12.3557 8.9688
# 2 35.6994 97.0791 21.6630 -18.6425 0.2006 15.6490
# 3 10.6715 21.6630 56.7431 -7.2868 3.8034 -1.0339
# 4 -11.1103 -18.6425 -7.2868 43.8202 8.9378 1.7105
# 5 12.3557 0.2006 3.8034 8.9378 36.3958 -5.0388
# 6 8.9688 15.6490 -1.0339 1.7105 -5.0388 41.5572
#
#
#
# Elastic Compliance Matrix: (Units=1/GPa)
#
#
# Indices 1 2 3 4 5 6 
#
# 1 0.009968 -0.002929 -0.000237 0.002141 -0.004096 -0.001639
# 2 -0.002929 0.014069 -0.004256 0.004839 -0.000524 -0.005034
# 3 -0.000237 -0.004256 0.019696 0.001770 -0.002138 0.001812
# 4 0.002141 0.004839 0.001770 0.027584 -0.008320 -0.004384
# 5 -0.004096 -0.000524 -0.002138 -0.008320 0.031860 0.005233
# 6 -0.001639 -0.005034 0.001812 -0.004384 0.005233 0.027173
#
#
# Mechanical properties :
#
#
# Convention : Reuss Voigt Hill
#
# Bulk Modulus (GPa) = 34.61298 45.54310 40.07804
# Shear Modulus (GPa) = 32.29455 38.07373 35.18414
#
# Velocity S-wave (km/s) = 3.64587 3.95867 3.80549
# Velocity P-wave (km/s) = 5.65419 6.29605 5.98373
#
# Compressibility (1/GPa) = 0.02889089
#
# Stress axis : x y z
#
# Youngs Moduli (GPa) = 100.31669 71.07609 50.77117
#
# Poissons Ratio (x) = 0.20818 0.01203
# Poissons Ratio (y) = 0.29383 0.21607
# Poissons Ratio (z) = 0.02376 0.30248
#
# Static dielectric constant tensor:
#      x y z
#    x 2.014080 -0.055400 -0.006440 
#    y -0.055400 2.025120 -0.029910 
#    z -0.006440 -0.029910 1.968370 
# 
# From -- ./inp_files/519174.got.cif
#   From: 2010.05.17/outbox.cif.g08.bks.cpg/sg2_260_cif.got.tgz:519174.got - 2010.06.03 11:33:40.
