data_PCOD9014830
_publ_section_title
;
Structure prediction by ZEFSAII (Michael W. Deem and Ramdas Pophale) SiO2 
 PCOD9014830
Probable space group: P -1
;
_chemical_formula_sum "Si O2"
_cell_formula_units_Z 16
_cell_length_a 15.420194
_cell_length_b 9.310528
_cell_length_c 11.450267
_cell_angle_alpha 75.116158
_cell_angle_beta 68.559055
_cell_angle_gamma 27.853532
_cell_volume 706.540219
_symmetry_space_group_name_H-M "P -1"
_symmetry_group_IT_number 2
_symmetry_cell_setting 'triclinic'
loop_
_space_group_symop_operation_xyz
x,y,z
-x,-y,-z
loop_
_atom_site_type_symbol
_atom_site_label
_atom_site_fract_x
_atom_site_fract_y
_atom_site_fract_z
Si Si1 0.223183 0.476361 0.218502
Si Si2 0.514068 0.801368 0.027033
Si Si3 0.921540 0.389659 0.258355
Si Si4 0.163099 0.654817 0.464838
Si Si5 0.125783 0.194970 0.799394
Si Si6 0.716667 0.121982 0.969570
Si Si7 0.456077 0.717668 0.541581
Si Si8 0.471823 0.190807 0.726407
O O1 0.137679 0.656199 0.341631
O O2 0.079143 0.569589 0.202380
O O3 0.413391 0.122855 0.245277
O O4 0.296967 0.491998 0.084442
O O5 0.523870 0.730251 0.168981
O O6 0.334151 0.978376 0.015639
O O7 0.500000 0.000000 0.000000
O O8 0.884833 0.413616 0.409469
O O9 0.887204 0.611935 0.206062
O O10 0.749968 0.533759 0.253968
O O11 0.128307 0.050763 0.171372
O O12 0.366566 0.449496 0.441477
O O13 0.000000 0.000000 0.500000
O O14 0.183870 0.021479 0.922578
O O15 0.284190 0.945433 0.671824
O O16 0.500000 0.500000 0.000000
O O17 0.500000 0.500000 0.500000
O O18 0.419896 0.877390 0.416738
#
# Coordination Sequence:
#
# PCOD9014830 Si02
#       8
#     2   2   2   2   2   2   2   2
#     4  11  23  42  69 101 135 180 228 277 337 407
#     4  10  21  41  69  94 133 178 220 275 336 411
#     4  11  24  45  72 100 137 183 231 279 344 418
#     4  11  25  42  66  98 143 181 225 283 342 400
#     4  12  25  44  71 101 137 184 232 280 341 421
#     4  12  28  45  71 106 138 178 229 301 351 408
#     4  11  25  42  66 100 142 179 228 284 338 403
#     4  10  22  43  69 101 134 178 226 279 336 409
#
# _framework density 22.645562000000002
#
# number of rings (size 3 to 8) (size 9 to 14) (size 15 to 20)
#    0.000    1.000    0.000    7.125    5.250    6.000 
#    0.000    1.250    0.000    0.000    0.000    0.000 
#    0.000    0.000    0.000    0.000    0.000    0.000 
#
# Total GULP energy -89409.396280 kJ/mol
# GULP energy per Si atom -5588.087268 kJ/mol
# Density = 2.259402 g / cm^3
# Si number density = 22.645562 Si / 1000 Ang^3
#
#
#
# Elastic Constant Matrix: (Units=GPa)
#
#
# Indices 1 2 3 4 5 6 
#
# 1 64.3963 -3.1298 27.9291 -0.3792 4.3155 -11.2053
# 2 -3.1298 43.8806 4.5792 13.6662 3.2181 -0.0608
# 3 27.9291 4.5792 123.1176 17.4957 17.7225 -11.6222
# 4 -0.3792 13.6662 17.4957 39.9175 -6.7152 2.3517
# 5 4.3155 3.2181 17.7225 -6.7152 40.2565 5.6507
# 6 -11.2053 -0.0608 -11.6222 2.3517 5.6507 29.7977
#
#
#
# Elastic Compliance Matrix: (Units=1/GPa)
#
#
# Indices 1 2 3 4 5 6 
#
# 1 0.018222 0.001555 -0.003589 0.000685 -0.001173 0.005624
# 2 0.001555 0.026427 0.001141 -0.010532 -0.004939 0.002851
# 3 -0.003589 0.001141 0.011226 -0.006710 -0.006439 0.004782
# 4 0.000685 -0.010532 -0.006710 0.033756 0.010337 -0.007005
# 5 -0.001173 -0.004939 -0.006439 0.010337 0.031283 -0.009711
# 6 0.005624 0.002851 0.004782 -0.007005 -0.009711 0.039940
#
#
# Mechanical properties :
#
#
# Convention : Reuss Voigt Hill
#
# Bulk Modulus (GPa) = 18.48832 32.23907 25.36369
# Shear Modulus (GPa) = 27.67459 35.46207 31.56833
#
# Velocity S-wave (km/s) = 3.49961 3.96152 3.73771
# Velocity P-wave (km/s) = 4.95092 5.93229 5.46369
#
# Compressibility (1/GPa) = 0.05408820
#
# Stress axis : x y z
#
# Youngs Moduli (GPa) = 54.87788 37.84001 89.07973
#
# Poissons Ratio (x) = -0.05883 0.31973
# Poissons Ratio (y) = -0.08531 -0.10165
# Poissons Ratio (z) = 0.19697 -0.04318
#
# Static dielectric constant tensor:
#      x y z
#    x 1.796780 0.063630 -0.047540 
#    y 0.063630 1.864410 0.005090 
#    z -0.047540 0.005090 1.773550 
# 
# From -- ./inp_files/283363.got.cif
#   From: 2010.05.17/outbox.cif.g08.bks.cpg/sg2_142_cif.got.tgz:283363.got - 2010.06.03 11:33:40.
