data_PCOD9014220
_publ_section_title
;
Structure prediction by ZEFSAII (Michael W. Deem and Ramdas Pophale) SiO2 
 PCOD9014220
Probable space group: P -1
;
_chemical_formula_sum "Si O2"
_cell_formula_units_Z 12
_cell_length_a 5.015006
_cell_length_b 14.276460
_cell_length_c 6.335162
_cell_angle_alpha 89.247812
_cell_angle_beta 79.579837
_cell_angle_gamma 97.380472
_cell_volume 442.091784
_symmetry_space_group_name_H-M "P -1"
_symmetry_group_IT_number 2
_symmetry_cell_setting 'triclinic'
loop_
_space_group_symop_operation_xyz
x,y,z
-x,-y,-z
loop_
_atom_site_type_symbol
_atom_site_label
_atom_site_fract_x
_atom_site_fract_y
_atom_site_fract_z
Si Si1 0.328128 0.448055 0.334897
Si Si2 0.299445 0.612392 0.090705
Si Si3 0.431596 0.017430 0.263201
Si Si4 0.234949 0.787056 0.823714
Si Si5 0.898750 0.898360 0.156246
Si Si6 0.597426 0.720179 0.430680
O O1 0.500000 0.500000 0.500000
O O2 0.147700 0.521023 0.244358
O O3 0.232851 0.344625 0.446009
O O4 0.536124 0.426588 0.122721
O O5 0.503371 0.663443 0.234495
O O6 0.175965 0.698775 0.997621
O O7 0.506508 0.129134 0.204938
O O8 0.500000 0.000000 0.500000
O O9 0.665207 0.961596 0.129415
O O10 0.862008 0.039996 0.747038
O O11 0.325752 0.740400 0.595857
O O12 0.005400 0.849246 0.933502
O O13 0.770594 0.816066 0.332000
#
# Coordination Sequence:
#
# PCOD9014220 Si02
#       6
#     2   2   2   2   2   2
#     4   8  16  35  70 104 144 187 235 295 357 430
#     4   9  18  38  67 104 143 187 239 292 361 430
#     4  12  26  48  73 102 145 195 244 303 364 426
#     4  11  24  41  69 101 142 191 240 300 360 424
#     4  12  26  48  71 106 146 190 248 300 362 431
#     4  10  21  41  67 106 145 189 241 298 361 430
#
# _framework density 27.143681999999998
#
# number of rings (size 3 to 8) (size 9 to 14) (size 15 to 20)
#    0.000    1.667    1.667    2.500    0.000    1.333 
#    3.000    0.833    0.000   34.000    0.000    0.000 
#    0.000    0.000    0.000    0.000    0.000    0.000 
#
# Total GULP energy -67049.405199 kJ/mol
# GULP energy per Si atom -5587.450433 kJ/mol
# Density = 2.708190 g / cm^3
# Si number density = 27.143682 Si / 1000 Ang^3
#
#
#
# Elastic Constant Matrix: (Units=GPa)
#
#
# Indices 1 2 3 4 5 6 
#
# 1 131.6027 55.4697 33.0699 12.6037 -7.0490 5.3745
# 2 55.4697 175.7152 53.6284 -23.0084 -4.4796 -14.5977
# 3 33.0699 53.6284 151.4333 14.2175 -6.8087 8.8013
# 4 12.6037 -23.0084 14.2175 70.9177 0.7831 -6.5691
# 5 -7.0490 -4.4796 -6.8087 0.7831 15.8964 3.3058
# 6 5.3745 -14.5977 8.8013 -6.5691 3.3058 27.4643
#
#
#
# Elastic Compliance Matrix: (Units=1/GPa)
#
#
# Indices 1 2 3 4 5 6 
#
# 1 0.010124 -0.004067 0.000120 -0.003718 0.004751 -0.005642
# 2 -0.004067 0.009392 -0.003553 0.005301 -0.002712 0.008521
# 3 0.000120 -0.003553 0.008708 -0.003527 0.004214 -0.006053
# 4 -0.003718 0.005301 -0.003527 0.018124 -0.004546 0.009558
# 5 0.004751 -0.002712 0.004214 -0.004546 0.069006 -0.013115
# 6 -0.005642 0.008521 -0.006053 0.009558 -0.013115 0.047849
#
#
# Mechanical properties :
#
#
# Convention : Reuss Voigt Hill
#
# Bulk Modulus (GPa) = 75.61833 82.56526 79.09179
# Shear Modulus (GPa) = 27.38069 43.96123 35.67096
#
# Velocity S-wave (km/s) = 3.17950 4.02876 3.62906
# Velocity P-wave (km/s) = 6.43413 7.21977 6.83824
#
# Compressibility (1/GPa) = 0.01322431
#
# Stress axis : x y z
#
# Youngs Moduli (GPa) = 98.77919 106.47201 114.83675
#
# Poissons Ratio (x) = 0.43301 -0.01379
# Poissons Ratio (y) = 0.40172 0.40800
# Poissons Ratio (z) = -0.01186 0.37828
#
# Static dielectric constant tensor:
#      x y z
#    x 2.103290 -0.062520 0.047960 
#    y -0.062520 2.203700 -0.043350 
#    z 0.047960 -0.043350 2.289530 
# 
# From -- ./inp_files/32351.got.cif
#   From: 2010.05.17/outbox.cif.g08.bks.cpg/sg2_17_cif.got.tgz:32351.got - 2010.06.03 11:33:40.
