data_PCOD9014295
_publ_section_title
;
Structure prediction by ZEFSAII (Michael W. Deem and Ramdas Pophale) SiO2 
 PCOD9014295
Probable space group: P -1
;
_chemical_formula_sum "Si O2"
_cell_formula_units_Z 15
_cell_length_a 9.999621
_cell_length_b 11.937731
_cell_length_c 8.103811
_cell_angle_alpha 82.197636
_cell_angle_beta 44.926693
_cell_angle_gamma 65.561882
_cell_volume 603.089387
_symmetry_space_group_name_H-M "P -1"
_symmetry_group_IT_number 2
_symmetry_cell_setting 'triclinic'
loop_
_space_group_symop_operation_xyz
x,y,z
-x,-y,-z
loop_
_atom_site_type_symbol
_atom_site_label
_atom_site_fract_x
_atom_site_fract_y
_atom_site_fract_z
Si Si1 0.725416 0.217449 0.175704
Si Si2 0.310020 0.176332 0.032012
Si Si3 0.927178 0.750023 0.296283
Si Si4 0.485057 0.914794 0.769050
Si Si5 0.425707 0.478336 0.246894
Si Si6 0.057997 0.853541 0.476528
Si Si7 0.479185 0.687983 0.314704
Si Si8 0.000000 0.500000 0.500000
O O1 0.720752 0.094544 0.120836
O O2 0.546322 0.330144 0.203026
O O3 0.625960 0.244373 0.438247
O O4 0.933712 0.240475 0.978737
O O5 0.312810 0.299051 0.924114
O O6 0.439696 0.057145 0.823662
O O7 0.422518 0.152558 0.119759
O O8 0.087872 0.176297 0.262006
O O9 0.003032 0.817025 0.356679
O O10 0.974671 0.613493 0.358317
O O11 0.675416 0.840051 0.489307
O O12 0.499286 0.548969 0.303827
O O13 0.176250 0.525688 0.441277
O O14 0.500000 0.500000 0.000000
O O15 0.301654 0.769019 0.319798
O O16 0.000000 0.000000 0.500000
#
# Coordination Sequence:
#
# PCOD9014295 Si02
#       8
#     2   2   2   2   2   2   2   1
#     4  12  25  41  62  95 138 169 201 261 333 385
#     4  10  22  40  68  95 122 168 222 266 306 370
#     4  11  22  39  66  93 122 166 218 263 310 375
#     4  10  21  41  67  93 124 166 219 262 311 371
#     4  12  24  44  69  92 125 167 222 265 311 379
#     4  11  22  42  68  94 124 166 222 268 308 368
#     4  12  26  41  62  99 134 167 205 265 330 385
#     4  12  22  40  70  96 110 166 228 266 306 370
#
# _framework density 24.871936000000002
#
# number of rings (size 3 to 8) (size 9 to 14) (size 15 to 20)
#    0.000    0.800    4.000    5.200    1.867    1.600 
#    0.000    5.333    0.000    0.000    0.000    0.000 
#    0.000    0.000    0.000    0.000    0.000    0.000 
#
# Total GULP energy -83675.645156 kJ/mol
# GULP energy per Si atom -5578.376344 kJ/mol
# Density = 2.481533 g / cm^3
# Si number density = 24.871936 Si / 1000 Ang^3
#
#
#
# Elastic Constant Matrix: (Units=GPa)
#
#
# Indices 1 2 3 4 5 6 
#
# 1 35.8097 21.5265 32.4020 -15.0351 -5.2165 25.1772
# 2 21.5265 88.3872 29.6190 -9.8270 0.7329 40.4974
# 3 32.4020 29.6190 113.9565 -26.6777 -12.3409 22.9565
# 4 -15.0351 -9.8270 -26.6777 34.0166 7.5057 -9.3671
# 5 -5.2165 0.7329 -12.3409 7.5057 35.6593 2.4973
# 6 25.1772 40.4974 22.9565 -9.3671 2.4973 37.8023
#
#
#
# Elastic Compliance Matrix: (Units=1/GPa)
#
#
# Indices 1 2 3 4 5 6 
#
# 1 0.072083 0.010056 -0.009240 0.011709 0.008234 -0.050813
# 2 0.010056 0.023813 -0.002532 0.000401 0.002172 -0.030714
# 3 -0.009240 -0.002532 0.013163 0.005680 0.001909 0.002154
# 4 0.011709 0.000401 0.005680 0.039734 -0.004586 -0.001529
# 5 0.008234 0.002172 0.001909 -0.004586 0.031684 -0.012200
# 6 -0.050813 -0.030714 0.002154 -0.001529 -0.012200 0.092319
#
#
# Mechanical properties :
#
#
# Convention : Reuss Voigt Hill
#
# Bulk Modulus (GPa) = 9.46740 45.02760 27.24750
# Shear Modulus (GPa) = 16.05467 31.80273 23.92870
#
# Velocity S-wave (km/s) = 2.54341 3.57971 3.10510
# Velocity P-wave (km/s) = 3.52704 5.93539 4.88205
#
# Compressibility (1/GPa) = 0.10562561
#
# Stress axis : x y z
#
# Youngs Moduli (GPa) = 13.87295 41.99471 75.96969
#
# Poissons Ratio (x) = -0.42230 0.70199
# Poissons Ratio (y) = -0.13951 0.19236
# Poissons Ratio (z) = 0.12819 0.10633
#
# Static dielectric constant tensor:
#      x y z
#    x 2.318300 0.372750 -0.160590 
#    y 0.372750 2.356320 -0.167890 
#    z -0.160590 -0.167890 2.122500 
# 
# From -- ./inp_files/253377.got.cif
#   From: 2010.05.17/outbox.cif.g08.bks.cpg/sg2_127_cif.got.tgz:253377.got - 2010.06.03 11:33:40.
