data_PCOD9014371
_publ_section_title
;
Structure prediction by ZEFSAII (Michael W. Deem and Ramdas Pophale) SiO2 
 PCOD9014371
Probable space group: P -1
;
_chemical_formula_sum "Si O2"
_cell_formula_units_Z 12
_cell_length_a 11.294167
_cell_length_b 9.932587
_cell_length_c 11.979924
_cell_angle_alpha 130.472325
_cell_angle_beta 34.661285
_cell_angle_gamma 136.742674
_cell_volume 519.430080
_symmetry_space_group_name_H-M "P -1"
_symmetry_group_IT_number 2
_symmetry_cell_setting 'triclinic'
loop_
_space_group_symop_operation_xyz
x,y,z
-x,-y,-z
loop_
_atom_site_type_symbol
_atom_site_label
_atom_site_fract_x
_atom_site_fract_y
_atom_site_fract_z
Si Si1 0.197678 0.323981 0.061010
Si Si2 0.325516 0.397885 0.247229
Si Si3 0.536053 0.319575 0.516979
Si Si4 0.717747 0.049531 0.174611
Si Si5 0.734535 0.011173 0.873731
Si Si6 0.142397 0.400750 0.775050
O O1 0.404112 0.523262 0.959633
O O2 0.288827 0.155131 0.890301
O O3 0.180951 0.358920 0.224453
O O4 0.953153 0.228501 0.136802
O O5 0.329228 0.565233 0.415929
O O6 0.704376 0.663754 0.296070
O O7 0.514349 0.101006 0.402763
O O8 0.685316 0.442440 0.361357
O O9 0.746359 0.805290 0.740449
O O10 0.729608 0.044404 0.029008
O O11 0.955436 0.199116 0.755845
O O12 0.500000 0.000000 0.000000
O O13 0.000000 0.500000 0.000000
#
# Coordination Sequence:
#
# PCOD9014371 Si02
#       6
#     2   2   2   2   2   2
#     4   9  21  43  68  86 136 176 208 270 325 362
#     4  10  22  40  61 100 129 167 217 266 322 382
#     4  11  24  39  70 100 121 173 224 257 320 393
#     4  10  21  41  67  96 122 178 221 256 318 389
#     4  11  23  39  67  96 133 171 206 267 340 376
#     4  11  23  43  65  94 138 170 207 266 329 390
#
# _framework density 23.102243999999999
#
# number of rings (size 3 to 8) (size 9 to 14) (size 15 to 20)
#    0.000    1.667    1.667    2.000    4.667    2.000 
#    0.000    0.000    0.000    0.000    0.000    0.000 
#    0.000    0.000    0.000    0.000    0.000    0.000 
#
# Total GULP energy -67140.271757 kJ/mol
# GULP energy per Si atom -5595.022646 kJ/mol
# Density = 2.304966 g / cm^3
# Si number density = 23.102244 Si / 1000 Ang^3
#
#
#
# Elastic Constant Matrix: (Units=GPa)
#
#
# Indices 1 2 3 4 5 6 
#
# 1 99.3195 6.2712 25.7239 6.3033 -7.2882 21.8965
# 2 6.2712 70.1138 -5.7451 -0.3693 -13.5354 7.3916
# 3 25.7239 -5.7451 100.4140 19.2394 -12.3941 -1.1058
# 4 6.3033 -0.3693 19.2394 28.0879 1.1486 -0.8892
# 5 -7.2882 -13.5354 -12.3941 1.1486 28.0794 9.0119
# 6 21.8965 7.3916 -1.1058 -0.8892 9.0119 33.7285
#
#
#
# Elastic Compliance Matrix: (Units=1/GPa)
#
#
# Indices 1 2 3 4 5 6 
#
# 1 0.013648 0.001006 -0.002352 -0.002056 0.006596 -0.010974
# 2 0.001006 0.017643 0.002723 -0.002623 0.012600 -0.007866
# 3 -0.002352 0.002723 0.013293 -0.008860 0.007185 -0.000788
# 4 -0.002056 -0.002623 -0.008860 0.042635 -0.009115 0.005179
# 5 0.006596 0.012600 0.007185 -0.009115 0.053820 -0.021428
# 6 -0.010974 -0.007866 -0.000788 0.005179 -0.021428 0.044333
#
#
# Mechanical properties :
#
#
# Convention : Reuss Voigt Hill
#
# Bulk Modulus (GPa) = 21.12430 35.81638 28.47034
# Shear Modulus (GPa) = 25.20191 34.21898 29.71044
#
# Velocity S-wave (km/s) = 3.30644 3.85281 3.59003
# Velocity P-wave (km/s) = 4.87241 5.94384 5.43459
#
# Compressibility (1/GPa) = 0.04733884
#
# Stress axis : x y z
#
# Youngs Moduli (GPa) = 73.27084 56.67810 75.22877
#
# Poissons Ratio (x) = -0.05702 0.17691
# Poissons Ratio (y) = -0.07371 -0.20484
# Poissons Ratio (z) = 0.17230 -0.15433
#
# Static dielectric constant tensor:
#      x y z
#    x 1.870290 -0.009750 -0.004250 
#    y -0.009750 1.858480 -0.015500 
#    z -0.004250 -0.015500 1.879830 
# 
# From -- ./inp_files/235112.got.cif
#   From: 2010.05.17/outbox.cif.g08.bks.cpg/sg2_118_cif.got.tgz:235112.got - 2010.06.03 11:33:40.
