data_PCOD9014064
_publ_section_title
;
Structure prediction by ZEFSAII (Michael W. Deem and Ramdas Pophale) SiO2 
 PCOD9014064
Probable space group: P -1
;
_chemical_formula_sum "Si O2"
_cell_formula_units_Z 14
_cell_length_a 11.635747
_cell_length_b 19.239771
_cell_length_c 24.366288
_cell_angle_alpha 13.520261
_cell_angle_beta 29.288594
_cell_angle_gamma 30.252954
_cell_volume 617.890041
_symmetry_space_group_name_H-M "P -1"
_symmetry_group_IT_number 2
_symmetry_cell_setting 'triclinic'
loop_
_space_group_symop_operation_xyz
x,y,z
-x,-y,-z
loop_
_atom_site_type_symbol
_atom_site_label
_atom_site_fract_x
_atom_site_fract_y
_atom_site_fract_z
Si Si1 0.267725 0.877951 0.212977
Si Si2 0.955458 0.706606 0.562497
Si Si3 0.726679 0.316059 0.864171
Si Si4 0.167065 0.634250 0.012959
Si Si5 0.179232 0.279215 0.655969
Si Si6 0.455585 0.068712 0.309978
Si Si7 0.780294 0.325309 0.215732
O O1 0.253363 0.592311 0.400178
O O2 0.211187 0.758227 0.390083
O O3 0.500000 0.000000 0.000000
O O4 0.047611 0.137766 0.095116
O O5 0.835016 0.517494 0.711372
O O6 0.927300 0.521065 0.773182
O O7 0.829062 0.044838 0.368554
O O8 0.455549 0.447687 0.871867
O O9 0.894075 0.336759 0.725501
O O10 0.762995 0.963474 0.132758
O O11 0.285837 0.361424 0.134644
O O12 0.390558 0.809365 0.798744
O O13 0.336143 0.101309 0.681631
O O14 0.283457 0.839150 0.575975
O O15 0.000000 0.500000 0.000000
#
# Coordination Sequence:
#
# PCOD9014064 Si02
#       7
#     2   2   2   2   2   2   2
#     4  11  26  42  62  98 137 176 210 260 342 399
#     4  10  22  44  67  95 128 175 225 269 321 381
#     4  10  21  42  67  95 127 167 223 271 321 381
#     4  10  22  42  70  96 125 169 222 275 318 380
#     4  10  22  40  66  96 122 167 218 273 317 376
#     4  10  21  41  66  96 121 164 227 263 320 384
#     4  11  25  39  64 100 134 173 211 267 339 392
#
# _framework density 22.657754000000001
#
# number of rings (size 3 to 8) (size 9 to 14) (size 15 to 20)
#    0.000    1.714    1.429    2.143    4.000    5.143 
#    0.000    1.429    0.000    0.000    0.000    0.000 
#    0.000    0.000    0.000    0.000    0.000    0.000 
#
# Total GULP energy -78106.325296 kJ/mol
# GULP energy per Si atom -5579.023235 kJ/mol
# Density = 2.260618 g / cm^3
# Si number density = 22.657754 Si / 1000 Ang^3
#
#
#
# Elastic Constant Matrix: (Units=GPa)
#
#
# Indices 1 2 3 4 5 6 
#
# 1 14.7415 44.6472 45.8675 -14.1838 -16.0216 10.9363
# 2 44.6472 154.5819 72.6091 -7.3614 -17.9945 11.2051
# 3 45.8675 72.6091 142.4964 27.1477 4.7519 -27.2485
# 4 -14.1838 -7.3614 27.1477 43.2327 -21.6822 15.2101
# 5 -16.0216 -17.9945 4.7519 -21.6822 -6.9490 21.5994
# 6 10.9363 11.2051 -27.2485 15.2101 21.5994 19.9778
#
#
#
# Elastic Compliance Matrix: (Units=1/GPa)
#
#
# Indices 1 2 3 4 5 6 
#
# 1 0.113356 -0.038745 -0.008378 -0.006622 -0.066797 0.025511
# 2 -0.038745 0.019783 0.000471 0.000603 0.015721 -0.006699
# 3 -0.008378 0.000471 0.008455 0.000673 0.015930 -0.001881
# 4 -0.006622 0.000603 0.000673 0.013393 -0.010605 0.005475
# 5 -0.066797 0.015721 0.015930 -0.010605 0.044090 0.009882
# 6 0.025511 -0.006699 -0.001881 0.005475 0.009882 0.022430
#
#
# Mechanical properties :
#
#
# Convention : Reuss Voigt Hill
#
# Bulk Modulus (GPa) = 20.70818 70.89638 45.80228
# Shear Modulus (GPa) = 15.10996 21.16536 18.13766
#
# Velocity S-wave (km/s) = 2.58520 3.05967 2.83239
# Velocity P-wave (km/s) = 4.25093 6.62119 5.56375
#
# Compressibility (1/GPa) = 0.04829009
#
# Stress axis : x y z
#
# Youngs Moduli (GPa) = 8.82176 50.54903 118.27054
#
# Poissons Ratio (x) = 1.95853 0.99086
# Poissons Ratio (y) = 0.34180 -0.05571
# Poissons Ratio (z) = 0.07391 -0.02381
#
# Static dielectric constant tensor:
#      x y z
#    x 1.890910 0.065050 0.087420 
#    y 0.065050 1.917290 0.054400 
#    z 0.087420 0.054400 1.864720 
# 
# From -- ./inp_files/542493.got.cif
#   From: 2010.05.17/outbox.cif.g08.bks.cpg/sg2_272_cif.got.tgz:542493.got - 2010.06.03 11:33:40.
