data_PCOD9014475
_publ_section_title
;
Structure prediction by ZEFSAII (Michael W. Deem and Ramdas Pophale) SiO2 
 PCOD9014475
Probable space group: P -1
;
_chemical_formula_sum "Si O2"
_cell_formula_units_Z 16
_cell_length_a 6.627975
_cell_length_b 12.159620
_cell_length_c 10.730182
_cell_angle_alpha 61.681519
_cell_angle_beta 55.326780
_cell_angle_gamma 66.818673
_cell_volume 616.875774
_symmetry_space_group_name_H-M "P -1"
_symmetry_group_IT_number 2
_symmetry_cell_setting 'triclinic'
loop_
_space_group_symop_operation_xyz
x,y,z
-x,-y,-z
loop_
_atom_site_type_symbol
_atom_site_label
_atom_site_fract_x
_atom_site_fract_y
_atom_site_fract_z
Si Si1 0.822232 0.113067 0.273279
Si Si2 0.838124 0.308153 0.359807
Si Si3 0.762761 0.988328 0.008312
Si Si4 0.998851 0.560635 0.104747
Si Si5 0.689289 0.674917 0.486710
Si Si6 0.461013 0.222715 0.859252
Si Si7 0.230637 0.578435 0.249340
Si Si8 0.287277 0.123322 0.425920
O O1 0.810145 0.251830 0.261674
O O2 0.568784 0.115234 0.280706
O O3 0.084052 0.061465 0.145391
O O4 0.781656 0.013214 0.449478
O O5 0.896208 0.447905 0.275087
O O6 0.564127 0.310310 0.511383
O O7 0.068902 0.211378 0.383501
O O8 0.585336 0.120409 0.974039
O O9 0.598543 0.883330 0.162885
O O10 0.000000 0.000000 0.000000
O O11 0.807337 0.689473 0.089858
O O12 0.236377 0.581539 0.094161
O O13 0.000000 0.500000 0.000000
O O14 0.683075 0.562294 0.650921
O O15 0.706976 0.804015 0.482831
O O16 0.939951 0.629194 0.349522
O O17 0.633402 0.328884 0.764988
#
# Coordination Sequence:
#
# PCOD9014475 Si02
#       8
#     2   2   2   2   2   2   2   2
#     4  10  23  41  67 101 135 179 236 285 352 412
#     4  11  22  42  67 104 138 182 232 286 354 414
#     4  11  25  47  70 100 138 181 237 290 345 419
#     4  12  26  43  67 103 141 187 237 283 349 418
#     4  10  22  40  67 101 140 179 233 285 348 413
#     4  11  25  45  68 101 136 186 236 282 354 414
#     4  11  23  43  67 100 143 184 228 290 345 417
#     4  10  21  41  68 100 136 180 227 294 354 410
#
# _framework density 25.937152999999999
#
# number of rings (size 3 to 8) (size 9 to 14) (size 15 to 20)
#    0.000    1.250    2.500    2.625    0.000    6.000 
#    0.000    2.500    0.000    0.000    0.000    0.000 
#    0.000    0.000    0.000    0.000    0.000    0.000 
#
# Total GULP energy -89354.549738 kJ/mol
# GULP energy per Si atom -5584.659359 kJ/mol
# Density = 2.587812 g / cm^3
# Si number density = 25.937153 Si / 1000 Ang^3
#
#
#
# Elastic Constant Matrix: (Units=GPa)
#
#
# Indices 1 2 3 4 5 6 
#
# 1 177.0030 26.4697 34.0283 -5.4615 5.8808 -10.5117
# 2 26.4697 133.3839 22.3589 -25.3909 5.7329 -9.0711
# 3 34.0283 22.3589 44.5631 -5.7318 -4.4891 -2.4972
# 4 -5.4615 -25.3909 -5.7318 29.0195 6.7717 -1.7773
# 5 5.8808 5.7329 -4.4891 6.7717 26.0358 2.2944
# 6 -10.5117 -9.0711 -2.4972 -1.7773 2.2944 70.7604
#
#
#
# Elastic Compliance Matrix: (Units=1/GPa)
#
#
# Indices 1 2 3 4 5 6 
#
# 1 0.006857 -0.000140 -0.005283 0.000816 -0.002722 0.000923
# 2 -0.000140 0.010454 -0.004376 0.009679 -0.005683 0.001592
# 3 -0.005283 -0.004376 0.029285 -0.000817 0.007470 -0.000575
# 4 0.000816 0.009679 -0.000817 0.046564 -0.014831 0.002984
# 5 -0.002722 -0.005683 0.007470 -0.014831 0.045660 -0.002722
# 6 0.000923 0.001592 -0.000575 0.002984 -0.002722 0.014616
#
#
# Mechanical properties :
#
#
# Convention : Reuss Voigt Hill
#
# Bulk Modulus (GPa) = 37.04157 57.85154 47.44655
# Shear Modulus (GPa) = 27.46751 43.30267 35.38509
#
# Velocity S-wave (km/s) = 3.25776 4.09041 3.69760
# Velocity P-wave (km/s) = 5.33507 6.68293 6.04667
#
# Compressibility (1/GPa) = 0.02699670
#
# Stress axis : x y z
#
# Youngs Moduli (GPa) = 145.84386 95.66092 34.14713
#
# Poissons Ratio (x) = 0.01338 0.18040
# Poissons Ratio (y) = 0.02041 0.14944
# Poissons Ratio (z) = 0.77050 0.41864
#
# Static dielectric constant tensor:
#      x y z
#    x 2.078130 0.056970 0.024370 
#    y 0.056970 1.959300 0.060800 
#    z 0.024370 0.060800 2.197520 
# 
# From -- ./inp_files/364018.got.cif
#   From: 2010.05.17/outbox.cif.g08.bks.cpg/sg2_183_cif.got.tgz:364018.got - 2010.06.03 11:33:40.
