data_PCOD9014037
_publ_section_title
;
Structure prediction by ZEFSAII (Michael W. Deem and Ramdas Pophale) SiO2 
 PCOD9014037
Probable space group: P -1
;
_chemical_formula_sum "Si O2"
_cell_formula_units_Z 14
_cell_length_a 24.774632
_cell_length_b 5.302087
_cell_length_c 6.272216
_cell_angle_alpha 77.160210
_cell_angle_beta 118.834956
_cell_angle_gamma 123.661450
_cell_volume 599.580035
_symmetry_space_group_name_H-M "P -1"
_symmetry_group_IT_number 2
_symmetry_cell_setting 'triclinic'
loop_
_space_group_symop_operation_xyz
x,y,z
-x,-y,-z
loop_
_atom_site_type_symbol
_atom_site_label
_atom_site_fract_x
_atom_site_fract_y
_atom_site_fract_z
Si Si1 0.860092 0.089900 0.073796
Si Si2 0.392561 0.316486 0.969396
Si Si3 0.919237 0.749307 0.956369
Si Si4 0.740550 0.156809 0.960774
Si Si5 0.325771 0.622917 0.506070
Si Si6 0.457526 0.140531 0.791751
Si Si7 0.190408 0.431578 0.592443
O O1 0.914638 0.456415 0.116921
O O2 0.785305 0.085052 0.890431
O O3 0.886269 0.920737 0.995199
O O4 0.841454 0.892529 0.290723
O O5 0.473735 0.527120 0.179718
O O6 0.330029 0.155975 0.049493
O O7 0.364739 0.453963 0.706108
O O8 0.403165 0.088204 0.890706
O O9 0.870937 0.612220 0.678307
O O10 0.000000 0.000000 0.000000
O O11 0.718903 0.391573 0.785468
O O12 0.788515 0.319123 0.229849
O O13 0.264220 0.541475 0.582387
O O14 0.399319 0.952758 0.539103
O O15 0.500000 0.000000 0.000000
#
# Coordination Sequence:
#
# PCOD9014037 Si02
#       7
#     2   2   2   2   2   2   2
#     4  12  26  49  75 113 143 189 245 290 364 437
#     4  10  21  41  66  94 142 188 237 302 358 417
#     4  12  30  52  77 110 151 190 236 296 366 439
#     4  12  25  42  73 110 137 192 248 293 363 427
#     4  11  22  40  67  99 142 184 241 298 361 420
#     4   9  20  39  62  94 139 188 237 298 359 419
#     4  12  25  45  75 104 150 187 243 299 360 430
#
# _framework density 23.349678999999998
#
# number of rings (size 3 to 8) (size 9 to 14) (size 15 to 20)
#    0.000    0.857    5.714    0.429    2.000    5.143 
#    0.000    6.429    0.000    0.000    0.000    0.000 
#    0.000    0.000    0.000    0.000    0.000    0.000 
#
# Total GULP energy -77935.348945 kJ/mol
# GULP energy per Si atom -5566.810639 kJ/mol
# Density = 2.329653 g / cm^3
# Si number density = 23.349679 Si / 1000 Ang^3
#
#
#
# Elastic Constant Matrix: (Units=GPa)
#
#
# Indices 1 2 3 4 5 6 
#
# 1 93.5425 12.7523 24.9149 20.4666 1.1395 18.9746
# 2 12.7523 90.7433 14.2592 2.3618 -10.4806 33.8354
# 3 24.9149 14.2592 78.0505 0.0090 7.1326 5.8021
# 4 20.4666 2.3618 0.0090 28.0459 10.1403 3.3540
# 5 1.1395 -10.4806 7.1326 10.1403 15.8841 4.3341
# 6 18.9746 33.8354 5.8021 3.3540 4.3341 53.6527
#
#
#
# Elastic Compliance Matrix: (Units=1/GPa)
#
#
# Indices 1 2 3 4 5 6 
#
# 1 0.018131 0.005075 -0.007947 -0.020143 0.020983 -0.009189
# 2 0.005075 0.021322 -0.007121 -0.014655 0.030632 -0.016029
# 3 -0.007947 -0.007121 0.018277 0.013938 -0.022955 0.006308
# 4 -0.020143 -0.014655 0.013938 0.073449 -0.065621 0.015568
# 5 0.020983 0.030632 -0.022955 -0.065621 0.142502 -0.031665
# 6 -0.009189 -0.016029 0.006308 0.015568 -0.031665 0.032899
#
#
# Mechanical properties :
#
#
# Convention : Reuss Voigt Hill
#
# Bulk Modulus (GPa) = 26.49480 40.68766 33.59123
# Shear Modulus (GPa) = 14.74281 33.54386 24.14333
#
# Velocity S-wave (km/s) = 2.51548 3.79435 3.21906
# Velocity P-wave (km/s) = 4.45067 6.05469 5.31355
#
# Compressibility (1/GPa) = 0.03774325
#
# Stress axis : x y z
#
# Youngs Moduli (GPa) = 55.15514 46.89964 54.71299
#
# Poissons Ratio (x) = -0.23800 0.43479
# Poissons Ratio (y) = -0.27990 0.38963
# Poissons Ratio (z) = 0.43831 0.33399
#
# Static dielectric constant tensor:
#      x y z
#    x 1.879460 -0.002590 0.033870 
#    y -0.002590 2.038950 -0.040230 
#    z 0.033870 -0.040230 1.472290 
# 
# From -- ./inp_files/10872.got.cif
#   From: 2010.05.17/outbox.cif.g08.bks.cpg/sg2_6_cif.got.tgz:10872.got - 2010.06.03 11:33:40.
