data_PCOD9014473
_publ_section_title
;
Structure prediction by ZEFSAII (Michael W. Deem and Ramdas Pophale) SiO2 
 PCOD9014473
Probable space group: P -1
;
_chemical_formula_sum "Si O2"
_cell_formula_units_Z 12
_cell_length_a 11.551137
_cell_length_b 15.708572
_cell_length_c 17.506409
_cell_angle_alpha 156.546934
_cell_angle_beta 21.547832
_cell_angle_gamma 152.034706
_cell_volume 454.479719
_symmetry_space_group_name_H-M "P -1"
_symmetry_group_IT_number 2
_symmetry_cell_setting 'triclinic'
loop_
_space_group_symop_operation_xyz
x,y,z
-x,-y,-z
loop_
_atom_site_type_symbol
_atom_site_label
_atom_site_fract_x
_atom_site_fract_y
_atom_site_fract_z
Si Si1 0.889597 0.933413 0.190553
Si Si2 0.250217 0.494937 0.020093
Si Si3 0.209124 0.839701 0.777192
Si Si4 0.791374 0.620558 0.658413
Si Si5 0.778399 0.306942 0.026332
Si Si6 0.876291 0.052256 0.472636
O O1 0.918830 0.175633 0.335328
O O2 0.838202 0.000500 0.364143
O O3 0.182043 0.871566 0.910716
O O4 0.667442 0.688820 0.124420
O O5 0.149817 0.702915 0.291109
O O6 0.531406 0.569831 0.845756
O O7 0.925966 0.370712 0.071804
O O8 0.095806 0.593453 0.615358
O O9 0.573108 0.909560 0.584910
O O10 0.000000 0.000000 0.000000
O O11 0.582357 0.686441 0.769861
O O12 0.833048 0.062916 0.775524
O O13 0.000000 0.500000 0.000000
#
# Coordination Sequence:
#
# PCOD9014473 Si02
#       6
#     2   2   2   2   2   2
#     4  11  24  44  70  95 134 175 214 272 323 390
#     4  10  21  41  68 100 135 168 212 268 320 394
#     4  12  26  45  70  95 128 174 223 276 327 383
#     4  11  22  44  68  99 133 175 220 261 330 383
#     4   9  19  37  69  97 134 176 208 264 321 390
#     4  11  22  44  66 100 135 168 219 264 330 390
#
# _framework density 26.403818000000001
#
# number of rings (size 3 to 8) (size 9 to 14) (size 15 to 20)
#    0.000    1.333    6.667    1.000    0.000    8.000 
#    0.000    6.667    0.000    0.000    0.000    0.000 
#    0.000    0.000    0.000    0.000    0.000    0.000 
#
# Total GULP energy -66961.205752 kJ/mol
# GULP energy per Si atom -5580.100479 kJ/mol
# Density = 2.634372 g / cm^3
# Si number density = 26.403818 Si / 1000 Ang^3
#
#
#
# Elastic Constant Matrix: (Units=GPa)
#
#
# Indices 1 2 3 4 5 6 
#
# 1 86.3466 25.4724 74.3341 -7.4235 9.9613 2.2983
# 2 25.4724 139.6602 65.1342 30.4944 19.9503 -11.7503
# 3 74.3341 65.1342 224.2480 51.6575 31.8258 -5.2467
# 4 -7.4235 30.4944 51.6575 72.4114 -0.6477 16.1206
# 5 9.9613 19.9503 31.8258 -0.6477 64.9756 -10.5233
# 6 2.2983 -11.7503 -5.2467 16.1206 -10.5233 33.3625
#
#
#
# Elastic Compliance Matrix: (Units=1/GPa)
#
#
# Indices 1 2 3 4 5 6 
#
# 1 0.022214 -0.003306 -0.009732 0.012886 0.000855 -0.010182
# 2 -0.003306 0.009768 -0.000057 -0.005750 -0.001559 0.005945
# 3 -0.009732 -0.000057 0.010511 -0.009880 -0.002731 0.006216
# 4 0.012886 -0.005750 -0.009880 0.028539 0.002062 -0.017606
# 5 0.000855 -0.001559 -0.002731 0.002062 0.017669 0.003539
# 6 -0.010182 0.005945 0.006216 -0.017606 0.003539 0.043370
#
#
# Mechanical properties :
#
#
# Convention : Reuss Voigt Hill
#
# Bulk Modulus (GPa) = 61.32942 86.68181 74.00562
# Shear Modulus (GPa) = 30.54485 53.17082 41.85784
#
# Velocity S-wave (km/s) = 3.40492 4.49236 3.98590
# Velocity P-wave (km/s) = 6.22381 7.73362 7.01943
#
# Compressibility (1/GPa) = 0.01630539
#
# Stress axis : x y z
#
# Youngs Moduli (GPa) = 45.01601 102.37659 95.14175
#
# Poissons Ratio (x) = 0.33841 0.92588
# Poissons Ratio (y) = 0.14880 0.00538
# Poissons Ratio (z) = 0.43808 0.00579
#
# Static dielectric constant tensor:
#      x y z
#    x 2.244290 -0.043620 -0.107350 
#    y -0.043620 2.097650 0.030810 
#    z -0.107350 0.030810 2.087850 
# 
# From -- ./inp_files/379244.got.cif
#   From: 2010.05.17/outbox.cif.g08.bks.cpg/sg2_190_cif.got.tgz:379244.got - 2010.06.03 11:33:40.
