data_PCOD9014172
_publ_section_title
;
Structure prediction by ZEFSAII (Michael W. Deem and Ramdas Pophale) SiO2 
 PCOD9014172
Probable space group: P -1
;
_chemical_formula_sum "Si O2"
_cell_formula_units_Z 16
_cell_length_a 24.513976
_cell_length_b 15.457506
_cell_length_c 5.872197
_cell_angle_alpha 93.110273
_cell_angle_beta 89.249600
_cell_angle_gamma 162.956574
_cell_volume 645.472726
_symmetry_space_group_name_H-M "P -1"
_symmetry_group_IT_number 2
_symmetry_cell_setting 'triclinic'
loop_
_space_group_symop_operation_xyz
x,y,z
-x,-y,-z
loop_
_atom_site_type_symbol
_atom_site_label
_atom_site_fract_x
_atom_site_fract_y
_atom_site_fract_z
Si Si1 0.267393 0.441882 0.499609
Si Si2 0.515414 0.687346 0.678994
Si Si3 0.203397 0.797899 0.918047
Si Si4 0.292603 0.731371 0.939285
Si Si5 0.722076 0.351487 0.573282
Si Si6 0.343377 0.161552 0.716106
Si Si7 0.738090 0.790067 0.039364
Si Si8 0.984472 0.901991 0.169286
O O1 0.462538 0.688919 0.524341
O O2 0.249309 0.501955 0.366762
O O3 0.126822 0.153250 0.388250
O O4 0.218886 0.401542 0.750716
O O5 0.624563 0.780331 0.546447
O O6 0.326791 0.364718 0.760112
O O7 0.648515 0.926425 0.895220
O O8 0.274896 0.807762 0.905303
O O9 0.000000 0.500000 0.000000
O O10 0.225730 0.893791 0.710647
O O11 0.218254 0.605083 0.188737
O O12 0.205333 0.563080 0.675627
O O13 0.500000 0.000000 0.000000
O O14 0.500000 0.000000 0.500000
O O15 0.244998 0.087871 0.850606
O O16 0.559024 0.499125 0.844809
O O17 0.923645 0.041475 0.939017
O O18 0.000000 0.000000 0.000000
#
# Coordination Sequence:
#
# PCOD9014172 Si02
#       8
#     2   2   2   2   2   2   2   2
#     4  11  24  39  68 105 135 188 228 292 364 427
#     4  11  21  41  72  98 133 187 235 287 351 434
#     4  11  27  46  67 100 141 184 238 297 364 416
#     4  10  23  43  70 101 137 184 235 296 351 426
#     4  10  23  41  69 102 138 181 241 289 349 426
#     4  10  23  41  69  94 133 182 232 284 343 433
#     4  10  21  41  67 100 134 177 230 283 349 424
#     4  11  23  41  64 101 145 172 224 292 356 424
#
# _framework density 24.788034
#
# number of rings (size 3 to 8) (size 9 to 14) (size 15 to 20)
#    0.000    1.500    2.500    1.875    7.000    1.500 
#    0.000    0.000    0.000    0.000    0.000    0.000 
#    0.000    0.000    0.000    0.000    0.000    0.000 
#
# Total GULP energy -89196.066131 kJ/mol
# GULP energy per Si atom -5574.754133 kJ/mol
# Density = 2.473162 g / cm^3
# Si number density = 24.788034 Si / 1000 Ang^3
#
#
#
# Elastic Constant Matrix: (Units=GPa)
#
#
# Indices 1 2 3 4 5 6 
#
# 1 130.8338 29.3008 18.1379 -20.8016 -21.1164 -12.0067
# 2 29.3008 69.5964 5.9498 -15.2218 -12.0196 -1.8787
# 3 18.1379 5.9498 95.1537 -20.1590 -8.6548 -5.0389
# 4 -20.8016 -15.2218 -20.1590 32.3468 7.7877 -4.5307
# 5 -21.1164 -12.0196 -8.6548 7.7877 37.3610 -9.4732
# 6 -12.0067 -1.8787 -5.0389 -4.5307 -9.4732 36.2967
#
#
#
# Elastic Compliance Matrix: (Units=1/GPa)
#
#
# Indices 1 2 3 4 5 6 
#
# 1 0.010293 -0.002145 0.000022 0.005065 0.005433 0.005347
# 2 -0.002145 0.017409 0.001267 0.007003 0.003788 0.002230
# 3 0.000022 0.001267 0.012610 0.008362 0.002490 0.003517
# 4 0.005065 0.007003 0.008362 0.043871 0.000116 0.008705
# 5 0.005433 0.003788 0.002490 0.000116 0.034487 0.011354
# 6 0.005347 0.002230 0.003517 0.008705 0.011354 0.033973
#
#
# Mechanical properties :
#
#
# Convention : Reuss Voigt Hill
#
# Bulk Modulus (GPa) = 25.90630 44.70677 35.30653
# Shear Modulus (GPa) = 29.90017 37.34727 33.62372
#
# Velocity S-wave (km/s) = 3.47686 3.88579 3.68700
# Velocity P-wave (km/s) = 5.15673 6.18120 5.69206
#
# Compressibility (1/GPa) = 0.03860065
#
# Stress axis : x y z
#
# Youngs Moduli (GPa) = 97.14870 57.44037 79.30065
#
# Poissons Ratio (x) = 0.12322 -0.00178
# Poissons Ratio (y) = 0.20840 -0.10044
# Poissons Ratio (z) = -0.00218 -0.07275
#
# Static dielectric constant tensor:
#      x y z
#    x 2.092370 -0.060690 0.079940 
#    y -0.060690 1.979170 -0.032240 
#    z 0.079940 -0.032240 2.096100 
# 
# From -- ./inp_files/67150.got.cif
#   From: 2010.05.17/outbox.cif.g08.bks.cpg/sg2_34_cif.got.tgz:67150.got - 2010.06.03 11:33:40.
