data_PCOD9014355
_publ_section_title
;
Structure prediction by ZEFSAII (Michael W. Deem and Ramdas Pophale) SiO2 
 PCOD9014355
Probable space group: P -1
;
_chemical_formula_sum "Si O2"
_cell_formula_units_Z 16
_cell_length_a 9.358663
_cell_length_b 8.772637
_cell_length_c 23.163944
_cell_angle_alpha 31.303703
_cell_angle_beta 132.486706
_cell_angle_gamma 130.139248
_cell_volume 717.249742
_symmetry_space_group_name_H-M "P -1"
_symmetry_group_IT_number 2
_symmetry_cell_setting 'triclinic'
loop_
_space_group_symop_operation_xyz
x,y,z
-x,-y,-z
loop_
_atom_site_type_symbol
_atom_site_label
_atom_site_fract_x
_atom_site_fract_y
_atom_site_fract_z
Si Si1 0.650964 0.726173 0.412519
Si Si2 0.996304 0.718143 0.874166
Si Si3 0.774092 0.363301 0.730265
Si Si4 0.826127 0.821314 0.148192
Si Si5 0.706739 0.213603 0.367966
Si Si6 0.055724 0.951836 0.417465
Si Si7 0.702432 0.060393 0.628182
Si Si8 0.856574 0.192943 0.928054
O O1 0.430183 0.714440 0.333971
O O2 0.679963 0.386588 0.537683
O O3 0.698634 0.929239 0.416303
O O4 0.823198 0.880261 0.366723
O O5 0.987350 0.500276 0.887636
O O6 0.805920 0.871163 0.762974
O O7 0.163105 0.991642 0.849965
O O8 0.000000 0.500000 0.000000
O O9 0.864691 0.714133 0.646364
O O10 0.728070 0.265085 0.816066
O O11 0.951579 0.217926 0.798058
O O12 0.710353 0.496057 0.236362
O O13 0.756731 0.008067 0.015673
O O14 0.889323 0.253257 0.448688
O O15 0.511552 0.132809 0.379194
O O16 0.168622 0.902564 0.406209
O O17 0.000000 0.000000 0.000000
#
# Coordination Sequence:
#
# PCOD9014355 Si02
#       8
#     2   2   2   2   2   2   2   2
#     4  12  26  42  70 103 137 185 231 277 349 409
#     4  10  21  41  67  95 129 177 228 279 336 396
#     4  11  22  44  70  99 140 179 227 284 340 408
#     4  10  22  42  71 100 135 183 230 284 337 403
#     4  12  25  43  68 103 140 183 230 280 342 414
#     4  12  25  43  65  96 143 178 227 284 343 402
#     4  12  25  43  65  99 143 180 225 282 347 406
#     4   9  20  42  72  95 135 184 224 282 346 401
#
# _framework density 22.307431999999999
#
# number of rings (size 3 to 8) (size 9 to 14) (size 15 to 20)
#    0.000    1.000    3.750    3.000    1.750    0.000 
#    0.000    4.375    0.000    0.000    0.000    0.000 
#    0.000    0.000    0.000    0.000    0.000    0.000 
#
# Total GULP energy -89362.465198 kJ/mol
# GULP energy per Si atom -5585.154075 kJ/mol
# Density = 2.225666 g / cm^3
# Si number density = 22.307432 Si / 1000 Ang^3
#
#
#
# Elastic Constant Matrix: (Units=GPa)
#
#
# Indices 1 2 3 4 5 6 
#
# 1 88.7770 39.0596 13.8442 -2.2270 -16.4328 3.3639
# 2 39.0596 97.9033 37.0062 -4.5487 -5.1337 -7.1739
# 3 13.8442 37.0062 101.2296 -1.4047 -11.1135 -5.7133
# 4 -2.2270 -4.5487 -1.4047 38.1376 -4.1775 1.1278
# 5 -16.4328 -5.1337 -11.1135 -4.1775 20.1111 -7.8649
# 6 3.3639 -7.1739 -5.7133 1.1278 -7.8649 43.8180
#
#
#
# Elastic Compliance Matrix: (Units=1/GPa)
#
#
# Indices 1 2 3 4 5 6 
#
# 1 0.016212 -0.006277 0.001530 0.001663 0.012914 0.000202
# 2 -0.006277 0.014477 -0.004683 0.000787 -0.003215 0.001644
# 3 0.001530 -0.004683 0.012378 0.000788 0.007890 0.002126
# 4 0.001663 0.000787 0.000788 0.027291 0.007991 0.000836
# 5 0.012914 -0.003215 0.007890 0.007991 0.070126 0.011892
# 6 0.000202 0.001644 0.002126 0.000836 0.011892 0.025466
#
#
# Mechanical properties :
#
#
# Convention : Reuss Voigt Hill
#
# Bulk Modulus (GPa) = 41.31059 51.96999 46.64029
# Shear Modulus (GPa) = 25.92292 33.61334 29.76813
#
# Velocity S-wave (km/s) = 3.41262 3.88599 3.65697
# Velocity P-wave (km/s) = 5.83840 6.59411 6.22773
#
# Compressibility (1/GPa) = 0.02420687
#
# Stress axis : x y z
#
# Youngs Moduli (GPa) = 61.68354 69.07509 80.78574
#
# Poissons Ratio (x) = 0.43357 -0.12358
# Poissons Ratio (y) = 0.38718 0.37833
# Poissons Ratio (z) = -0.09436 0.32349
#
# Static dielectric constant tensor:
#      x y z
#    x 1.853900 -0.013160 0.002860 
#    y -0.013160 1.818630 0.004750 
#    z 0.002860 0.004750 1.868530 
# 
# From -- ./inp_files/606576.got.cif
#   From: 2010.05.17/outbox.cif.g08.bks.cpg/sg2_304_cif.got.tgz:606576.got - 2010.06.03 11:33:40.
