data_PCOD9014706
_publ_section_title
;
Structure prediction by ZEFSAII (Michael W. Deem and Ramdas Pophale) SiO2 
 PCOD9014706
Probable space group: P -1
;
_chemical_formula_sum "Si O2"
_cell_formula_units_Z 14
_cell_length_a 8.642110
_cell_length_b 8.204866
_cell_length_c 15.492864
_cell_angle_alpha 118.699891
_cell_angle_beta 116.467751
_cell_angle_gamma 34.829392
_cell_volume 547.427839
_symmetry_space_group_name_H-M "P -1"
_symmetry_group_IT_number 2
_symmetry_cell_setting 'triclinic'
loop_
_space_group_symop_operation_xyz
x,y,z
-x,-y,-z
loop_
_atom_site_type_symbol
_atom_site_label
_atom_site_fract_x
_atom_site_fract_y
_atom_site_fract_z
Si Si1 0.885060 0.337391 0.049540
Si Si2 0.532589 0.318235 0.280826
Si Si3 0.900602 0.054810 0.605007
Si Si4 0.506649 0.443727 0.849973
Si Si5 0.908352 0.671030 0.429491
Si Si6 0.692290 0.947387 0.675938
Si Si7 0.474287 0.984129 0.091583
O O1 0.762068 0.339388 0.103213
O O2 0.205524 0.081947 0.057110
O O3 0.754600 0.650615 0.100732
O O4 0.737103 0.367022 0.938023
O O5 0.553861 0.417033 0.222075
O O6 0.436853 0.197272 0.194644
O O7 0.827145 0.066029 0.332132
O O8 0.341351 0.595534 0.367560
O O9 0.949031 0.858626 0.493794
O O10 0.819915 0.984076 0.647203
O O11 0.608233 0.150117 0.784312
O O12 0.000000 0.500000 0.500000
O O13 0.096278 0.394662 0.341566
O O14 0.590587 0.898940 0.392131
O O15 0.500000 0.000000 0.000000
#
# Coordination Sequence:
#
# PCOD9014706 Si02
#       7
#     2   2   2   2   2   2   2
#     4  11  26  41  61  85 124 158 197 244 289 351
#     4  11  22  36  61  86 118 155 195 241 288 347
#     4  10  19  32  54  85 117 150 191 238 293 347
#     4  10  23  40  60  91 118 158 199 241 294 344
#     4  10  17  30  48  81 118 150 178 236 299 345
#     4  10  19  29  53  79 119 150 184 234 295 347
#     4  12  25  42  61  86 118 160 200 241 295 343
#
# _framework density 25.574148000000001
#
# number of rings (size 3 to 8) (size 9 to 14) (size 15 to 20)
#    0.000    1.429    1.429    7.286    4.000    6.857 
#    0.000    0.000    0.000    0.000    0.000   20.000 
#    0.000    0.000    0.000    0.000    0.000    0.000 
#
# Total GULP energy -78495.631258 kJ/mol
# GULP energy per Si atom -5606.830804 kJ/mol
# Density = 2.551594 g / cm^3
# Si number density = 25.574148 Si / 1000 Ang^3
#
#
#
# Elastic Constant Matrix: (Units=GPa)
#
#
# Indices 1 2 3 4 5 6 
#
# 1 68.3700 23.4828 38.2149 -2.0925 8.9616 -8.2269
# 2 23.4828 110.2685 18.8920 15.2753 11.2143 -14.0930
# 3 38.2149 18.8920 104.0944 13.8507 17.7867 -9.9184
# 4 -2.0925 15.2753 13.8507 48.2030 11.6419 14.5629
# 5 8.9616 11.2143 17.7867 11.6419 50.6918 -1.8202
# 6 -8.2269 -14.0930 -9.9184 14.5629 -1.8202 45.9621
#
#
#
# Elastic Compliance Matrix: (Units=1/GPa)
#
#
# Indices 1 2 3 4 5 6 
#
# 1 0.020122 -0.003628 -0.007166 0.004566 -0.001309 -0.000556
# 2 -0.003628 0.011076 0.000523 -0.004984 -0.000689 0.004412
# 3 -0.007166 0.000523 0.013484 -0.004743 -0.002376 0.003196
# 4 0.004566 -0.004984 -0.004743 0.028382 -0.004951 -0.010923
# 5 -0.001309 -0.000689 -0.002376 -0.004951 0.022135 0.001487
# 6 -0.000556 0.004412 0.003196 -0.010923 0.001487 0.027220
#
#
# Mechanical properties :
#
#
# Convention : Reuss Voigt Hill
#
# Bulk Modulus (GPa) = 41.42300 49.32359 45.37329
# Shear Modulus (GPa) = 33.11106 42.44758 37.77932
#
# Velocity S-wave (km/s) = 3.60211 4.07847 3.84767
# Velocity P-wave (km/s) = 5.79074 6.44258 6.12534
#
# Compressibility (1/GPa) = 0.02414118
#
# Stress axis : x y z
#
# Youngs Moduli (GPa) = 49.69695 90.28418 74.16203
#
# Poissons Ratio (x) = 0.32755 0.53141
# Poissons Ratio (y) = 0.18030 -0.03879
# Poissons Ratio (z) = 0.35610 -0.04722
#
# Static dielectric constant tensor:
#      x y z
#    x 2.035000 0.062250 -0.064280 
#    y 0.062250 1.963050 0.052150 
#    z -0.064280 0.052150 2.037220 
# 
# From -- ./inp_files/50498.got.cif
#   From: 2010.05.17/outbox.cif.g08.bks.cpg/sg2_26_cif.got.tgz:50498.got - 2010.06.03 11:33:40.
