data_PCOD9014886
_publ_section_title
;
Structure prediction by ZEFSAII (Michael W. Deem and Ramdas Pophale) SiO2 
 PCOD9014886
Probable space group: P -1
;
_chemical_formula_sum "Si O2"
_cell_formula_units_Z 16
_cell_length_a 8.030994
_cell_length_b 9.761724
_cell_length_c 14.962962
_cell_angle_alpha 75.809976
_cell_angle_beta 129.090208
_cell_angle_gamma 69.895833
_cell_volume 661.405169
_symmetry_space_group_name_H-M "P -1"
_symmetry_group_IT_number 2
_symmetry_cell_setting 'triclinic'
loop_
_space_group_symop_operation_xyz
x,y,z
-x,-y,-z
loop_
_atom_site_type_symbol
_atom_site_label
_atom_site_fract_x
_atom_site_fract_y
_atom_site_fract_z
Si Si1 0.205685 0.959560 0.776108
Si Si2 0.865237 0.901476 0.079235
Si Si3 0.190129 0.111067 0.564498
Si Si4 0.399559 0.862205 0.222819
Si Si5 0.347127 0.476722 0.030296
Si Si6 0.044905 0.501536 0.226525
Si Si7 0.321066 0.483811 0.744572
Si Si8 0.379888 0.896809 0.495533
O O1 0.275474 0.995554 0.889903
O O2 0.141565 0.096562 0.653449
O O3 0.908389 0.003121 0.673272
O O4 0.459083 0.747820 0.862514
O O5 0.989217 0.689748 0.159899
O O6 0.118278 0.905254 0.152838
O O7 0.677544 0.008042 0.910227
O O8 0.443439 0.115600 0.653075
O O9 0.911314 0.299832 0.396099
O O10 0.286206 0.941332 0.561178
O O11 0.608114 0.649738 0.290768
O O12 0.394331 0.558453 0.117529
O O13 0.500000 0.500000 0.000000
O O14 0.039967 0.557662 0.879323
O O15 0.824838 0.543997 0.221570
O O16 0.366066 0.325983 0.393420
O O17 0.500000 0.000000 0.500000
#
# Coordination Sequence:
#
# PCOD9014886 Si02
#       8
#     2   2   2   2   2   2   2   2
#     4  12  25  44  72  95 142 183 227 282 336 408
#     4  11  26  46  67 101 136 179 230 285 339 404
#     4  12  25  44  69 101 137 181 230 275 343 409
#     4  11  26  45  70  98 139 180 226 285 345 397
#     4  10  21  41  69  98 131 181 227 277 334 402
#     4  11  24  42  72 103 134 180 230 279 342 402
#     4  11  23  43  68  99 137 179 229 277 339 410
#     4  12  24  45  68 103 140 177 221 284 343 397
#
# _framework density 24.190919999999998
#
# number of rings (size 3 to 8) (size 9 to 14) (size 15 to 20)
#    0.000    0.750    2.500    5.250    1.750    4.000 
#    0.000    1.875    0.000    0.000    0.000    0.000 
#    0.000    0.000    0.000    0.000    0.000    0.000 
#
# Total GULP energy -89647.759356 kJ/mol
# GULP energy per Si atom -5602.984960 kJ/mol
# Density = 2.413586 g / cm^3
# Si number density = 24.190920 Si / 1000 Ang^3
#
#
#
# Elastic Constant Matrix: (Units=GPa)
#
#
# Indices 1 2 3 4 5 6 
#
# 1 64.2666 3.8987 7.9730 0.4396 -18.6275 4.6520
# 2 3.8987 81.4421 11.0738 9.2970 -11.1548 -0.0360
# 3 7.9730 11.0738 66.7152 12.4319 -1.6809 5.9920
# 4 0.4396 9.2970 12.4319 48.8649 5.5743 -4.2362
# 5 -18.6275 -11.1548 -1.6809 5.5743 38.3433 -2.8749
# 6 4.6520 -0.0360 5.9920 -4.2362 -2.8749 33.9056
#
#
#
# Elastic Compliance Matrix: (Units=1/GPa)
#
#
# Indices 1 2 3 4 5 6 
#
# 1 0.018512 0.000726 -0.001767 -0.001037 0.009159 -0.001580
# 2 0.000726 0.013405 -0.001735 -0.002613 0.004578 0.000283
# 3 -0.001767 -0.001735 0.016536 -0.004108 -0.000282 -0.003219
# 4 -0.001037 -0.002613 -0.004108 0.022820 -0.004512 0.003334
# 5 0.009159 0.004578 -0.000282 -0.004512 0.032580 0.000997
# 6 -0.001580 0.000283 -0.003219 0.003334 0.000997 0.030781
#
#
# Mechanical properties :
#
#
# Convention : Reuss Voigt Hill
#
# Bulk Modulus (GPa) = 23.30942 28.70167 26.00554
# Shear Modulus (GPa) = 32.36572 36.85467 34.61019
#
# Velocity S-wave (km/s) = 3.66174 3.90743 3.78658
# Velocity P-wave (km/s) = 5.24731 5.67871 5.46727
#
# Compressibility (1/GPa) = 0.04290112
#
# Stress axis : x y z
#
# Youngs Moduli (GPa) = 54.02027 74.59775 60.47537
#
# Poissons Ratio (x) = -0.05418 0.10686
# Poissons Ratio (y) = -0.03923 0.10492
# Poissons Ratio (z) = 0.09545 0.12943
#
# Static dielectric constant tensor:
#      x y z
#    x 2.012100 0.016360 -0.002090 
#    y 0.016360 1.868790 0.022380 
#    z -0.002090 0.022380 1.916650 
# 
# From -- ./inp_files/298436.got.cif
#   From: 2010.05.17/outbox.cif.g08.bks.cpg/sg2_150_cif.got.tgz:298436.got - 2010.06.03 11:33:40.
