data_PCOD9014209
_publ_section_title
;
Structure prediction by ZEFSAII (Michael W. Deem and Ramdas Pophale) SiO2 
 PCOD9014209
Probable space group: P -1
;
_chemical_formula_sum "Si O2"
_cell_formula_units_Z 14
_cell_length_a 9.464998
_cell_length_b 13.684131
_cell_length_c 14.839948
_cell_angle_alpha 38.083945
_cell_angle_beta 78.722343
_cell_angle_gamma 47.741718
_cell_volume 598.695816
_symmetry_space_group_name_H-M "P -1"
_symmetry_group_IT_number 2
_symmetry_cell_setting 'triclinic'
loop_
_space_group_symop_operation_xyz
x,y,z
-x,-y,-z
loop_
_atom_site_type_symbol
_atom_site_label
_atom_site_fract_x
_atom_site_fract_y
_atom_site_fract_z
Si Si1 0.276778 0.946604 0.667745
Si Si2 0.631734 0.022381 0.019198
Si Si3 0.167649 0.998827 0.451365
Si Si4 0.703589 0.222572 0.744027
Si Si5 0.097588 0.763992 0.874592
Si Si6 0.701882 0.831810 0.335091
Si Si7 0.739593 0.482597 0.665957
O O1 0.174042 0.092977 0.474697
O O2 0.128805 0.924069 0.735879
O O3 0.251313 0.106215 0.628701
O O4 0.603421 0.591769 0.882854
O O5 0.563442 0.061590 0.104634
O O6 0.537620 0.270189 0.800905
O O7 0.970909 0.718131 0.187824
O O8 0.500000 0.000000 0.000000
O O9 0.494470 0.656364 0.636425
O O10 0.000000 0.000000 0.500000
O O11 0.021613 0.192232 0.236619
O O12 0.500000 0.500000 0.500000
O O13 0.837984 0.241394 0.768499
O O14 0.906167 0.932755 0.864262
O O15 0.586896 0.768288 0.422567
O O16 0.000000 0.500000 0.500000
#
# Coordination Sequence:
#
# PCOD9014209 Si02
#       7
#     2   2   2   2   2   2   2
#     4  10  22  42  68 100 146 187 235 306 360 431
#     4  11  25  42  68 109 145 186 238 300 372 431
#     4  10  22  41  68 102 140 187 242 294 360 435
#     4  12  23  42  76 104 144 187 243 302 359 435
#     4  10  21  41  67 104 141 185 243 293 366 433
#     4  10  23  46  70 100 146 186 237 299 370 429
#     4  11  23  45  72 104 147 190 243 300 361 435
#
# _framework density 23.384163000000001
#
# number of rings (size 3 to 8) (size 9 to 14) (size 15 to 20)
#    0.000    1.429    1.429    3.857    0.000    5.143 
#    5.143    0.714    0.000    0.000    0.000    0.000 
#    0.000    0.000    0.000    0.000    0.000    0.000 
#
# Total GULP energy -78192.283980 kJ/mol
# GULP energy per Si atom -5585.163141 kJ/mol
# Density = 2.333094 g / cm^3
# Si number density = 23.384163 Si / 1000 Ang^3
#
#
#
# Elastic Constant Matrix: (Units=GPa)
#
#
# Indices 1 2 3 4 5 6 
#
# 1 117.5695 54.2199 34.3796 17.9356 8.9400 12.7973
# 2 54.2199 158.8487 37.1154 29.1328 -3.7275 27.4180
# 3 34.3796 37.1154 79.3400 34.7359 -8.2969 4.6242
# 4 17.9356 29.1328 34.7359 41.9876 0.0494 9.9154
# 5 8.9400 -3.7275 -8.2969 0.0494 35.2403 -6.5504
# 6 12.7973 27.4180 4.6242 9.9154 -6.5504 42.1679
#
#
#
# Elastic Compliance Matrix: (Units=1/GPa)
#
#
# Indices 1 2 3 4 5 6 
#
# 1 0.011571 -0.002847 -0.004676 0.001432 -0.004753 -0.002222
# 2 -0.002847 0.008798 -0.001342 -0.002847 0.000608 -0.003945
# 3 -0.004676 -0.001342 0.023513 -0.017726 0.007544 0.005053
# 4 0.001432 -0.002847 -0.017726 0.041598 -0.006271 -0.007395
# 5 -0.004753 0.000608 0.007544 -0.006271 0.032690 0.006773
# 6 -0.002222 -0.003945 0.005053 -0.007395 0.006773 0.029191
#
#
# Mechanical properties :
#
#
# Convention : Reuss Voigt Hill
#
# Bulk Modulus (GPa) = 38.24009 67.46535 52.85272
# Shear Modulus (GPa) = 28.76687 39.21539 33.99113
#
# Velocity S-wave (km/s) = 3.51121 4.09957 3.81674
# Velocity P-wave (km/s) = 5.72945 7.16395 6.48647
#
# Compressibility (1/GPa) = 0.02615057
#
# Stress axis : x y z
#
# Youngs Moduli (GPa) = 86.42227 113.65968 42.52956
#
# Poissons Ratio (x) = 0.32364 0.19889
# Poissons Ratio (y) = 0.24609 0.05707
# Poissons Ratio (z) = 0.40414 0.15253
#
# Static dielectric constant tensor:
#      x y z
#    x 1.893910 -0.035650 -0.005170 
#    y -0.035650 1.898360 0.064680 
#    z -0.005170 0.064680 1.977470 
# 
# From -- ./inp_files/497472.got.cif
#   From: 2010.05.17/outbox.cif.g08.bks.cpg/sg2_249_cif.got.tgz:497472.got - 2010.06.03 11:33:40.
