data_PCOD9014661
_publ_section_title
;
Structure prediction by ZEFSAII (Michael W. Deem and Ramdas Pophale) SiO2 
 PCOD9014661
Probable space group: P -1
;
_chemical_formula_sum "Si O2"
_cell_formula_units_Z 16
_cell_length_a 5.398861
_cell_length_b 9.585914
_cell_length_c 16.027911
_cell_angle_alpha 51.458127
_cell_angle_beta 70.368321
_cell_angle_gamma 67.894515
_cell_volume 595.174208
_symmetry_space_group_name_H-M "P -1"
_symmetry_group_IT_number 2
_symmetry_cell_setting 'triclinic'
loop_
_space_group_symop_operation_xyz
x,y,z
-x,-y,-z
loop_
_atom_site_type_symbol
_atom_site_label
_atom_site_fract_x
_atom_site_fract_y
_atom_site_fract_z
Si Si1 0.004487 0.302658 0.470531
Si Si2 0.434013 0.850761 0.498541
Si Si3 0.763308 0.596195 0.269493
Si Si4 0.827344 0.204894 0.939809
Si Si5 0.139117 0.627447 0.819019
Si Si6 0.181078 0.041603 0.695244
Si Si7 0.297875 0.905072 0.166502
Si Si8 0.358418 0.311924 0.048608
O O1 0.860755 0.186834 0.464377
O O2 0.846194 0.501382 0.384843
O O3 0.471321 0.080762 0.626841
O O4 0.318325 0.314888 0.438298
O O5 0.003750 0.814755 0.401670
O O6 0.500000 0.000000 0.500000
O O7 0.507606 0.760820 0.250306
O O8 0.000935 0.668205 0.169132
O O9 0.738799 0.449123 0.254550
O O10 0.616008 0.177889 0.903042
O O11 0.682493 0.276660 0.015728
O O12 0.000000 0.000000 0.000000
O O13 0.814031 0.652746 0.860270
O O14 0.194189 0.828983 0.752322
O O15 0.257332 0.477103 0.932990
O O16 0.015225 0.089121 0.780859
O O17 0.315966 0.112824 0.100103
#
# Coordination Sequence:
#
# PCOD9014661 Si02
#       8
#     2   2   2   2   2   2   2   2
#     4  10  25  43  67 102 141 181 230 286 343 413
#     4  10  21  42  68  96 141 183 224 284 348 405
#     4  12  25  39  70  99 132 181 226 279 348 416
#     4  12  24  41  67 100 132 182 225 280 355 411
#     4  10  21  41  68  97 129 175 230 282 349 407
#     4   9  24  43  69  99 133 185 227 289 341 411
#     4  11  23  45  67  95 137 179 228 280 344 423
#     4  10  21  43  66  93 134 173 223 292 340 414
#
# _framework density 26.882884000000001
#
# number of rings (size 3 to 8) (size 9 to 14) (size 15 to 20)
#    0.750    0.750    2.500    2.250    3.500    3.000 
#    0.000    1.250    0.000    0.000    0.000    0.000 
#    0.000    0.000    0.000    0.000    0.000    0.000 
#
# Total GULP energy -89196.831292 kJ/mol
# GULP energy per Si atom -5574.801956 kJ/mol
# Density = 2.682170 g / cm^3
# Si number density = 26.882884 Si / 1000 Ang^3
#
#
#
# Elastic Constant Matrix: (Units=GPa)
#
#
# Indices 1 2 3 4 5 6 
#
# 1 48.8188 29.5775 14.5660 -1.4979 -11.8437 7.5619
# 2 29.5775 110.7522 55.3826 11.8458 -9.5044 -2.1612
# 3 14.5660 55.3826 141.7856 -29.3470 9.2165 -9.4176
# 4 -1.4979 11.8458 -29.3470 34.4822 -6.9727 6.6189
# 5 -11.8437 -9.5044 9.2165 -6.9727 46.6275 -0.3524
# 6 7.5619 -2.1612 -9.4176 6.6189 -0.3524 30.2161
#
#
#
# Elastic Compliance Matrix: (Units=1/GPa)
#
#
# Indices 1 2 3 4 5 6 
#
# 1 0.028684 -0.008759 0.001166 0.008315 0.006444 -0.009188
# 2 -0.008759 0.017366 -0.008636 -0.014255 0.000920 0.003876
# 3 0.001166 -0.008636 0.013331 0.013922 -0.002016 0.000172
# 4 0.008315 -0.014255 0.013922 0.048647 0.003658 -0.009375
# 5 0.006444 0.000920 -0.002016 0.003658 0.024196 -0.002694
# 6 -0.009188 0.003876 0.000172 -0.009375 -0.002694 0.037747
#
#
# Mechanical properties :
#
#
# Convention : Reuss Voigt Hill
#
# Bulk Modulus (GPa) = 37.14307 55.60096 46.37201
# Shear Modulus (GPa) = 23.65141 35.72052 29.68596
#
# Velocity S-wave (km/s) = 2.96935 3.64915 3.32666
# Velocity P-wave (km/s) = 5.05991 6.20344 5.66062
#
# Compressibility (1/GPa) = 0.02692292
#
# Stress axis : x y z
#
# Youngs Moduli (GPa) = 34.86209 57.58288 75.01546
#
# Poissons Ratio (x) = 0.50439 -0.08750
# Poissons Ratio (y) = 0.30537 0.64786
# Poissons Ratio (z) = -0.04067 0.49730
#
# Static dielectric constant tensor:
#      x y z
#    x 2.488330 -0.045370 0.473610 
#    y -0.045370 2.200290 -0.102680 
#    z 0.473610 -0.102680 3.049830 
# 
# From -- ./inp_files/583252.got.cif
#   From: 2010.05.17/outbox.cif.g08.bks.cpg/sg2_292_cif.got.tgz:583252.got - 2010.06.03 11:33:40.
