data_PCOD9014062
_publ_section_title
;
Structure prediction by ZEFSAII (Michael W. Deem and Ramdas Pophale) SiO2 
 PCOD9014062
Probable space group: P -1
;
_chemical_formula_sum "Si O2"
_cell_formula_units_Z 16
_cell_length_a 6.051874
_cell_length_b 13.323971
_cell_length_c 11.404523
_cell_angle_alpha 62.251735
_cell_angle_beta 124.764263
_cell_angle_gamma 96.390714
_cell_volume 653.377493
_symmetry_space_group_name_H-M "P -1"
_symmetry_group_IT_number 2
_symmetry_cell_setting 'triclinic'
loop_
_space_group_symop_operation_xyz
x,y,z
-x,-y,-z
loop_
_atom_site_type_symbol
_atom_site_label
_atom_site_fract_x
_atom_site_fract_y
_atom_site_fract_z
Si Si1 0.864791 0.053653 0.238638
Si Si2 0.686695 0.432825 0.751556
Si Si3 0.759964 0.766611 0.677047
Si Si4 0.794807 0.173033 0.912414
Si Si5 0.695904 0.400372 0.041179
Si Si6 0.203307 0.836078 0.341723
Si Si7 0.865110 0.412347 0.577475
Si Si8 0.408455 0.203594 0.133917
O O1 0.620051 0.081349 0.243446
O O2 0.084166 0.128815 0.306240
O O3 0.738286 0.101656 0.047227
O O4 0.031709 0.925833 0.332014
O O5 0.612285 0.304924 0.781608
O O6 0.913154 0.428294 0.721560
O O7 0.452172 0.539936 0.582075
O O8 0.747848 0.437575 0.904084
O O9 0.520374 0.799094 0.494269
O O10 0.610645 0.751413 0.763191
O O11 0.004728 0.656404 0.784123
O O12 0.795818 0.116430 0.816457
O O13 0.103902 0.192608 0.015577
O O14 0.535179 0.294622 0.047567
O O15 0.500000 0.500000 0.000000
O O16 0.071104 0.722755 0.357992
O O17 0.000000 0.500000 0.500000
#
# Coordination Sequence:
#
# PCOD9014062 Si02
#       8
#     2   2   2   2   2   2   2   2
#     4  10  21  44  70  99 134 184 229 280 342 405
#     4  10  21  44  67  98 133 178 227 280 346 408
#     4  10  23  45  64 100 143 177 221 286 353 399
#     4  10  21  42  69  97 133 180 225 286 342 405
#     4  11  24  41  74  99 131 184 236 283 335 418
#     4  11  24  41  70 103 139 176 233 281 340 419
#     4  10  25  44  67  98 141 182 216 287 355 401
#     4  10  21  41  66  95 136 181 229 274 350 398
#
# _framework density 24.488140999999999
#
# number of rings (size 3 to 8) (size 9 to 14) (size 15 to 20)
#    0.000    1.750    3.750    0.750    5.250    2.500 
#    4.500   11.250    0.000    0.000    0.000    0.000 
#    0.000    0.000    0.000    0.000    0.000    0.000 
#
# Total GULP energy -89505.849226 kJ/mol
# GULP energy per Si atom -5594.115577 kJ/mol
# Density = 2.443241 g / cm^3
# Si number density = 24.488141 Si / 1000 Ang^3
#
#
#
# Elastic Constant Matrix: (Units=GPa)
#
#
# Indices 1 2 3 4 5 6 
#
# 1 74.8737 40.1193 31.2488 -5.3897 -2.3481 -18.5887
# 2 40.1193 121.4524 23.4063 -19.2023 10.3789 -26.6070
# 3 31.2488 23.4063 98.4947 10.6722 7.1356 -11.6708
# 4 -5.3897 -19.2023 10.6722 40.4487 -11.0623 7.3736
# 5 -2.3481 10.3789 7.1356 -11.0623 29.2844 -15.4346
# 6 -18.5887 -26.6070 -11.6708 7.3736 -15.4346 36.4239
#
#
#
# Elastic Compliance Matrix: (Units=1/GPa)
#
#
# Indices 1 2 3 4 5 6 
#
# 1 0.020964 -0.004033 -0.005716 0.003615 0.011078 0.009883
# 2 -0.004033 0.011666 -0.001383 0.004504 0.000351 0.005258
# 3 -0.005716 -0.001383 0.013325 -0.006442 -0.006155 -0.000962
# 4 0.003615 0.004504 -0.006442 0.032369 0.013720 0.002331
# 5 0.011078 0.000351 -0.006155 0.013720 0.054343 0.024188
# 6 0.009883 0.005258 -0.000962 0.002331 0.024188 0.045808
#
#
# Mechanical properties :
#
#
# Convention : Reuss Voigt Hill
#
# Bulk Modulus (GPa) = 42.21081 53.81885 48.01483
# Shear Modulus (GPa) = 23.96509 34.56785 29.26647
#
# Velocity S-wave (km/s) = 3.13172 3.76122 3.46081
# Velocity P-wave (km/s) = 5.50922 6.39434 5.96821
#
# Compressibility (1/GPa) = 0.02369061
#
# Stress axis : x y z
#
# Youngs Moduli (GPa) = 47.70122 85.71606 75.04778
#
# Poissons Ratio (x) = 0.34573 0.42895
# Poissons Ratio (y) = 0.19240 0.10380
# Poissons Ratio (z) = 0.27264 0.11856
#
# Static dielectric constant tensor:
#      x y z
#    x 1.991050 -0.015000 0.024980 
#    y -0.015000 1.977760 -0.023410 
#    z 0.024980 -0.023410 1.978320 
# 
# From -- ./inp_files/367628.got.cif
#   From: 2010.05.17/outbox.cif.g08.bks.cpg/sg2_184_cif.got.tgz:367628.got - 2010.06.03 11:33:40.
