data_PCOD9014570
_publ_section_title
;
Structure prediction by ZEFSAII (Michael W. Deem and Ramdas Pophale) SiO2 
 PCOD9014570
Probable space group: P -1
;
_chemical_formula_sum "Si O2"
_cell_formula_units_Z 12
_cell_length_a 9.939880
_cell_length_b 11.856868
_cell_length_c 7.611163
_cell_angle_alpha 117.174426
_cell_angle_beta 61.230681
_cell_angle_gamma 67.840230
_cell_volume 450.033870
_symmetry_space_group_name_H-M "P -1"
_symmetry_group_IT_number 2
_symmetry_cell_setting 'triclinic'
loop_
_space_group_symop_operation_xyz
x,y,z
-x,-y,-z
loop_
_atom_site_type_symbol
_atom_site_label
_atom_site_fract_x
_atom_site_fract_y
_atom_site_fract_z
Si Si1 0.711538 0.687113 0.170138
Si Si2 0.082064 0.743954 0.720310
Si Si3 0.157806 0.284909 0.402389
Si Si4 0.736469 0.938294 0.504581
Si Si5 0.437079 0.338547 0.379217
Si Si6 0.002198 0.981045 0.239444
O O1 0.627187 0.665241 0.383938
O O2 0.491019 0.858593 0.304458
O O3 0.913623 0.481297 0.794986
O O4 0.192301 0.234829 0.771981
O O5 0.306783 0.547755 0.543618
O O6 0.947363 0.919347 0.066404
O O7 0.914176 0.740578 0.747228
O O8 0.138477 0.801446 0.562106
O O9 0.293515 0.102903 0.315388
O O10 0.313488 0.311768 0.314425
O O11 0.921437 0.937096 0.410763
O O12 0.282242 0.831047 0.947137
#
# Coordination Sequence:
#
# PCOD9014570 Si02
#       6
#     2   2   2   2   2   2
#     4  10  21  41  68  92 122 167 213 254 302 371
#     4  11  24  40  63  95 128 163 206 257 313 368
#     4  11  24  41  66  96 124 161 211 263 306 360
#     4  10  22  42  66  92 125 167 209 252 310 373
#     4  11  23  42  68  92 122 166 210 256 309 369
#     4  11  24  43  63  90 129 169 206 250 314 378
#
# _framework density 26.664659
#
# number of rings (size 3 to 8) (size 9 to 14) (size 15 to 20)
#    0.000    1.333    0.000    7.000    0.000    6.667 
#    0.000    5.833    0.000    0.000    0.000    0.000 
#    0.000    0.000    0.000    0.000    0.000    0.000 
#
# Total GULP energy -67304.797366 kJ/mol
# GULP energy per Si atom -5608.733114 kJ/mol
# Density = 2.660397 g / cm^3
# Si number density = 26.664659 Si / 1000 Ang^3
#
#
#
# Elastic Constant Matrix: (Units=GPa)
#
#
# Indices 1 2 3 4 5 6 
#
# 1 147.7871 36.0519 43.7921 -2.1528 -17.0172 4.3644
# 2 36.0519 204.8135 52.7823 28.2852 -15.8578 9.4500
# 3 43.7921 52.7823 116.8119 9.7830 -2.5727 5.0075
# 4 -2.1528 28.2852 9.7830 48.9442 -1.5142 -8.6680
# 5 -17.0172 -15.8578 -2.5727 -1.5142 38.3842 -4.3154
# 6 4.3644 9.4500 5.0075 -8.6680 -4.3154 58.0385
#
#
#
# Elastic Compliance Matrix: (Units=1/GPa)
#
#
# Indices 1 2 3 4 5 6 
#
# 1 0.008149 -0.000668 -0.002811 0.001441 0.003227 0.000194
# 2 -0.000668 0.006222 -0.002192 -0.003329 0.001869 -0.001132
# 3 -0.002811 -0.002192 0.010695 -0.001156 -0.001553 -0.000643
# 4 0.001441 -0.003329 -0.001156 0.023388 0.000566 0.004069
# 5 0.003227 0.001869 -0.001553 0.000566 0.028374 0.001781
# 6 0.000194 -0.001132 -0.000643 0.004069 0.001781 0.018195
#
#
# Mechanical properties :
#
#
# Convention : Reuss Voigt Hill
#
# Bulk Modulus (GPa) = 72.86796 81.62947 77.24871
# Shear Modulus (GPa) = 45.06896 51.52579 48.29738
#
# Velocity S-wave (km/s) = 4.11568 4.40063 4.26054
# Velocity P-wave (km/s) = 7.06909 7.51669 7.29632
#
# Compressibility (1/GPa) = 0.01372345
#
# Stress axis : x y z
#
# Youngs Moduli (GPa) = 122.70992 160.72519 93.49729
#
# Poissons Ratio (x) = 0.10737 0.26283
# Poissons Ratio (y) = 0.08197 0.20498
# Poissons Ratio (z) = 0.34496 0.35238
#
# Static dielectric constant tensor:
#      x y z
#    x 2.096340 -0.026390 0.052900 
#    y -0.026390 2.219280 -0.125670 
#    z 0.052900 -0.125670 2.140790 
# 
# From -- ./inp_files/82216.got.cif
#   From: 2010.05.17/outbox.cif.g08.bks.cpg/sg2_42_cif.got.tgz:82216.got - 2010.06.03 11:33:40.
