data_PCOD9014994
_publ_section_title
;
Structure prediction by ZEFSAII (Michael W. Deem and Ramdas Pophale) SiO2 
 PCOD9014994
Probable space group: P -1
;
_chemical_formula_sum "Si O2"
_cell_formula_units_Z 14
_cell_length_a 12.443764
_cell_length_b 10.066221
_cell_length_c 7.960671
_cell_angle_alpha 45.259659
_cell_angle_beta 72.078458
_cell_angle_gamma 65.349882
_cell_volume 643.591931
_symmetry_space_group_name_H-M "P -1"
_symmetry_group_IT_number 2
_symmetry_cell_setting 'triclinic'
loop_
_space_group_symop_operation_xyz
x,y,z
-x,-y,-z
loop_
_atom_site_type_symbol
_atom_site_label
_atom_site_fract_x
_atom_site_fract_y
_atom_site_fract_z
Si Si1 0.532241 0.087471 0.079238
Si Si2 0.600759 0.495247 0.319005
Si Si3 0.828346 0.553549 0.342203
Si Si4 0.641488 0.072554 0.533546
Si Si5 0.766260 0.934143 0.245698
Si Si6 0.000303 0.858931 0.371134
Si Si7 0.874464 0.845110 0.800554
O O1 0.484772 0.960517 0.348174
O O2 0.671247 0.062766 0.045624
O O3 0.455005 0.310990 0.935711
O O4 0.500000 0.000000 0.000000
O O5 0.500000 0.500000 0.500000
O O6 0.715683 0.511858 0.346732
O O7 0.631220 0.297583 0.373324
O O8 0.788414 0.712891 0.367265
O O9 0.916884 0.350274 0.541976
O O10 0.885838 0.656497 0.077823
O O11 0.696652 0.995927 0.397323
O O12 0.736808 0.944234 0.734666
O O13 0.895061 0.953022 0.207532
O O14 0.941616 0.816709 0.614019
O O15 0.074492 0.004979 0.253590
#
# Coordination Sequence:
#
# PCOD9014994 Si02
#       7
#     2   2   2   2   2   2   2
#     4  12  22  43  68  92 127 172 220 263 323 384
#     4  12  24  39  71  97 121 171 222 264 314 389
#     4  12  22  42  68  96 126 175 219 255 323 390
#     4  11  22  43  64  97 134 164 216 272 321 375
#     4  11  25  41  64  97 136 169 206 273 326 373
#     4  10  23  42  65  98 132 164 217 268 319 377
#     4  10  21  41  70  95 127 173 214 265 317 385
#
# _framework density 21.752914000000001
#
# number of rings (size 3 to 8) (size 9 to 14) (size 15 to 20)
#    0.000    0.857    5.714    1.286    0.000    1.143 
#    0.000    4.286    0.000    0.000    0.000    0.000 
#    0.000    0.000    0.000    0.000    0.000    0.000 
#
# Total GULP energy -78269.664518 kJ/mol
# GULP energy per Si atom -5590.690323 kJ/mol
# Density = 2.170340 g / cm^3
# Si number density = 21.752914 Si / 1000 Ang^3
#
#
#
# Elastic Constant Matrix: (Units=GPa)
#
#
# Indices 1 2 3 4 5 6 
#
# 1 134.5880 20.2732 20.1367 -6.4715 9.6588 4.7924
# 2 20.2732 105.5353 9.0440 2.6543 -1.2187 5.6370
# 3 20.1367 9.0440 31.6461 -3.8355 -8.0640 8.2336
# 4 -6.4715 2.6543 -3.8355 38.4207 -5.0113 2.7212
# 5 9.6588 -1.2187 -8.0640 -5.0113 41.3539 -1.0609
# 6 4.7924 5.6370 8.2336 2.7212 -1.0609 28.9712
#
#
#
# Elastic Compliance Matrix: (Units=1/GPa)
#
#
# Indices 1 2 3 4 5 6 
#
# 1 0.008765 -0.001232 -0.006068 0.000514 -0.003196 0.000349
# 2 -0.001232 0.009958 -0.001878 -0.000996 0.000066 -0.001104
# 3 -0.006068 -0.001878 0.041955 0.005347 0.009917 -0.010693
# 4 0.000514 -0.000996 0.005347 0.027528 0.004130 -0.003845
# 5 -0.003196 0.000066 0.009917 0.004130 0.027321 -0.001690
# 6 0.000349 -0.001104 -0.010693 -0.003845 -0.001690 0.038012
#
#
# Mechanical properties :
#
#
# Convention : Reuss Voigt Hill
#
# Bulk Modulus (GPa) = 23.62932 41.18636 32.40784
# Shear Modulus (GPa) = 26.88127 36.57020 31.72573
#
# Velocity S-wave (km/s) = 3.51914 4.10465 3.82312
# Velocity P-wave (km/s) = 5.23438 6.43731 5.86676
#
# Compressibility (1/GPa) = 0.04232030
#
# Stress axis : x y z
#
# Youngs Moduli (GPa) = 114.08741 100.42204 23.83527
#
# Poissons Ratio (x) = 0.12375 0.14463
# Poissons Ratio (y) = 0.14059 0.04477
# Poissons Ratio (z) = 0.69228 0.18864
#
# Static dielectric constant tensor:
#      x y z
#    x 1.797340 0.005580 0.029060 
#    y 0.005580 1.781000 0.042390 
#    z 0.029060 0.042390 1.842900 
# 
# From -- ./inp_files/176955.got.cif
#   From: 2010.05.17/outbox.cif.g08.bks.cpg/sg2_89_cif.got.tgz:176955.got - 2010.06.03 11:33:40.
