data_PCOD9014089
_publ_section_title
;
Structure prediction by ZEFSAII (Michael W. Deem and Ramdas Pophale) SiO2 
 PCOD9014089
Probable space group: P -1
;
_chemical_formula_sum "Si O2"
_cell_formula_units_Z 16
_cell_length_a 5.387187
_cell_length_b 23.500450
_cell_length_c 11.887542
_cell_angle_alpha 150.212400
_cell_angle_beta 53.401430
_cell_angle_gamma 119.312897
_cell_volume 598.774285
_symmetry_space_group_name_H-M "P -1"
_symmetry_group_IT_number 2
_symmetry_cell_setting 'triclinic'
loop_
_space_group_symop_operation_xyz
x,y,z
-x,-y,-z
loop_
_atom_site_type_symbol
_atom_site_label
_atom_site_fract_x
_atom_site_fract_y
_atom_site_fract_z
Si Si1 0.844190 0.654440 0.218712
Si Si2 0.208272 0.789136 0.698711
Si Si3 0.576093 0.521585 0.646941
Si Si4 0.727868 0.102872 0.762511
Si Si5 0.003602 0.708429 0.846141
Si Si6 0.526928 0.052584 0.272226
Si Si7 0.174549 0.861449 0.438208
Si Si8 0.968634 0.431462 0.747858
O O1 0.552074 0.725792 0.477329
O O2 0.048574 0.610053 0.192158
O O3 0.040872 0.739640 0.245205
O O4 0.749176 0.548010 0.987291
O O5 0.077168 0.790837 0.862859
O O6 0.252116 0.907314 0.820290
O O7 0.016336 0.687853 0.526101
O O8 0.500000 0.500000 0.500000
O O9 0.809677 0.414495 0.438051
O O10 0.281382 0.491195 0.742883
O O11 0.681940 0.650247 0.853664
O O12 0.614729 0.112696 0.681380
O O13 0.481359 0.067789 0.863382
O O14 0.873927 0.219196 0.960130
O O15 0.000000 0.000000 0.500000
O O16 0.640657 0.128929 0.478339
O O17 0.168032 0.067063 0.349515
#
# Coordination Sequence:
#
# PCOD9014089 Si02
#       8
#     2   2   2   2   2   2   2   2
#     4  10  22  36  62  97 134 182 227 287 352 410
#     4  11  21  41  65  94 144 175 238 282 358 421
#     4  11  24  43  66 101 139 186 231 284 356 432
#     4  10  24  46  68  99 137 184 242 295 354 420
#     4  11  25  44  69  99 142 188 230 294 354 422
#     4  10  22  42  69  96 132 180 227 294 349 415
#     4  10  21  41  66  96 139 177 231 288 354 411
#     4  11  21  38  61  97 135 177 233 282 347 423
#
# _framework density 26.721252
#
# number of rings (size 3 to 8) (size 9 to 14) (size 15 to 20)
#    0.000    1.500    3.750    0.750    1.750    2.500 
#    6.750    0.000    0.000    5.250    0.000    0.000 
#    0.000    0.000    0.000    0.000    0.000    0.000 
#
# Total GULP energy -89190.193841 kJ/mol
# GULP energy per Si atom -5574.387115 kJ/mol
# Density = 2.666043 g / cm^3
# Si number density = 26.721252 Si / 1000 Ang^3
#
#
#
# Elastic Constant Matrix: (Units=GPa)
#
#
# Indices 1 2 3 4 5 6 
#
# 1 62.2052 31.6310 20.1939 5.7727 10.8653 8.9222
# 2 31.6310 230.8981 43.6056 7.0413 23.3195 13.9931
# 3 20.1939 43.6056 77.5967 22.3286 26.2402 14.5470
# 4 5.7727 7.0413 22.3286 52.1210 7.4157 10.4859
# 5 10.8653 23.3195 26.2402 7.4157 58.7762 3.5176
# 6 8.9222 13.9931 14.5470 10.4859 3.5176 50.2903
#
#
#
# Elastic Compliance Matrix: (Units=1/GPa)
#
#
# Indices 1 2 3 4 5 6 
#
# 1 0.018420 -0.001705 -0.003088 0.000058 -0.001248 -0.001825
# 2 -0.001705 0.005078 -0.002250 0.000684 -0.000748 -0.000550
# 3 -0.003088 -0.002250 0.019357 -0.006218 -0.006232 -0.002693
# 4 0.000058 0.000684 -0.006218 0.022388 -0.000148 -0.003060
# 5 -0.001248 -0.000748 -0.006232 -0.000148 0.020292 0.000844
# 6 -0.001825 -0.000550 -0.002693 -0.003060 0.000844 0.021719
#
#
# Mechanical properties :
#
#
# Convention : Reuss Voigt Hill
#
# Bulk Modulus (GPa) = 34.76162 62.39564 48.57863
# Shear Modulus (GPa) = 38.18874 50.58879 44.38877
#
# Velocity S-wave (km/s) = 3.78451 4.35582 4.08018
# Velocity P-wave (km/s) = 5.66868 6.97845 6.35739
#
# Compressibility (1/GPa) = 0.02876736
#
# Stress axis : x y z
#
# Youngs Moduli (GPa) = 54.28955 196.94699 51.66110
#
# Poissons Ratio (x) = 0.33586 0.15952
# Poissons Ratio (y) = 0.09258 0.11626
# Poissons Ratio (z) = 0.16763 0.44320
#
# Static dielectric constant tensor:
#      x y z
#    x 2.344110 0.036460 -0.151900 
#    y 0.036460 2.060800 -0.015940 
#    z -0.151900 -0.015940 2.382050 
# 
# From -- ./inp_files/371094.got.cif
#   From: 2010.05.17/outbox.cif.g08.bks.cpg/sg2_186_cif.got.tgz:371094.got - 2010.06.03 11:33:40.
