data_PCOD9014590
_publ_section_title
;
Structure prediction by ZEFSAII (Michael W. Deem and Ramdas Pophale) SiO2 
 PCOD9014590
Probable space group: P -1
;
_chemical_formula_sum "Si O2"
_cell_formula_units_Z 14
_cell_length_a 14.781157
_cell_length_b 6.208469
_cell_length_c 23.700283
_cell_angle_alpha 56.644440
_cell_angle_beta 18.624274
_cell_angle_gamma 55.077272
_cell_volume 569.287239
_symmetry_space_group_name_H-M "P -1"
_symmetry_group_IT_number 2
_symmetry_cell_setting 'triclinic'
loop_
_space_group_symop_operation_xyz
x,y,z
-x,-y,-z
loop_
_atom_site_type_symbol
_atom_site_label
_atom_site_fract_x
_atom_site_fract_y
_atom_site_fract_z
Si Si1 0.080894 0.144305 0.260590
Si Si2 0.572836 0.440620 0.758036
Si Si3 0.672052 0.013524 0.984792
Si Si4 0.304529 0.986089 0.793144
Si Si5 0.394369 0.571046 0.433441
Si Si6 0.745140 0.022775 0.306066
Si Si7 0.023130 0.539746 0.400675
O O1 0.192205 0.114033 0.135573
O O2 0.791095 0.357866 0.409974
O O3 0.004392 0.859971 0.364916
O O4 0.359924 0.182334 0.127520
O O5 0.440962 0.682392 0.762647
O O6 0.878518 0.364466 0.556410
O O7 0.642451 0.535565 0.766397
O O8 0.401003 0.211072 0.898710
O O9 0.938695 0.114619 0.840183
O O10 0.292406 0.063104 0.723420
O O11 0.491000 0.168116 0.688399
O O12 0.000000 0.000000 0.000000
O O13 0.676592 0.342502 0.298993
O O14 0.143132 0.509110 0.550174
O O15 0.500000 0.000000 0.500000
#
# Coordination Sequence:
#
# PCOD9014590 Si02
#       7
#     2   2   2   2   2   2   2
#     4  10  22  46  68 103 129 174 227 280 327 408
#     4  10  21  42  63  97 132 167 218 277 328 392
#     4  10  23  42  72  94 141 175 218 280 341 386
#     4  12  27  42  64 101 139 174 230 277 329 408
#     4  12  23  42  73  93 130 181 223 272 339 394
#     4  12  27  47  68  97 139 183 224 275 337 408
#     4  10  21  41  68  93 132 171 218 277 333 388
#
# _framework density 24.592155000000002
#
# number of rings (size 3 to 8) (size 9 to 14) (size 15 to 20)
#    0.000    1.143    2.857    2.571    2.000    6.286 
#    0.000   10.000    0.000    0.000    0.000    0.000 
#    0.000    0.000    0.000    0.000    0.000    0.000 
#
# Total GULP energy -78054.560402 kJ/mol
# GULP energy per Si atom -5575.325743 kJ/mol
# Density = 2.453618 g / cm^3
# Si number density = 24.592155 Si / 1000 Ang^3
#
#
#
# Elastic Constant Matrix: (Units=GPa)
#
#
# Indices 1 2 3 4 5 6 
#
# 1 79.4497 2.1757 10.7742 -5.0501 -15.8354 -5.8424
# 2 2.1757 19.2246 15.4096 -6.0422 6.8001 1.8705
# 3 10.7742 15.4096 109.1449 -9.4900 -6.4287 11.4502
# 4 -5.0501 -6.0422 -9.4900 36.0202 -7.9700 8.6304
# 5 -15.8354 6.8001 -6.4287 -7.9700 42.6919 -7.2440
# 6 -5.8424 1.8705 11.4502 8.6304 -7.2440 15.0848
#
#
#
# Elastic Compliance Matrix: (Units=1/GPa)
#
#
# Indices 1 2 3 4 5 6 
#
# 1 0.015418 -0.004462 -0.001640 -0.000015 0.008165 0.011699
# 2 -0.004462 0.068460 -0.007437 0.009763 -0.014785 -0.017258
# 3 -0.001640 -0.007437 0.011981 0.004565 0.001410 -0.010742
# 4 -0.000015 0.009763 0.004565 0.036982 0.001792 -0.024979
# 5 0.008165 -0.014785 0.001410 0.001792 0.032494 0.018504
# 6 0.011699 -0.017258 -0.010742 -0.024979 0.018504 0.104294
#
#
# Mechanical properties :
#
#
# Convention : Reuss Voigt Hill
#
# Bulk Modulus (GPa) = 14.53866 29.39316 21.96591
# Shear Modulus (GPa) = 15.64303 30.72334 23.18318
#
# Velocity S-wave (km/s) = 2.52484 3.53840 3.07368
# Velocity P-wave (km/s) = 3.79796 5.35461 4.64200
#
# Compressibility (1/GPa) = 0.06878214
#
# Stress axis : x y z
#
# Youngs Moduli (GPa) = 64.85999 14.60714 83.46714
#
# Poissons Ratio (x) = 0.06517 0.13687
# Poissons Ratio (y) = 0.28938 0.62071
# Poissons Ratio (z) = 0.10636 0.10863
#
# Static dielectric constant tensor:
#      x y z
#    x -0.266490 -2.383690 -4.413680 
#    y -2.383690 -0.475160 -4.534670 
#    z -4.413680 -4.534670 -6.387540 
# 
# From -- ./inp_files/68134.got.cif
#   From: 2010.05.17/outbox.cif.g08.bks.cpg/sg2_35_cif.got.tgz:68134.got - 2010.06.03 11:33:40.
