data_PCOD9014617
_publ_section_title
;
Structure prediction by ZEFSAII (Michael W. Deem and Ramdas Pophale) SiO2 
 PCOD9014617
Probable space group: P -1
;
_chemical_formula_sum "Si O2"
_cell_formula_units_Z 16
_cell_length_a 8.493373
_cell_length_b 14.628012
_cell_length_c 12.358680
_cell_angle_alpha 93.667538
_cell_angle_beta 97.484404
_cell_angle_gamma 147.823566
_cell_volume 765.303175
_symmetry_space_group_name_H-M "P -1"
_symmetry_group_IT_number 2
_symmetry_cell_setting 'triclinic'
loop_
_space_group_symop_operation_xyz
x,y,z
-x,-y,-z
loop_
_atom_site_type_symbol
_atom_site_label
_atom_site_fract_x
_atom_site_fract_y
_atom_site_fract_z
Si Si1 0.117771 0.131843 0.430952
Si Si2 0.507173 0.928660 0.401459
Si Si3 0.335141 0.948794 0.181694
Si Si4 0.904969 0.962606 0.817058
Si Si5 0.777706 0.408580 0.575258
Si Si6 0.479305 0.723205 0.958999
Si Si7 0.786287 0.583470 0.986036
Si Si8 0.063683 0.667456 0.815032
O O1 0.094700 0.080391 0.304196
O O2 0.484643 0.325796 0.505697
O O3 0.000000 0.000000 0.500000
O O4 0.872599 0.092044 0.416989
O O5 0.323698 0.878980 0.279597
O O6 0.355602 0.756313 0.409986
O O7 0.500000 0.000000 0.500000
O O8 0.212102 0.990334 0.198358
O O9 0.697700 0.137642 0.192785
O O10 0.108558 0.795615 0.058766
O O11 0.666338 0.796652 0.869116
O O12 0.249138 0.130527 0.915435
O O13 0.000000 0.500000 0.500000
O O14 0.953097 0.547563 0.698767
O O15 0.278865 0.713657 0.918137
O O16 0.248427 0.528966 0.962362
O O17 0.781583 0.564217 0.855696
O O18 0.500000 0.500000 0.000000
#
# Coordination Sequence:
#
# PCOD9014617 Si02
#       8
#     2   2   2   2   2   2   2   2
#     4  10  23  39  69  97 127 174 224 266 331 400
#     4  11  24  41  67  99 130 172 222 280 336 387
#     4  11  23  43  63  94 137 172 214 281 340 385
#     4  10  21  41  68  95 132 174 221 270 328 405
#     4  11  23  46  71  96 131 176 227 275 333 409
#     4  10  22  40  65  94 132 171 223 263 329 401
#     4  12  25  39  62  99 133 170 221 278 331 384
#     4  11  25  42  66  94 133 181 221 268 333 410
#
# _framework density 20.906746999999999
#
# number of rings (size 3 to 8) (size 9 to 14) (size 15 to 20)
#    0.000    1.250    1.250    5.250    5.250    2.000 
#    0.000    2.500    0.000    0.000    0.000    0.000 
#    0.000    0.000    0.000    0.000    0.000    0.000 
#
# Total GULP energy -89449.277790 kJ/mol
# GULP energy per Si atom -5590.579862 kJ/mol
# Density = 2.085916 g / cm^3
# Si number density = 20.906747 Si / 1000 Ang^3
#
#
#
# Elastic Constant Matrix: (Units=GPa)
#
#
# Indices 1 2 3 4 5 6 
#
# 1 69.9634 29.7872 50.7665 -0.7452 -12.7747 19.8696
# 2 29.7872 109.3997 40.5438 -0.4004 -18.0946 3.6420
# 3 50.7665 40.5438 119.8580 -9.5530 -12.9611 9.6705
# 4 -0.7452 -0.4004 -9.5530 25.5724 4.3525 2.2650
# 5 -12.7747 -18.0946 -12.9611 4.3525 39.5872 -1.5355
# 6 19.8696 3.6420 9.6705 2.2650 -1.5355 31.9906
#
#
#
# Elastic Compliance Matrix: (Units=1/GPa)
#
#
# Indices 1 2 3 4 5 6 
#
# 1 0.026348 -0.002780 -0.008902 -0.002138 0.004047 -0.013012
# 2 -0.002780 0.011392 -0.002522 -0.001609 0.003719 0.001485
# 3 -0.008902 -0.002522 0.013190 0.004520 -0.000146 0.001502
# 4 -0.002138 -0.001609 0.004520 0.041767 -0.004655 -0.003036
# 5 0.004047 0.003719 -0.000146 -0.004655 0.028685 -0.001187
# 6 -0.013012 0.001485 0.001502 -0.003036 -0.001187 0.038876
#
#
# Mechanical properties :
#
#
# Convention : Reuss Voigt Hill
#
# Bulk Modulus (GPa) = 44.40137 60.15735 52.27936
# Shear Modulus (GPa) = 25.48757 31.30496 28.39626
#
# Velocity S-wave (km/s) = 3.49536 3.87377 3.68942
# Velocity P-wave (km/s) = 6.12976 6.98890 6.57338
#
# Compressibility (1/GPa) = 0.02252183
#
# Stress axis : x y z
#
# Youngs Moduli (GPa) = 37.95345 87.77970 75.81336
#
# Poissons Ratio (x) = 0.24403 0.67492
# Poissons Ratio (y) = 0.10551 0.19120
# Poissons Ratio (z) = 0.33788 0.22138
#
# Static dielectric constant tensor:
#      x y z
#    x 1.767180 0.016110 0.010740 
#    y 0.016110 1.787800 -0.010720 
#    z 0.010740 -0.010720 1.745470 
# 
# From -- ./inp_files/205870.got.cif
#   From: 2010.05.17/outbox.cif.g08.bks.cpg/sg2_103_cif.got.tgz:205870.got - 2010.06.03 11:33:40.
