data_PCOD9014486
_publ_section_title
;
Structure prediction by ZEFSAII (Michael W. Deem and Ramdas Pophale) SiO2 
 PCOD9014486
Probable space group: P -1
;
_chemical_formula_sum "Si O2"
_cell_formula_units_Z 14
_cell_length_a 14.022862
_cell_length_b 24.484724
_cell_length_c 17.089444
_cell_angle_alpha 16.352504
_cell_angle_beta 149.952997
_cell_angle_gamma 155.957819
_cell_volume 670.110665
_symmetry_space_group_name_H-M "P -1"
_symmetry_group_IT_number 2
_symmetry_cell_setting 'triclinic'
loop_
_space_group_symop_operation_xyz
x,y,z
-x,-y,-z
loop_
_atom_site_type_symbol
_atom_site_label
_atom_site_fract_x
_atom_site_fract_y
_atom_site_fract_z
Si Si1 0.879631 0.580082 0.475332
Si Si2 0.348976 0.238435 0.291558
Si Si3 0.458963 0.882288 0.216771
Si Si4 0.967469 0.698121 0.737215
Si Si5 0.329369 0.923097 0.222119
Si Si6 0.014063 0.726529 0.916229
Si Si7 0.499088 0.574018 0.308802
O O1 0.699575 0.395187 0.535337
O O2 0.734491 0.642408 0.339339
O O3 0.099180 0.789779 0.294420
O O4 0.961737 0.455265 0.764167
O O5 0.551811 0.216249 0.496812
O O6 0.174300 0.248023 0.211929
O O7 0.500000 0.500000 0.000000
O O8 0.172325 0.979612 0.478339
O O9 0.314168 0.933654 0.102825
O O10 0.725747 0.024214 0.240582
O O11 0.500000 0.000000 0.000000
O O12 0.725313 0.626437 0.624689
O O13 0.951966 0.664182 0.866885
O O14 0.000000 0.500000 0.000000
O O15 0.497143 0.191345 0.003950
O O16 0.500000 0.500000 0.500000
#
# Coordination Sequence:
#
# PCOD9014486 Si02
#       7
#     2   2   2   2   2   2   2
#     4  11  24  43  69 102 142 181 230 293 357 409
#     4  12  25  45  71 107 144 179 234 292 356 415
#     4  10  21  41  68 101 132 181 232 278 339 415
#     4  12  24  47  75 101 137 188 237 290 346 419
#     4  12  24  46  68 101 145 183 231 294 351 415
#     4  11  23  44  72 101 136 186 240 286 344 425
#     4  12  26  48  71 102 137 187 239 285 350 427
#
# _framework density 20.892071999999999
#
# number of rings (size 3 to 8) (size 9 to 14) (size 15 to 20)
#    0.000    0.571    4.286    4.714    2.000    1.143 
#    2.571    4.286    0.000    0.000    0.000    0.000 
#    0.000    0.000    0.000    0.000    0.000    0.000 
#
# Total GULP energy -78138.601243 kJ/mol
# GULP energy per Si atom -5581.328660 kJ/mol
# Density = 2.084452 g / cm^3
# Si number density = 20.892072 Si / 1000 Ang^3
#
#
#
# Elastic Constant Matrix: (Units=GPa)
#
#
# Indices 1 2 3 4 5 6 
#
# 1 163.0730 71.5838 50.0089 -7.3946 -4.7478 4.1421
# 2 71.5838 107.6997 43.6890 -3.6450 -16.9470 -13.7012
# 3 50.0089 43.6890 111.8931 -14.4608 0.6705 0.3685
# 4 -7.3946 -3.6450 -14.4608 38.5005 9.6469 3.4275
# 5 -4.7478 -16.9470 0.6705 9.6469 40.0467 -4.7723
# 6 4.1421 -13.7012 0.3685 3.4275 -4.7723 36.2899
#
#
#
# Elastic Compliance Matrix: (Units=1/GPa)
#
#
# Indices 1 2 3 4 5 6 
#
# 1 0.009606 -0.006662 -0.001447 0.001673 -0.002547 -0.004090
# 2 -0.006662 0.018107 -0.004754 -0.004464 0.009132 0.009267
# 3 -0.001447 -0.004754 0.012126 0.005056 -0.003932 -0.002748
# 4 0.001673 -0.004464 0.005056 0.030806 -0.009928 -0.006143
# 5 -0.002547 0.009132 -0.003932 -0.009928 0.032055 0.008931
# 6 -0.004090 0.009267 -0.002748 -0.006143 0.008931 0.033304
#
#
# Mechanical properties :
#
#
# Convention : Reuss Voigt Hill
#
# Bulk Modulus (GPa) = 70.86333 79.24768 75.05551
# Shear Modulus (GPa) = 30.04159 37.45971 33.75065
#
# Velocity S-wave (km/s) = 3.79613 4.23899 4.02366
# Velocity P-wave (km/s) = 7.29428 7.87229 7.58879
#
# Compressibility (1/GPa) = 0.01411167
#
# Stress axis : x y z
#
# Youngs Moduli (GPa) = 104.10074 55.22828 82.46511
#
# Poissons Ratio (x) = 0.36794 0.11933
# Poissons Ratio (y) = 0.69354 0.39208
# Poissons Ratio (z) = 0.15064 0.26258
#
# Static dielectric constant tensor:
#      x y z
#    x 1.794890 -0.047070 -0.023600 
#    y -0.047070 1.835960 0.018190 
#    z -0.023600 0.018190 1.809280 
# 
# From -- ./inp_files/244286.got.cif
#   From: 2010.05.17/outbox.cif.g08.bks.cpg/sg2_123_cif.got.tgz:244286.got - 2010.06.03 11:33:40.
