data_PCOD9014700
_publ_section_title
;
Structure prediction by ZEFSAII (Michael W. Deem and Ramdas Pophale) SiO2 
 PCOD9014700
Probable space group: P -1
;
_chemical_formula_sum "Si O2"
_cell_formula_units_Z 14
_cell_length_a 18.676399
_cell_length_b 18.344063
_cell_length_c 11.877744
_cell_angle_alpha 143.789575
_cell_angle_beta 150.759627
_cell_angle_gamma 16.119380
_cell_volume 536.866553
_symmetry_space_group_name_H-M "P -1"
_symmetry_group_IT_number 2
_symmetry_cell_setting 'triclinic'
loop_
_space_group_symop_operation_xyz
x,y,z
-x,-y,-z
loop_
_atom_site_type_symbol
_atom_site_label
_atom_site_fract_x
_atom_site_fract_y
_atom_site_fract_z
Si Si1 0.453987 0.241336 0.175691
Si Si2 0.344560 0.165172 0.672686
Si Si3 0.578453 0.766604 0.345597
Si Si4 0.242355 0.878620 0.775465
Si Si5 0.472401 0.644874 0.211996
Si Si6 0.345232 0.671079 0.307707
Si Si7 0.856379 0.757508 0.276290
O O1 0.543063 0.199642 0.115616
O O2 0.459471 0.367387 0.405075
O O3 0.712228 0.958989 0.238823
O O4 0.137724 0.392047 0.935807
O O5 0.470481 0.189413 0.801687
O O6 0.383645 0.076481 0.739113
O O7 0.959619 0.463348 0.505573
O O8 0.480340 0.959806 0.520644
O O9 0.391304 0.804003 0.203927
O O10 0.449959 0.607469 0.768752
O O11 0.000000 0.000000 0.500000
O O12 0.969627 0.122837 0.795390
O O13 0.270847 0.779655 0.216888
O O14 0.812574 0.434814 0.467781
O O15 0.500000 0.500000 0.000000
#
# Coordination Sequence:
#
# PCOD9014700 Si02
#       7
#     2   2   2   2   2   2   2
#     4  10  21  41  69 101 135 174 225 280 338 401
#     4   9  18  38  61  89 125 164 214 269 326 390
#     4   9  19  37  62  88 123 168 216 267 323 387
#     4  10  21  41  68  99 135 176 223 275 336 404
#     4  11  24  43  67  98 137 180 227 277 336 405
#     4  11  23  43  68  98 136 178 224 276 336 402
#     4  10  22  41  67  98 135 175 221 279 339 398
#
# _framework density 26.077245000000001
#
# number of rings (size 3 to 8) (size 9 to 14) (size 15 to 20)
#    0.000    2.000    0.000    4.286    0.000    2.857 
#    0.000   30.000    0.000    3.429    0.000    0.000 
#    0.000    0.000    0.000    0.000    0.000    0.000 
#
# Total GULP energy -78213.803654 kJ/mol
# GULP energy per Si atom -5586.700261 kJ/mol
# Density = 2.601789 g / cm^3
# Si number density = 26.077245 Si / 1000 Ang^3
#
#
#
# Elastic Constant Matrix: (Units=GPa)
#
#
# Indices 1 2 3 4 5 6 
#
# 1 226.5475 20.3904 -2.6110 -0.9757 -28.7277 4.8252
# 2 20.3904 101.2163 5.9405 0.3687 7.3518 -11.3630
# 3 -2.6110 5.9405 70.6093 -31.2515 21.2473 0.8905
# 4 -0.9757 0.3687 -31.2515 23.5068 1.8619 6.7157
# 5 -28.7277 7.3518 21.2473 1.8619 51.1682 13.0018
# 6 4.8252 -11.3630 0.8905 6.7157 13.0018 43.8457
#
#
#
# Elastic Compliance Matrix: (Units=1/GPa)
#
#
# Indices 1 2 3 4 5 6 
#
# 1 0.005118 -0.001441 -0.002012 -0.002258 0.004475 -0.001877
# 2 -0.001441 0.010983 -0.002074 -0.004051 -0.002498 0.004408
# 3 -0.002012 -0.002074 0.058217 0.081182 -0.026409 -0.006102
# 4 -0.002258 -0.004051 0.081182 0.157847 -0.036093 -0.015924
# 5 0.004475 -0.002498 -0.026409 -0.036093 0.036168 -0.005800
# 6 -0.001877 0.004408 -0.006102 -0.015924 -0.005800 0.028439
#
#
# Mechanical properties :
#
#
# Convention : Reuss Voigt Hill
#
# Bulk Modulus (GPa) = 15.80628 49.53478 32.67053
# Shear Modulus (GPa) = 15.20151 48.68104 31.94128
#
# Velocity S-wave (km/s) = 2.41704 4.32534 3.50361
# Velocity P-wave (km/s) = 3.72343 6.63184 5.37798
#
# Compressibility (1/GPa) = 0.06326599
#
# Stress axis : x y z
#
# Youngs Moduli (GPa) = 195.37883 91.05085 17.17700
#
# Poissons Ratio (x) = 0.13116 0.03455
# Poissons Ratio (y) = 0.28145 0.03563
# Poissons Ratio (z) = 0.39303 0.18885
#
# Static dielectric constant tensor:
#      x y z
#    x 2.146640 0.028240 -0.029980 
#    y 0.028240 1.974160 0.054910 
#    z -0.029980 0.054910 2.261450 
# 
# From -- ./inp_files/466621.got.cif
#   From: 2010.05.17/outbox.cif.g08.bks.cpg/sg2_234_cif.got.tgz:466621.got - 2010.06.03 11:33:40.
