data_PCOD9014579
_publ_section_title
;
Structure prediction by ZEFSAII (Michael W. Deem and Ramdas Pophale) SiO2 
 PCOD9014579
Probable space group: P -1
;
_chemical_formula_sum "Si O2"
_cell_formula_units_Z 12
_cell_length_a 11.791873
_cell_length_b 8.504653
_cell_length_c 8.548531
_cell_angle_alpha 78.926361
_cell_angle_beta 56.061023
_cell_angle_gamma 46.429562
_cell_volume 488.103344
_symmetry_space_group_name_H-M "P -1"
_symmetry_group_IT_number 2
_symmetry_cell_setting 'triclinic'
loop_
_space_group_symop_operation_xyz
x,y,z
-x,-y,-z
loop_
_atom_site_type_symbol
_atom_site_label
_atom_site_fract_x
_atom_site_fract_y
_atom_site_fract_z
Si Si1 0.527340 0.608439 0.319752
Si Si2 0.142125 0.320086 0.280780
Si Si3 0.519992 0.968341 0.712057
Si Si4 0.805882 0.102446 0.712062
Si Si5 0.102298 0.793498 0.073491
Si Si6 0.168727 0.253339 0.730923
O O1 0.500000 0.500000 0.500000
O O2 0.485461 0.832604 0.335648
O O3 0.375758 0.686710 0.288486
O O4 0.740757 0.426179 0.113486
O O5 0.000000 0.500000 0.500000
O O6 0.026269 0.475520 0.185095
O O7 0.361768 0.189673 0.193504
O O8 0.172852 0.106543 0.272340
O O9 0.301022 0.097910 0.809680
O O10 0.670331 0.794603 0.491934
O O11 0.798860 0.192099 0.867398
O O12 0.000000 0.000000 0.500000
O O13 0.925993 0.826119 0.257611
O O14 0.000000 0.000000 0.000000
#
# Coordination Sequence:
#
# PCOD9014579 Si02
#       6
#     2   2   2   2   2   2
#     4  11  24  44  70  96 137 183 232 287 345 407
#     4   9  19  39  66  99 133 175 224 277 341 409
#     4   9  20  40  65 101 126 183 227 272 345 406
#     4  11  23  43  71 102 137 180 226 283 347 414
#     4  12  26  45  64 104 139 180 234 281 344 412
#     4  10  21  41  68  92 139 175 227 283 339 406
#
# _framework density 24.584955999999998
#
# number of rings (size 3 to 8) (size 9 to 14) (size 15 to 20)
#    0.000    1.667    0.000    5.500    4.667    0.667 
#   12.000    1.667    0.000    0.000    0.000    0.000 
#    0.000    0.000    0.000    0.000    0.000    0.000 
#
# Total GULP energy -66928.403167 kJ/mol
# GULP energy per Si atom -5577.366931 kJ/mol
# Density = 2.452900 g / cm^3
# Si number density = 24.584956 Si / 1000 Ang^3
#
#
#
# Elastic Constant Matrix: (Units=GPa)
#
#
# Indices 1 2 3 4 5 6 
#
# 1 141.1093 64.2548 11.5664 -4.8004 -3.0072 -47.6379
# 2 64.2548 155.1188 18.6103 3.8796 -6.7692 -53.0273
# 3 11.5664 18.6103 83.8388 18.7477 0.4456 -8.7058
# 4 -4.8004 3.8796 18.7477 30.0540 -0.6630 -3.4696
# 5 -3.0072 -6.7692 0.4456 -0.6630 13.4831 3.9787
# 6 -47.6379 -53.0273 -8.7058 -3.4696 3.9787 57.2669
#
#
#
# Elastic Compliance Matrix: (Units=1/GPa)
#
#
# Indices 1 2 3 4 5 6 
#
# 1 0.010541 -0.001935 -0.001047 0.003391 -0.000502 0.007058
# 2 -0.001935 0.009993 -0.001221 0.000059 0.002478 0.007290
# 3 -0.001047 -0.001221 0.014344 -0.009024 -0.001690 -0.000250
# 4 0.003391 0.000059 -0.009024 0.039916 0.001929 0.003787
# 5 -0.000502 0.002478 -0.001690 0.001929 0.076505 -0.003579
# 6 0.007058 0.007290 -0.000250 0.003787 -0.003579 0.030524
#
#
# Mechanical properties :
#
#
# Convention : Reuss Voigt Hill
#
# Bulk Modulus (GPa) = 37.77444 63.21441 50.49442
# Shear Modulus (GPa) = 25.11892 39.20316 32.16104
#
# Velocity S-wave (km/s) = 3.19990 3.99758 3.62077
# Velocity P-wave (km/s) = 5.38987 6.86119 6.16955
#
# Compressibility (1/GPa) = 0.02647293
#
# Stress axis : x y z
#
# Youngs Moduli (GPa) = 94.86800 100.06811 69.71576
#
# Poissons Ratio (x) = 0.19358 0.07302
# Poissons Ratio (y) = 0.18352 0.08510
# Poissons Ratio (z) = 0.09936 0.12215
#
# Static dielectric constant tensor:
#      x y z
#    x 2.082640 0.067260 0.020380 
#    y 0.067260 2.054010 -0.076400 
#    z 0.020380 -0.076400 1.963380 
# 
# From -- ./inp_files/243368.got.cif
#   From: 2010.05.17/outbox.cif.g08.bks.cpg/sg2_122_cif.got.tgz:243368.got - 2010.06.03 11:33:40.
