data_PCOD9014035
_publ_section_title
;
Structure prediction by ZEFSAII (Michael W. Deem and Ramdas Pophale) SiO2 
 PCOD9014035
Probable space group: P -1
;
_chemical_formula_sum "Si O2"
_cell_formula_units_Z 15
_cell_length_a 11.227502
_cell_length_b 5.823673
_cell_length_c 9.593719
_cell_angle_alpha 75.893090
_cell_angle_beta 111.744980
_cell_angle_gamma 87.347168
_cell_volume 558.547701
_symmetry_space_group_name_H-M "P -1"
_symmetry_group_IT_number 2
_symmetry_cell_setting 'triclinic'
loop_
_space_group_symop_operation_xyz
x,y,z
-x,-y,-z
loop_
_atom_site_type_symbol
_atom_site_label
_atom_site_fract_x
_atom_site_fract_y
_atom_site_fract_z
Si Si1 0.729628 0.014151 0.423853
Si Si2 0.721049 0.433134 0.176853
Si Si3 0.453499 0.768039 0.074257
Si Si4 0.341571 0.507074 0.291646
Si Si5 0.861196 0.093593 0.741720
Si Si6 0.954079 0.783324 0.413109
Si Si7 0.500000 0.000000 0.500000
Si Si8 0.132895 0.348204 0.017332
O O1 0.762719 0.270303 0.351346
O O2 0.790931 0.957426 0.611863
O O3 0.578474 0.038868 0.382170
O O4 0.800489 0.826459 0.373002
O O5 0.582791 0.582260 0.129486
O O6 0.675710 0.255698 0.066816
O O7 0.829153 0.565727 0.131742
O O8 0.412428 0.711649 0.220873
O O9 0.500000 0.000000 0.000000
O O10 0.233394 0.657321 0.318965
O O11 0.436830 0.288446 0.429561
O O12 0.258500 0.400563 0.151168
O O13 0.994214 0.142484 0.724544
O O14 0.872832 0.928791 0.907489
O O15 0.000000 0.500000 0.500000
O O16 0.000000 0.000000 0.500000
O O17 0.000000 0.500000 0.000000
#
# Coordination Sequence:
#
# PCOD9014035 Si02
#       8
#     2   2   2   2   2   2   1   2
#     4  11  23  43  68 106 138 190 232 299 373 438
#     4  10  22  43  64  97 138 181 237 295 360 437
#     4  10  21  41  66  94 137 186 234 292 360 441
#     4  11  24  43  70 106 141 185 241 300 369 443
#     4  11  24  44  73 102 143 186 239 305 368 445
#     4  10  23  44  69 102 143 187 236 300 362 437
#     4  12  22  42  70 102 148 176 234 302 364 450
#     4  11  24  45  72  98 138 190 244 304 363 439
#
# _framework density 26.855360000000001
#
# number of rings (size 3 to 8) (size 9 to 14) (size 15 to 20)
#    0.000    1.333    2.667    2.400    1.867    2.133 
#    7.200    0.000    0.000    0.000    0.000    0.000 
#    0.000    0.000    0.000    0.000    0.000    0.000 
#
# Total GULP energy -83633.046342 kJ/mol
# GULP energy per Si atom -5575.536423 kJ/mol
# Density = 2.679424 g / cm^3
# Si number density = 26.855360 Si / 1000 Ang^3
#
#
#
# Elastic Constant Matrix: (Units=GPa)
#
#
# Indices 1 2 3 4 5 6 
#
# 1 129.8034 71.5824 50.2749 -5.5809 -37.3417 -7.6357
# 2 71.5824 83.6276 42.3404 -32.7363 -2.2404 -4.9074
# 3 50.2749 42.3404 139.0236 -35.7691 -35.0988 6.3371
# 4 -5.5809 -32.7363 -35.7691 47.0873 2.9925 12.3635
# 5 -37.3417 -2.2404 -35.0988 2.9925 54.4331 -1.6770
# 6 -7.6357 -4.9074 6.3371 12.3635 -1.6770 69.8642
#
#
#
# Elastic Compliance Matrix: (Units=1/GPa)
#
#
# Indices 1 2 3 4 5 6 
#
# 1 0.038207 -0.042012 -0.003047 -0.030512 0.024425 0.007487
# 2 -0.042012 0.063565 0.000111 0.043358 -0.028778 -0.008500
# 3 -0.003047 0.000111 0.012091 0.009352 0.005105 -0.002954
# 4 -0.030512 0.043358 0.009352 0.059081 -0.016734 -0.011995
# 5 0.024425 -0.028778 0.005105 -0.016734 0.038279 0.004065
# 6 0.007487 -0.008500 -0.002954 -0.011995 0.004065 0.017023
#
#
# Mechanical properties :
#
#
# Convention : Reuss Voigt Hill
#
# Bulk Modulus (GPa) = 41.72363 75.64999 58.68681
# Shear Modulus (GPa) = 15.33123 46.82739 31.07931
#
# Velocity S-wave (km/s) = 2.39191 4.18028 3.40558
# Velocity P-wave (km/s) = 4.81648 7.17846 6.11264
#
# Compressibility (1/GPa) = 0.02396724
#
# Stress axis : x y z
#
# Youngs Moduli (GPa) = 26.17298 15.73195 82.70673
#
# Poissons Ratio (x) = 0.66093 0.25203
# Poissons Ratio (y) = 1.09957 -0.00918
# Poissons Ratio (z) = 0.07975 -0.00175
#
# Static dielectric constant tensor:
#      x y z
#    x 2.155400 0.049680 0.029060 
#    y 0.049680 2.248520 0.075400 
#    z 0.029060 0.075400 2.054120 
# 
# From -- ./inp_files/408972.got.cif
#   From: 2010.05.17/outbox.cif.g08.bks.cpg/sg2_205_cif.got.tgz:408972.got - 2010.06.03 11:33:40.
