data_PCOD9014304
_publ_section_title
;
Structure prediction by ZEFSAII (Michael W. Deem and Ramdas Pophale) SiO2 
 PCOD9014304
Probable space group: P -1
;
_chemical_formula_sum "Si O2"
_cell_formula_units_Z 14
_cell_length_a 7.986844
_cell_length_b 16.444539
_cell_length_c 8.230988
_cell_angle_alpha 98.274201
_cell_angle_beta 37.982194
_cell_angle_gamma 120.475792
_cell_volume 502.267059
_symmetry_space_group_name_H-M "P -1"
_symmetry_group_IT_number 2
_symmetry_cell_setting 'triclinic'
loop_
_space_group_symop_operation_xyz
x,y,z
-x,-y,-z
loop_
_atom_site_type_symbol
_atom_site_label
_atom_site_fract_x
_atom_site_fract_y
_atom_site_fract_z
Si Si1 0.571443 0.078211 0.718486
Si Si2 0.360510 0.427316 0.345614
Si Si3 0.436542 0.355200 0.786007
Si Si4 0.658289 0.258687 0.832771
Si Si5 0.830043 0.881739 0.538578
Si Si6 0.301135 0.860025 0.730805
Si Si7 0.866337 0.506515 0.235777
O O1 0.416735 0.136452 0.896078
O O2 0.722946 0.118977 0.431967
O O3 0.842746 0.114395 0.671734
O O4 0.340969 0.950120 0.834036
O O5 0.500000 0.500000 0.500000
O O6 0.506921 0.537352 0.179014
O O7 0.734215 0.452402 0.125142
O O8 0.069603 0.311791 0.458806
O O9 0.538004 0.314012 0.834722
O O10 0.711642 0.404388 0.437876
O O11 0.047187 0.260808 0.993064
O O12 0.005069 0.396886 0.710059
O O13 0.489495 0.211089 0.128406
O O14 0.638108 0.866624 0.512141
O O15 0.000000 0.000000 0.500000
#
# Coordination Sequence:
#
# PCOD9014304 Si02
#       7
#     2   2   2   2   2   2   2
#     4  10  24  44  66  99 130 173 226 269 332 385
#     4   9  22  41  62  92 133 166 217 268 320 390
#     4  10  21  41  67  93 130 176 213 270 330 380
#     4  12  23  43  64  99 136 170 222 275 325 397
#     4  10  23  44  67  95 131 176 219 274 330 384
#     4  10  21  46  68  92 135 173 219 280 320 392
#     4   9  20  41  63  93 124 171 225 261 325 389
#
# _framework density 27.873616999999999
#
# number of rings (size 3 to 8) (size 9 to 14) (size 15 to 20)
#    0.857    1.143    1.429    1.286    0.000    5.143 
#    5.143    1.429    0.000    0.000    0.000    0.000 
#    0.000    0.000    0.000    0.000    0.000    0.000 
#
# Total GULP energy -77966.003802 kJ/mol
# GULP energy per Si atom -5569.000272 kJ/mol
# Density = 2.781018 g / cm^3
# Si number density = 27.873617 Si / 1000 Ang^3
#
#
#
# Elastic Constant Matrix: (Units=GPa)
#
#
# Indices 1 2 3 4 5 6 
#
# 1 186.6856 39.7367 56.0493 0.0286 -6.6743 -7.8658
# 2 39.7367 121.8475 40.0106 -18.5501 0.2299 -7.4006
# 3 56.0493 40.0106 142.2271 -20.6926 -4.4255 4.6511
# 4 0.0286 -18.5501 -20.6926 64.2819 -4.2807 2.0778
# 5 -6.6743 0.2299 -4.4255 -4.2807 33.2055 -13.7669
# 6 -7.8658 -7.4006 4.6511 2.0778 -13.7669 40.4960
#
#
#
# Elastic Compliance Matrix: (Units=1/GPa)
#
#
# Indices 1 2 3 4 5 6 
#
# 1 0.006497 -0.001409 -0.002336 -0.001113 0.001644 0.001889
# 2 -0.001409 0.009729 -0.001912 0.002163 0.000398 0.001748
# 3 -0.002336 -0.001912 0.008907 0.002395 0.000269 -0.001857
# 4 -0.001113 0.002163 0.002395 0.017105 0.002191 -0.000229
# 5 0.001644 0.000398 0.000269 0.002191 0.035928 0.012463
# 6 0.001889 0.001748 -0.001857 -0.000229 0.012463 0.029842
#
#
# Mechanical properties :
#
#
# Convention : Reuss Voigt Hill
#
# Bulk Modulus (GPa) = 72.36946 80.26150 76.31548
# Shear Modulus (GPa) = 40.34581 48.59427 44.47004
#
# Velocity S-wave (km/s) = 3.80867 4.17991 3.99860
# Velocity P-wave (km/s) = 6.73506 7.22169 6.98262
#
# Compressibility (1/GPa) = 0.01381798
#
# Stress axis : x y z
#
# Youngs Moduli (GPa) = 153.92858 102.78546 112.27168
#
# Poissons Ratio (x) = 0.14486 0.26230
# Poissons Ratio (y) = 0.21694 0.21462
# Poissons Ratio (z) = 0.35962 0.19649
#
# Static dielectric constant tensor:
#      x y z
#    x 2.166140 -0.232200 -0.139220 
#    y -0.232200 1.680060 -0.067150 
#    z -0.139220 -0.067150 2.251650 
# 
# From -- ./inp_files/201841.got.cif
#   From: 2010.05.17/outbox.cif.g08.bks.cpg/sg2_101_cif.got.tgz:201841.got - 2010.06.03 11:33:40.
