data_PCOD9014340
_publ_section_title
;
Structure prediction by ZEFSAII (Michael W. Deem and Ramdas Pophale) SiO2 
 PCOD9014340
Probable space group: P -1
;
_chemical_formula_sum "Si O2"
_cell_formula_units_Z 14
_cell_length_a 6.062305
_cell_length_b 10.968234
_cell_length_c 8.899663
_cell_angle_alpha 84.775530
_cell_angle_beta 102.455680
_cell_angle_gamma 96.667864
_cell_volume 572.595541
_symmetry_space_group_name_H-M "P -1"
_symmetry_group_IT_number 2
_symmetry_cell_setting 'triclinic'
loop_
_space_group_symop_operation_xyz
x,y,z
-x,-y,-z
loop_
_atom_site_type_symbol
_atom_site_label
_atom_site_fract_x
_atom_site_fract_y
_atom_site_fract_z
Si Si1 0.070491 0.319401 0.237363
Si Si2 0.329585 0.007807 0.618121
Si Si3 0.457142 0.511493 0.319973
Si Si4 0.748213 0.525592 0.107871
Si Si5 0.973886 0.796767 0.456247
Si Si6 0.856869 0.083301 0.081999
Si Si7 0.137224 0.720438 0.168002
O O1 0.889028 0.407632 0.136132
O O2 0.323223 0.385467 0.253609
O O3 0.027881 0.311691 0.412078
O O4 0.035637 0.180910 0.185692
O O5 0.136634 0.906111 0.542213
O O6 0.313671 0.974165 0.803589
O O7 0.500000 0.000000 0.500000
O O8 0.267658 0.148095 0.593344
O O9 0.500000 0.500000 0.500000
O O10 0.694436 0.542925 0.271703
O O11 0.297779 0.615879 0.241006
O O12 0.903755 0.649194 0.075073
O O13 0.500000 0.500000 0.000000
O O14 0.067602 0.777168 0.307847
O O15 0.751207 0.175601 0.938996
O O16 0.000000 0.000000 0.000000
#
# Coordination Sequence:
#
# PCOD9014340 Si02
#       7
#     2   2   2   2   2   2   2
#     4  10  23  41  69  99 141 189 236 289 359 427
#     4  10  23  43  68  99 137 189 245 289 344 422
#     4  11  23  41  69 106 142 185 240 292 358 428
#     4  11  23  41  66 102 140 182 232 293 362 423
#     4  10  21  41  67  94 141 186 232 290 352 414
#     4  11  22  44  72 100 141 194 234 289 365 416
#     4  11  23  42  70 104 143 185 235 296 357 428
#
# _framework density 24.450068000000002
#
# number of rings (size 3 to 8) (size 9 to 14) (size 15 to 20)
#    0.000    1.429    1.429    3.429    0.000    9.143 
#    0.000    7.857    0.000    0.000    0.000    0.000 
#    0.000    0.000    0.000    0.000    0.000    0.000 
#
# Total GULP energy -78077.562388 kJ/mol
# GULP energy per Si atom -5576.968742 kJ/mol
# Density = 2.439442 g / cm^3
# Si number density = 24.450068 Si / 1000 Ang^3
#
#
#
# Elastic Constant Matrix: (Units=GPa)
#
#
# Indices 1 2 3 4 5 6 
#
# 1 65.0476 24.4819 45.7162 -2.1838 -36.5201 10.7968
# 2 24.4819 84.5364 44.0928 1.3862 -2.1150 3.3832
# 3 45.7162 44.0928 175.4437 -8.2933 -38.0010 2.6698
# 4 -2.1838 1.3862 -8.2933 48.2333 3.1530 -13.4186
# 5 -36.5201 -2.1150 -38.0010 3.1530 52.5108 10.1148
# 6 10.7968 3.3832 2.6698 -13.4186 10.1148 28.1526
#
#
#
# Elastic Compliance Matrix: (Units=1/GPa)
#
#
# Indices 1 2 3 4 5 6 
#
# 1 0.048551 -0.010804 -0.001174 -0.010517 0.040174 -0.036657
# 2 -0.010804 0.016326 -0.003716 0.001059 -0.010952 0.006974
# 3 -0.001174 -0.003716 0.008103 0.000734 0.005116 -0.001360
# 4 -0.010517 0.001059 0.000734 0.027067 -0.012452 0.021212
# 5 0.040174 -0.010952 0.005116 -0.012452 0.059029 -0.041720
# 6 -0.036657 0.006974 -0.001360 0.021212 -0.041720 0.073970
#
#
# Mechanical properties :
#
#
# Convention : Reuss Voigt Hill
#
# Bulk Modulus (GPa) = 24.04250 61.51217 42.77733
# Shear Modulus (GPa) = 17.96636 39.82847 28.89742
#
# Velocity S-wave (km/s) = 2.71369 4.04043 3.44160
# Velocity P-wave (km/s) = 4.43548 6.85417 5.77292
#
# Compressibility (1/GPa) = 0.04159302
#
# Stress axis : x y z
#
# Youngs Moduli (GPa) = 20.59685 61.25249 123.40889
#
# Poissons Ratio (x) = 0.66176 0.14483
# Poissons Ratio (y) = 0.22252 0.45861
# Poissons Ratio (z) = 0.02417 0.22763
#
# Static dielectric constant tensor:
#      x y z
#    x 1.980400 -0.033220 -0.000160 
#    y -0.033220 1.979340 -0.010000 
#    z -0.000160 -0.010000 2.139860 
# 
# From -- ./inp_files/131548.got.cif
#   From: 2010.05.17/outbox.cif.g08.bks.cpg/sg2_66_cif.got.tgz:131548.got - 2010.06.03 11:33:40.
