data_PCOD9014020
_publ_section_title
;
Structure prediction by ZEFSAII (Michael W. Deem and Ramdas Pophale) SiO2 
 PCOD9014020
Probable space group: P -1
;
_chemical_formula_sum "Si O2"
_cell_formula_units_Z 16
_cell_length_a 9.121620
_cell_length_b 18.453909
_cell_length_c 5.158884
_cell_angle_alpha 98.616666
_cell_angle_beta 98.424233
_cell_angle_gamma 54.538628
_cell_volume 697.411562
_symmetry_space_group_name_H-M "P -1"
_symmetry_group_IT_number 2
_symmetry_cell_setting 'triclinic'
loop_
_space_group_symop_operation_xyz
x,y,z
-x,-y,-z
loop_
_atom_site_type_symbol
_atom_site_label
_atom_site_fract_x
_atom_site_fract_y
_atom_site_fract_z
Si Si1 0.227014 0.756457 0.745515
Si Si2 0.871865 0.679585 0.372138
Si Si3 0.754984 0.496899 0.708590
Si Si4 0.577728 0.405357 0.694569
Si Si5 0.961542 0.962363 0.718935
Si Si6 0.574620 0.674450 0.028810
Si Si7 0.086301 0.237914 0.079053
Si Si8 0.373313 0.036737 0.236659
O O1 0.300015 0.672339 0.527433
O O2 0.406438 0.752718 0.865833
O O3 0.086942 0.855352 0.654651
O O4 0.103552 0.750184 0.925155
O O5 0.897955 0.699488 0.681546
O O6 0.036141 0.576924 0.316343
O O7 0.681470 0.695901 0.262413
O O8 0.890590 0.739721 0.195794
O O9 0.679274 0.450020 0.835382
O O10 0.618913 0.524001 0.446259
O O11 0.716916 0.589227 0.847154
O O12 0.531734 0.360549 0.876275
O O13 0.761161 0.991089 0.741923
O O14 0.000000 0.000000 0.500000
O O15 0.000000 0.000000 0.000000
O O16 0.240181 0.141071 0.180616
O O17 0.500000 0.000000 0.500000
O O18 0.500000 0.000000 0.000000
#
# Coordination Sequence:
#
# PCOD9014020 Si02
#       8
#     2   2   2   2   2   2   2   2
#     4  10  24  44  68  95 135 179 229 270 330 417
#     4  12  26  42  67 100 139 175 224 282 335 389
#     4  10  22  40  64  95 130 184 226 272 332 400
#     4  10  21  41  66  94 128 181 230 270 330 402
#     4  11  26  45  72 107 138 179 226 288 351 406
#     4  11  25  39  65 100 135 175 225 286 336 386
#     4  11  26  46  69  97 132 185 225 267 336 412
#     4  11  24  47  73 101 138 180 230 281 345 424
#
# _framework density 22.941974999999999
#
# number of rings (size 3 to 8) (size 9 to 14) (size 15 to 20)
#    0.000    1.250    1.250    3.000    7.000    5.500 
#    0.000    0.000    0.000    0.000    0.000    0.000 
#    0.000    0.000    0.000    0.000    0.000    0.000 
#
# Total GULP energy -89375.640839 kJ/mol
# GULP energy per Si atom -5585.977552 kJ/mol
# Density = 2.288976 g / cm^3
# Si number density = 22.941975 Si / 1000 Ang^3
#
#
#
# Elastic Constant Matrix: (Units=GPa)
#
#
# Indices 1 2 3 4 5 6 
#
# 1 119.9659 43.2540 33.7414 -1.2980 20.3924 -17.8651
# 2 43.2540 76.4368 20.7480 -9.4192 -2.9123 -20.3715
# 3 33.7414 20.7480 84.6864 -2.4793 -3.5409 -9.0112
# 4 -1.2980 -9.4192 -2.4793 21.7930 -2.2045 -0.1220
# 5 20.3924 -2.9123 -3.5409 -2.2045 43.9040 -7.5734
# 6 -17.8651 -20.3715 -9.0112 -0.1220 -7.5734 34.9934
#
#
#
# Elastic Compliance Matrix: (Units=1/GPa)
#
#
# Indices 1 2 3 4 5 6 
#
# 1 0.013146 -0.007055 -0.003898 -0.003422 -0.007049 0.000063
# 2 -0.007055 0.021441 -0.000792 0.009509 0.006872 0.010197
# 3 -0.003898 -0.000792 0.013928 0.001351 0.003268 0.001848
# 4 -0.003422 0.009509 0.001351 0.050567 0.005830 0.005575
# 5 -0.007049 0.006872 0.003268 0.005830 0.028339 0.007397
# 6 0.000063 0.010197 0.001848 0.005575 0.007397 0.036641
#
#
# Mechanical properties :
#
#
# Convention : Reuss Voigt Hill
#
# Bulk Modulus (GPa) = 39.95618 52.95285 46.45452
# Shear Modulus (GPa) = 25.52422 32.36113 28.94267
#
# Velocity S-wave (km/s) = 3.33912 3.75982 3.55570
# Velocity P-wave (km/s) = 5.68509 6.47917 6.09508
#
# Compressibility (1/GPa) = 0.02502741
#
# Stress axis : x y z
#
# Youngs Moduli (GPa) = 76.06779 46.64013 71.79826
#
# Poissons Ratio (x) = 0.32903 0.27984
# Poissons Ratio (y) = 0.53663 0.05683
# Poissons Ratio (z) = 0.29648 0.03692
#
# Static dielectric constant tensor:
#      x y z
#    x 1.820960 0.018250 -0.039530 
#    y 0.018250 1.932550 -0.036930 
#    z -0.039530 -0.036930 1.908690 
# 
# From -- ./inp_files/39704.got.cif
#   From: 2010.05.17/outbox.cif.g08.bks.cpg/sg2_20_cif.got.tgz:39704.got - 2010.06.03 11:33:40.
