data_PCOD9014285
_publ_section_title
;
Structure prediction by ZEFSAII (Michael W. Deem and Ramdas Pophale) SiO2 
 PCOD9014285
Probable space group: P -1
;
_chemical_formula_sum "Si O2"
_cell_formula_units_Z 16
_cell_length_a 7.809519
_cell_length_b 10.167607
_cell_length_c 13.120115
_cell_angle_alpha 59.111774
_cell_angle_beta 67.845028
_cell_angle_gamma 47.094830
_cell_volume 654.231109
_symmetry_space_group_name_H-M "P -1"
_symmetry_group_IT_number 2
_symmetry_cell_setting 'triclinic'
loop_
_space_group_symop_operation_xyz
x,y,z
-x,-y,-z
loop_
_atom_site_type_symbol
_atom_site_label
_atom_site_fract_x
_atom_site_fract_y
_atom_site_fract_z
Si Si1 0.018478 0.520568 0.368943
Si Si2 0.560045 0.025392 0.089960
Si Si3 0.422936 0.409339 0.916984
Si Si4 0.785188 0.085018 0.591762
Si Si5 0.947612 0.170136 0.852372
Si Si6 0.522796 0.167527 0.416634
Si Si7 0.088115 0.851344 0.789554
Si Si8 0.422547 0.325400 0.712338
O O1 0.281433 0.343846 0.352246
O O2 0.000000 0.500000 0.500000
O O3 0.001133 0.708782 0.276879
O O4 0.822226 0.526982 0.348562
O O5 0.827679 0.943386 0.078995
O O6 0.541052 0.879028 0.217062
O O7 0.406097 0.258405 0.043560
O O8 0.500000 0.000000 0.000000
O O9 0.228337 0.636389 0.889409
O O10 0.403114 0.386686 0.808599
O O11 0.694319 0.322375 0.900129
O O12 0.577421 0.181759 0.516254
O O13 0.656244 0.267931 0.626752
O O14 0.000000 0.000000 0.500000
O O15 0.910150 0.904005 0.716032
O O16 0.959043 0.016022 0.838603
O O17 0.723905 0.131564 0.313369
O O18 0.500000 0.000000 0.500000
#
# Coordination Sequence:
#
# PCOD9014285 Si02
#       8
#     2   2   2   2   2   2   2   2
#     4  11  21  38  62  95 123 175 218 257 328 383
#     4   9  22  42  71  96 123 170 220 272 331 376
#     4  11  22  43  66  94 131 169 222 271 322 387
#     4  10  22  41  60  92 136 172 213 268 319 382
#     4  11  22  42  69  91 134 171 212 272 321 394
#     4  11  23  39  59  92 136 171 216 266 313 389
#     4  11  24  41  62 100 129 171 220 262 327 384
#     4  10  21  41  67  92 130 175 218 268 327 386
#
# _framework density 24.456188999999998
#
# number of rings (size 3 to 8) (size 9 to 14) (size 15 to 20)
#    0.000    1.500    3.750    1.125    3.500    0.500 
#    2.250    4.375    0.000    0.000    0.000    0.000 
#    0.000    0.000    0.000    0.000    0.000    0.000 
#
# Total GULP energy -89262.234095 kJ/mol
# GULP energy per Si atom -5578.889631 kJ/mol
# Density = 2.440053 g / cm^3
# Si number density = 24.456189 Si / 1000 Ang^3
#
#
#
# Elastic Constant Matrix: (Units=GPa)
#
#
# Indices 1 2 3 4 5 6 
#
# 1 63.1838 17.5221 26.7859 -8.9165 30.1503 -14.4504
# 2 17.5221 83.6500 25.8124 -23.8937 12.8948 -8.4696
# 3 26.7859 25.8124 117.0382 -23.6583 15.4962 -1.0213
# 4 -8.9165 -23.8937 -23.6583 43.2717 -4.0469 -0.8907
# 5 30.1503 12.8948 15.4962 -4.0469 45.2698 -15.4136
# 6 -14.4504 -8.4696 -1.0213 -0.8907 -15.4136 35.0088
#
#
#
# Elastic Compliance Matrix: (Units=1/GPa)
#
#
# Indices 1 2 3 4 5 6 
#
# 1 0.025346 -0.001322 -0.003344 0.001448 -0.013878 0.003971
# 2 -0.001322 0.015231 -0.001366 0.007312 -0.001433 0.002654
# 3 -0.003344 -0.001366 0.010612 0.004202 -0.001272 -0.001854
# 4 0.001448 0.007312 0.004202 0.029722 -0.000851 0.002871
# 5 -0.013878 -0.001433 -0.001272 -0.000851 0.035304 0.009410
# 6 0.003971 0.002654 -0.001854 0.002871 0.009410 0.035007
#
#
# Mechanical properties :
#
#
# Convention : Reuss Voigt Hill
#
# Bulk Modulus (GPa) = 25.55895 44.90142 35.23018
# Shear Modulus (GPa) = 28.35588 37.62683 32.99136
#
# Velocity S-wave (km/s) = 3.40877 3.92668 3.67686
# Velocity P-wave (km/s) = 5.09574 6.24165 5.69758
#
# Compressibility (1/GPa) = 0.03912524
#
# Stress axis : x y z
#
# Youngs Moduli (GPa) = 39.45358 65.65492 94.22899
#
# Poissons Ratio (x) = 0.08681 0.31514
# Poissons Ratio (y) = 0.05217 0.12868
# Poissons Ratio (z) = 0.13195 0.08966
#
# Static dielectric constant tensor:
#      x y z
#    x 1.938360 -0.029220 -0.043040 
#    y -0.029220 1.979730 0.003010 
#    z -0.043040 0.003010 1.882670 
# 
# From -- ./inp_files/272433.got.cif
#   From: 2010.05.17/outbox.cif.g08.bks.cpg/sg2_137_cif.got.tgz:272433.got - 2010.06.03 11:33:40.
