data_PCOD9014867
_publ_section_title
;
Structure prediction by ZEFSAII (Michael W. Deem and Ramdas Pophale) SiO2 
 PCOD9014867
Probable space group: P -1
;
_chemical_formula_sum "Si O2"
_cell_formula_units_Z 16
_cell_length_a 11.979623
_cell_length_b 13.718716
_cell_length_c 8.456014
_cell_angle_alpha 116.100063
_cell_angle_beta 142.921354
_cell_angle_gamma 66.409299
_cell_volume 749.313072
_symmetry_space_group_name_H-M "P -1"
_symmetry_group_IT_number 2
_symmetry_cell_setting 'triclinic'
loop_
_space_group_symop_operation_xyz
x,y,z
-x,-y,-z
loop_
_atom_site_type_symbol
_atom_site_label
_atom_site_fract_x
_atom_site_fract_y
_atom_site_fract_z
Si Si1 0.088476 0.263901 0.808241
Si Si2 0.823623 0.085198 0.399705
Si Si3 0.072380 0.876513 0.952136
Si Si4 0.588860 0.159648 0.889121
Si Si5 0.760108 0.895452 0.383761
Si Si6 0.911916 0.534294 0.253082
Si Si7 0.413411 0.388925 0.858541
Si Si8 0.101347 0.319536 0.207920
O O1 0.240748 0.183631 0.826149
O O2 0.014740 0.366242 0.689395
O O3 0.915258 0.196179 0.611550
O O4 0.167910 0.301065 0.090852
O O5 0.732744 0.021709 0.393477
O O6 0.688674 0.100281 0.109706
O O7 0.000000 0.000000 0.500000
O O8 0.966687 0.860267 0.655771
O O9 0.995996 0.785647 0.913357
O O10 0.290076 0.866974 0.149272
O O11 0.000000 0.000000 0.000000
O O12 0.379490 0.127617 0.650114
O O13 0.569684 0.289561 0.981521
O O14 0.705562 0.584050 0.098927
O O15 0.000000 0.500000 0.500000
O O16 0.948289 0.423682 0.117424
O O17 0.270026 0.350725 0.535029
O O18 0.500000 0.500000 0.000000
#
# Coordination Sequence:
#
# PCOD9014867 Si02
#       8
#     2   2   2   2   2   2   2   2
#     4  11  21  42  70 101 140 179 228 291 351 411
#     4  10  22  38  69 100 134 181 234 282 346 419
#     4  12  25  44  70 102 142 185 234 284 347 421
#     4  12  23  43  74  99 136 185 241 285 349 416
#     4  11  22  46  66 102 135 187 237 280 350 418
#     4  10  21  41  69  97 132 180 232 281 343 420
#     4  11  24  43  70 102 137 184 238 288 347 422
#     4  11  24  42  68 104 144 181 232 293 349 413
#
# _framework density 21.352891
#
# number of rings (size 3 to 8) (size 9 to 14) (size 15 to 20)
#    0.000    1.000    5.000    3.000    5.250    0.500 
#    0.000    3.125    0.000    0.000    0.000    0.000 
#    0.000    0.000    0.000    0.000    0.000    0.000 
#
# Total GULP energy -89238.843094 kJ/mol
# GULP energy per Si atom -5577.427693 kJ/mol
# Density = 2.130429 g / cm^3
# Si number density = 21.352891 Si / 1000 Ang^3
#
#
#
# Elastic Constant Matrix: (Units=GPa)
#
#
# Indices 1 2 3 4 5 6 
#
# 1 117.6302 62.4179 24.1269 16.4138 7.6801 8.7559
# 2 62.4179 166.8742 9.7493 15.0987 3.7017 23.5166
# 3 24.1269 9.7493 34.1384 8.7865 -3.7679 4.6507
# 4 16.4138 15.0987 8.7865 31.1318 6.8940 4.4362
# 5 7.6801 3.7017 -3.7679 6.8940 26.2917 3.0231
# 6 8.7559 23.5166 4.6507 4.4362 3.0231 56.8014
#
#
#
# Elastic Compliance Matrix: (Units=1/GPa)
#
#
# Indices 1 2 3 4 5 6 
#
# 1 0.012788 -0.004184 -0.007938 -0.001712 -0.003922 0.000753
# 2 -0.004184 0.007997 0.001694 -0.002027 0.001182 -0.002709
# 3 -0.007938 0.001694 0.038303 -0.009384 0.010309 -0.002430
# 4 -0.001712 -0.002027 -0.009384 0.039122 -0.010747 -0.000612
# 5 -0.003922 0.001182 0.010309 -0.010747 0.043563 -0.002208
# 6 0.000753 -0.002709 -0.002430 -0.000612 -0.002208 0.018975
#
#
# Mechanical properties :
#
#
# Convention : Reuss Voigt Hill
#
# Bulk Modulus (GPa) = 26.15538 56.80344 41.47941
# Shear Modulus (GPa) = 25.72682 37.66822 31.69752
#
# Velocity S-wave (km/s) = 3.47485 4.20465 3.85705
# Velocity P-wave (km/s) = 5.32683 7.08746 6.26926
#
# Compressibility (1/GPa) = 0.03823306
#
# Stress axis : x y z
#
# Youngs Moduli (GPa) = 78.19641 125.03941 26.10770
#
# Poissons Ratio (x) = 0.52315 0.20724
# Poissons Ratio (y) = 0.32716 -0.04423
# Poissons Ratio (z) = 0.62073 -0.21183
#
# Static dielectric constant tensor:
#      x y z
#    x 1.870600 0.024230 0.015030 
#    y 0.024230 1.792400 0.021440 
#    z 0.015030 0.021440 1.828360 
# 
# From -- ./inp_files/274169.got.cif
#   From: 2010.05.17/outbox.cif.g08.bks.cpg/sg2_138_cif.got.tgz:274169.got - 2010.06.03 11:33:40.
