data_PCOD9014826
_publ_section_title
;
Structure prediction by ZEFSAII (Michael W. Deem and Ramdas Pophale) SiO2 
 PCOD9014826
Probable space group: P -1
;
_chemical_formula_sum "Si O2"
_cell_formula_units_Z 16
_cell_length_a 7.354545
_cell_length_b 20.682627
_cell_length_c 9.244239
_cell_angle_alpha 129.317438
_cell_angle_beta 93.845856
_cell_angle_gamma 125.380648
_cell_volume 643.720996
_symmetry_space_group_name_H-M "P -1"
_symmetry_group_IT_number 2
_symmetry_cell_setting 'triclinic'
loop_
_space_group_symop_operation_xyz
x,y,z
-x,-y,-z
loop_
_atom_site_type_symbol
_atom_site_label
_atom_site_fract_x
_atom_site_fract_y
_atom_site_fract_z
Si Si1 0.806804 0.428138 0.238762
Si Si2 0.918832 0.312009 0.527805
Si Si3 0.403655 0.347472 0.681278
Si Si4 0.166018 0.149764 0.898768
Si Si5 0.447456 0.078106 0.930898
Si Si6 0.081141 0.669185 0.129328
Si Si7 0.072453 0.857768 0.386137
Si Si8 0.034477 0.111159 0.140332
O O1 0.000000 0.500000 0.500000
O O2 0.934013 0.547472 0.314328
O O3 0.460356 0.314099 0.109608
O O4 0.804496 0.345059 0.017887
O O5 0.752955 0.263323 0.607430
O O6 0.190930 0.346959 0.623723
O O7 0.728206 0.209966 0.232990
O O8 0.358336 0.262506 0.432144
O O9 0.229411 0.246416 0.670348
O O10 0.750465 0.507148 0.927695
O O11 0.297378 0.108517 0.899640
O O12 0.958438 0.083949 0.655509
O O13 0.996618 0.122354 0.990956
O O14 0.394475 0.995360 0.678928
O O15 0.224311 0.951610 0.856856
O O16 0.058059 0.755787 0.196030
O O17 0.000000 0.000000 0.000000
#
# Coordination Sequence:
#
# PCOD9014826 Si02
#       8
#     2   2   2   2   2   2   2   2
#     4  12  24  41  66  98 136 167 214 277 330 378
#     4  11  23  43  69  97 133 170 217 271 324 391
#     4  10  21  41  69  94 128 173 220 265 323 387
#     4  11  21  43  65  95 130 172 218 270 324 381
#     4  10  22  43  68  94 132 173 217 265 328 391
#     4  11  24  42  66 100 128 176 219 267 323 391
#     4  10  22  41  68  95 129 170 221 270 324 383
#     4   9  21  39  66  94 124 174 216 260 317 395
#
# _framework density 24.855487
#
# number of rings (size 3 to 8) (size 9 to 14) (size 15 to 20)
#    0.000    1.500    1.250    4.500    1.750    5.500 
#    9.000    3.125    0.000    0.000    0.000    0.000 
#    0.000    0.000    0.000    0.000    0.000    0.000 
#
# Total GULP energy -89397.637724 kJ/mol
# GULP energy per Si atom -5587.352358 kJ/mol
# Density = 2.479891 g / cm^3
# Si number density = 24.855487 Si / 1000 Ang^3
#
#
#
# Elastic Constant Matrix: (Units=GPa)
#
#
# Indices 1 2 3 4 5 6 
#
# 1 48.4150 36.0439 30.9024 -18.7639 -2.9458 -20.5961
# 2 36.0439 131.1089 30.4198 -31.5007 1.7478 -13.5202
# 3 30.9024 30.4198 141.0370 -18.9497 -5.3425 -5.8906
# 4 -18.7639 -31.5007 -18.9497 44.5378 -9.7502 4.3482
# 5 -2.9458 1.7478 -5.3425 -9.7502 36.2940 6.0039
# 6 -20.5961 -13.5202 -5.8906 4.3482 6.0039 25.0091
#
#
#
# Elastic Compliance Matrix: (Units=1/GPa)
#
#
# Indices 1 2 3 4 5 6 
#
# 1 0.046111 -0.005614 -0.006232 0.009825 0.000500 0.031644
# 2 -0.005614 0.010432 -0.000345 0.004936 0.000317 0.000001
# 3 -0.006232 -0.000345 0.008651 0.001615 0.001882 -0.004014
# 4 0.009825 0.004936 0.001615 0.032401 0.008946 0.003359
# 5 0.000500 0.000317 0.001882 0.008946 0.031601 -0.008115
# 6 0.031644 0.000001 -0.004014 0.003359 -0.008115 0.066465
#
#
# Mechanical properties :
#
#
# Convention : Reuss Voigt Hill
#
# Bulk Modulus (GPa) = 24.50151 57.25478 40.87815
# Shear Modulus (GPa) = 21.39978 36.04782 28.72380
#
# Velocity S-wave (km/s) = 2.93741 3.81241 3.40315
# Velocity P-wave (km/s) = 4.62423 6.51647 5.65012
#
# Compressibility (1/GPa) = 0.04081381
#
# Stress axis : x y z
#
# Youngs Moduli (GPa) = 21.68656 95.85488 115.59557
#
# Poissons Ratio (x) = 0.53810 0.72038
# Poissons Ratio (y) = 0.12174 0.03986
# Poissons Ratio (z) = 0.13515 0.03305
#
# Static dielectric constant tensor:
#      x y z
#    x 2.066510 0.032870 -0.023700 
#    y 0.032870 1.950040 -0.074830 
#    z -0.023700 -0.074830 2.103010 
# 
# From -- ./inp_files/223857.got.cif
#   From: 2010.05.17/outbox.cif.g08.bks.cpg/sg2_112_cif.got.tgz:223857.got - 2010.06.03 11:33:40.
