data_PCOD9014859
_publ_section_title
;
Structure prediction by ZEFSAII (Michael W. Deem and Ramdas Pophale) SiO2 
 PCOD9014859
Probable space group: P -1
;
_chemical_formula_sum "Si O2"
_cell_formula_units_Z 12
_cell_length_a 9.889788
_cell_length_b 13.965927
_cell_length_c 7.583125
_cell_angle_alpha 102.222585
_cell_angle_beta 119.221926
_cell_angle_gamma 123.041198
_cell_volume 580.186577
_symmetry_space_group_name_H-M "P -1"
_symmetry_group_IT_number 2
_symmetry_cell_setting 'triclinic'
loop_
_space_group_symop_operation_xyz
x,y,z
-x,-y,-z
loop_
_atom_site_type_symbol
_atom_site_label
_atom_site_fract_x
_atom_site_fract_y
_atom_site_fract_z
Si Si1 0.313760 0.498204 0.394328
Si Si2 0.533849 0.915163 0.590102
Si Si3 0.844832 0.284596 0.435503
Si Si4 0.655623 0.373549 0.173643
Si Si5 0.413546 0.264153 0.623790
Si Si6 0.034981 0.815893 0.790441
O O1 0.500000 0.500000 0.500000
O O2 0.379842 0.594084 0.645564
O O3 0.360891 0.583446 0.283082
O O4 0.066706 0.324302 0.211150
O O5 0.294732 0.781491 0.497331
O O6 0.594754 0.853397 0.479416
O O7 0.500000 0.000000 0.500000
O O8 0.748325 0.030219 0.911218
O O9 0.694887 0.278003 0.198354
O O10 0.883983 0.196470 0.344311
O O11 0.098260 0.461231 0.676582
O O12 0.457557 0.297989 0.872450
O O13 0.179800 0.211534 0.393467
#
# Coordination Sequence:
#
# PCOD9014859 Si02
#       6
#     2   2   2   2   2   2
#     4   9  20  39  65  95 127 162 210 269 305 375
#     4  12  25  42  63  95 133 174 211 256 325 384
#     4  10  22  42  65  93 132 166 212 272 304 387
#     4  10  21  41  69  97 124 166 219 261 323 363
#     4  11  23  42  69  93 129 171 213 265 316 378
#     4  10  23  42  63  95 131 167 214 264 319 377
#
# _framework density 20.683001999999998
#
# number of rings (size 3 to 8) (size 9 to 14) (size 15 to 20)
#    0.000    1.667    1.667    2.000    2.333    6.667 
#    3.000    1.667    0.000    0.000    0.000    0.000 
#    0.000    0.000    0.000    0.000    0.000    0.000 
#
# Total GULP energy -67030.347249 kJ/mol
# GULP energy per Si atom -5585.862271 kJ/mol
# Density = 2.063593 g / cm^3
# Si number density = 20.683002 Si / 1000 Ang^3
#
#
#
# Elastic Constant Matrix: (Units=GPa)
#
#
# Indices 1 2 3 4 5 6 
#
# 1 101.3423 23.3037 17.3287 -5.9537 -5.4422 -7.0961
# 2 23.3037 27.3954 8.0358 -11.0295 0.1512 -13.1894
# 3 17.3287 8.0358 45.4155 -14.3809 6.6701 -3.3198
# 4 -5.9537 -11.0295 -14.3809 19.7196 -3.3573 -0.6896
# 5 -5.4422 0.1512 6.6701 -3.3573 28.1683 -3.7395
# 6 -7.0961 -13.1894 -3.3198 -0.6896 -3.7395 32.3584
#
#
#
# Elastic Compliance Matrix: (Units=1/GPa)
#
#
# Indices 1 2 3 4 5 6 
#
# 1 0.013720 -0.014969 -0.005816 -0.008142 0.002666 -0.003555
# 2 -0.014969 0.082663 0.008589 0.049975 0.004958 0.032930
# 3 -0.005816 0.008589 0.031993 0.025728 -0.004951 0.005484
# 4 -0.008142 0.049975 0.025728 0.096970 0.006820 0.024078
# 5 0.002666 0.004958 -0.004951 0.006820 0.038869 0.006735
# 6 -0.003555 0.032930 0.005484 0.024078 0.006735 0.045401
#
#
# Mechanical properties :
#
#
# Convention : Reuss Voigt Hill
#
# Bulk Modulus (GPa) = 9.61689 30.16553 19.89121
# Shear Modulus (GPa) = 13.56224 24.41492 18.98858
#
# Velocity S-wave (km/s) = 2.56348 3.43947 3.03326
# Velocity P-wave (km/s) = 3.66356 5.51268 4.68035
#
# Compressibility (1/GPa) = 0.10398377
#
# Stress axis : x y z
#
# Youngs Moduli (GPa) = 72.88583 12.09729 31.25651
#
# Poissons Ratio (x) = 0.18108 0.18179
# Poissons Ratio (y) = 1.09103 -0.26845
# Poissons Ratio (z) = 0.42390 -0.10390
#
# Static dielectric constant tensor:
#      x y z
#    x 1.739770 -0.009580 -0.001120 
#    y -0.009580 1.773190 -0.002520 
#    z -0.001120 -0.002520 1.706550 
# 
# From -- ./inp_files/35875.got.cif
#   From: 2010.05.17/outbox.cif.g08.bks.cpg/sg2_18_cif.got.tgz:35875.got - 2010.06.03 11:33:40.
