data_PCOD9014405
_publ_section_title
;
Structure prediction by ZEFSAII (Michael W. Deem and Ramdas Pophale) SiO2 
 PCOD9014405
Probable space group: P -1
;
_chemical_formula_sum "Si O2"
_cell_formula_units_Z 16
_cell_length_a 12.937737
_cell_length_b 13.651744
_cell_length_c 8.984006
_cell_angle_alpha 134.111594
_cell_angle_beta 45.845651
_cell_angle_gamma 108.766821
_cell_volume 775.317128
_symmetry_space_group_name_H-M "P -1"
_symmetry_group_IT_number 2
_symmetry_cell_setting 'triclinic'
loop_
_space_group_symop_operation_xyz
x,y,z
-x,-y,-z
loop_
_atom_site_type_symbol
_atom_site_label
_atom_site_fract_x
_atom_site_fract_y
_atom_site_fract_z
Si Si1 0.514661 0.751249 0.366308
Si Si2 0.100326 0.562672 0.070334
Si Si3 0.756460 0.432675 0.790323
Si Si4 0.975034 0.850410 0.327483
Si Si5 0.633747 0.939757 0.678672
Si Si6 0.209986 0.693056 0.694125
Si Si7 0.575940 0.216370 0.843070
Si Si8 0.373439 0.444551 0.494766
O O1 0.584285 0.838802 0.503384
O O2 0.348663 0.757380 0.600699
O O3 0.487712 0.805114 0.278650
O O4 0.623824 0.585480 0.071515
O O5 0.103696 0.559382 0.240365
O O6 0.061398 0.726854 0.228238
O O7 0.265207 0.451881 0.749168
O O8 0.000000 0.500000 0.000000
O O9 0.813641 0.370062 0.506582
O O10 0.678995 0.320668 0.823496
O O11 0.797287 0.866684 0.513451
O O12 0.000000 0.000000 0.500000
O O13 0.060072 0.797986 0.030134
O O14 0.655257 0.069701 0.694431
O O15 0.500000 0.000000 0.000000
O O16 0.274850 0.561486 0.602757
O O17 0.444124 0.301826 0.179837
O O18 0.500000 0.500000 0.500000
#
# Coordination Sequence:
#
# PCOD9014405 Si02
#       8
#     2   2   2   2   2   2   2   2
#     4  11  21  42  66  99 128 160 213 265 316 376
#     4  11  24  39  61  94 130 161 214 266 318 358
#     4  11  20  41  71  96 126 166 216 261 312 384
#     4  11  25  45  61  89 131 171 214 255 315 385
#     4  12  28  42  64  92 131 172 211 261 319 376
#     4  10  21  41  67  97 122 167 210 262 314 376
#     4  11  22  40  66  95 125 165 217 254 316 374
#     4  11  20  36  67  95 122 165 213 262 303 374
#
# _framework density 20.636714999999999
#
# number of rings (size 3 to 8) (size 9 to 14) (size 15 to 20)
#    0.000    1.000    3.750    3.375    7.000    0.000 
#    2.250    8.750    0.000    0.000    0.000    0.000 
#    0.000    0.000    0.000    0.000    0.000    0.000 
#
# Total GULP energy -89355.683458 kJ/mol
# GULP energy per Si atom -5584.730216 kJ/mol
# Density = 2.058975 g / cm^3
# Si number density = 20.636715 Si / 1000 Ang^3
#
#
#
# Elastic Constant Matrix: (Units=GPa)
#
#
# Indices 1 2 3 4 5 6 
#
# 1 114.4654 5.3754 41.0544 -8.1387 17.3910 1.5003
# 2 5.3754 46.8918 16.5320 11.7803 6.4436 -16.2726
# 3 41.0544 16.5320 127.3616 -8.7425 8.2722 2.6643
# 4 -8.1387 11.7803 -8.7425 24.2817 2.8984 1.7045
# 5 17.3910 6.4436 8.2722 2.8984 34.0901 -0.7942
# 6 1.5003 -16.2726 2.6643 1.7045 -0.7942 36.6935
#
#
#
# Elastic Compliance Matrix: (Units=1/GPa)
#
#
# Indices 1 2 3 4 5 6 
#
# 1 0.010807 -0.000788 -0.002786 0.003662 -0.005020 -0.000868
# 2 -0.000788 0.034641 -0.005793 -0.020011 -0.002650 0.016687
# 3 -0.002786 -0.005793 0.010002 0.005779 -0.000483 -0.003460
# 4 0.003662 -0.020011 0.005779 0.055587 -0.004496 -0.012123
# 5 -0.005020 -0.002650 -0.000483 -0.004496 0.032895 -0.000014
# 6 -0.000868 0.016687 -0.003460 -0.012123 -0.000014 0.035503
#
#
# Mechanical properties :
#
#
# Convention : Reuss Voigt Hill
#
# Bulk Modulus (GPa) = 27.23612 46.07138 36.65375
# Shear Modulus (GPa) = 23.76353 34.06351 28.91352
#
# Velocity S-wave (km/s) = 3.39708 4.06720 3.74715
# Velocity P-wave (km/s) = 5.34915 6.66555 6.04330
#
# Compressibility (1/GPa) = 0.03671595
#
# Stress axis : x y z
#
# Youngs Moduli (GPa) = 92.53466 28.86778 99.98012
#
# Poissons Ratio (x) = 0.02275 0.27851
# Poissons Ratio (y) = 0.07291 0.57919
# Poissons Ratio (z) = 0.25777 0.16723
#
# Static dielectric constant tensor:
#      x y z
#    x 1.697930 0.004320 -0.005120 
#    y 0.004320 1.765700 -0.001540 
#    z -0.005120 -0.001540 1.736650 
# 
# From -- ./inp_files/175031.got.cif
#   From: 2010.05.17/outbox.cif.g08.bks.cpg/sg2_88_cif.got.tgz:175031.got - 2010.06.03 11:33:40.
