data_PCOD9014723
_publ_section_title
;
Structure prediction by ZEFSAII (Michael W. Deem and Ramdas Pophale) SiO2 
 PCOD9014723
Probable space group: P -1
;
_chemical_formula_sum "Si O2"
_cell_formula_units_Z 16
_cell_length_a 17.200597
_cell_length_b 11.757500
_cell_length_c 9.588256
_cell_angle_alpha 50.135550
_cell_angle_beta 132.808791
_cell_angle_gamma 148.711573
_cell_volume 729.508673
_symmetry_space_group_name_H-M "P -1"
_symmetry_group_IT_number 2
_symmetry_cell_setting 'triclinic'
loop_
_space_group_symop_operation_xyz
x,y,z
-x,-y,-z
loop_
_atom_site_type_symbol
_atom_site_label
_atom_site_fract_x
_atom_site_fract_y
_atom_site_fract_z
Si Si1 0.110825 0.087370 0.700302
Si Si2 0.651953 0.626065 0.683337
Si Si3 0.880770 0.616572 0.853887
Si Si4 0.467636 0.138978 0.341469
Si Si5 0.814744 0.095468 0.603343
Si Si6 0.541766 0.647743 0.066719
Si Si7 0.177572 0.466564 0.477117
Si Si8 0.949380 0.479524 0.280962
O O1 0.287191 0.222351 0.768710
O O2 0.111100 0.249774 0.640975
O O3 0.000000 0.000000 0.500000
O O4 0.038888 0.879032 0.863729
O O5 0.500000 0.500000 0.500000
O O6 0.743325 0.584471 0.758301
O O7 0.587444 0.509221 0.848138
O O8 0.766885 0.889576 0.634938
O O9 0.870220 0.573440 0.711330
O O10 0.885269 0.474932 0.062089
O O11 0.636114 0.370618 0.420637
O O12 0.500000 0.000000 0.500000
O O13 0.322221 0.030941 0.347415
O O14 0.447272 0.179983 0.128071
O O15 0.821198 0.239848 0.387867
O O16 0.983344 0.308417 0.717872
O O17 0.500000 0.500000 0.000000
O O18 0.103361 0.534497 0.402106
#
# Coordination Sequence:
#
# PCOD9014723 Si02
#       8
#     2   2   2   2   2   2   2   2
#     4  10  21  41  69 100 139 178 232 290 346 414
#     4  12  26  48  72 102 144 181 235 303 352 418
#     4  11  25  42  68 102 137 186 241 283 355 429
#     4  12  24  42  69  97 138 178 232 289 346 413
#     4  11  24  45  66 100 139 181 228 295 356 410
#     4  12  24  43  74 104 133 187 241 283 351 424
#     4  11  22  44  67  99 140 185 229 295 352 416
#     4  11  25  42  67  99 143 183 233 290 358 424
#
# _framework density 21.932569999999998
#
# number of rings (size 3 to 8) (size 9 to 14) (size 15 to 20)
#    0.000    0.750    3.750    4.125    1.750    1.500 
#    2.250    1.250    0.000    0.000    0.000    0.000 
#    0.000    0.000    0.000    0.000    0.000    0.000 
#
# Total GULP energy -89318.294337 kJ/mol
# GULP energy per Si atom -5582.393396 kJ/mol
# Density = 2.188265 g / cm^3
# Si number density = 21.932570 Si / 1000 Ang^3
#
#
#
# Elastic Constant Matrix: (Units=GPa)
#
#
# Indices 1 2 3 4 5 6 
#
# 1 71.7671 21.7136 13.4444 -7.2255 -8.6654 4.9190
# 2 21.7136 91.0020 42.8302 -14.2607 -2.0898 13.9291
# 3 13.4444 42.8302 118.3788 -25.9808 -6.2775 -1.0707
# 4 -7.2255 -14.2607 -25.9808 33.1292 7.3049 -3.0692
# 5 -8.6654 -2.0898 -6.2775 7.3049 35.1461 -3.8218
# 6 4.9190 13.9291 -1.0707 -3.0692 -3.8218 30.2658
#
#
#
# Elastic Compliance Matrix: (Units=1/GPa)
#
#
# Indices 1 2 3 4 5 6 
#
# 1 0.015506 -0.003310 -0.000160 0.001054 0.003327 -0.000475
# 2 -0.003310 0.015388 -0.004957 0.001805 -0.001899 -0.006776
# 3 -0.000160 -0.004957 0.011947 0.007387 0.000652 0.003562
# 4 0.001054 0.001805 0.007387 0.038544 -0.006063 0.002402
# 5 0.003327 -0.001899 0.000652 -0.006063 0.030933 0.003647
# 6 -0.000475 -0.006776 0.003562 0.002402 0.003647 0.037067
#
#
# Mechanical properties :
#
#
# Convention : Reuss Voigt Hill
#
# Bulk Modulus (GPa) = 38.48193 48.56935 43.52564
# Shear Modulus (GPa) = 28.58733 33.25218 30.91975
#
# Velocity S-wave (km/s) = 3.61421 3.89795 3.75876
# Velocity P-wave (km/s) = 5.91611 6.51549 6.22302
#
# Compressibility (1/GPa) = 0.02598622
#
# Stress axis : x y z
#
# Youngs Moduli (GPa) = 64.49186 64.98449 83.70161
#
# Poissons Ratio (x) = 0.21511 0.01339
# Poissons Ratio (y) = 0.21348 0.41494
# Poissons Ratio (z) = 0.01032 0.32216
#
# Static dielectric constant tensor:
#      x y z
#    x 1.847990 0.020200 -0.030280 
#    y 0.020200 1.975380 -0.066830 
#    z -0.030280 -0.066830 1.824400 
# 
# From -- ./inp_files/332961.got.cif
#   From: 2010.05.17/outbox.cif.g08.bks.cpg/sg2_167_cif.got.tgz:332961.got - 2010.06.03 11:33:40.
