data_PCOD9014433
_publ_section_title
;
Structure prediction by ZEFSAII (Michael W. Deem and Ramdas Pophale) SiO2 
 PCOD9014433
Probable space group: P -1
;
_chemical_formula_sum "Si O2"
_cell_formula_units_Z 16
_cell_length_a 13.932668
_cell_length_b 12.917489
_cell_length_c 14.221811
_cell_angle_alpha 150.894130
_cell_angle_beta 30.118350
_cell_angle_gamma 147.529814
_cell_volume 582.818712
_symmetry_space_group_name_H-M "P -1"
_symmetry_group_IT_number 2
_symmetry_cell_setting 'triclinic'
loop_
_space_group_symop_operation_xyz
x,y,z
-x,-y,-z
loop_
_atom_site_type_symbol
_atom_site_label
_atom_site_fract_x
_atom_site_fract_y
_atom_site_fract_z
Si Si1 0.353304 0.984460 0.413320
Si Si2 0.444083 0.324538 0.291435
Si Si3 0.829081 0.103899 0.705651
Si Si4 0.716548 0.972708 0.979025
Si Si5 0.885941 0.249361 0.294219
Si Si6 0.896734 0.902441 0.153381
Si Si7 0.317856 0.574332 0.256067
Si Si8 0.180607 0.536690 0.789852
O O1 0.219508 0.904796 0.369740
O O2 0.313399 0.783048 0.361664
O O3 0.284550 0.168769 0.673796
O O4 0.580512 0.025340 0.217378
O O5 0.426532 0.233130 0.127883
O O6 0.290270 0.457822 0.546577
O O7 0.662179 0.473513 0.269032
O O8 0.364249 0.089486 0.234985
O O9 0.947695 0.360293 0.845552
O O10 0.000000 0.000000 0.500000
O O11 0.910578 0.921645 0.812872
O O12 0.805238 0.205071 0.028796
O O13 0.709211 0.344211 0.549637
O O14 0.822173 0.000011 0.201012
O O15 0.098672 0.382043 0.272202
O O16 0.984828 0.256657 0.113087
O O17 0.500000 0.500000 0.000000
#
# Coordination Sequence:
#
# PCOD9014433 Si02
#       8
#     2   2   2   2   2   2   2   2
#     4  11  24  42  66 101 139 174 234 293 341 417
#     4  10  22  45  62  96 143 181 236 295 341 422
#     4  10  21  41  67  97 141 186 232 295 345 414
#     4  12  24  43  68 101 141 181 231 299 348 411
#     4   9  21  42  67  93 133 177 224 274 352 425
#     4  10  22  42  66  96 133 178 223 287 349 414
#     4  10  21  41  67  98 135 177 221 284 349 413
#     4  10  22  40  69  94 131 193 233 281 364 407
#
# _framework density 27.452791000000001
#
# number of rings (size 3 to 8) (size 9 to 14) (size 15 to 20)
#    0.000    1.750    1.250    2.625    1.750    1.500 
#    6.750    3.750    0.000    0.000    0.000    0.000 
#    0.000    0.000    0.000    0.000    0.000    0.000 
#
# Total GULP energy -89379.597444 kJ/mol
# GULP energy per Si atom -5586.224840 kJ/mol
# Density = 2.739031 g / cm^3
# Si number density = 27.452791 Si / 1000 Ang^3
#
#
#
# Elastic Constant Matrix: (Units=GPa)
#
#
# Indices 1 2 3 4 5 6 
#
# 1 72.8560 10.5914 31.3752 -4.4705 -1.7651 8.0135
# 2 10.5914 63.5728 25.6637 5.8486 3.2145 -0.5204
# 3 31.3752 25.6637 213.6906 -40.3111 17.2221 5.7988
# 4 -4.4705 5.8486 -40.3111 48.6656 -0.8366 -1.2844
# 5 -1.7651 3.2145 17.2221 -0.8366 42.2551 -1.8663
# 6 8.0135 -0.5204 5.7988 -1.2844 -1.8663 40.3511
#
#
#
# Elastic Compliance Matrix: (Units=1/GPa)
#
#
# Indices 1 2 3 4 5 6 
#
# 1 0.015208 -0.001767 -0.002103 -0.000177 0.001505 -0.002677
# 2 -0.001767 0.017546 -0.002685 -0.004480 -0.000367 0.000803
# 3 -0.002103 -0.002685 0.006563 0.005510 -0.002471 -0.000499
# 4 -0.000177 -0.004480 0.005510 0.025609 -0.001408 -0.000064
# 5 0.001505 -0.000367 -0.002471 -0.001408 0.024787 0.001153
# 6 -0.002677 0.000803 -0.000499 -0.000064 0.001153 0.025447
#
#
# Mechanical properties :
#
#
# Convention : Reuss Voigt Hill
#
# Bulk Modulus (GPa) = 38.15671 53.93112 46.04392
# Shear Modulus (GPa) = 36.49495 45.08696 40.79095
#
# Velocity S-wave (km/s) = 3.65001 4.05698 3.85886
# Velocity P-wave (km/s) = 5.62962 6.45238 6.05499
#
# Compressibility (1/GPa) = 0.02620771
#
# Stress axis : x y z
#
# Youngs Moduli (GPa) = 65.75432 56.99429 152.36700
#
# Poissons Ratio (x) = 0.10068 0.32041
# Poissons Ratio (y) = 0.11616 0.40913
# Poissons Ratio (z) = 0.13827 0.15304
#
# Static dielectric constant tensor:
#      x y z
#    x 2.194800 -0.047350 0.056030 
#    y -0.047350 2.051930 -0.070390 
#    z 0.056030 -0.070390 2.215840 
# 
# From -- ./inp_files/533890.got.cif
#   From: 2010.05.17/outbox.cif.g08.bks.cpg/sg2_267_cif.got.tgz:533890.got - 2010.06.03 11:33:40.
