data_PCOD9014878
_publ_section_title
;
Structure prediction by ZEFSAII (Michael W. Deem and Ramdas Pophale) SiO2 
 PCOD9014878
Probable space group: P -1
;
_chemical_formula_sum "Si O2"
_cell_formula_units_Z 14
_cell_length_a 8.579243
_cell_length_b 18.711890
_cell_length_c 12.943003
_cell_angle_alpha 37.252369
_cell_angle_beta 34.224036
_cell_angle_gamma 63.669627
_cell_volume 549.160414
_symmetry_space_group_name_H-M "P -1"
_symmetry_group_IT_number 2
_symmetry_cell_setting 'triclinic'
loop_
_space_group_symop_operation_xyz
x,y,z
-x,-y,-z
loop_
_atom_site_type_symbol
_atom_site_label
_atom_site_fract_x
_atom_site_fract_y
_atom_site_fract_z
Si Si1 0.737710 0.451571 0.796139
Si Si2 0.660822 0.346476 0.417774
Si Si3 0.817519 0.275355 0.637773
Si Si4 0.160497 0.368212 0.772413
Si Si5 0.246713 0.191576 0.224216
Si Si6 0.568879 0.962979 0.185369
Si Si7 0.370209 0.966211 0.494396
O O1 0.000000 0.500000 0.500000
O O2 0.824099 0.594916 0.644183
O O3 0.872111 0.388132 0.876168
O O4 0.368854 0.323125 0.089285
O O5 0.771077 0.329804 0.491752
O O6 0.350377 0.361270 0.577644
O O7 0.471079 0.181215 0.662470
O O8 0.000000 0.500000 0.000000
O O9 0.513340 0.245414 0.918352
O O10 0.772786 0.121644 0.829778
O O11 0.500000 0.500000 0.500000
O O12 0.952868 0.211943 0.126487
O O13 0.844223 0.105543 0.512948
O O14 0.265045 0.071334 0.408612
O O15 0.661671 0.002555 0.209549
O O16 0.500000 0.000000 0.500000
#
# Coordination Sequence:
#
# PCOD9014878 Si02
#       7
#     2   2   2   2   2   2   2
#     4  10  22  37  69  96 123 164 228 266 317 375
#     4  12  26  39  65 100 135 173 219 271 330 383
#     4  10  21  42  66  92 127 177 220 263 316 390
#     4  12  23  42  70  93 133 170 223 273 324 385
#     4  10  21  41  69  98 125 168 224 268 322 393
#     4  11  24  42  68  98 133 173 215 264 335 398
#     4  11  22  41  70 103 128 166 224 278 322 384
#
# _framework density 25.493462000000001
#
# number of rings (size 3 to 8) (size 9 to 14) (size 15 to 20)
#    0.000    1.143    2.857    4.714    6.000    0.000 
#    0.000    1.429    6.286    0.000    0.000    0.000 
#    0.000    0.000    0.000    0.000    0.000    0.000 
#
# Total GULP energy -78356.940604 kJ/mol
# GULP energy per Si atom -5596.924329 kJ/mol
# Density = 2.543544 g / cm^3
# Si number density = 25.493462 Si / 1000 Ang^3
#
#
#
# Elastic Constant Matrix: (Units=GPa)
#
#
# Indices 1 2 3 4 5 6 
#
# 1 92.0286 29.6420 39.0577 -12.8158 23.4985 31.9552
# 2 29.6420 115.0081 27.4646 -35.2542 -5.1896 5.7099
# 3 39.0577 27.4646 138.3587 -24.1785 24.7861 4.2207
# 4 -12.8158 -35.2542 -24.1785 48.4651 0.4839 -13.4693
# 5 23.4985 -5.1896 24.7861 0.4839 32.6136 -6.3970
# 6 31.9552 5.7099 4.2207 -13.4693 -6.3970 33.6725
#
#
#
# Elastic Compliance Matrix: (Units=1/GPa)
#
#
# Indices 1 2 3 4 5 6 
#
# 1 0.042894 -0.013986 -0.002938 -0.014169 -0.040766 -0.051379
# 2 -0.013986 0.016196 -0.000565 0.012890 0.016601 0.018907
# 3 -0.002938 -0.000565 0.009755 0.004419 -0.004964 0.002486
# 4 -0.014169 0.012890 0.004419 0.036041 0.013809 0.027747
# 5 -0.040766 0.016601 -0.004964 0.013809 0.077369 0.056716
# 6 -0.051379 0.018907 0.002486 0.027747 0.056716 0.096813
#
#
# Mechanical properties :
#
#
# Convention : Reuss Voigt Hill
#
# Bulk Modulus (GPa) = 29.52681 59.74711 44.63696
# Shear Modulus (GPa) = 15.36875 39.56565 27.46720
#
# Velocity S-wave (km/s) = 2.45797 3.94381 3.28597
# Velocity P-wave (km/s) = 4.43427 6.65021 5.65190
#
# Compressibility (1/GPa) = 0.03386752
#
# Stress axis : x y z
#
# Youngs Moduli (GPa) = 23.31306 61.74243 102.51176
#
# Poissons Ratio (x) = 0.86351 0.30121
# Poissons Ratio (y) = 0.32605 0.05793
# Poissons Ratio (z) = 0.06850 0.03489
#
# Static dielectric constant tensor:
#      x y z
#    x 2.033300 0.050690 -0.021820 
#    y 0.050690 2.106070 0.011990 
#    z -0.021820 0.011990 2.031290 
# 
# From -- ./inp_files/402801.got.cif
#   From: 2010.05.17/outbox.cif.g08.bks.cpg/sg2_202_cif.got.tgz:402801.got - 2010.06.03 11:33:40.
