data_PCOD9014010
_publ_section_title
;
Structure prediction by ZEFSAII (Michael W. Deem and Ramdas Pophale) SiO2 
 PCOD9014010
Probable space group: P -1
;
_chemical_formula_sum "Si O2"
_cell_formula_units_Z 16
_cell_length_a 12.600166
_cell_length_b 8.534992
_cell_length_c 9.063236
_cell_angle_alpha 98.044704
_cell_angle_beta 115.157859
_cell_angle_gamma 61.663597
_cell_volume 774.169210
_symmetry_space_group_name_H-M "P -1"
_symmetry_group_IT_number 2
_symmetry_cell_setting 'triclinic'
loop_
_space_group_symop_operation_xyz
x,y,z
-x,-y,-z
loop_
_atom_site_type_symbol
_atom_site_label
_atom_site_fract_x
_atom_site_fract_y
_atom_site_fract_z
Si Si1 0.192593 0.725633 0.060095
Si Si2 0.648995 0.847108 0.604944
Si Si3 0.452560 0.751196 0.899525
Si Si4 0.257555 0.035048 0.029416
Si Si5 0.571044 0.578084 0.658905
Si Si6 0.864679 0.564925 0.523870
Si Si7 0.703945 0.481328 0.176480
Si Si8 0.005778 0.645378 0.132371
O O1 0.328092 0.584607 0.201362
O O2 0.078285 0.744386 0.104623
O O3 0.205046 0.898765 0.041812
O O4 0.184780 0.626865 0.893582
O O5 0.691454 0.907362 0.788039
O O6 0.638630 0.667863 0.611692
O O7 0.770225 0.772463 0.547431
O O8 0.500000 0.000000 0.500000
O O9 0.481168 0.734845 0.740623
O O10 0.372358 0.635982 0.855416
O O11 0.591500 0.657278 0.056075
O O12 0.366996 0.933944 0.957052
O O13 0.142459 0.206686 0.908600
O O14 0.500000 0.500000 0.500000
O O15 0.768341 0.516961 0.361507
O O16 0.917552 0.450369 0.688869
O O17 0.000000 0.500000 0.500000
O O18 0.000000 0.500000 0.000000
#
# Coordination Sequence:
#
# PCOD9014010 Si02
#       8
#     2   2   2   2   2   2   2   2
#     4  10  21  41  66  94 125 179 216 272 329 403
#     4  12  25  42  65  98 134 176 227 285 333 401
#     4   9  20  38  66  97 129 170 219 283 335 391
#     4  11  23  41  65  96 135 170 224 272 338 403
#     4  11  21  39  69  97 131 173 224 274 336 399
#     4  12  25  42  67  97 137 181 226 278 339 410
#     4   9  19  39  65  95 131 169 221 274 337 396
#     4  12  23  43  64  93 130 180 227 264 339 407
#
# _framework density 20.667318000000002
#
# number of rings (size 3 to 8) (size 9 to 14) (size 15 to 20)
#    0.000    1.250    2.500    4.125    0.000    2.500 
#    0.000    2.500    0.000    0.000    0.000    0.000 
#    0.000    0.000    0.000    0.000    0.000    0.000 
#
# Total GULP energy -89337.049659 kJ/mol
# GULP energy per Si atom -5583.565604 kJ/mol
# Density = 2.062028 g / cm^3
# Si number density = 20.667318 Si / 1000 Ang^3
#
#
#
# Elastic Constant Matrix: (Units=GPa)
#
#
# Indices 1 2 3 4 5 6 
#
# 1 81.9267 29.9065 29.9986 7.4942 -8.4792 -23.5443
# 2 29.9065 111.7118 54.6857 1.1789 9.8484 -28.4529
# 3 29.9986 54.6857 177.8032 13.3980 9.4774 -21.7310
# 4 7.4942 1.1789 13.3980 34.8571 0.2813 -2.3884
# 5 -8.4792 9.8484 9.4774 0.2813 25.2614 1.7242
# 6 -23.5443 -28.4529 -21.7310 -2.3884 1.7242 41.4784
#
#
#
# Elastic Compliance Matrix: (Units=1/GPa)
#
#
# Indices 1 2 3 4 5 6 
#
# 1 0.016422 -0.002685 -0.001330 -0.002547 0.006653 0.006360
# 2 -0.002685 0.013034 -0.002608 0.001620 -0.005457 0.006370
# 3 -0.001330 -0.002608 0.007071 -0.002250 -0.002134 0.001119
# 4 -0.002547 0.001620 -0.002250 0.030072 -0.000995 0.000260
# 5 0.006653 -0.005457 -0.002134 -0.000995 0.044964 -0.003011
# 6 0.006360 0.006370 0.001119 0.000260 -0.003011 0.032815
#
#
# Mechanical properties :
#
#
# Convention : Reuss Voigt Hill
#
# Bulk Modulus (GPa) = 42.95564 66.73593 54.84578
# Shear Modulus (GPa) = 30.23246 37.44277 33.83762
#
# Velocity S-wave (km/s) = 3.82883 4.26101 4.05069
# Velocity P-wave (km/s) = 6.35421 7.52123 6.96222
#
# Compressibility (1/GPa) = 0.02327983
#
# Stress axis : x y z
#
# Youngs Moduli (GPa) = 60.89211 76.72432 141.42403
#
# Poissons Ratio (x) = 0.20600 0.18815
# Poissons Ratio (y) = 0.16349 0.36887
# Poissons Ratio (z) = 0.08101 0.20012
#
# Static dielectric constant tensor:
#      x y z
#    x 1.828650 -0.029220 -0.025040 
#    y -0.029220 1.744340 0.013380 
#    z -0.025040 0.013380 1.689670 
# 
# From -- ./inp_files/245210.got.cif
#   From: 2010.05.17/outbox.cif.g08.bks.cpg/sg2_123_cif.got.tgz:245210.got - 2010.06.03 11:33:40.
