data_PCOD9014897
_publ_section_title
;
Structure prediction by ZEFSAII (Michael W. Deem and Ramdas Pophale) SiO2 
 PCOD9014897
Probable space group: P -1
;
_chemical_formula_sum "Si O2"
_cell_formula_units_Z 12
_cell_length_a 15.816817
_cell_length_b 13.797723
_cell_length_c 9.766819
_cell_angle_alpha 27.497834
_cell_angle_beta 146.276627
_cell_angle_gamma 149.302345
_cell_volume 480.401631
_symmetry_space_group_name_H-M "P -1"
_symmetry_group_IT_number 2
_symmetry_cell_setting 'triclinic'
loop_
_space_group_symop_operation_xyz
x,y,z
-x,-y,-z
loop_
_atom_site_type_symbol
_atom_site_label
_atom_site_fract_x
_atom_site_fract_y
_atom_site_fract_z
Si Si1 0.303416 0.055338 0.977631
Si Si2 0.382620 0.947696 0.746714
Si Si3 0.019094 0.822521 0.352744
Si Si4 0.882400 0.214711 0.190994
Si Si5 0.515440 0.511469 0.841929
Si Si6 0.188697 0.598287 0.566110
O O1 0.475481 0.104587 0.063345
O O2 0.274717 0.869648 0.293420
O O3 0.152500 0.916552 0.836394
O O4 0.352615 0.305915 0.800844
O O5 0.444165 0.228064 0.475295
O O6 0.303244 0.842510 0.919983
O O7 0.204443 0.833184 0.561083
O O8 0.040722 0.891140 0.455995
O O9 0.318739 0.531393 0.904635
O O10 0.862921 0.561625 0.442862
O O11 0.000000 0.000000 0.000000
O O12 0.000000 0.500000 0.000000
O O13 0.500000 0.500000 0.000000
O O14 0.000000 0.500000 0.500000
#
# Coordination Sequence:
#
# PCOD9014897 Si02
#       6
#     2   2   2   2   2   2
#     4  12  24  44  71 101 146 190 245 290 370 434
#     4  10  23  43  71 103 141 189 239 296 360 428
#     4  10  21  41  69  98 141 184 239 294 355 418
#     4  10  22  43  72 104 143 194 234 301 367 428
#     4  12  26  43  69 106 147 189 241 302 360 427
#     4  12  24  40  70 102 142 187 244 297 358 427
#
# _framework density 24.979099000000001
#
# number of rings (size 3 to 8) (size 9 to 14) (size 15 to 20)
#    1.000    0.000    5.000    2.000    2.333    0.667 
#    0.000    0.000    0.000    7.000    0.000    0.000 
#    0.000    0.000    0.000    0.000    0.000    0.000 
#
# Total GULP energy -67106.383935 kJ/mol
# GULP energy per Si atom -5592.198661 kJ/mol
# Density = 2.492224 g / cm^3
# Si number density = 24.979099 Si / 1000 Ang^3
#
#
#
# Elastic Constant Matrix: (Units=GPa)
#
#
# Indices 1 2 3 4 5 6 
#
# 1 125.2540 27.7086 12.8885 -3.3577 -7.5526 -0.4821
# 2 27.7086 181.5514 42.0607 -13.2006 -1.3550 -27.0580
# 3 12.8885 42.0607 80.8295 -4.7449 -14.9199 -10.1856
# 4 -3.3577 -13.2006 -4.7449 61.2403 7.7460 -1.1652
# 5 -7.5526 -1.3550 -14.9199 7.7460 31.0098 3.2014
# 6 -0.4821 -27.0580 -10.1856 -1.1652 3.2014 39.1219
#
#
#
# Elastic Compliance Matrix: (Units=1/GPa)
#
#
# Indices 1 2 3 4 5 6 
#
# 1 0.008435 -0.001346 -0.000434 -0.000127 0.001932 -0.001102
# 2 -0.001346 0.007245 -0.003369 0.001625 -0.002489 0.004369
# 3 -0.000434 -0.003369 0.015653 -0.000435 0.007270 0.001132
# 4 -0.000127 0.001625 -0.000435 0.017267 -0.004679 0.001906
# 5 0.001932 -0.002489 0.007270 -0.004679 0.037588 -0.003020
# 6 -0.001102 0.004369 0.001132 0.001906 -0.003020 0.029168
#
#
# Mechanical properties :
#
#
# Convention : Reuss Voigt Hill
#
# Bulk Modulus (GPa) = 47.53987 61.43896 54.48941
# Shear Modulus (GPa) = 37.68895 46.60620 42.14757
#
# Velocity S-wave (km/s) = 3.88857 4.32419 4.11215
# Velocity P-wave (km/s) = 6.26374 7.04138 6.66391
#
# Compressibility (1/GPa) = 0.02103498
#
# Stress axis : x y z
#
# Youngs Moduli (GPa) = 118.55317 138.03334 63.88551
#
# Poissons Ratio (x) = 0.18575 0.02775
# Poissons Ratio (y) = 0.15954 0.21521
# Poissons Ratio (z) = 0.05150 0.46500
#
# Static dielectric constant tensor:
#      x y z
#    x 2.081670 -0.045490 0.030820 
#    y -0.045490 1.922100 0.163870 
#    z 0.030820 0.163870 1.872240 
# 
# From -- ./inp_files/302169.got.cif
#   From: 2010.05.17/outbox.cif.g08.bks.cpg/sg2_152_cif.got.tgz:302169.got - 2010.06.03 11:33:40.
