data_PCOD9014323
_publ_section_title
;
Structure prediction by ZEFSAII (Michael W. Deem and Ramdas Pophale) SiO2 
 PCOD9014323
Probable space group: P -1
;
_chemical_formula_sum "Si O2"
_cell_formula_units_Z 16
_cell_length_a 11.419133
_cell_length_b 5.297939
_cell_length_c 17.670511
_cell_angle_alpha 81.291363
_cell_angle_beta 140.113126
_cell_angle_gamma 97.857001
_cell_volume 677.281110
_symmetry_space_group_name_H-M "P -1"
_symmetry_group_IT_number 2
_symmetry_cell_setting 'triclinic'
loop_
_space_group_symop_operation_xyz
x,y,z
-x,-y,-z
loop_
_atom_site_type_symbol
_atom_site_label
_atom_site_fract_x
_atom_site_fract_y
_atom_site_fract_z
Si Si1 0.275910 0.962436 0.802240
Si Si2 0.139333 0.839239 0.026505
Si Si3 0.803676 0.532266 0.440461
Si Si4 0.237696 0.377067 0.184569
Si Si5 0.503191 0.674783 0.808522
Si Si6 0.364523 0.744858 0.006672
Si Si7 0.384333 0.252708 0.426321
Si Si8 0.860549 0.996653 0.560029
O O1 0.369908 0.854112 0.779182
O O2 0.076016 0.044263 0.677804
O O3 0.421665 0.170648 0.897613
O O4 0.270420 0.760363 0.878138
O O5 0.979479 0.664388 0.914557
O O6 0.264363 0.916586 0.012883
O O7 0.349601 0.217810 0.184315
O O8 0.000000 0.000000 0.000000
O O9 0.637146 0.511392 0.299753
O O10 0.815711 0.802038 0.477479
O O11 0.000000 0.500000 0.500000
O O12 0.778780 0.276004 0.492250
O O13 0.255114 0.663446 0.147547
O O14 0.322629 0.317380 0.308921
O O15 0.623086 0.527624 0.935671
O O16 0.500000 0.500000 0.500000
O O17 0.215224 0.167771 0.399389
O O18 0.500000 0.000000 0.500000
#
# Coordination Sequence:
#
# PCOD9014323 Si02
#       8
#     2   2   2   2   2   2   2   2
#     4  11  23  40  65  95 133 172 221 280 351 409
#     4  10  21  41  67  94 131 176 230 289 342 413
#     4  12  25  45  71 106 141 182 234 283 351 416
#     4  10  23  41  65  98 127 179 233 283 347 411
#     4  11  22  40  66  92 132 172 222 286 340 412
#     4  10  23  41  61  98 130 172 224 275 349 414
#     4  12  27  49  70 104 144 188 236 289 350 420
#     4  12  26  46  72 104 140 185 231 289 349 416
#
# _framework density 23.623867000000001
#
# number of rings (size 3 to 8) (size 9 to 14) (size 15 to 20)
#    0.000    1.000    1.250    5.250    3.500    0.000 
#    2.250    0.000    0.000    0.000    0.000    0.000 
#    0.000    0.000    0.000    0.000    0.000    0.000 
#
# Total GULP energy -89409.236406 kJ/mol
# GULP energy per Si atom -5588.077275 kJ/mol
# Density = 2.357010 g / cm^3
# Si number density = 23.623867 Si / 1000 Ang^3
#
#
#
# Elastic Constant Matrix: (Units=GPa)
#
#
# Indices 1 2 3 4 5 6 
#
# 1 117.4901 10.5679 23.3368 -11.6505 3.5567 10.9592
# 2 10.5679 99.1527 33.1771 -12.5697 -4.2555 5.0794
# 3 23.3368 33.1771 119.4896 -29.2644 -7.9792 7.8715
# 4 -11.6505 -12.5697 -29.2644 25.8511 12.0567 3.5617
# 5 3.5567 -4.2555 -7.9792 12.0567 45.5062 -3.7426
# 6 10.9592 5.0794 7.8715 3.5617 -3.7426 36.3218
#
#
#
# Elastic Compliance Matrix: (Units=1/GPa)
#
#
# Indices 1 2 3 4 5 6 
#
# 1 0.009560 -0.000109 -0.000438 0.005452 -0.002573 -0.003574
# 2 -0.000109 0.011322 -0.002257 0.003236 -0.000302 -0.001410
# 3 -0.000438 -0.002257 0.012821 0.014785 -0.002175 -0.004005
# 4 0.005452 0.003236 0.014785 0.069303 -0.017032 -0.013853
# 5 -0.002573 -0.000302 -0.002175 -0.017032 0.026749 0.005716
# 6 -0.003574 -0.001410 -0.004005 -0.013853 0.005716 0.031622
#
#
# Mechanical properties :
#
#
# Convention : Reuss Voigt Hill
#
# Bulk Modulus (GPa) = 35.59326 52.25510 43.92418
# Shear Modulus (GPa) = 28.35279 39.47253 33.91266
#
# Velocity S-wave (km/s) = 3.46811 4.09207 3.79294
# Velocity P-wave (km/s) = 5.58000 6.67041 6.14942
#
# Compressibility (1/GPa) = 0.02809521
#
# Stress axis : x y z
#
# Youngs Moduli (GPa) = 104.60221 88.32550 77.99856
#
# Poissons Ratio (x) = 0.00958 0.03417
# Poissons Ratio (y) = 0.01135 0.17605
# Poissons Ratio (z) = 0.04582 0.19936
#
# Static dielectric constant tensor:
#      x y z
#    x 1.978910 0.025040 -0.014980 
#    y 0.025040 2.056870 0.076460 
#    z -0.014980 0.076460 1.874670 
# 
# From -- ./inp_files/564130.got.cif
#   From: 2010.05.17/outbox.cif.g08.bks.cpg/sg2_283_cif.got.tgz:564130.got - 2010.06.03 11:33:40.
