data_PCOD9014374
_publ_section_title
;
Structure prediction by ZEFSAII (Michael W. Deem and Ramdas Pophale) SiO2 
 PCOD9014374
Probable space group: P -1
;
_chemical_formula_sum "Si O2"
_cell_formula_units_Z 16
_cell_length_a 6.410217
_cell_length_b 15.187841
_cell_length_c 19.281986
_cell_angle_alpha 151.881775
_cell_angle_beta 82.531539
_cell_angle_gamma 108.281775
_cell_volume 793.660486
_symmetry_space_group_name_H-M "P -1"
_symmetry_group_IT_number 2
_symmetry_cell_setting 'triclinic'
loop_
_space_group_symop_operation_xyz
x,y,z
-x,-y,-z
loop_
_atom_site_type_symbol
_atom_site_label
_atom_site_fract_x
_atom_site_fract_y
_atom_site_fract_z
Si Si1 0.028542 0.732956 0.165717
Si Si2 0.240206 0.138208 0.624402
Si Si3 0.176708 0.018616 0.065089
Si Si4 0.501346 0.911108 0.539018
Si Si5 0.332554 0.704390 0.772014
Si Si6 0.409129 0.666557 0.593168
Si Si7 0.088895 0.007678 0.222861
Si Si8 0.892033 0.320466 0.498338
O O1 0.827300 0.732962 0.226413
O O2 0.273612 0.900899 0.305430
O O3 0.014522 0.819298 0.149379
O O4 0.000000 0.500000 0.000000
O O5 0.351313 0.007957 0.570968
O O6 0.414939 0.219923 0.608468
O O7 0.000000 0.000000 0.500000
O O8 0.395719 0.239660 0.195962
O O9 0.080525 0.981166 0.121400
O O10 0.273015 0.848863 0.926178
O O11 0.000000 0.000000 0.000000
O O12 0.320950 0.763530 0.498772
O O13 0.326916 0.752629 0.723705
O O14 0.134066 0.475764 0.629468
O O15 0.500000 0.500000 0.500000
O O16 0.636082 0.848214 0.676823
O O17 0.196071 0.578558 0.488925
O O18 0.941008 0.134328 0.336641
#
# Coordination Sequence:
#
# PCOD9014374 Si02
#       8
#     2   2   2   2   2   2   2   2
#     4  11  23  44  67  95 131 171 223 279 336 399
#     4   9  20  42  67  89 126 169 209 272 334 390
#     4  10  23  43  60  87 141 173 213 257 326 391
#     4  10  21  41  67  96 125 169 212 277 332 385
#     4  10  23  38  61  91 124 177 207 256 317 389
#     4  11  22  37  64  97 127 164 215 268 324 380
#     4  11  23  41  64  95 127 173 220 276 324 387
#     4  12  22  38  68  98 126 159 230 267 322 392
#
# _framework density 20.159754
#
# number of rings (size 3 to 8) (size 9 to 14) (size 15 to 20)
#    0.000    1.500    3.750    1.125    3.500    0.500 
#    6.750    0.000    0.000    0.000    0.000    0.000 
#    0.000    0.000    0.000    0.000    0.000    0.000 
#
# Total GULP energy -89165.955533 kJ/mol
# GULP energy per Si atom -5572.872221 kJ/mol
# Density = 2.011387 g / cm^3
# Si number density = 20.159754 Si / 1000 Ang^3
#
#
#
# Elastic Constant Matrix: (Units=GPa)
#
#
# Indices 1 2 3 4 5 6 
#
# 1 97.6215 66.2720 45.9133 -13.3368 4.0142 6.1377
# 2 66.2720 135.2562 68.6675 -18.1363 -10.5215 25.8224
# 3 45.9133 68.6675 94.4532 -11.4778 -12.1872 11.3213
# 4 -13.3368 -18.1363 -11.4778 30.3903 2.7807 -7.1285
# 5 4.0142 -10.5215 -12.1872 2.7807 43.6929 -12.2231
# 6 6.1377 25.8224 11.3213 -7.1285 -12.2231 42.5790
#
#
#
# Elastic Compliance Matrix: (Units=1/GPa)
#
#
# Indices 1 2 3 4 5 6 
#
# 1 0.016996 -0.006710 -0.003773 0.002849 -0.003853 0.001994
# 2 -0.006710 0.015858 -0.007172 0.002306 0.000554 -0.006198
# 3 -0.003773 -0.007172 0.018090 0.000853 0.003995 0.001373
# 4 0.002849 0.002306 0.000853 0.036840 -0.000715 0.003927
# 5 -0.003853 0.000554 0.003995 -0.000715 0.026384 0.006611
# 6 0.001994 -0.006198 0.001373 0.003927 0.006611 0.029147
#
#
# Mechanical properties :
#
#
# Convention : Reuss Voigt Hill
#
# Bulk Modulus (GPa) = 63.96952 76.55960 70.26456
# Shear Modulus (GPa) = 27.19776 33.09764 30.14770
#
# Velocity S-wave (km/s) = 3.67701 4.05627 3.87129
# Velocity P-wave (km/s) = 7.05885 7.74575 7.41026
#
# Compressibility (1/GPa) = 0.01563244
#
# Stress axis : x y z
#
# Youngs Moduli (GPa) = 58.83711 63.05918 55.27835
#
# Poissons Ratio (x) = 0.42315 0.20858
# Poissons Ratio (y) = 0.39482 0.39648
# Poissons Ratio (z) = 0.22201 0.45229
#
# Static dielectric constant tensor:
#      x y z
#    x 1.735920 0.013870 0.009580 
#    y 0.013870 1.738450 -0.025850 
#    z 0.009580 -0.025850 1.762380 
# 
# From -- ./inp_files/340357.got.cif
#   From: 2010.05.17/outbox.cif.g08.bks.cpg/sg2_171_cif.got.tgz:340357.got - 2010.06.03 11:33:40.
