data_PCOD9014460
_publ_section_title
;
Structure prediction by ZEFSAII (Michael W. Deem and Ramdas Pophale) SiO2 
 PCOD9014460
Probable space group: P -1
;
_chemical_formula_sum "Si O2"
_cell_formula_units_Z 14
_cell_length_a 17.653748
_cell_length_b 5.400643
_cell_length_c 26.266122
_cell_angle_alpha 104.270221
_cell_angle_beta 15.585302
_cell_angle_gamma 102.778168
_cell_volume 650.792158
_symmetry_space_group_name_H-M "P -1"
_symmetry_group_IT_number 2
_symmetry_cell_setting 'triclinic'
loop_
_space_group_symop_operation_xyz
x,y,z
-x,-y,-z
loop_
_atom_site_type_symbol
_atom_site_label
_atom_site_fract_x
_atom_site_fract_y
_atom_site_fract_z
Si Si1 0.732117 0.952539 0.033984
Si Si2 0.520512 0.088082 0.284069
Si Si3 0.808015 0.467519 0.173428
Si Si4 0.358108 0.282247 0.112391
Si Si5 0.830378 0.444812 0.274851
Si Si6 0.612070 0.400288 0.058620
Si Si7 0.280554 0.637875 0.472322
O O1 0.567041 0.691299 0.122485
O O2 0.716664 0.043746 0.106287
O O3 0.598976 0.174691 0.096131
O O4 0.050901 0.848906 0.807960
O O5 0.699870 0.182696 0.220572
O O6 0.311869 0.338617 0.420934
O O7 0.371282 0.833316 0.380632
O O8 0.910398 0.497112 0.165989
O O9 0.520933 0.645018 0.360267
O O10 0.000000 0.500000 0.000000
O O11 0.405720 0.354971 0.143825
O O12 0.035195 0.285374 0.304479
O O13 0.500000 0.500000 0.000000
O O14 0.500000 0.000000 0.000000
O O15 0.500000 0.500000 0.500000
O O16 0.049043 0.601501 0.174735
#
# Coordination Sequence:
#
# PCOD9014460 Si02
#       7
#     2   2   2   2   2   2   2
#     4  10  21  42  65  94 137 172 213 276 347 395
#     4  10  21  41  67  99 135 169 230 275 330 406
#     4  10  22  40  70  98 137 180 226 278 335 403
#     4  12  26  46  72  91 134 182 228 281 337 410
#     4  10  24  39  65  97 137 177 223 279 345 401
#     4  10  24  42  63  95 130 171 223 269 349 392
#     4  10  24  40  66 102 127 168 242 272 335 391
#
# _framework density 21.512243999999999
#
# number of rings (size 3 to 8) (size 9 to 14) (size 15 to 20)
#    1.714    0.000    0.000    4.286    2.000    4.000 
#    0.000    4.286    0.000    0.000    0.000    0.000 
#    0.000    0.000    0.000    0.000    0.000    0.000 
#
# Total GULP energy -77980.602056 kJ/mol
# GULP energy per Si atom -5570.043004 kJ/mol
# Density = 2.146328 g / cm^3
# Si number density = 21.512244 Si / 1000 Ang^3
#
#
#
# Elastic Constant Matrix: (Units=GPa)
#
#
# Indices 1 2 3 4 5 6 
#
# 1 57.0430 30.7652 3.6881 -4.5376 -4.3313 -9.1578
# 2 30.7652 125.8921 -1.7512 11.3188 -3.1421 -24.6633
# 3 3.6881 -1.7512 50.3579 8.5633 -15.4029 -14.8499
# 4 -4.5376 11.3188 8.5633 28.1490 -3.8373 5.8856
# 5 -4.3313 -3.1421 -15.4029 -3.8373 21.4143 -1.0447
# 6 -9.1578 -24.6633 -14.8499 5.8856 -1.0447 31.9653
#
#
#
# Elastic Compliance Matrix: (Units=1/GPa)
#
#
# Indices 1 2 3 4 5 6 
#
# 1 0.021617 -0.006028 -0.002286 0.007180 0.003094 -0.000741
# 2 -0.006028 0.013873 0.009540 -0.011896 0.006318 0.015805
# 3 -0.002286 0.009540 0.041390 -0.019237 0.028745 0.030415
# 4 0.007180 -0.011896 -0.019237 0.051884 -0.006092 -0.025810
# 5 0.003094 0.006318 0.028745 -0.006092 0.068932 0.022489
# 6 -0.000741 0.015805 0.030415 -0.025810 0.022489 0.062884
#
#
# Mechanical properties :
#
#
# Convention : Reuss Voigt Hill
#
# Bulk Modulus (GPa) = 12.60538 33.18855 22.89697
# Shear Modulus (GPa) = 17.57036 29.67845 23.62441
#
# Velocity S-wave (km/s) = 2.86100 3.71834 3.31748
# Velocity P-wave (km/s) = 4.09709 5.82202 5.03399
#
# Compressibility (1/GPa) = 0.07933122
#
# Stress axis : x y z
#
# Youngs Moduli (GPa) = 46.26063 72.08387 24.16069
#
# Poissons Ratio (x) = 0.43452 0.05523
# Poissons Ratio (y) = 0.27886 -0.23049
# Poissons Ratio (z) = 0.10575 -0.68768
#
# Static dielectric constant tensor:
#      x y z
#    x 1.876980 0.015430 -0.033150 
#    y 0.015430 1.851650 -0.039900 
#    z -0.033150 -0.039900 1.836890 
# 
# From -- ./inp_files/623987.got.cif
#   From: 2010.05.17/outbox.cif.g08.bks.cpg/sg2_312_cif.got.tgz:623987.got - 2010.06.03 11:33:40.
