data_PCOD9014489
_publ_section_title
;
Structure prediction by ZEFSAII (Michael W. Deem and Ramdas Pophale) SiO2 
 PCOD9014489
Probable space group: P -1
;
_chemical_formula_sum "Si O2"
_cell_formula_units_Z 16
_cell_length_a 15.800817
_cell_length_b 12.169816
_cell_length_c 9.068291
_cell_angle_alpha 38.993041
_cell_angle_beta 97.525905
_cell_angle_gamma 127.979453
_cell_volume 617.418579
_symmetry_space_group_name_H-M "P -1"
_symmetry_group_IT_number 2
_symmetry_cell_setting 'triclinic'
loop_
_space_group_symop_operation_xyz
x,y,z
-x,-y,-z
loop_
_atom_site_type_symbol
_atom_site_label
_atom_site_fract_x
_atom_site_fract_y
_atom_site_fract_z
Si Si1 0.001559 0.790332 0.908492
Si Si2 0.740579 0.980016 0.191460
Si Si3 0.159402 0.797376 0.353859
Si Si4 0.189705 0.620320 0.978946
Si Si5 0.603112 0.286828 0.938929
Si Si6 0.425594 0.206201 0.213147
Si Si7 0.091207 0.057528 0.091103
Si Si8 0.436721 0.655366 0.456863
O O1 0.920107 0.516394 0.289060
O O2 0.947873 0.645383 0.884844
O O3 0.177695 0.062358 0.701637
O O4 0.938906 0.875127 0.844007
O O5 0.563651 0.720948 0.443120
O O6 0.730616 0.645002 0.208819
O O7 0.823426 0.244993 0.050592
O O8 0.781008 0.097007 0.910455
O O9 0.055794 0.792931 0.359736
O O10 0.299363 0.051826 0.229512
O O11 0.238624 0.534830 0.172222
O O12 0.332698 0.922621 0.596736
O O13 0.544791 0.294295 0.057746
O O14 0.500617 0.942068 0.240609
O O15 0.582133 0.356593 0.710400
O O16 0.500000 0.500000 0.000000
O O17 0.000000 0.000000 0.000000
#
# Coordination Sequence:
#
# PCOD9014489 Si02
#       8
#     2   2   2   2   2   2   2   2
#     4  11  25  48  71  97 148 180 233 281 349 418
#     4  11  22  44  72 101 132 187 230 290 338 405
#     4  11  25  44  72  99 138 187 231 283 345 410
#     4  10  24  39  70  97 134 185 228 280 353 407
#     4  10  21  41  68 101 134 179 228 286 347 395
#     4  11  24  40  61 100 143 181 220 285 352 409
#     4  12  27  43  70 107 136 184 227 283 349 414
#     4  10  23  40  72 104 134 169 239 288 333 406
#
# _framework density 25.914348
#
# number of rings (size 3 to 8) (size 9 to 14) (size 15 to 20)
#    0.000    1.250    2.500    2.625    8.750    1.500 
#    0.000    0.000    0.000    3.000    0.000    0.000 
#    0.000    0.000    0.000    0.000    0.000    0.000 
#
# Total GULP energy -89727.083134 kJ/mol
# GULP energy per Si atom -5607.942696 kJ/mol
# Density = 2.585537 g / cm^3
# Si number density = 25.914348 Si / 1000 Ang^3
#
#
#
# Elastic Constant Matrix: (Units=GPa)
#
#
# Indices 1 2 3 4 5 6 
#
# 1 129.7130 34.8974 36.6536 -12.4417 -6.8077 -6.3347
# 2 34.8974 173.1519 19.5753 -12.3746 1.2253 2.3561
# 3 36.6536 19.5753 97.6348 -10.0700 -13.2364 -3.7813
# 4 -12.4417 -12.3746 -10.0700 35.2722 3.7509 0.8697
# 5 -6.8077 1.2253 -13.2364 3.7509 37.3398 -10.3866
# 6 -6.3347 2.3561 -3.7813 0.8697 -10.3866 63.8324
#
#
#
# Elastic Compliance Matrix: (Units=1/GPa)
#
#
# Indices 1 2 3 4 5 6 
#
# 1 0.009146 -0.001412 -0.002822 0.001820 0.000779 0.000895
# 2 -0.001412 0.006274 -0.000727 0.001622 -0.001053 -0.000608
# 3 -0.002822 -0.000727 0.012211 0.001788 0.003962 0.001090
# 4 0.001820 0.001622 0.001788 0.030330 -0.002290 -0.000559
# 5 0.000779 -0.001053 0.003962 -0.002290 0.030059 0.005273
# 6 0.000895 -0.000608 0.001090 -0.000559 0.005273 0.016707
#
#
# Mechanical properties :
#
#
# Convention : Reuss Voigt Hill
#
# Bulk Modulus (GPa) = 56.46946 64.75025 60.60985
# Shear Modulus (GPa) = 41.47590 47.91377 44.69483
#
# Velocity S-wave (km/s) = 4.00496 4.30458 4.15747
# Velocity P-wave (km/s) = 6.57453 7.05311 6.81802
#
# Compressibility (1/GPa) = 0.01770869
#
# Stress axis : x y z
#
# Youngs Moduli (GPa) = 109.33909 159.39657 81.89179
#
# Poissons Ratio (x) = 0.22504 0.23113
# Poissons Ratio (y) = 0.15437 0.05952
# Poissons Ratio (z) = 0.30860 0.11585
#
# Static dielectric constant tensor:
#      x y z
#    x 2.001140 -0.013180 0.019400 
#    y -0.013180 2.001080 -0.023230 
#    z 0.019400 -0.023230 2.116390 
# 
# From -- ./inp_files/327132.got.cif
#   From: 2010.05.17/outbox.cif.g08.bks.cpg/sg2_164_cif.got.tgz:327132.got - 2010.06.03 11:33:40.
