data_PCOD9014631
_publ_section_title
;
Structure prediction by ZEFSAII (Michael W. Deem and Ramdas Pophale) SiO2 
 PCOD9014631
Probable space group: P -1
;
_chemical_formula_sum "Si O2"
_cell_formula_units_Z 16
_cell_length_a 14.521151
_cell_length_b 9.109917
_cell_length_c 15.515703
_cell_angle_alpha 30.138931
_cell_angle_beta 44.114924
_cell_angle_gamma 47.461045
_cell_volume 708.371750
_symmetry_space_group_name_H-M "P -1"
_symmetry_group_IT_number 2
_symmetry_cell_setting 'triclinic'
loop_
_space_group_symop_operation_xyz
x,y,z
-x,-y,-z
loop_
_atom_site_type_symbol
_atom_site_label
_atom_site_fract_x
_atom_site_fract_y
_atom_site_fract_z
Si Si1 0.609550 0.306987 0.107996
Si Si2 0.527953 0.273171 0.517385
Si Si3 0.729221 0.808970 0.690251
Si Si4 0.887876 0.970654 0.160209
Si Si5 0.885343 0.920420 0.679060
Si Si6 0.025075 0.609754 0.522241
Si Si7 0.884973 0.446589 0.039286
Si Si8 0.433983 0.348117 0.862927
O O1 0.755112 0.159603 0.117453
O O2 0.545961 0.494446 0.138573
O O3 0.550448 0.007441 0.279023
O O4 0.637917 0.549308 0.893975
O O5 0.500000 0.500000 0.500000
O O6 0.507706 0.461253 0.348033
O O7 0.676782 0.084953 0.524004
O O8 0.749530 0.941300 0.705128
O O9 0.875912 0.670016 0.631501
O O10 0.902079 0.103475 0.178914
O O11 0.886928 0.630201 0.353943
O O12 0.000000 0.000000 0.000000
O O13 0.923133 0.586111 0.852701
O O14 0.000000 0.000000 0.500000
O O15 0.897780 0.110487 0.659990
O O16 0.000000 0.500000 0.500000
O O17 0.728063 0.595617 0.079287
O O18 0.000000 0.500000 0.000000
O O19 0.500000 0.000000 0.000000
#
# Coordination Sequence:
#
# PCOD9014631 Si02
#       8
#     2   2   2   2   2   2   2   2
#     4  11  24  49  73  97 144 189 237 293 347 426
#     4  12  29  46  73 104 135 185 251 290 349 423
#     4  11  23  47  67 101 142 187 229 290 348 422
#     4  11  21  41  67 100 135 179 224 278 364 414
#     4  10  21  41  68  95 138 183 219 284 353 416
#     4  11  24  39  66 105 141 172 229 287 350 419
#     4  11  24  42  70 103 141 175 232 291 350 420
#     4  11  26  50  75 102 145 190 237 294 362 425
#
# _framework density 22.587011
#
# number of rings (size 3 to 8) (size 9 to 14) (size 15 to 20)
#    0.000    1.000    3.750    3.000    8.750    1.000 
#    6.750    0.000    0.000    0.000    0.000    0.000 
#    0.000    0.000    0.000    0.000    0.000    0.000 
#
# Total GULP energy -89202.969503 kJ/mol
# GULP energy per Si atom -5575.185594 kJ/mol
# Density = 2.253560 g / cm^3
# Si number density = 22.587011 Si / 1000 Ang^3
#
#
#
# Elastic Constant Matrix: (Units=GPa)
#
#
# Indices 1 2 3 4 5 6 
#
# 1 64.9881 25.6416 26.9417 -14.1000 -13.8242 15.1083
# 2 25.6416 114.2983 43.1440 -20.4930 -5.8454 10.2354
# 3 26.9417 43.1440 132.0970 -24.5956 4.8695 0.2443
# 4 -14.1000 -20.4930 -24.5956 35.3407 -1.6647 3.4820
# 5 -13.8242 -5.8454 4.8695 -1.6647 46.9153 -10.6695
# 6 15.1083 10.2354 0.2443 3.4820 -10.6695 28.0057
#
#
#
# Elastic Compliance Matrix: (Units=1/GPa)
#
#
# Indices 1 2 3 4 5 6 
#
# 1 0.022117 -0.001405 -0.002841 0.007287 0.004487 -0.010590
# 2 -0.001405 0.011195 -0.002536 0.004553 0.000574 -0.003659
# 3 -0.002841 -0.002536 0.009786 0.004005 -0.001752 0.001209
# 4 0.007287 0.004553 0.004005 0.037660 0.001412 -0.009774
# 5 0.004487 0.000574 -0.001752 0.001412 0.024422 0.006514
# 6 -0.010590 -0.003659 0.001209 -0.009774 0.006514 0.046443
#
#
# Mechanical properties :
#
#
# Convention : Reuss Voigt Hill
#
# Bulk Modulus (GPa) = 33.86027 55.87087 44.86557
# Shear Modulus (GPa) = 28.56608 36.42943 32.49776
#
# Velocity S-wave (km/s) = 3.56014 4.02039 3.79724
# Velocity P-wave (km/s) = 5.65005 6.80741 6.25555
#
# Compressibility (1/GPa) = 0.02953314
#
# Stress axis : x y z
#
# Youngs Moduli (GPa) = 45.21430 89.32527 102.18641
#
# Poissons Ratio (x) = 0.12551 0.29031
# Poissons Ratio (y) = 0.06353 0.25919
# Poissons Ratio (z) = 0.12845 0.22656
#
# Static dielectric constant tensor:
#      x y z
#    x 2.041430 0.044320 0.062910 
#    y 0.044320 1.757160 0.215200 
#    z 0.062910 0.215200 1.620240 
# 
# From -- ./inp_files/529220.got.cif
#   From: 2010.05.17/outbox.cif.g08.bks.cpg/sg2_265_cif.got.tgz:529220.got - 2010.06.03 11:33:40.
