data_PCOD9014109
_publ_section_title
;
Structure prediction by ZEFSAII (Michael W. Deem and Ramdas Pophale) SiO2 
 PCOD9014109
Probable space group: P -1
;
_chemical_formula_sum "Si O2"
_cell_formula_units_Z 16
_cell_length_a 19.126349
_cell_length_b 11.782864
_cell_length_c 8.015859
_cell_angle_alpha 76.966011
_cell_angle_beta 105.950040
_cell_angle_gamma 156.994469
_cell_volume 677.019214
_symmetry_space_group_name_H-M "P -1"
_symmetry_group_IT_number 2
_symmetry_cell_setting 'triclinic'
loop_
_space_group_symop_operation_xyz
x,y,z
-x,-y,-z
loop_
_atom_site_type_symbol
_atom_site_label
_atom_site_fract_x
_atom_site_fract_y
_atom_site_fract_z
Si Si1 0.239250 0.779958 0.143766
Si Si2 0.812424 0.659403 0.030168
Si Si3 0.179571 0.682292 0.770975
Si Si4 0.997172 0.868562 0.387318
Si Si5 0.482576 0.607691 0.893068
Si Si6 0.312980 0.450883 0.516784
Si Si7 0.973739 0.332158 0.415028
Si Si8 0.568845 0.177892 0.757244
O O1 0.119938 0.594932 0.292106
O O2 0.337909 0.048061 0.095207
O O3 0.130340 0.596129 0.961071
O O4 0.385168 0.889025 0.220881
O O5 0.888428 0.679881 0.210853
O O6 0.668078 0.540415 0.050115
O O7 0.717597 0.449184 0.891017
O O8 0.000000 0.000000 0.000000
O O9 0.036684 0.442808 0.610712
O O10 0.204757 0.858103 0.686595
O O11 0.371272 0.902814 0.795916
O O12 0.852107 0.742256 0.416029
O O13 0.029392 0.810426 0.554415
O O14 0.198275 0.215993 0.376692
O O15 0.425763 0.534169 0.684892
O O16 0.500000 0.500000 0.000000
O O17 0.418966 0.718267 0.428314
#
# Coordination Sequence:
#
# PCOD9014109 Si02
#       8
#     2   2   2   2   2   2   2   2
#     4  12  25  46  75 100 142 189 231 296 348 418
#     4  11  23  45  70 104 138 179 232 292 347 416
#     4  11  26  44  67 106 142 177 235 293 352 412
#     4  10  21  41  66  97 135 181 228 279 338 414
#     4  11  27  47  67 102 139 181 237 286 351 422
#     4  10  22  40  68  97 132 180 227 281 342 411
#     4  11  25  46  68 103 143 186 233 285 352 425
#     4  12  23  44  72 107 134 180 240 284 353 417
#
# _framework density 23.633006999999999
#
# number of rings (size 3 to 8) (size 9 to 14) (size 15 to 20)
#    0.000    1.000    3.750    2.250    5.250    1.000 
#    9.000    1.250    0.000    0.000    0.000    0.000 
#    0.000    0.000    0.000    0.000    0.000    0.000 
#
# Total GULP energy -89368.216007 kJ/mol
# GULP energy per Si atom -5585.513500 kJ/mol
# Density = 2.357922 g / cm^3
# Si number density = 23.633007 Si / 1000 Ang^3
#
#
#
# Elastic Constant Matrix: (Units=GPa)
#
#
# Indices 1 2 3 4 5 6 
#
# 1 91.3754 16.8150 44.7324 -1.1348 31.8666 -4.5941
# 2 16.8150 72.2124 21.4521 -9.6852 -5.1452 -18.1626
# 3 44.7324 21.4521 136.9654 0.7669 16.1957 -15.3059
# 4 -1.1348 -9.6852 0.7669 35.9310 -9.8523 2.6716
# 5 31.8666 -5.1452 16.1957 -9.8523 52.9243 -7.5299
# 6 -4.5941 -18.1626 -15.3059 2.6716 -7.5299 26.6857
#
#
#
# Elastic Compliance Matrix: (Units=1/GPa)
#
#
# Indices 1 2 3 4 5 6 
#
# 1 0.017692 -0.005711 -0.004193 -0.003579 -0.011462 -0.006121
# 2 -0.005711 0.020613 -0.000857 0.006796 0.009021 0.014420
# 3 -0.004193 -0.000857 0.009264 -0.000858 0.000030 0.004103
# 4 -0.003579 0.006796 -0.000858 0.031937 0.009448 0.002986
# 5 -0.011462 0.009021 0.000030 0.009448 0.030092 0.011729
# 6 -0.006121 0.014420 0.004103 0.002986 0.011729 0.051598
#
#
# Mechanical properties :
#
#
# Convention : Reuss Voigt Hill
#
# Bulk Modulus (GPa) = 38.38731 51.83915 45.11323
# Shear Modulus (GPa) = 26.12325 37.61178 31.86752
#
# Velocity S-wave (km/s) = 3.32832 3.99368 3.67608
# Velocity P-wave (km/s) = 5.57213 6.57637 6.09497
#
# Compressibility (1/GPa) = 0.02605028
#
# Stress axis : x y z
#
# Youngs Moduli (GPa) = 56.52171 48.51192 107.94074
#
# Poissons Ratio (x) = 0.27703 0.45254
# Poissons Ratio (y) = 0.32277 0.09249
# Poissons Ratio (z) = 0.23697 0.04157
#
# Static dielectric constant tensor:
#      x y z
#    x 2.007280 -0.075750 -0.017010 
#    y -0.075750 1.917400 0.026930 
#    z -0.017010 0.026930 1.975690 
# 
# From -- ./inp_files/354341.got.cif
#   From: 2010.05.17/outbox.cif.g08.bks.cpg/sg2_178_cif.got.tgz:354341.got - 2010.06.03 11:33:40.
