data_PCOD9014028
_publ_section_title
;
Structure prediction by ZEFSAII (Michael W. Deem and Ramdas Pophale) SiO2 
 PCOD9014028
Probable space group: P -1
;
_chemical_formula_sum "Si O2"
_cell_formula_units_Z 14
_cell_length_a 8.788502
_cell_length_b 10.563696
_cell_length_c 7.549388
_cell_angle_alpha 102.423483
_cell_angle_beta 53.775010
_cell_angle_gamma 103.238124
_cell_volume 547.525959
_symmetry_space_group_name_H-M "P -1"
_symmetry_group_IT_number 2
_symmetry_cell_setting 'triclinic'
loop_
_space_group_symop_operation_xyz
x,y,z
-x,-y,-z
loop_
_atom_site_type_symbol
_atom_site_label
_atom_site_fract_x
_atom_site_fract_y
_atom_site_fract_z
Si Si1 0.214399 0.739268 0.293497
Si Si2 0.903831 0.062561 0.846697
Si Si3 0.418071 0.115230 0.836188
Si Si4 0.561783 0.373510 0.327478
Si Si5 0.907582 0.242846 0.230660
Si Si6 0.329374 0.112328 0.479251
Si Si7 0.865561 0.503002 0.919588
O O1 0.188471 0.830805 0.172085
O O2 0.441617 0.756867 0.170525
O O3 0.136948 0.789048 0.545954
O O4 0.097807 0.598259 0.289199
O O5 0.106331 0.064619 0.614723
O O6 0.920964 0.124377 0.052071
O O7 0.762034 0.929471 0.928623
O O8 0.368559 0.126196 0.667319
O O9 0.542500 0.992179 0.717607
O O10 0.500000 0.500000 0.500000
O O11 0.727289 0.312540 0.305768
O O12 0.393842 0.254143 0.393259
O O13 0.660456 0.436486 0.102667
O O14 0.095061 0.347734 0.118398
O O15 0.000000 0.500000 0.000000
#
# Coordination Sequence:
#
# PCOD9014028 Si02
#       7
#     2   2   2   2   2   2   2
#     4  12  23  42  74 101 142 185 231 297 347 417
#     4  12  24  44  75 103 139 190 232 287 352 418
#     4  11  23  45  69 104 146 184 235 290 345 415
#     4  11  21  40  71  99 137 184 230 286 346 414
#     4  11  22  44  69 102 142 182 234 286 354 413
#     4  11  23  44  73 104 143 189 235 284 352 417
#     4  10  21  41  66  94 133 185 230 278 353 407
#
# _framework density 25.569564
#
# number of rings (size 3 to 8) (size 9 to 14) (size 15 to 20)
#    0.000    0.857    5.714    3.000    2.000    0.571 
#    0.000    3.571    0.000    0.000    0.000    0.000 
#    0.000    0.000    0.000    0.000    0.000    0.000 
#
# Total GULP energy -78414.708734 kJ/mol
# GULP energy per Si atom -5601.050624 kJ/mol
# Density = 2.551137 g / cm^3
# Si number density = 25.569564 Si / 1000 Ang^3
#
#
#
# Elastic Constant Matrix: (Units=GPa)
#
#
# Indices 1 2 3 4 5 6 
#
# 1 70.7144 30.5985 26.8893 6.3636 -0.2897 26.5756
# 2 30.5985 148.3097 45.5526 -26.8310 1.7869 25.7288
# 3 26.8893 45.5526 133.1239 -35.5958 -7.3871 12.1495
# 4 6.3636 -26.8310 -35.5958 52.8337 3.2248 -8.8861
# 5 -0.2897 1.7869 -7.3871 3.2248 43.3726 0.3231
# 6 26.5756 25.7288 12.1495 -8.8861 0.3231 36.5693
#
#
#
# Elastic Compliance Matrix: (Units=1/GPa)
#
#
# Indices 1 2 3 4 5 6 
#
# 1 0.024605 -0.002398 -0.005453 -0.010729 0.000259 -0.016991
# 2 -0.002398 0.008836 -0.001400 0.003348 -0.000844 -0.003188
# 3 -0.005453 -0.001400 0.010954 0.007784 0.001284 0.003189
# 4 -0.010729 0.003348 0.007784 0.028894 -0.001106 0.009886
# 5 0.000259 -0.000844 0.001284 -0.001106 0.023397 -0.000497
# 6 -0.016991 -0.003188 0.003189 0.009886 -0.000497 0.043284
#
#
# Mechanical properties :
#
#
# Convention : Reuss Voigt Hill
#
# Bulk Modulus (GPa) = 38.61990 62.02540 50.32265
# Shear Modulus (GPa) = 29.92183 43.16229 36.54206
#
# Velocity S-wave (km/s) = 3.42455 4.11303 3.78448
# Velocity P-wave (km/s) = 5.54737 6.84589 6.23055
#
# Compressibility (1/GPa) = 0.02589338
#
# Stress axis : x y z
#
# Youngs Moduli (GPa) = 40.64291 113.16917 91.29272
#
# Poissons Ratio (x) = 0.27136 0.49782
# Poissons Ratio (y) = 0.09746 0.12779
# Poissons Ratio (z) = 0.22162 0.15842
#
# Static dielectric constant tensor:
#      x y z
#    x 2.056780 0.023130 -0.030280 
#    y 0.023130 2.080600 0.098890 
#    z -0.030280 0.098890 2.082160 
# 
# From -- ./inp_files/179819.got.cif
#   From: 2010.05.17/outbox.cif.g08.bks.cpg/sg2_90_cif.got.tgz:179819.got - 2010.06.03 11:33:40.
