data_PCOD9014894
_publ_section_title
;
Structure prediction by ZEFSAII (Michael W. Deem and Ramdas Pophale) SiO2 
 PCOD9014894
Probable space group: P -1
;
_chemical_formula_sum "Si O2"
_cell_formula_units_Z 13
_cell_length_a 7.646070
_cell_length_b 10.445960
_cell_length_c 15.772800
_cell_angle_alpha 30.147619
_cell_angle_beta 80.727678
_cell_angle_gamma 74.144236
_cell_volume 601.222351
_symmetry_space_group_name_H-M "P -1"
_symmetry_group_IT_number 2
_symmetry_cell_setting 'triclinic'
loop_
_space_group_symop_operation_xyz
x,y,z
-x,-y,-z
loop_
_atom_site_type_symbol
_atom_site_label
_atom_site_fract_x
_atom_site_fract_y
_atom_site_fract_z
Si Si1 0.975610 0.208700 0.678133
Si Si2 0.495185 0.007682 0.598414
Si Si3 0.434243 0.573649 0.366640
Si Si4 0.874816 0.070912 0.339363
Si Si5 0.118621 0.303479 0.284053
Si Si6 0.500000 0.000000 0.000000
Si Si7 0.172611 0.867279 0.002938
O O1 0.775521 0.244283 0.713883
O O2 0.000000 0.500000 0.500000
O O3 0.994411 0.064810 0.669028
O O4 0.135226 0.039835 0.822090
O O5 0.333975 0.870626 0.710599
O O6 0.703890 0.859050 0.689902
O O7 0.500000 0.000000 0.500000
O O8 0.442367 0.301883 0.471919
O O9 0.500000 0.500000 0.500000
O O10 0.546333 0.746173 0.209452
O O11 0.938038 0.310931 0.238716
O O12 0.895179 0.855938 0.536985
O O13 0.153134 0.578886 0.147262
O O14 0.639476 0.136685 0.963086
O O15 0.000000 0.000000 0.000000
#
# Coordination Sequence:
#
# PCOD9014894 Si02
#       7
#     2   2   2   2   2   1   2
#     4  12  23  44  73 104 145 183 244 298 362 429
#     4  10  21  41  69  98 138 187 240 286 357 442
#     4  12  25  45  75 110 147 193 246 302 368 433
#     4  10  21  41  71  98 135 189 226 293 352 433
#     4  10  23  43  68 101 137 186 238 283 366 436
#     4  12  26  46  70 110 146 186 244 304 364 428
#     4  12  26  45  70 102 143 183 237 307 356 427
#
# _framework density 21.622613999999999
#
# number of rings (size 3 to 8) (size 9 to 14) (size 15 to 20)
#    0.000    0.923    3.077    4.615    0.000    5.538 
#    0.000    0.769    0.000    0.000    0.000    0.000 
#    0.000    0.000    0.000    0.000    0.000    0.000 
#
# Total GULP energy -72403.209318 kJ/mol
# GULP energy per Si atom -5569.477640 kJ/mol
# Density = 2.157340 g / cm^3
# Si number density = 21.622614 Si / 1000 Ang^3
#
#
#
# Elastic Constant Matrix: (Units=GPa)
#
#
# Indices 1 2 3 4 5 6 
#
# 1 75.9448 53.3870 34.2087 -14.4379 -13.3943 25.6882
# 2 53.3870 130.7389 34.1775 -14.1374 -5.8197 18.7493
# 3 34.2087 34.1775 84.3216 4.0063 -9.6985 30.2096
# 4 -14.4379 -14.1374 4.0063 25.8810 12.0984 3.2543
# 5 -13.3943 -5.8197 -9.6985 12.0984 29.2626 -11.2412
# 6 25.6882 18.7493 30.2096 3.2543 -11.2412 44.7579
#
#
#
# Elastic Compliance Matrix: (Units=1/GPa)
#
#
# Indices 1 2 3 4 5 6 
#
# 1 0.025546 -0.006371 -0.004969 0.012864 -0.000241 -0.009636
# 2 -0.006371 0.011350 -0.002402 0.004878 -0.003771 -0.000778
# 3 -0.004969 -0.002402 0.018111 -0.007838 0.003870 -0.006824
# 4 0.012864 0.004878 -0.007838 0.065238 -0.028912 -0.016141
# 5 -0.000241 -0.003771 0.003870 -0.028912 0.052033 0.014276
# 6 -0.009636 -0.000778 -0.006824 -0.016141 0.014276 0.037564
#
#
# Mechanical properties :
#
#
# Convention : Reuss Voigt Hill
#
# Bulk Modulus (GPa) = 36.33202 59.39463 47.86332
# Shear Modulus (GPa) = 20.28394 31.26244 25.77319
#
# Velocity S-wave (km/s) = 3.06615 3.80652 3.45622
# Velocity P-wave (km/s) = 5.41980 6.84455 6.17342
#
# Compressibility (1/GPa) = 0.02752393
#
# Stress axis : x y z
#
# Youngs Moduli (GPa) = 39.14446 88.10898 55.21405
#
# Poissons Ratio (x) = 0.56132 0.27434
# Poissons Ratio (y) = 0.24938 0.13264
# Poissons Ratio (z) = 0.19449 0.21167
#
# Static dielectric constant tensor:
#      x y z
#    x 1.844360 -0.016650 0.012560 
#    y -0.016650 1.790950 0.072180 
#    z 0.012560 0.072180 1.771640 
# 
# From -- ./inp_files/491776.got.cif
#   From: 2010.05.17/outbox.cif.g08.bks.cpg/sg2_246_cif.got.tgz:491776.got - 2010.06.03 11:33:40.
