data_PCOD9014131
_publ_section_title
;
Structure prediction by ZEFSAII (Michael W. Deem and Ramdas Pophale) SiO2 
 PCOD9014131
Probable space group: P -1
;
_chemical_formula_sum "Si O2"
_cell_formula_units_Z 15
_cell_length_a 10.888491
_cell_length_b 7.796850
_cell_length_c 10.819731
_cell_angle_alpha 117.790182
_cell_angle_beta 41.862787
_cell_angle_gamma 119.747581
_cell_volume 524.748002
_symmetry_space_group_name_H-M "P -1"
_symmetry_group_IT_number 2
_symmetry_cell_setting 'triclinic'
loop_
_space_group_symop_operation_xyz
x,y,z
-x,-y,-z
loop_
_atom_site_type_symbol
_atom_site_label
_atom_site_fract_x
_atom_site_fract_y
_atom_site_fract_z
Si Si1 0.501867 0.884453 0.156719
Si Si2 0.637879 0.595209 0.664250
Si Si3 0.108691 0.826694 0.828101
Si Si4 0.284447 0.754241 0.038129
Si Si5 0.785255 0.886549 0.443632
Si Si6 0.930341 0.687712 0.667873
Si Si7 0.596812 0.800719 0.315240
Si Si8 0.000000 0.500000 0.000000
O O1 0.594369 0.774573 0.156342
O O2 0.650990 0.026777 0.000371
O O3 0.396334 0.021378 0.363762
O O4 0.335340 0.770384 0.150622
O O5 0.431430 0.637429 0.832183
O O6 0.777405 0.744012 0.518329
O O7 0.719871 0.637698 0.754071
O O8 0.596344 0.369092 0.573223
O O9 0.117551 0.690230 0.891240
O O10 0.980251 0.698598 0.776588
O O11 0.311718 0.959893 0.671416
O O12 0.000000 0.000000 0.000000
O O13 0.080107 0.632784 0.109303
O O14 0.738923 0.760089 0.306569
O O15 0.958593 0.083978 0.377720
O O16 0.000000 0.500000 0.500000
#
# Coordination Sequence:
#
# PCOD9014131 Si02
#       8
#     2   2   2   2   2   2   2   1
#     4  10  21  41  66  98 135 179 228 288 352 424
#     4  11  24  44  71 102 140 189 244 298 360 432
#     4  11  27  47  73 107 148 195 246 306 373 437
#     4  10  24  41  68 101 133 184 235 295 355 431
#     4  10  23  43  66 102 140 188 233 291 364 432
#     4  11  26  48  72 107 143 193 244 304 368 442
#     4  11  22  42  64  99 142 184 235 289 359 431
#     4  12  24  48  72 110 146 190 242 306 374 436
#
# _framework density 28.585146999999999
#
# number of rings (size 3 to 8) (size 9 to 14) (size 15 to 20)
#    0.000    1.333    1.333    2.800    5.600    2.667 
#    7.200    0.000    0.000    0.000    0.000    0.000 
#    0.000    0.000    0.000    0.000    0.000    0.000 
#
# Total GULP energy -83684.029228 kJ/mol
# GULP energy per Si atom -5578.935282 kJ/mol
# Density = 2.852009 g / cm^3
# Si number density = 28.585147 Si / 1000 Ang^3
#
#
#
# Elastic Constant Matrix: (Units=GPa)
#
#
# Indices 1 2 3 4 5 6 
#
# 1 126.4115 61.0120 45.1058 15.5651 46.5944 28.7874
# 2 61.0120 173.9305 26.3267 -0.3099 29.4345 6.1741
# 3 45.1058 26.3267 100.3347 14.9766 31.3099 -6.5795
# 4 15.5651 -0.3099 14.9766 54.9953 -1.5963 31.3463
# 5 46.5944 29.4345 31.3099 -1.5963 71.7238 8.6731
# 6 28.7874 6.1741 -6.5795 31.3463 8.6731 49.1325
#
#
#
# Elastic Compliance Matrix: (Units=1/GPa)
#
#
# Indices 1 2 3 4 5 6 
#
# 1 0.015268 -0.003325 -0.005603 0.002910 -0.004800 -0.010288
# 2 -0.003325 0.007035 -0.000133 0.000505 -0.000762 0.000858
# 3 -0.005603 -0.000133 0.016694 -0.010720 -0.005444 0.013335
# 4 0.002910 0.000505 -0.010720 0.036107 0.006701 -0.027423
# 5 -0.004800 -0.000762 -0.005444 0.006701 0.020592 -0.005732
# 6 -0.010288 0.000858 0.013335 -0.027423 -0.005732 0.046567
#
#
# Mechanical properties :
#
#
# Convention : Reuss Voigt Hill
#
# Bulk Modulus (GPa) = 47.90131 73.95174 60.92653
# Shear Modulus (GPa) = 29.87884 53.05248 41.46566
#
# Velocity S-wave (km/s) = 3.23655 4.31274 3.81281
# Velocity P-wave (km/s) = 5.54624 7.12225 6.38308
#
# Compressibility (1/GPa) = 0.02087626
#
# Stress axis : x y z
#
# Youngs Moduli (GPa) = 65.49514 142.14146 59.90295
#
# Poissons Ratio (x) = 0.47265 0.33562
# Poissons Ratio (y) = 0.21778 0.00794
# Poissons Ratio (z) = 0.36695 0.01885
#
# Static dielectric constant tensor:
#      x y z
#    x 2.510760 0.046680 -0.298940 
#    y 0.046680 2.134290 0.056550 
#    z -0.298940 0.056550 2.445920 
# 
# From -- ./inp_files/245393.got.cif
#   From: 2010.05.17/outbox.cif.g08.bks.cpg/sg2_123_cif.got.tgz:245393.got - 2010.06.03 11:33:40.
