data_PCOD9014415
_publ_section_title
;
Structure prediction by ZEFSAII (Michael W. Deem and Ramdas Pophale) SiO2 
 PCOD9014415
Probable space group: P -1
;
_chemical_formula_sum "Si O2"
_cell_formula_units_Z 16
_cell_length_a 15.236007
_cell_length_b 12.033977
_cell_length_c 9.917599
_cell_angle_alpha 110.778045
_cell_angle_beta 137.111095
_cell_angle_gamma 101.488785
_cell_volume 801.190091
_symmetry_space_group_name_H-M "P -1"
_symmetry_group_IT_number 2
_symmetry_cell_setting 'triclinic'
loop_
_space_group_symop_operation_xyz
x,y,z
-x,-y,-z
loop_
_atom_site_type_symbol
_atom_site_label
_atom_site_fract_x
_atom_site_fract_y
_atom_site_fract_z
Si Si1 0.563351 0.767007 0.433091
Si Si2 0.994357 0.638799 0.054201
Si Si3 0.455743 0.307308 0.026805
Si Si4 0.100719 0.834174 0.980154
Si Si5 0.274204 0.329386 0.612897
Si Si6 0.617096 0.014736 0.254109
Si Si7 0.382718 0.864243 0.188427
Si Si8 0.437394 0.591963 0.498277
O O1 0.615358 0.683314 0.373399
O O2 0.391336 0.728351 0.162644
O O3 0.525536 0.723202 0.529793
O O4 0.741457 0.970696 0.706736
O O5 0.786249 0.541307 0.817502
O O6 0.168570 0.801938 0.409584
O O7 0.000000 0.500000 0.000000
O O8 0.030033 0.713565 0.976970
O O9 0.641778 0.484024 0.241507
O O10 0.489880 0.330224 0.235674
O O11 0.308294 0.299726 0.787549
O O12 0.398997 0.137715 0.847078
O O13 0.939189 0.805546 0.722899
O O14 0.186506 0.798895 0.953697
O O15 0.501188 0.972086 0.237642
O O16 0.500000 0.000000 0.000000
O O17 0.500000 0.000000 0.500000
O O18 0.500000 0.500000 0.500000
#
# Coordination Sequence:
#
# PCOD9014415 Si02
#       8
#     2   2   2   2   2   2   2   2
#     4  11  21  42  71  99 137 181 232 281 343 415
#     4  12  24  45  73 102 136 182 238 280 342 421
#     4  11  24  44  69  97 147 181 222 287 358 402
#     4  11  22  40  72 102 131 183 239 280 332 423
#     4  11  22  43  70  99 138 186 226 283 349 415
#     4  12  26  45  70 103 143 185 222 291 362 402
#     4  10  21  41  67  97 131 178 230 277 329 414
#     4  12  25  44  71 104 135 181 233 286 338 410
#
# _framework density 19.970293000000002
#
# number of rings (size 3 to 8) (size 9 to 14) (size 15 to 20)
#    0.000    0.750    6.250    1.875    5.250    1.000 
#    2.250    1.875    0.000    0.000    0.000    0.000 
#    0.000    0.000    0.000    0.000    0.000    0.000 
#
# Total GULP energy -89300.345556 kJ/mol
# GULP energy per Si atom -5581.271597 kJ/mol
# Density = 1.992484 g / cm^3
# Si number density = 19.970293 Si / 1000 Ang^3
#
#
#
# Elastic Constant Matrix: (Units=GPa)
#
#
# Indices 1 2 3 4 5 6 
#
# 1 116.9258 40.3872 56.1056 -7.2247 5.6199 -5.4697
# 2 40.3872 113.0857 41.0079 -5.1182 -1.2599 6.5951
# 3 56.1056 41.0079 98.1006 -14.0486 -4.3184 -9.7627
# 4 -7.2247 -5.1182 -14.0486 42.3101 -2.6757 -12.0590
# 5 5.6199 -1.2599 -4.3184 -2.6757 27.4781 -4.8718
# 6 -5.4697 6.5951 -9.7627 -12.0590 -4.8718 39.2808
#
#
#
# Elastic Compliance Matrix: (Units=1/GPa)
#
#
# Indices 1 2 3 4 5 6 
#
# 1 0.012589 -0.002179 -0.006554 -0.000574 -0.003788 -0.000156
# 2 -0.002179 0.011232 -0.004044 -0.001439 -0.000470 -0.003694
# 3 -0.006554 -0.004044 0.017497 0.006511 0.005749 0.006827
# 4 -0.000574 -0.001439 0.006511 0.029171 0.005949 0.011473
# 5 -0.003788 -0.000470 0.005749 0.005949 0.040006 0.007769
# 6 -0.000156 -0.003694 0.006827 0.011473 0.007769 0.032239
#
#
# Mechanical properties :
#
#
# Convention : Reuss Voigt Hill
#
# Bulk Modulus (GPa) = 63.42599 67.01263 65.21931
# Shear Modulus (GPa) = 28.81159 34.52121 31.66640
#
# Velocity S-wave (km/s) = 3.80244 4.16219 3.98637
# Velocity P-wave (km/s) = 7.14893 7.53176 7.34284
#
# Compressibility (1/GPa) = 0.01576641
#
# Stress axis : x y z
#
# Youngs Moduli (GPa) = 79.43481 89.02864 57.15262
#
# Poissons Ratio (x) = 0.19395 0.37456
# Poissons Ratio (y) = 0.17305 0.23111
# Poissons Ratio (z) = 0.52059 0.36001
#
# Static dielectric constant tensor:
#      x y z
#    x 1.698120 -0.029720 -0.004560 
#    y -0.029720 1.689540 -0.041870 
#    z -0.004560 -0.041870 1.716030 
# 
# From -- ./inp_files/308209.got.cif
#   From: 2010.05.17/outbox.cif.g08.bks.cpg/sg2_155_cif.got.tgz:308209.got - 2010.06.03 11:33:40.
