data_PCOD9014279
_publ_section_title
;
Structure prediction by ZEFSAII (Michael W. Deem and Ramdas Pophale) SiO2 
 PCOD9014279
Probable space group: P -1
;
_chemical_formula_sum "Si O2"
_cell_formula_units_Z 16
_cell_length_a 16.194489
_cell_length_b 9.138879
_cell_length_c 15.999547
_cell_angle_alpha 150.626563
_cell_angle_beta 141.044583
_cell_angle_gamma 40.224630
_cell_volume 701.362056
_symmetry_space_group_name_H-M "P -1"
_symmetry_group_IT_number 2
_symmetry_cell_setting 'triclinic'
loop_
_space_group_symop_operation_xyz
x,y,z
-x,-y,-z
loop_
_atom_site_type_symbol
_atom_site_label
_atom_site_fract_x
_atom_site_fract_y
_atom_site_fract_z
Si Si1 0.581831 0.652872 0.914692
Si Si2 0.610412 0.216691 0.560359
Si Si3 0.134768 0.494552 0.350723
Si Si4 0.648087 0.693165 0.698879
Si Si5 0.407000 0.689429 0.948587
Si Si6 0.103227 0.861233 0.746999
Si Si7 0.840859 0.870521 0.245983
Si Si8 0.870418 0.785691 0.625450
O O1 0.601737 0.435124 0.742168
O O2 0.485999 0.561354 0.862544
O O3 0.725185 0.695599 0.080506
O O4 0.500000 0.000000 0.000000
O O5 0.650972 0.371416 0.585501
O O6 0.460186 0.203290 0.410196
O O7 0.729262 0.915977 0.529540
O O8 0.205969 0.349898 0.249213
O O9 0.153293 0.224543 0.299666
O O10 0.977601 0.672255 0.299337
O O11 0.198392 0.774853 0.571725
O O12 0.600292 0.952079 0.860892
O O13 0.500000 0.500000 0.000000
O O14 0.247133 0.713156 0.832273
O O15 0.070299 0.581514 0.529636
O O16 0.977983 0.960948 0.762800
O O17 0.128924 0.093598 0.811609
#
# Coordination Sequence:
#
# PCOD9014279 Si02
#       8
#     2   2   2   2   2   2   2   2
#     4  12  23  44  67  93 127 169 215 255 318 379
#     4  11  24  41  67  94 128 169 208 263 313 379
#     4  10  23  39  65  96 127 165 211 262 315 372
#     4  11  24  42  64  96 129 164 214 259 315 378
#     4  12  27  42  65  97 129 168 208 267 317 373
#     4  10  21  43  64  90 131 167 212 254 316 379
#     4  10  21  41  67  92 126 170 210 258 311 382
#     4  10  23  40  65  95 126 170 208 261 318 371
#
# _framework density 22.812754999999999
#
# number of rings (size 3 to 8) (size 9 to 14) (size 15 to 20)
#    0.000    1.250    2.500    2.250    7.000    2.500 
#    0.000    3.750    0.000    0.000    0.000    0.000 
#    0.000    0.000    0.000    0.000    0.000    0.000 
#
# Total GULP energy -89382.871931 kJ/mol
# GULP energy per Si atom -5586.429496 kJ/mol
# Density = 2.276083 g / cm^3
# Si number density = 22.812755 Si / 1000 Ang^3
#
#
#
# Elastic Constant Matrix: (Units=GPa)
#
#
# Indices 1 2 3 4 5 6 
#
# 1 62.4392 14.5643 -3.9610 -1.5210 -9.4776 -6.8640
# 2 14.5643 91.9040 3.1519 -17.1447 -2.7607 8.6263
# 3 -3.9610 3.1519 66.1382 -11.4170 -0.1889 -18.1807
# 4 -1.5210 -17.1447 -11.4170 32.1320 -2.2917 1.2682
# 5 -9.4776 -2.7607 -0.1889 -2.2917 21.5290 -9.6320
# 6 -6.8640 8.6263 -18.1807 1.2682 -9.6320 22.4167
#
#
#
# Elastic Compliance Matrix: (Units=1/GPa)
#
#
# Indices 1 2 3 4 5 6 
#
# 1 0.024301 -0.005638 0.009495 0.002047 0.022246 0.026754
# 2 -0.005638 0.014057 -0.003492 0.006085 -0.005789 -0.012799
# 3 0.009495 -0.003492 0.026680 0.008153 0.020069 0.034052
# 4 0.002047 0.006085 0.008153 0.037725 0.008672 0.006490
# 5 0.022246 -0.005789 0.020069 0.008672 0.083819 0.060841
# 6 0.026754 -0.012799 0.034052 0.006490 0.060841 0.111119
#
#
# Mechanical properties :
#
#
# Convention : Reuss Voigt Hill
#
# Bulk Modulus (GPa) = 15.20488 27.55466 21.37977
# Shear Modulus (GPa) = 15.67929 28.99729 22.33829
#
# Velocity S-wave (km/s) = 2.62449 3.56912 3.13261
# Velocity P-wave (km/s) = 3.98290 5.39348 4.74095
#
# Compressibility (1/GPa) = 0.06576835
#
# Stress axis : x y z
#
# Youngs Moduli (GPa) = 41.15123 71.14021 37.48096
#
# Poissons Ratio (x) = 0.40108 -0.35589
# Poissons Ratio (y) = 0.23200 0.13089
# Poissons Ratio (z) = -0.39074 0.24843
#
# Static dielectric constant tensor:
#      x y z
#    x 0.152270 -0.321400 -1.199050 
#    y -0.321400 1.754770 -0.211170 
#    z -1.199050 -0.211170 1.043450 
# 
# From -- ./inp_files/245659.got.cif
#   From: 2010.05.17/outbox.cif.g08.bks.cpg/sg2_123_cif.got.tgz:245659.got - 2010.06.03 11:33:40.
