data_PCOD9014603
_publ_section_title
;
Structure prediction by ZEFSAII (Michael W. Deem and Ramdas Pophale) SiO2 
 PCOD9014603
Probable space group: P -1
;
_chemical_formula_sum "Si O2"
_cell_formula_units_Z 16
_cell_length_a 15.539048
_cell_length_b 11.564705
_cell_length_c 9.106238
_cell_angle_alpha 27.336066
_cell_angle_beta 84.717599
_cell_angle_gamma 74.196867
_cell_volume 680.205604
_symmetry_space_group_name_H-M "P -1"
_symmetry_group_IT_number 2
_symmetry_cell_setting 'triclinic'
loop_
_space_group_symop_operation_xyz
x,y,z
-x,-y,-z
loop_
_atom_site_type_symbol
_atom_site_label
_atom_site_fract_x
_atom_site_fract_y
_atom_site_fract_z
Si Si1 0.949896 0.834226 0.112338
Si Si2 0.657640 0.810055 0.293465
Si Si3 0.827398 0.843325 0.360289
Si Si4 0.608372 0.422188 0.519408
Si Si5 0.643084 0.340306 0.279414
Si Si6 0.989513 0.310381 0.047785
Si Si7 0.479855 0.173996 0.454190
Si Si8 0.159444 0.945455 0.579590
O O1 0.849383 0.942978 0.087893
O O2 0.000000 0.500000 0.500000
O O3 0.959333 0.876657 0.891429
O O4 0.000000 0.000000 0.000000
O O5 0.753095 0.712534 0.486550
O O6 0.650468 0.582241 0.442493
O O7 0.570360 0.901459 0.318297
O O8 0.652265 0.088982 0.903037
O O9 0.798495 0.047596 0.272812
O O10 0.929381 0.615632 0.652887
O O11 0.500000 0.500000 0.500000
O O12 0.623564 0.491405 0.270302
O O13 0.579082 0.169056 0.495089
O O14 0.753204 0.173477 0.411978
O O15 0.595557 0.529882 0.930175
O O16 0.080689 0.251586 0.201062
O O17 0.908641 0.216743 0.223783
O O18 0.500000 0.000000 0.500000
#
# Coordination Sequence:
#
# PCOD9014603 Si02
#       8
#     2   2   2   2   2   2   2   2
#     4  10  21  41  68  94 133 182 237 289 347 416
#     4  12  28  45  79 106 148 196 243 302 367 441
#     4  11  24  43  71 102 143 187 249 290 360 438
#     4  12  27  51  72 108 150 195 243 304 374 437
#     4  11  26  43  73 106 145 186 248 300 363 443
#     4  10  23  43  66 101 139 193 234 300 362 420
#     4  11  24  45  73 105 140 194 235 304 371 435
#     4  11  23  43  69 101 145 184 241 301 365 424
#
# _framework density 23.522299
#
# number of rings (size 3 to 8) (size 9 to 14) (size 15 to 20)
#    0.000    1.000    2.500    3.000    8.750    0.000 
#    0.000    0.000    0.000    0.000    0.000    0.000 
#    0.000    0.000    0.000    0.000    0.000    0.000 
#
# Total GULP energy -89329.924509 kJ/mol
# GULP energy per Si atom -5583.120282 kJ/mol
# Density = 2.346876 g / cm^3
# Si number density = 23.522299 Si / 1000 Ang^3
#
#
#
# Elastic Constant Matrix: (Units=GPa)
#
#
# Indices 1 2 3 4 5 6 
#
# 1 170.4140 81.8245 24.8350 5.3161 -3.3872 -6.9276
# 2 81.8245 167.5836 9.2496 20.9455 -6.4802 5.6556
# 3 24.8350 9.2496 72.5875 0.4194 -3.1449 -1.4549
# 4 5.3161 20.9455 0.4194 32.8775 -1.4270 -8.8689
# 5 -3.3872 -6.4802 -3.1449 -1.4270 32.5232 -3.3744
# 6 -6.9276 5.6556 -1.4549 -8.8689 -3.3744 55.4700
#
#
#
# Elastic Compliance Matrix: (Units=1/GPa)
#
#
# Indices 1 2 3 4 5 6 
#
# 1 0.008209 -0.004165 -0.002252 0.001812 0.000062 0.001684
# 2 -0.004165 0.008777 0.000331 -0.005486 0.000875 -0.002230
# 3 -0.002252 0.000331 0.014562 0.000063 0.001258 0.000154
# 4 0.001812 -0.005486 0.000063 0.035438 0.001335 0.006535
# 5 0.000062 0.000875 0.001258 0.001335 0.031323 0.002070
# 6 0.001684 -0.002230 0.000154 0.006535 0.002070 0.019640
#
#
# Mechanical properties :
#
#
# Convention : Reuss Voigt Hill
#
# Bulk Modulus (GPa) = 51.60625 71.37815 61.49220
# Shear Modulus (GPa) = 36.60870 43.81922 40.21396
#
# Velocity S-wave (km/s) = 3.94933 4.32079 4.13923
# Velocity P-wave (km/s) = 6.54088 7.43660 7.00308
#
# Compressibility (1/GPa) = 0.01937750
#
# Stress axis : x y z
#
# Youngs Moduli (GPa) = 121.81509 113.93174 68.67200
#
# Poissons Ratio (x) = 0.47450 0.15465
# Poissons Ratio (y) = 0.50734 -0.02276
# Poissons Ratio (z) = 0.27433 -0.03776
#
# Static dielectric constant tensor:
#      x y z
#    x 1.876320 0.002130 0.066260 
#    y 0.002130 2.016610 0.030750 
#    z 0.066260 0.030750 2.046330 
# 
# From -- ./inp_files/107297.got.cif
#   From: 2010.05.17/outbox.cif.g08.bks.cpg/sg2_54_cif.got.tgz:107297.got - 2010.06.03 11:33:40.
