data_PCOD9014394
_publ_section_title
;
Structure prediction by ZEFSAII (Michael W. Deem and Ramdas Pophale) SiO2 
 PCOD9014394
Probable space group: P -1
;
_chemical_formula_sum "Si O2"
_cell_formula_units_Z 14
_cell_length_a 5.416270
_cell_length_b 7.672355
_cell_length_c 13.947792
_cell_angle_alpha 114.306385
_cell_angle_beta 80.283321
_cell_angle_gamma 107.479756
_cell_volume 503.158376
_symmetry_space_group_name_H-M "P -1"
_symmetry_group_IT_number 2
_symmetry_cell_setting 'triclinic'
loop_
_space_group_symop_operation_xyz
x,y,z
-x,-y,-z
loop_
_atom_site_type_symbol
_atom_site_label
_atom_site_fract_x
_atom_site_fract_y
_atom_site_fract_z
Si Si1 0.853534 0.227759 0.798439
Si Si2 0.554330 0.731917 0.028191
Si Si3 0.083702 0.185704 0.246895
Si Si4 0.448085 0.916033 0.376910
Si Si5 0.737082 0.323006 0.424673
Si Si6 0.508524 0.546779 0.347015
Si Si7 0.087458 0.697145 0.910262
O O1 0.820146 0.197332 0.679684
O O2 0.398310 0.255718 0.676766
O O3 0.933301 0.044264 0.799051
O O4 0.646234 0.234612 0.033110
O O5 0.441285 0.806605 0.148032
O O6 0.500000 0.500000 0.000000
O O7 0.002794 0.454486 0.863847
O O8 0.852786 0.780629 0.987848
O O9 0.354136 0.355202 0.254972
O O10 0.982869 0.241421 0.369086
O O11 0.904859 0.232092 0.183756
O O12 0.312032 0.609360 0.450834
O O13 0.500000 0.000000 0.500000
O O14 0.516274 0.126215 0.366484
O O15 0.714882 0.491931 0.390829
#
# Coordination Sequence:
#
# PCOD9014394 Si02
#       7
#     2   2   2   2   2   2   2
#     4  11  23  43  68 100 142 180 231 296 352 420
#     4  10  24  47  74 103 141 188 234 293 359 418
#     4  12  25  39  67 102 134 181 236 286 359 413
#     4  10  21  41  67  96 133 180 230 283 348 421
#     4  10  23  39  66  92 135 183 233 285 346 419
#     4  10  21  44  60  94 138 179 228 292 344 420
#     4  11  26  47  73 106 141 186 239 292 356 421
#
# _framework density 27.824244
#
# number of rings (size 3 to 8) (size 9 to 14) (size 15 to 20)
#    0.000    1.429    2.857    2.143    2.000    5.714 
#    0.000    1.429    0.000    0.000    0.000    0.000 
#    0.000    0.000    0.000    0.000    0.000    0.000 
#
# Total GULP energy -78247.884494 kJ/mol
# GULP energy per Si atom -5589.134607 kJ/mol
# Density = 2.776091 g / cm^3
# Si number density = 27.824244 Si / 1000 Ang^3
#
#
#
# Elastic Constant Matrix: (Units=GPa)
#
#
# Indices 1 2 3 4 5 6 
#
# 1 135.4896 57.9524 50.7679 6.8941 11.6339 -20.8390
# 2 57.9524 183.1327 39.2138 2.3605 17.1642 -25.9629
# 3 50.7679 39.2138 130.6631 7.5305 9.0979 -8.9932
# 4 6.8941 2.3605 7.5305 29.4643 -1.7600 11.0406
# 5 11.6339 17.1642 9.0979 -1.7600 59.3563 3.1488
# 6 -20.8390 -25.9629 -8.9932 11.0406 3.1488 40.8912
#
#
#
# Elastic Compliance Matrix: (Units=1/GPa)
#
#
# Indices 1 2 3 4 5 6 
#
# 1 0.010175 -0.001824 -0.002822 -0.003238 -0.001363 0.004385
# 2 -0.001824 0.006956 -0.000912 -0.001429 -0.001759 0.003808
# 3 -0.002822 -0.000912 0.009218 -0.001877 -0.000682 0.000569
# 4 -0.003238 -0.001429 -0.001877 0.040827 0.003302 -0.014248
# 5 -0.001363 -0.001759 -0.000682 0.003302 0.018051 -0.004243
# 6 0.004385 0.003808 0.000569 -0.014248 -0.004243 0.033406
#
#
# Mechanical properties :
#
#
# Convention : Reuss Voigt Hill
#
# Bulk Modulus (GPa) = 65.65153 82.79486 74.22319
# Shear Modulus (GPa) = 37.08426 46.03244 41.55835
#
# Velocity S-wave (km/s) = 3.65472 4.07184 3.86891
# Velocity P-wave (km/s) = 6.43860 7.20608 6.83312
#
# Compressibility (1/GPa) = 0.01523194
#
# Stress axis : x y z
#
# Youngs Moduli (GPa) = 98.28237 143.75770 108.47850
#
# Poissons Ratio (x) = 0.26225 0.30618
# Poissons Ratio (y) = 0.17929 0.09893
# Poissons Ratio (z) = 0.27740 0.13110
#
# Static dielectric constant tensor:
#      x y z
#    x 2.263200 0.125280 -0.094260 
#    y 0.125280 2.218150 -0.073540 
#    z -0.094260 -0.073540 2.289480 
# 
# From -- ./inp_files/480528.got.cif
#   From: 2010.05.17/outbox.cif.g08.bks.cpg/sg2_241_cif.got.tgz:480528.got - 2010.06.03 11:33:40.
