data_PCOD9014360
_publ_section_title
;
Structure prediction by ZEFSAII (Michael W. Deem and Ramdas Pophale) SiO2 
 PCOD9014360
Probable space group: P -1
;
_chemical_formula_sum "Si O2"
_cell_formula_units_Z 14
_cell_length_a 11.677724
_cell_length_b 12.063898
_cell_length_c 11.943614
_cell_angle_alpha 42.018446
_cell_angle_beta 90.410424
_cell_angle_gamma 123.402276
_cell_volume 653.401461
_symmetry_space_group_name_H-M "P -1"
_symmetry_group_IT_number 2
_symmetry_cell_setting 'triclinic'
loop_
_space_group_symop_operation_xyz
x,y,z
-x,-y,-z
loop_
_atom_site_type_symbol
_atom_site_label
_atom_site_fract_x
_atom_site_fract_y
_atom_site_fract_z
Si Si1 0.008651 0.708871 0.320758
Si Si2 0.119354 0.151344 0.123466
Si Si3 0.669695 0.702741 0.513460
Si Si4 0.646108 0.390014 0.416387
Si Si5 0.435766 0.875279 0.900086
Si Si6 0.372542 0.076950 0.930147
Si Si7 0.226739 0.311092 0.247587
O O1 0.000000 0.500000 0.500000
O O2 0.802003 0.538557 0.404931
O O3 0.080786 0.914674 0.265691
O O4 0.165241 0.922346 0.061330
O O5 0.251181 0.311197 0.116494
O O6 0.232113 0.385813 0.852014
O O7 0.900080 0.970363 0.280697
O O8 0.537048 0.705300 0.487341
O O9 0.553315 0.415871 0.668542
O O10 0.658138 0.658288 0.681051
O O11 0.542899 0.088162 0.636479
O O12 0.356508 0.920304 0.952396
O O13 0.585930 0.956935 0.922461
O O14 0.274952 0.556594 0.096345
O O15 0.000000 0.000000 0.500000
#
# Coordination Sequence:
#
# PCOD9014360 Si02
#       7
#     2   2   2   2   2   2   2
#     4  12  25  41  64 103 133 172 220 269 330 385
#     4  11  25  45  68  97 136 171 216 274 325 392
#     4  10  23  44  69  98 130 176 217 268 330 382
#     4  12  25  42  65 104 135 166 219 274 332 384
#     4  10  22  40  67  97 130 174 221 264 326 388
#     4  10  21  41  67  95 133 173 218 272 319 385
#     4   9  22  46  70  94 126 178 227 259 323 397
#
# _framework density 21.426338000000001
#
# number of rings (size 3 to 8) (size 9 to 14) (size 15 to 20)
#    0.000    1.429    2.857    1.286    8.000    2.286 
#    0.000    4.286    0.000    0.000    0.000    0.000 
#    0.000    0.000    0.000    0.000    0.000    0.000 
#
# Total GULP energy -78099.697228 kJ/mol
# GULP energy per Si atom -5578.549802 kJ/mol
# Density = 2.137757 g / cm^3
# Si number density = 21.426338 Si / 1000 Ang^3
#
#
#
# Elastic Constant Matrix: (Units=GPa)
#
#
# Indices 1 2 3 4 5 6 
#
# 1 101.6933 38.7490 39.7396 -0.3614 2.7452 11.3204
# 2 38.7490 143.1355 55.4468 -16.3064 27.3501 1.3743
# 3 39.7396 55.4468 135.0675 -10.1125 16.6676 -2.2642
# 4 -0.3614 -16.3064 -10.1125 35.1636 6.1820 4.8406
# 5 2.7452 27.3501 16.6676 6.1820 39.0594 1.1857
# 6 11.3204 1.3743 -2.2642 4.8406 1.1857 16.4416
#
#
#
# Elastic Compliance Matrix: (Units=1/GPa)
#
#
# Indices 1 2 3 4 5 6 
#
# 1 0.013170 -0.002951 -0.003303 -0.001473 0.003058 -0.009063
# 2 -0.002951 0.010650 -0.002205 0.005576 -0.007183 -0.000286
# 3 -0.003303 -0.002205 0.009818 0.001779 -0.002801 0.003489
# 4 -0.001473 0.005576 0.001779 0.034424 -0.009747 -0.008639
# 5 0.003058 -0.007183 -0.002801 -0.009747 0.033198 -0.001416
# 6 -0.009063 -0.000286 0.003489 -0.008639 -0.001416 0.070211
#
#
# Mechanical properties :
#
#
# Convention : Reuss Voigt Hill
#
# Bulk Modulus (GPa) = 59.80724 71.97414 65.89069
# Shear Modulus (GPa) = 25.77844 34.53031 30.15438
#
# Velocity S-wave (km/s) = 3.47236 4.01881 3.75554
# Velocity P-wave (km/s) = 6.63701 7.42959 7.04446
#
# Compressibility (1/GPa) = 0.01672038
#
# Stress axis : x y z
#
# Youngs Moduli (GPa) = 75.93174 93.89882 101.85475
#
# Poissons Ratio (x) = 0.27709 0.33643
# Poissons Ratio (y) = 0.22407 0.22454
# Poissons Ratio (z) = 0.25081 0.20700
#
# Static dielectric constant tensor:
#      x y z
#    x 1.816340 0.008690 -0.003550 
#    y 0.008690 1.779690 0.033510 
#    z -0.003550 0.033510 1.862640 
# 
# From -- ./inp_files/279768.got.cif
#   From: 2010.05.17/outbox.cif.g08.bks.cpg/sg2_140_cif.got.tgz:279768.got - 2010.06.03 11:33:40.
