data_PCOD9014324
_publ_section_title
;
Structure prediction by ZEFSAII (Michael W. Deem and Ramdas Pophale) SiO2 
 PCOD9014324
Probable space group: P -1
;
_chemical_formula_sum "Si O2"
_cell_formula_units_Z 14
_cell_length_a 16.376139
_cell_length_b 5.361066
_cell_length_c 15.383887
_cell_angle_alpha 108.749319
_cell_angle_beta 153.064006
_cell_angle_gamma 74.526358
_cell_volume 578.735763
_symmetry_space_group_name_H-M "P -1"
_symmetry_group_IT_number 2
_symmetry_cell_setting 'triclinic'
loop_
_space_group_symop_operation_xyz
x,y,z
-x,-y,-z
loop_
_atom_site_type_symbol
_atom_site_label
_atom_site_fract_x
_atom_site_fract_y
_atom_site_fract_z
Si Si1 0.495732 0.373429 0.074260
Si Si2 0.548682 0.096920 0.654137
Si Si3 0.792206 0.991696 0.330385
Si Si4 0.946642 0.960207 0.044316
Si Si5 0.649713 0.601646 0.896067
Si Si6 0.959682 0.440581 0.772289
Si Si7 0.655484 0.041017 0.386634
O O1 0.691802 0.266770 0.267105
O O2 0.429086 0.547562 0.109787
O O3 0.500000 0.500000 0.000000
O O4 0.331316 0.157849 0.876502
O O5 0.609561 0.406604 0.755101
O O6 0.500000 0.000000 0.500000
O O7 0.387969 0.053430 0.566558
O O8 0.728532 0.952743 0.839348
O O9 0.752012 0.893708 0.381573
O O10 0.000000 0.000000 0.500000
O O11 0.018612 0.244466 0.182293
O O12 0.022474 0.700660 0.131600
O O13 0.000000 0.000000 0.000000
O O14 0.535112 0.857940 0.815353
O O15 0.859964 0.661135 0.111691
O O16 0.781626 0.307381 0.548877
#
# Coordination Sequence:
#
# PCOD9014324 Si02
#       7
#     2   2   2   2   2   2   2
#     4  10  21  41  67  94 132 171 220 279 344 409
#     4  11  24  41  66  94 131 178 229 280 333 401
#     4  10  22  41  65  99 132 167 222 275 344 411
#     4  11  24  44  64  96 133 177 230 286 338 399
#     4  10  23  43  62  96 131 175 224 277 344 405
#     4  11  24  43  65  95 134 177 224 278 344 403
#     4  11  23  41  67  94 134 175 220 280 335 408
#
# _framework density 24.190660999999999
#
# number of rings (size 3 to 8) (size 9 to 14) (size 15 to 20)
#    0.000    1.429    1.429    3.000    4.000    2.286 
#    5.143    0.000    0.000    0.000    0.000    0.000 
#    0.000    0.000    0.000    0.000    0.000    0.000 
#
# Total GULP energy -78096.098197 kJ/mol
# GULP energy per Si atom -5578.292728 kJ/mol
# Density = 2.413560 g / cm^3
# Si number density = 24.190661 Si / 1000 Ang^3
#
#
#
# Elastic Constant Matrix: (Units=GPa)
#
#
# Indices 1 2 3 4 5 6 
#
# 1 174.0147 10.9992 45.9653 -1.8003 6.8924 2.5287
# 2 10.9992 54.8220 24.0879 3.1812 1.6677 8.2128
# 3 45.9653 24.0879 118.7508 -7.7059 14.8980 -7.9568
# 4 -1.8003 3.1812 -7.7059 34.8453 -9.4179 -1.8865
# 5 6.8924 1.6677 14.8980 -9.4179 51.0816 -1.4333
# 6 2.5287 8.2128 -7.9568 -1.8865 -1.4333 31.9822
#
#
#
# Elastic Compliance Matrix: (Units=1/GPa)
#
#
# Indices 1 2 3 4 5 6 
#
# 1 0.006448 0.000048 -0.002582 -0.000366 -0.000220 -0.001196
# 2 0.000048 0.021748 -0.005124 -0.003518 -0.000069 -0.007074
# 3 -0.002582 -0.005124 0.011183 0.002456 -0.002171 0.004350
# 4 -0.000366 -0.003518 0.002456 0.031171 0.005296 0.003619
# 5 -0.000220 -0.000069 -0.002171 0.005296 0.021239 0.000759
# 6 -0.001196 -0.007074 0.004350 0.003619 0.000759 0.034508
#
#
# Mechanical properties :
#
#
# Convention : Reuss Voigt Hill
#
# Bulk Modulus (GPa) = 41.55599 56.63249 49.09424
# Shear Modulus (GPa) = 33.41474 41.35083 37.38278
#
# Velocity S-wave (km/s) = 3.72063 4.13894 3.93535
# Velocity P-wave (km/s) = 5.97271 6.80462 6.40219
#
# Compressibility (1/GPa) = 0.02406392
#
# Stress axis : x y z
#
# Youngs Moduli (GPa) = 155.08945 45.98019 89.42258
#
# Poissons Ratio (x) = -0.00220 0.23088
# Poissons Ratio (y) = -0.00742 0.45817
# Poissons Ratio (z) = 0.40042 0.23559
#
# Static dielectric constant tensor:
#      x y z
#    x 2.074380 0.097090 -0.023920 
#    y 0.097090 2.068200 0.070670 
#    z -0.023920 0.070670 1.942480 
# 
# From -- ./inp_files/46907.got.cif
#   From: 2010.05.17/outbox.cif.g08.bks.cpg/sg2_24_cif.got.tgz:46907.got - 2010.06.03 11:33:40.
