data_PCOD9014560
_publ_section_title
;
Structure prediction by ZEFSAII (Michael W. Deem and Ramdas Pophale) SiO2 
 PCOD9014560
Probable space group: P -1
;
_chemical_formula_sum "Si O2"
_cell_formula_units_Z 16
_cell_length_a 11.014522
_cell_length_b 9.330975
_cell_length_c 17.231212
_cell_angle_alpha 51.160701
_cell_angle_beta 145.409769
_cell_angle_gamma 142.040548
_cell_volume 617.191069
_symmetry_space_group_name_H-M "P -1"
_symmetry_group_IT_number 2
_symmetry_cell_setting 'triclinic'
loop_
_space_group_symop_operation_xyz
x,y,z
-x,-y,-z
loop_
_atom_site_type_symbol
_atom_site_label
_atom_site_fract_x
_atom_site_fract_y
_atom_site_fract_z
Si Si1 0.041978 0.867371 0.803878
Si Si2 0.683878 0.138966 0.733788
Si Si3 0.443456 0.163442 0.369942
Si Si4 0.637494 0.300208 0.978469
Si Si5 0.116920 0.336122 0.497341
Si Si6 0.620262 0.222313 0.179552
Si Si7 0.793403 0.721723 0.994274
Si Si8 0.260872 0.187128 0.477820
O O1 0.146231 0.724233 0.937413
O O2 0.329055 0.116834 0.850533
O O3 0.845954 0.895089 0.741558
O O4 0.861023 0.744524 0.673643
O O5 0.552855 0.254798 0.592940
O O6 0.006377 0.305378 0.842490
O O7 0.570226 0.909257 0.701170
O O8 0.572516 0.042883 0.794874
O O9 0.680627 0.431448 0.425826
O O10 0.500000 0.000000 0.500000
O O11 0.621731 0.223095 0.087034
O O12 0.721010 0.556872 0.939023
O O13 0.261325 0.279794 0.530105
O O14 0.898151 0.334851 0.332988
O O15 0.935287 0.095346 0.532066
O O16 0.469173 0.328648 0.089393
O O17 0.000000 0.000000 0.000000
#
# Coordination Sequence:
#
# PCOD9014560 Si02
#       8
#     2   2   2   2   2   2   2   2
#     4  11  25  43  65  96 136 171 219 273 331 389
#     4  10  23  41  66  98 131 173 220 267 332 387
#     4  12  26  41  62 101 138 171 214 277 329 389
#     4  11  24  42  68  97 128 177 221 268 330 392
#     4  10  24  40  69  98 128 177 220 267 335 386
#     4  10  21  41  68  91 128 171 219 268 314 394
#     4  10  23  40  66  97 131 170 215 269 324 392
#     4  10  21  44  67  95 133 173 220 271 326 403
#
# _framework density 25.9239
#
# number of rings (size 3 to 8) (size 9 to 14) (size 15 to 20)
#    0.000    1.500    2.500    1.125    5.250    4.500 
#    0.000    0.000    0.000    7.500    0.000    0.000 
#    0.000    0.000    0.000    0.000    0.000    0.000 
#
# Total GULP energy -89517.314461 kJ/mol
# GULP energy per Si atom -5594.832154 kJ/mol
# Density = 2.586490 g / cm^3
# Si number density = 25.923900 Si / 1000 Ang^3
#
#
#
# Elastic Constant Matrix: (Units=GPa)
#
#
# Indices 1 2 3 4 5 6 
#
# 1 84.8918 11.0281 39.6795 3.7464 26.2722 -9.4731
# 2 11.0281 155.9823 33.4306 10.7173 16.8983 -12.2470
# 3 39.6795 33.4306 175.9238 11.4827 49.9112 -1.5792
# 4 3.7464 10.7173 11.4827 42.6479 -2.3048 -5.4648
# 5 26.2722 16.8983 49.9112 -2.3048 62.7487 -10.6946
# 6 -9.4731 -12.2470 -1.5792 -5.4648 -10.6946 36.0424
#
#
#
# Elastic Compliance Matrix: (Units=1/GPa)
#
#
# Indices 1 2 3 4 5 6 
#
# 1 0.014250 0.000094 -0.002039 -0.000633 -0.003982 0.002410
# 2 0.000094 0.006947 -0.001003 -0.001286 -0.000836 0.001898
# 3 -0.002039 -0.001003 0.008139 -0.002416 -0.005888 -0.002634
# 4 -0.000633 -0.001286 -0.002416 0.025264 0.004205 0.004369
# 5 -0.003982 -0.000836 -0.005888 0.004205 0.023703 0.006082
# 6 0.002410 0.001898 -0.002634 0.004369 0.006082 0.031376
#
#
# Mechanical properties :
#
#
# Convention : Reuss Voigt Hill
#
# Bulk Modulus (GPa) = 42.66394 65.00825 53.83609
# Shear Modulus (GPa) = 40.52193 50.46510 45.49352
#
# Velocity S-wave (km/s) = 3.95791 4.41689 4.19368
# Velocity P-wave (km/s) = 6.11390 7.15142 6.65292
#
# Compressibility (1/GPa) = 0.02343900
#
# Stress axis : x y z
#
# Youngs Moduli (GPa) = 70.17596 143.94028 122.86039
#
# Poissons Ratio (x) = -0.01348 0.25054
# Poissons Ratio (y) = -0.00657 0.12325
# Poissons Ratio (z) = 0.14310 0.14440
#
# Static dielectric constant tensor:
#      x y z
#    x 2.076800 0.069930 -0.004310 
#    y 0.069930 2.095000 -0.063870 
#    z -0.004310 -0.063870 2.046010 
# 
# From -- ./inp_files/261485.got.cif
#   From: 2010.05.17/outbox.cif.g08.bks.cpg/sg2_131_cif.got.tgz:261485.got - 2010.06.03 11:33:40.
