data_PCOD9014226
_publ_section_title
;
Structure prediction by ZEFSAII (Michael W. Deem and Ramdas Pophale) SiO2 
 PCOD9014226
Probable space group: P -1
;
_chemical_formula_sum "Si O2"
_cell_formula_units_Z 16
_cell_length_a 21.134515
_cell_length_b 9.015708
_cell_length_c 8.377554
_cell_angle_alpha 107.856222
_cell_angle_beta 32.514030
_cell_angle_gamma 107.912951
_cell_volume 812.924739
_symmetry_space_group_name_H-M "P -1"
_symmetry_group_IT_number 2
_symmetry_cell_setting 'triclinic'
loop_
_space_group_symop_operation_xyz
x,y,z
-x,-y,-z
loop_
_atom_site_type_symbol
_atom_site_label
_atom_site_fract_x
_atom_site_fract_y
_atom_site_fract_z
Si Si1 0.735197 0.760070 0.835073
Si Si2 0.873821 0.489107 0.345470
Si Si3 0.360991 0.513531 0.831446
Si Si4 0.265366 0.787932 0.619993
Si Si5 0.475706 0.151589 0.887578
Si Si6 0.876906 0.071564 0.755515
Si Si7 0.593912 0.175116 0.959637
Si Si8 0.118483 0.607302 0.335006
O O1 0.832586 0.660491 0.516631
O O2 0.787427 0.931619 0.830814
O O3 0.686946 0.653832 0.050249
O O4 0.625288 0.766626 0.954169
O O5 0.784732 0.384259 0.385380
O O6 0.878871 0.410532 0.484153
O O7 0.000000 0.500000 0.000000
O O8 0.500000 0.500000 0.500000
O O9 0.370420 0.660793 0.981415
O O10 0.246142 0.554530 0.984337
O O11 0.392838 0.796549 0.439201
O O12 0.303010 0.870045 0.396342
O O13 0.174429 0.866794 0.949325
O O14 0.488330 0.189228 0.062033
O O15 0.444208 0.964414 0.885120
O O16 0.889850 0.218757 0.656373
O O17 0.000000 0.000000 0.500000
O O18 0.000000 0.500000 0.500000
#
# Coordination Sequence:
#
# PCOD9014226 Si02
#       8
#     2   2   2   2   2   2   2   2
#     4  11  23  39  64  96 130 157 223 273 314 392
#     4  11  23  46  66  90 126 178 213 268 326 390
#     4  11  24  39  66  95 134 173 217 267 329 395
#     4  10  21  41  67  85 134 168 208 258 332 376
#     4   9  20  37  63  92 122 164 208 270 324 381
#     4  12  26  43  66  96 130 171 225 270 320 390
#     4   9  19  41  59  91 132 165 209 257 327 396
#     4  11  23  46  66  94 134 173 217 272 332 391
#
# _framework density 19.682016999999998
#
# number of rings (size 3 to 8) (size 9 to 14) (size 15 to 20)
#    0.750    0.750    2.500    3.750    3.500    2.500 
#    4.500    1.250    0.000    0.000    0.000    0.000 
#    0.000    0.000    0.000    0.000    0.000    0.000 
#
# Total GULP energy -89106.579307 kJ/mol
# GULP energy per Si atom -5569.161207 kJ/mol
# Density = 1.963722 g / cm^3
# Si number density = 19.682017 Si / 1000 Ang^3
#
#
#
# Elastic Constant Matrix: (Units=GPa)
#
#
# Indices 1 2 3 4 5 6 
#
# 1 68.9706 49.4120 38.2236 11.0269 -15.8703 -1.6076
# 2 49.4120 135.0236 34.0526 -9.8190 -7.5820 7.0892
# 3 38.2236 34.0526 122.7148 6.6127 -8.0093 2.8732
# 4 11.0269 -9.8190 6.6127 29.4532 4.3615 -7.8808
# 5 -15.8703 -7.5820 -8.0093 4.3615 29.8609 7.7111
# 6 -1.6076 7.0892 2.8732 -7.8808 7.7111 40.1355
#
#
#
# Elastic Compliance Matrix: (Units=1/GPa)
#
#
# Indices 1 2 3 4 5 6 
#
# 1 0.030709 -0.010246 -0.004713 -0.016976 0.015703 -0.002973
# 2 -0.010246 0.011753 -0.000783 0.008507 -0.003912 -0.000008
# 3 -0.004713 -0.000783 0.009942 -0.001066 0.000389 -0.001046
# 4 -0.016976 0.008507 -0.001066 0.048784 -0.017049 0.010748
# 5 0.015703 -0.003912 0.000389 -0.017049 0.046261 -0.010944
# 6 -0.002973 -0.000008 -0.001046 0.010748 -0.010944 0.029086
#
#
# Mechanical properties :
#
#
# Convention : Reuss Voigt Hill
#
# Bulk Modulus (GPa) = 47.80388 63.34281 55.57335
# Shear Modulus (GPa) = 23.25662 33.55797 28.40730
#
# Velocity S-wave (km/s) = 3.44120 4.13365 3.80322
# Velocity P-wave (km/s) = 6.33482 7.41861 6.89803
#
# Compressibility (1/GPa) = 0.02091880
#
# Stress axis : x y z
#
# Youngs Moduli (GPa) = 32.56333 85.08710 100.58660
#
# Poissons Ratio (x) = 0.87182 0.47406
# Poissons Ratio (y) = 0.33365 0.07879
# Poissons Ratio (z) = 0.15347 0.06665
#
# Static dielectric constant tensor:
#      x y z
#    x 1.721060 0.001470 -0.009150 
#    y 0.001470 1.653010 -0.064930 
#    z -0.009150 -0.064930 1.670630 
# 
# From -- ./inp_files/343611.got.cif
#   From: 2010.05.17/outbox.cif.g08.bks.cpg/sg2_172_cif.got.tgz:343611.got - 2010.06.03 11:33:40.
