data_PCOD9014671
_publ_section_title
;
Structure prediction by ZEFSAII (Michael W. Deem and Ramdas Pophale) SiO2 
 PCOD9014671
Probable space group: P -1
;
_chemical_formula_sum "Si O2"
_cell_formula_units_Z 16
_cell_length_a 5.667098
_cell_length_b 22.475354
_cell_length_c 16.786653
_cell_angle_alpha 17.085223
_cell_angle_beta 85.772839
_cell_angle_gamma 77.585081
_cell_volume 544.932212
_symmetry_space_group_name_H-M "P -1"
_symmetry_group_IT_number 2
_symmetry_cell_setting 'triclinic'
loop_
_space_group_symop_operation_xyz
x,y,z
-x,-y,-z
loop_
_atom_site_type_symbol
_atom_site_label
_atom_site_fract_x
_atom_site_fract_y
_atom_site_fract_z
Si Si1 0.025546 0.705861 0.994432
Si Si2 0.084472 0.762477 0.739979
Si Si3 0.197581 0.720653 0.559584
Si Si4 0.252721 0.522837 0.642545
Si Si5 0.775318 0.333840 0.791986
Si Si6 0.824625 0.800413 0.184517
Si Si7 0.631593 0.831542 0.377999
Si Si8 0.639255 0.689185 0.789734
O O1 0.141377 0.765105 0.993426
O O2 0.189879 0.427842 0.327954
O O3 0.760772 0.703830 0.037078
O O4 0.061277 0.793105 0.796311
O O5 0.227325 0.487966 0.060560
O O6 0.311846 0.821204 0.625438
O O7 0.786253 0.839509 0.612838
O O8 0.310416 0.618806 0.599023
O O9 0.382870 0.837085 0.427383
O O10 0.284047 0.496122 0.901373
O O11 0.865600 0.859441 0.383677
O O12 0.455718 0.427323 0.684227
O O13 0.997265 0.759518 0.312214
O O14 0.806251 0.564778 0.492231
O O15 0.974310 0.193748 0.895444
O O16 0.529326 0.994294 0.913792
#
# Coordination Sequence:
#
# PCOD9014671 Si02
#       8
#     2   2   2   2   2   2   2   2
#     4  10  19  34  52  79 106 136 173 216 264 310
#     4  10  18  28  51  78 112 135 169 206 263 311
#     4  11  20  35  54  79 112 137 171 216 267 310
#     4  10  19  33  54  71 103 138 175 220 261 307
#     4  10  20  39  53  70 105 137 183 221 263 307
#     4  10  24  35  51  76 100 142 182 221 263 309
#     4  11  22  36  53  79 106 139 176 218 263 314
#     4  10  17  30  48  79 112 138 164 208 262 315
#
# _framework density 29.361449
#
# number of rings (size 3 to 8) (size 9 to 14) (size 15 to 20)
#    0.000    1.750    5.000    0.375    1.750    5.000 
#    0.000    0.000    0.000    0.000    0.000    1.750 
#    0.000    0.000    0.000    0.000    0.000    0.000 
#
# Total GULP energy -89385.392974 kJ/mol
# GULP energy per Si atom -5586.587061 kJ/mol
# Density = 2.929462 g / cm^3
# Si number density = 29.361449 Si / 1000 Ang^3
#
#
#
# Elastic Constant Matrix: (Units=GPa)
#
#
# Indices 1 2 3 4 5 6 
#
# 1 209.0918 29.7395 22.1512 17.0251 -6.9996 -28.6935
# 2 29.7395 136.4150 26.9725 26.6075 3.5560 -27.3204
# 3 22.1512 26.9725 100.9655 36.3279 -4.0796 -11.6671
# 4 17.0251 26.6075 36.3279 48.5034 -7.1377 1.8970
# 5 -6.9996 3.5560 -4.0796 -7.1377 45.4194 2.7794
# 6 -28.6935 -27.3204 -11.6671 1.8970 2.7794 54.6571
#
#
#
# Elastic Compliance Matrix: (Units=1/GPa)
#
#
# Indices 1 2 3 4 5 6 
#
# 1 0.005355 -0.000292 -0.000190 -0.001621 0.000414 0.002660
# 2 -0.000292 0.009519 0.000033 -0.005626 -0.001972 0.004908
# 3 -0.000190 0.000033 0.014186 -0.010804 -0.000661 0.003353
# 4 -0.001621 -0.005626 -0.010804 0.033377 0.004917 -0.007378
# 5 0.000414 -0.001972 -0.000661 0.004917 0.023086 -0.002254
# 6 0.002660 0.004908 0.003353 -0.007378 -0.002254 0.023232
#
#
# Mechanical properties :
#
#
# Convention : Reuss Voigt Hill
#
# Bulk Modulus (GPa) = 35.50835 67.13319 51.32077
# Shear Modulus (GPa) = 42.00266 54.22326 48.11296
#
# Velocity S-wave (km/s) = 3.78635 4.30205 4.05241
# Velocity P-wave (km/s) = 5.58883 6.89861 6.27797
#
# Compressibility (1/GPa) = 0.02816239
#
# Stress axis : x y z
#
# Youngs Moduli (GPa) = 186.73981 105.04888 70.49443
#
# Poissons Ratio (x) = 0.03066 0.01337
# Poissons Ratio (y) = 0.05450 -0.00231
# Poissons Ratio (z) = 0.03542 -0.00344
#
# Static dielectric constant tensor:
#      x y z
#    x 2.588330 -0.063120 0.026630 
#    y -0.063120 2.238410 -0.051120 
#    z 0.026630 -0.051120 2.390490 
# 
# From -- ./inp_files/78080.got.cif
#   From: 2010.05.17/outbox.cif.g08.bks.cpg/sg2_40_cif.got.tgz:78080.got - 2010.06.03 11:33:40.
