data_PCOD9014205
_publ_section_title
;
Structure prediction by ZEFSAII (Michael W. Deem and Ramdas Pophale) SiO2 
 PCOD9014205
Probable space group: P -1
;
_chemical_formula_sum "Si O2"
_cell_formula_units_Z 14
_cell_length_a 18.280708
_cell_length_b 10.629219
_cell_length_c 8.608545
_cell_angle_alpha 97.847200
_cell_angle_beta 99.361912
_cell_angle_gamma 21.569777
_cell_volume 606.257634
_symmetry_space_group_name_H-M "P -1"
_symmetry_group_IT_number 2
_symmetry_cell_setting 'triclinic'
loop_
_space_group_symop_operation_xyz
x,y,z
-x,-y,-z
loop_
_atom_site_type_symbol
_atom_site_label
_atom_site_fract_x
_atom_site_fract_y
_atom_site_fract_z
Si Si1 0.295364 0.761743 0.919418
Si Si2 0.174526 0.428438 0.032227
Si Si3 0.805728 0.346560 0.086678
Si Si4 0.297309 0.116971 0.717045
Si Si5 0.923599 0.293607 0.418524
Si Si6 0.638635 0.739933 0.651924
Si Si7 0.703295 0.170680 0.424140
O O1 0.324779 0.569817 0.949880
O O2 0.296808 0.771478 0.737171
O O3 0.500000 0.500000 0.000000
O O4 0.069239 0.169130 0.963213
O O5 0.294117 0.252937 0.206985
O O6 0.258280 0.419530 0.969295
O O7 0.229669 0.231689 0.894308
O O8 0.863121 0.286093 0.271958
O O9 0.000000 0.000000 0.000000
O O10 0.174206 0.418905 0.629776
O O11 0.523790 0.809132 0.712865
O O12 0.252224 0.049853 0.623024
O O13 0.841789 0.382535 0.572858
O O14 0.149621 0.974926 0.452097
O O15 0.500000 0.000000 0.500000
O O16 0.500000 0.500000 0.500000
#
# Coordination Sequence:
#
# PCOD9014205 Si02
#       7
#     2   2   2   2   2   2   2
#     4  11  26  45  65 105 140 181 228 276 346 415
#     4  10  21  46  72  96 137 184 231 282 342 407
#     4   9  22  41  70  94 131 181 227 275 332 410
#     4  10  24  43  70  99 136 181 229 284 347 416
#     4  10  22  47  69  99 134 181 233 288 340 403
#     4  10  21  41  67 104 130 169 236 288 339 395
#     4  12  28  43  66 101 145 182 224 285 354 407
#
# _framework density 23.092490999999999
#
# number of rings (size 3 to 8) (size 9 to 14) (size 15 to 20)
#    0.000    1.714    1.429    0.857   10.000    2.286 
#    0.000    0.000    0.000    0.000    0.000    0.000 
#    0.000    0.000    0.000    0.000    0.000    0.000 
#
# Total GULP energy -78137.117695 kJ/mol
# GULP energy per Si atom -5581.222693 kJ/mol
# Density = 2.303993 g / cm^3
# Si number density = 23.092491 Si / 1000 Ang^3
#
#
#
# Elastic Constant Matrix: (Units=GPa)
#
#
# Indices 1 2 3 4 5 6 
#
# 1 82.8013 29.4948 12.9411 -3.1000 9.2915 -21.3094
# 2 29.4948 110.2244 35.0360 -1.2946 0.4853 -36.3135
# 3 12.9411 35.0360 94.9096 12.9853 3.0666 -11.4308
# 4 -3.1000 -1.2946 12.9853 44.7608 -8.3339 2.1369
# 5 9.2915 0.4853 3.0666 -8.3339 38.2987 -3.0218
# 6 -21.3094 -36.3135 -11.4308 2.1369 -3.0218 45.2644
#
#
#
# Elastic Compliance Matrix: (Units=1/GPa)
#
#
# Indices 1 2 3 4 5 6 
#
# 1 0.014494 -0.002107 -0.000571 0.000323 -0.002997 0.004773
# 2 -0.002107 0.013956 -0.003979 0.001280 0.001661 0.009250
# 3 -0.000571 -0.003979 0.012686 -0.004151 -0.001744 -0.000178
# 4 0.000323 0.001280 -0.004151 0.024670 0.005554 -0.000664
# 5 -0.002997 0.001661 -0.001744 0.005554 0.028252 0.001105
# 6 0.004773 0.009250 -0.000178 -0.000664 0.001105 0.031821
#
#
# Mechanical properties :
#
#
# Convention : Reuss Voigt Hill
#
# Bulk Modulus (GPa) = 35.94392 49.20880 42.57636
# Shear Modulus (GPa) = 33.67734 39.69568 36.68651
#
# Velocity S-wave (km/s) = 3.82300 4.15056 3.99015
# Velocity P-wave (km/s) = 5.92335 6.65772 6.30124
#
# Compressibility (1/GPa) = 0.02782112
#
# Stress axis : x y z
#
# Youngs Moduli (GPa) = 68.99491 71.65200 78.82689
#
# Poissons Ratio (x) = 0.15100 0.04499
# Poissons Ratio (y) = 0.14540 0.31368
# Poissons Ratio (z) = 0.03937 0.28513
#
# Static dielectric constant tensor:
#      x y z
#    x 1.914770 -0.002250 0.045330 
#    y -0.002250 2.003410 -0.049540 
#    z 0.045330 -0.049540 1.915090 
# 
# From -- ./inp_files/184374.got.cif
#   From: 2010.05.17/outbox.cif.g08.bks.cpg/sg2_93_cif.got.tgz:184374.got - 2010.06.03 11:33:40.
