data_PCOD9014019
_publ_section_title
;
Structure prediction by ZEFSAII (Michael W. Deem and Ramdas Pophale) SiO2 
 PCOD9014019
Probable space group: P -1
;
_chemical_formula_sum "Si O2"
_cell_formula_units_Z 16
_cell_length_a 15.014233
_cell_length_b 9.745952
_cell_length_c 8.593351
_cell_angle_alpha 70.208424
_cell_angle_beta 95.076975
_cell_angle_gamma 139.278137
_cell_volume 742.370811
_symmetry_space_group_name_H-M "P -1"
_symmetry_group_IT_number 2
_symmetry_cell_setting 'triclinic'
loop_
_space_group_symop_operation_xyz
x,y,z
-x,-y,-z
loop_
_atom_site_type_symbol
_atom_site_label
_atom_site_fract_x
_atom_site_fract_y
_atom_site_fract_z
Si Si1 0.176418 0.805849 0.834273
Si Si2 0.044591 0.841372 0.029491
Si Si3 0.917343 0.483700 0.366800
Si Si4 0.695945 0.390476 0.528134
Si Si5 0.221324 0.330398 0.839232
Si Si6 0.532232 0.699332 0.849583
Si Si7 0.355751 0.881696 0.096808
Si Si8 0.430698 0.263086 0.514912
O O1 0.109814 0.638482 0.745226
O O2 0.296499 0.059022 0.678311
O O3 0.059173 0.750502 0.925772
O O4 0.251660 0.797894 0.975268
O O5 0.029187 0.748441 0.230124
O O6 0.898584 0.746171 0.044355
O O7 0.184113 0.115337 0.934032
O O8 0.762870 0.347289 0.447123
O O9 0.000000 0.500000 0.500000
O O10 0.782952 0.631046 0.360030
O O11 0.707414 0.326170 0.721821
O O12 0.538956 0.261686 0.548517
O O13 0.375594 0.563387 0.836109
O O14 0.601039 0.762575 0.664731
O O15 0.609248 0.923782 0.875435
O O16 0.500000 0.500000 0.000000
O O17 0.500000 0.000000 0.000000
O O18 0.500000 0.500000 0.500000
#
# Coordination Sequence:
#
# PCOD9014019 Si02
#       8
#     2   2   2   2   2   2   2   2
#     4  12  24  41  65  96 135 168 221 280 336 400
#     4  10  21  41  66  94 128 177 225 274 330 393
#     4  11  25  44  67  93 129 179 228 280 333 400
#     4  10  22  42  67  91 135 167 225 270 341 392
#     4   9  21  40  69  89 132 179 223 270 329 400
#     4  11  24  42  66  99 138 178 220 279 346 402
#     4  12  25  39  67 104 136 171 221 276 345 409
#     4  11  23  41  68  99 135 176 223 280 344 406
#
# _framework density 21.552572999999999
#
# number of rings (size 3 to 8) (size 9 to 14) (size 15 to 20)
#    0.000    1.250    1.250    4.875    5.250    3.500 
#    0.000    0.000    0.000    4.500    0.000    0.000 
#    0.000    0.000    0.000    0.000    0.000    0.000 
#
# Total GULP energy -89182.702423 kJ/mol
# GULP energy per Si atom -5573.918901 kJ/mol
# Density = 2.150352 g / cm^3
# Si number density = 21.552573 Si / 1000 Ang^3
#
#
#
# Elastic Constant Matrix: (Units=GPa)
#
#
# Indices 1 2 3 4 5 6 
#
# 1 79.2307 33.5553 44.6002 13.6988 -6.2854 -10.7882
# 2 33.5553 70.6174 41.6395 5.5127 14.2973 7.1990
# 3 44.6002 41.6395 150.5325 -3.6161 7.3540 -3.7865
# 4 13.6988 5.5127 -3.6161 40.3444 -0.3430 -2.3747
# 5 -6.2854 14.2973 7.3540 -0.3430 54.9602 -2.3846
# 6 -10.7882 7.1990 -3.7865 -2.3747 -2.3846 19.1558
#
#
#
# Elastic Compliance Matrix: (Units=1/GPa)
#
#
# Indices 1 2 3 4 5 6 
#
# 1 0.023547 -0.011645 -0.003802 -0.005683 0.006935 0.017045
# 2 -0.011645 0.025430 -0.003657 -0.000977 -0.008244 -0.017985
# 3 -0.003802 -0.003657 0.008906 0.002657 -0.000604 0.001248
# 4 -0.005683 -0.000977 0.002657 0.027141 -0.000539 0.000990
# 5 0.006935 -0.008244 -0.000604 -0.000539 0.021623 0.009509
# 6 0.017045 -0.017985 0.001248 0.000990 0.009509 0.070115
#
#
# Mechanical properties :
#
#
# Convention : Reuss Voigt Hill
#
# Bulk Modulus (GPa) = 50.82810 59.99673 55.41241
# Shear Modulus (GPa) = 22.57049 34.93111 28.75080
#
# Velocity S-wave (km/s) = 3.23960 4.03021 3.65634
# Velocity P-wave (km/s) = 6.13416 7.03950 6.60237
#
# Compressibility (1/GPa) = 0.01967416
#
# Stress axis : x y z
#
# Youngs Moduli (GPa) = 42.46834 39.32435 112.28557
#
# Poissons Ratio (x) = 0.45794 0.42690
# Poissons Ratio (y) = 0.49455 0.41064
# Poissons Ratio (z) = 0.16146 0.14381
#
# Static dielectric constant tensor:
#      x y z
#    x 1.827610 -0.033820 0.022600 
#    y -0.033820 1.886520 -0.065420 
#    z 0.022600 -0.065420 1.804420 
# 
# From -- ./inp_files/295231.got.cif
#   From: 2010.05.17/outbox.cif.g08.bks.cpg/sg2_148_cif.got.tgz:295231.got - 2010.06.03 11:33:40.
