data_PCOD9014731
_publ_section_title
;
Structure prediction by ZEFSAII (Michael W. Deem and Ramdas Pophale) SiO2 
 PCOD9014731
Probable space group: P -1
;
_chemical_formula_sum "Si O2"
_cell_formula_units_Z 15
_cell_length_a 7.967795
_cell_length_b 17.013136
_cell_length_c 6.898949
_cell_angle_alpha 130.038879
_cell_angle_beta 83.764201
_cell_angle_gamma 115.813316
_cell_volume 624.280148
_symmetry_space_group_name_H-M "P -1"
_symmetry_group_IT_number 2
_symmetry_cell_setting 'triclinic'
loop_
_space_group_symop_operation_xyz
x,y,z
-x,-y,-z
loop_
_atom_site_type_symbol
_atom_site_label
_atom_site_fract_x
_atom_site_fract_y
_atom_site_fract_z
Si Si1 0.573189 0.301871 0.921688
Si Si2 0.420181 0.073078 0.813040
Si Si3 0.222373 0.759123 0.492396
Si Si4 0.094149 0.459174 0.588078
Si Si5 0.198052 0.113067 0.211617
Si Si6 0.961011 0.131626 0.598213
Si Si7 0.790131 0.721634 0.870337
Si Si8 0.500000 0.000000 0.000000
O O1 0.756923 0.425445 0.135905
O O2 0.387407 0.313349 0.017680
O O3 0.548422 0.197735 0.905873
O O4 0.605421 0.261070 0.644279
O O5 0.218523 0.999182 0.612836
O O6 0.361530 0.078268 0.063672
O O7 0.518883 0.997314 0.740094
O O8 0.112582 0.789559 0.383892
O O9 0.069691 0.638500 0.414681
O O10 0.298874 0.866664 0.800139
O O11 0.195981 0.391517 0.369608
O O12 0.000000 0.500000 0.500000
O O13 0.234627 0.216826 0.222283
O O14 0.145000 0.138361 0.469751
O O15 0.000000 0.000000 0.000000
O O16 0.026329 0.181739 0.882192
#
# Coordination Sequence:
#
# PCOD9014731 Si02
#       8
#     2   2   2   2   2   2   2   1
#     4  11  25  43  65 100 135 175 234 277 333 402
#     4   9  21  39  62  97 137 173 218 283 332 407
#     4  11  24  44  67 100 136 178 225 285 334 415
#     4  12  25  47  71  93 135 187 228 277 339 403
#     4   9  19  38  62  96 134 171 217 275 330 402
#     4  10  21  41  69 101 131 177 223 272 349 405
#     4  11  24  43  71 100 135 179 225 288 339 393
#     4  10  22  38  66 100 138 174 218 284 352 382
#
# _framework density 24.027673
#
# number of rings (size 3 to 8) (size 9 to 14) (size 15 to 20)
#    0.000    1.600    1.333    2.400    1.867    8.000 
#    0.000    1.333    0.000    0.000    0.000    0.000 
#    0.000    0.000    0.000    0.000    0.000    0.000 
#
# Total GULP energy -83758.603950 kJ/mol
# GULP energy per Si atom -5583.906930 kJ/mol
# Density = 2.397298 g / cm^3
# Si number density = 24.027673 Si / 1000 Ang^3
#
#
#
# Elastic Constant Matrix: (Units=GPa)
#
#
# Indices 1 2 3 4 5 6 
#
# 1 94.3114 44.4341 25.1418 -0.6086 -23.8865 4.8206
# 2 44.4341 148.9471 43.1342 29.4626 -6.4332 10.7463
# 3 25.1418 43.1342 121.9247 20.9994 -9.6837 13.0804
# 4 -0.6086 29.4626 20.9994 37.9560 8.9482 -5.5871
# 5 -23.8865 -6.4332 -9.6837 8.9482 49.8259 -3.3351
# 6 4.8206 10.7463 13.0804 -5.5871 -3.3351 45.0739
#
#
#
# Elastic Compliance Matrix: (Units=1/GPa)
#
#
# Indices 1 2 3 4 5 6 
#
# 1 0.014452 -0.004300 -0.001677 0.003315 0.005504 0.000784
# 2 -0.004300 0.010016 -0.001035 -0.007706 0.000243 -0.002565
# 3 -0.001677 -0.001035 0.010430 -0.005921 0.001939 -0.003191
# 4 0.003315 -0.007706 -0.005921 0.038392 -0.006953 0.007445
# 5 0.005504 0.000243 0.001939 -0.006953 0.024347 -0.000270
# 6 0.000784 -0.002565 -0.003191 0.007445 -0.000270 0.024542
#
#
# Mechanical properties :
#
#
# Convention : Reuss Voigt Hill
#
# Bulk Modulus (GPa) = 47.90761 65.62258 56.76509
# Shear Modulus (GPa) = 34.92570 43.40270 39.16420
#
# Velocity S-wave (km/s) = 3.81670 4.25474 4.04166
# Velocity P-wave (km/s) = 6.27732 7.17688 6.74212
#
# Compressibility (1/GPa) = 0.02087351
#
# Stress axis : x y z
#
# Youngs Moduli (GPa) = 69.19685 99.83772 95.87887
#
# Poissons Ratio (x) = 0.42933 0.16076
# Poissons Ratio (y) = 0.29757 0.09924
# Poissons Ratio (z) = 0.11602 0.10334
#
# Static dielectric constant tensor:
#      x y z
#    x 2.066440 -0.024290 -0.047120 
#    y -0.024290 1.930570 -0.069080 
#    z -0.047120 -0.069080 1.979630 
# 
# From -- ./inp_files/49308.got.cif
#   From: 2010.05.17/outbox.cif.g08.bks.cpg/sg2_25_cif.got.tgz:49308.got - 2010.06.03 11:33:40.
