data_PCOD9014134
_publ_section_title
;
Structure prediction by ZEFSAII (Michael W. Deem and Ramdas Pophale) SiO2 
 PCOD9014134
Probable space group: P -1
;
_chemical_formula_sum "Si O2"
_cell_formula_units_Z 16
_cell_length_a 8.957859
_cell_length_b 11.227674
_cell_length_c 9.698999
_cell_angle_alpha 98.755510
_cell_angle_beta 89.111902
_cell_angle_gamma 47.868093
_cell_volume 705.727326
_symmetry_space_group_name_H-M "P -1"
_symmetry_group_IT_number 2
_symmetry_cell_setting 'triclinic'
loop_
_space_group_symop_operation_xyz
x,y,z
-x,-y,-z
loop_
_atom_site_type_symbol
_atom_site_label
_atom_site_fract_x
_atom_site_fract_y
_atom_site_fract_z
Si Si1 0.489476 0.708030 0.395274
Si Si2 0.815112 0.604452 0.911585
Si Si3 0.885079 0.157816 0.432601
Si Si4 0.787331 0.623840 0.603972
Si Si5 0.014634 0.053573 0.861762
Si Si6 0.268475 0.066015 0.339706
Si Si7 0.270751 0.082403 0.036751
Si Si8 0.471628 0.647513 0.089457
O O1 0.319316 0.712402 0.459476
O O2 0.640662 0.634601 0.505733
O O3 0.567425 0.613310 0.233378
O O4 0.401388 0.892536 0.390061
O O5 0.815809 0.554831 0.745788
O O6 0.837320 0.733421 0.901721
O O7 0.604570 0.667742 0.994790
O O8 0.000000 0.500000 0.000000
O O9 0.037157 0.183870 0.417071
O O10 0.000000 0.000000 0.500000
O O11 0.874898 0.092593 0.276166
O O12 0.688192 0.815292 0.641266
O O13 0.000000 0.500000 0.500000
O O14 0.776838 0.210295 0.858211
O O15 0.165939 0.080251 0.905004
O O16 0.000000 0.000000 0.000000
O O17 0.266711 0.019107 0.173320
O O18 0.500000 0.000000 0.000000
O O19 0.500000 0.500000 0.000000
#
# Coordination Sequence:
#
# PCOD9014134 Si02
#       8
#     2   2   2   2   2   2   2   2
#     4  11  23  46  67 101 136 176 233 285 337 415
#     4  11  25  47  65  95 138 181 229 275 345 418
#     4  10  21  41  66  98 137 172 229 276 339 400
#     4  11  26  43  69  99 140 181 224 280 350 409
#     4  12  22  40  69  99 134 179 231 283 335 409
#     4  10  21  43  66  97 133 177 222 278 336 402
#     4  11  23  38  67  99 131 171 228 283 331 397
#     4  12  26  46  70  97 136 183 230 286 351 408
#
# _framework density 22.671644000000001
#
# number of rings (size 3 to 8) (size 9 to 14) (size 15 to 20)
#    0.000    1.000    3.750    3.375    5.250    2.000 
#    9.000    1.250    0.000    0.000    0.000    0.000 
#    0.000    0.000    0.000    0.000    0.000    0.000 
#
# Total GULP energy -89085.606286 kJ/mol
# GULP energy per Si atom -5567.850393 kJ/mol
# Density = 2.262004 g / cm^3
# Si number density = 22.671644 Si / 1000 Ang^3
#
#
#
# Elastic Constant Matrix: (Units=GPa)
#
#
# Indices 1 2 3 4 5 6 
#
# 1 91.8469 3.7335 30.6307 -12.9631 2.5678 -11.7466
# 2 3.7335 43.1155 15.1624 -10.3146 6.7834 -8.4184
# 3 30.6307 15.1624 168.5251 -17.9584 -1.0636 -10.0207
# 4 -12.9631 -10.3146 -17.9584 33.4920 -4.9909 11.3552
# 5 2.5678 6.7834 -1.0636 -4.9909 46.1483 2.2459
# 6 -11.7466 -8.4184 -10.0207 11.3552 2.2459 27.0407
#
#
#
# Elastic Compliance Matrix: (Units=1/GPa)
#
#
# Indices 1 2 3 4 5 6 
#
# 1 0.012362 0.001117 -0.001830 0.002679 -0.000798 0.003981
# 2 0.001117 0.026746 -0.001719 0.005017 -0.003801 0.006384
# 3 -0.001830 -0.001719 0.006690 0.002444 0.000770 0.000058
# 4 0.002679 0.005017 0.002444 0.038742 0.003991 -0.012969
# 5 -0.000798 -0.003801 0.000770 0.003991 0.022957 -0.004827
# 6 0.003981 0.006384 0.000058 -0.012969 -0.004827 0.046567
#
#
# Mechanical properties :
#
#
# Convention : Reuss Voigt Hill
#
# Bulk Modulus (GPa) = 24.43011 44.72675 34.57843
# Shear Modulus (GPa) = 28.97315 38.26694 33.62005
#
# Velocity S-wave (km/s) = 3.57872 4.11283 3.85504
# Velocity P-wave (km/s) = 5.27971 6.50575 5.92453
#
# Compressibility (1/GPa) = 0.04093310
#
# Stress axis : x y z
#
# Youngs Moduli (GPa) = 80.89173 37.38870 149.47722
#
# Poissons Ratio (x) = -0.04176 0.27359
# Poissons Ratio (y) = -0.09035 0.25698
# Poissons Ratio (z) = 0.14806 0.06428
#
# Static dielectric constant tensor:
#      x y z
#    x 1.870030 -0.010370 -0.010300 
#    y -0.010370 1.825410 -0.048430 
#    z -0.010300 -0.048430 1.846770 
# 
# From -- ./inp_files/188549.got.cif
#   From: 2010.05.17/outbox.cif.g08.bks.cpg/sg2_95_cif.got.tgz:188549.got - 2010.06.03 11:33:40.
