data_PCOD9014938
_publ_section_title
;
Structure prediction by ZEFSAII (Michael W. Deem and Ramdas Pophale) SiO2 
 PCOD9014938
Probable space group: P -1
;
_chemical_formula_sum "Si O2"
_cell_formula_units_Z 16
_cell_length_a 7.479403
_cell_length_b 18.419443
_cell_length_c 7.673521
_cell_angle_alpha 115.823396
_cell_angle_beta 121.018184
_cell_angle_gamma 40.143616
_cell_volume 582.429219
_symmetry_space_group_name_H-M "P -1"
_symmetry_group_IT_number 2
_symmetry_cell_setting 'triclinic'
loop_
_space_group_symop_operation_xyz
x,y,z
-x,-y,-z
loop_
_atom_site_type_symbol
_atom_site_label
_atom_site_fract_x
_atom_site_fract_y
_atom_site_fract_z
Si Si1 0.765305 0.866435 0.514033
Si Si2 0.632709 0.123781 0.867795
Si Si3 0.802807 0.179223 0.586348
Si Si4 0.802179 0.030806 0.210590
Si Si5 0.073091 0.626499 0.971759
Si Si6 0.435306 0.429182 0.660601
Si Si7 0.155344 0.749677 0.893023
Si Si8 0.269406 0.422281 0.193125
O O1 0.652676 0.813779 0.322020
O O2 0.046760 0.816410 0.494203
O O3 0.861656 0.833686 0.724162
O O4 0.500000 0.000000 0.500000
O O5 0.601590 0.086213 0.997307
O O6 0.726322 0.191172 0.976862
O O7 0.906658 0.011082 0.781331
O O8 0.701468 0.119912 0.401198
O O9 0.540692 0.309726 0.641621
O O10 0.070032 0.083187 0.750791
O O11 0.237562 0.520881 0.809770
O O12 0.077663 0.711574 0.970487
O O13 0.764804 0.665647 0.881290
O O14 0.273318 0.592980 0.205857
O O15 0.279383 0.463094 0.429991
O O16 0.426088 0.637730 0.806870
O O17 0.000000 0.500000 0.000000
#
# Coordination Sequence:
#
# PCOD9014938 Si02
#       8
#     2   2   2   2   2   2   2   2
#     4  12  24  45  73 108 151 199 247 305 386 441
#     4  11  22  43  70 101 150 199 240 303 377 444
#     4  11  22  43  71 105 145 191 243 312 368 444
#     4  10  21  41  70 102 147 193 246 305 365 456
#     4  11  28  48  78 110 150 210 250 313 393 438
#     4  11  24  50  75 111 153 189 262 319 367 465
#     4  12  27  50  71 114 157 193 256 311 364 465
#     4  12  27  49  79 111 149 198 255 319 383 446
#
# _framework density 27.471149
#
# number of rings (size 3 to 8) (size 9 to 14) (size 15 to 20)
#    0.000    0.750    3.750    3.375    1.750    5.500 
#    2.250    0.000    0.000    0.000    0.000    0.000 
#    0.000    0.000    0.000    0.000    0.000    0.000 
#
# Total GULP energy -89512.163497 kJ/mol
# GULP energy per Si atom -5594.510219 kJ/mol
# Density = 2.740862 g / cm^3
# Si number density = 27.471149 Si / 1000 Ang^3
#
#
#
# Elastic Constant Matrix: (Units=GPa)
#
#
# Indices 1 2 3 4 5 6 
#
# 1 80.6227 8.4915 37.3757 -11.0930 12.2305 5.6770
# 2 8.4915 142.5275 50.5951 3.0332 -8.4419 24.4012
# 3 37.3757 50.5951 184.3294 -5.5975 12.6809 24.6281
# 4 -11.0930 3.0332 -5.5975 39.6811 4.1477 -4.1350
# 5 12.2305 -8.4419 12.6809 4.1477 42.7759 -6.6552
# 6 5.6770 24.4012 24.6281 -4.1350 -6.6552 42.0087
#
#
#
# Elastic Compliance Matrix: (Units=1/GPa)
#
#
# Indices 1 2 3 4 5 6 
#
# 1 0.014795 -0.000229 -0.002442 0.004164 -0.004059 -0.000668
# 2 -0.000229 0.008497 -0.001986 -0.001569 0.001925 -0.003590
# 3 -0.002442 -0.001986 0.007029 0.000390 -0.002276 -0.002959
# 4 0.004164 -0.001569 0.000390 0.027176 -0.003912 0.002175
# 5 -0.004059 0.001925 -0.002276 -0.003912 0.026689 0.004608
# 6 -0.000668 -0.003590 -0.002959 0.002175 0.004608 0.028659
#
#
# Mechanical properties :
#
#
# Convention : Reuss Voigt Hill
#
# Bulk Modulus (GPa) = 47.60482 66.71158 57.15820
# Shear Modulus (GPa) = 38.71091 45.62763 42.16927
#
# Velocity S-wave (km/s) = 3.75793 4.07987 3.92221
# Velocity P-wave (km/s) = 6.01632 6.82135 6.43144
#
# Compressibility (1/GPa) = 0.02100628
#
# Stress axis : x y z
#
# Youngs Moduli (GPa) = 67.58814 117.69036 142.26262
#
# Poissons Ratio (x) = 0.02698 0.34743
# Poissons Ratio (y) = 0.01550 0.28256
# Poissons Ratio (z) = 0.16506 0.23376
#
# Static dielectric constant tensor:
#      x y z
#    x 2.138180 0.005500 -0.043630 
#    y 0.005500 2.237190 0.023430 
#    z -0.043630 0.023430 2.292800 
# 
# From -- ./inp_files/223905.got.cif
#   From: 2010.05.17/outbox.cif.g08.bks.cpg/sg2_112_cif.got.tgz:223905.got - 2010.06.03 11:33:40.
