data_PCOD9014329
_publ_section_title
;
Structure prediction by ZEFSAII (Michael W. Deem and Ramdas Pophale) SiO2 
 PCOD9014329
Probable space group: P -1
;
_chemical_formula_sum "Si O2"
_cell_formula_units_Z 16
_cell_length_a 12.037892
_cell_length_b 14.590502
_cell_length_c 9.665137
_cell_angle_alpha 56.856379
_cell_angle_beta 55.382343
_cell_angle_gamma 102.977833
_cell_volume 736.836389
_symmetry_space_group_name_H-M "P -1"
_symmetry_group_IT_number 2
_symmetry_cell_setting 'triclinic'
loop_
_space_group_symop_operation_xyz
x,y,z
-x,-y,-z
loop_
_atom_site_type_symbol
_atom_site_label
_atom_site_fract_x
_atom_site_fract_y
_atom_site_fract_z
Si Si1 0.381155 0.770024 0.160277
Si Si2 0.494326 0.156733 0.293794
Si Si3 0.229022 0.769509 0.740915
Si Si4 0.265979 0.491838 0.651135
Si Si5 0.490518 0.467587 0.320409
Si Si6 0.168027 0.131328 0.650359
Si Si7 0.905173 0.836421 0.619751
Si Si8 0.798012 0.179662 0.575188
O O1 0.361996 0.653451 0.366421
O O2 0.199981 0.745738 0.349872
O O3 0.394552 0.743928 0.012506
O O4 0.595379 0.970588 0.884760
O O5 0.668122 0.256427 0.211199
O O6 0.299799 0.110525 0.517200
O O7 0.382673 0.970308 0.492616
O O8 0.226417 0.751386 0.592704
O O9 0.987020 0.647959 0.049231
O O10 0.326050 0.421432 0.580257
O O11 0.378975 0.541472 0.677266
O O12 0.350416 0.326364 0.417234
O O13 0.659248 0.661836 0.981262
O O14 0.060059 0.116458 0.604906
O O15 0.000000 0.000000 0.000000
O O16 0.012937 0.786697 0.612862
O O17 0.000000 0.000000 0.500000
#
# Coordination Sequence:
#
# PCOD9014329 Si02
#       8
#     2   2   2   2   2   2   2   2
#     4  10  23  40  64  97 134 177 225 284 334 419
#     4  10  23  44  65  96 137 179 224 278 356 400
#     4  10  21  41  67  94 133 176 226 286 330 421
#     4  11  23  41  69  99 138 180 230 283 354 399
#     4  11  26  43  67 104 143 179 235 286 343 424
#     4  12  28  43  71 105 139 180 230 289 350 413
#     4  12  25  46  74  98 143 185 229 285 351 415
#     4  10  22  40  65  98 128 180 233 270 341 406
#
# _framework density 21.714454
#
# number of rings (size 3 to 8) (size 9 to 14) (size 15 to 20)
#    0.000    1.250    1.250    4.125    7.000    6.000 
#    0.000    0.000    0.000    0.000    0.000    0.000 
#    0.000    0.000    0.000    0.000    0.000    0.000 
#
# Total GULP energy -89395.581116 kJ/mol
# GULP energy per Si atom -5587.223820 kJ/mol
# Density = 2.166503 g / cm^3
# Si number density = 21.714454 Si / 1000 Ang^3
#
#
#
# Elastic Constant Matrix: (Units=GPa)
#
#
# Indices 1 2 3 4 5 6 
#
# 1 100.6776 32.3165 35.9151 12.8174 15.4110 7.6389
# 2 32.3165 77.9434 18.8507 22.0336 10.3572 12.7044
# 3 35.9151 18.8507 110.0314 14.3372 17.2161 14.0822
# 4 12.8174 22.0336 14.3372 26.1761 -0.8449 -3.5104
# 5 15.4110 10.3572 17.2161 -0.8449 38.0893 11.6067
# 6 7.6389 12.7044 14.0822 -3.5104 11.6067 28.8770
#
#
#
# Elastic Compliance Matrix: (Units=1/GPa)
#
#
# Indices 1 2 3 4 5 6 
#
# 1 0.012836 -0.003973 -0.002973 -0.001294 -0.003065 0.000877
# 2 -0.003973 0.021251 0.001732 -0.018370 -0.002160 -0.010508
# 3 -0.002973 0.001732 0.011907 -0.007351 -0.003167 -0.005403
# 4 -0.001294 -0.018370 -0.007351 0.060823 0.004875 0.017443
# 5 -0.003065 -0.002160 -0.003167 0.004875 0.032402 -0.009126
# 6 0.000877 -0.010508 -0.005403 0.017443 -0.009126 0.047444
#
#
# Mechanical properties :
#
#
# Convention : Reuss Voigt Hill
#
# Bulk Modulus (GPa) = 28.11608 51.42411 39.77009
# Shear Modulus (GPa) = 23.92984 32.06649 27.99816
#
# Velocity S-wave (km/s) = 3.32328 3.84700 3.59469
# Velocity P-wave (km/s) = 5.26324 6.59287 5.96522
#
# Compressibility (1/GPa) = 0.03556683
#
# Stress axis : x y z
#
# Youngs Moduli (GPa) = 77.90627 47.05697 83.98606
#
# Poissons Ratio (x) = 0.18694 0.24970
# Poissons Ratio (y) = 0.30950 -0.14551
# Poissons Ratio (z) = 0.23163 -0.08153
#
# Static dielectric constant tensor:
#      x y z
#    x 1.819030 0.001090 -0.018410 
#    y 0.001090 1.794310 0.038310 
#    z -0.018410 0.038310 1.819290 
# 
# From -- ./inp_files/222839.got.cif
#   From: 2010.05.17/outbox.cif.g08.bks.cpg/sg2_112_cif.got.tgz:222839.got - 2010.06.03 11:33:40.
