data_PCOD9014449
_publ_section_title
;
Structure prediction by ZEFSAII (Michael W. Deem and Ramdas Pophale) SiO2 
 PCOD9014449
Probable space group: P -1
;
_chemical_formula_sum "Si O2"
_cell_formula_units_Z 14
_cell_length_a 12.870627
_cell_length_b 11.482765
_cell_length_c 16.521078
_cell_angle_alpha 37.320251
_cell_angle_beta 154.658668
_cell_angle_gamma 132.361621
_cell_volume 624.015449
_symmetry_space_group_name_H-M "P -1"
_symmetry_group_IT_number 2
_symmetry_cell_setting 'triclinic'
loop_
_space_group_symop_operation_xyz
x,y,z
-x,-y,-z
loop_
_atom_site_type_symbol
_atom_site_label
_atom_site_fract_x
_atom_site_fract_y
_atom_site_fract_z
Si Si1 0.765866 0.606705 0.830232
Si Si2 0.516480 0.607761 0.366458
Si Si3 0.146330 0.130313 0.478052
Si Si4 0.573621 0.566271 0.882123
Si Si5 0.578585 0.790434 0.928955
Si Si6 0.955097 0.283482 0.606984
Si Si7 0.956248 0.106861 0.187112
O O1 0.532622 0.543753 0.654503
O O2 0.773450 0.553970 0.959187
O O3 0.811545 0.828292 0.731149
O O4 0.000000 0.500000 0.000000
O O5 0.500000 0.500000 0.500000
O O6 0.761525 0.702739 0.495778
O O7 0.293379 0.787420 0.090230
O O8 0.976648 0.178058 0.253450
O O9 0.393847 0.993558 0.693241
O O10 0.000000 0.000000 0.500000
O O11 0.597268 0.691477 0.909284
O O12 0.333883 0.681797 0.603377
O O13 0.523124 0.359063 0.996582
O O14 0.856112 0.801913 0.143744
O O15 0.000000 0.500000 0.500000
O O16 0.021615 0.125874 0.669539
#
# Coordination Sequence:
#
# PCOD9014449 Si02
#       7
#     2   2   2   2   2   2   2
#     4  10  24  44  70  96 140 185 237 287 351 416
#     4  11  24  46  68  98 142 189 236 290 353 423
#     4  12  26  40  71 104 139 185 236 292 356 419
#     4  10  22  43  67  97 136 182 230 291 346 418
#     4  10  22  43  67  97 138 178 231 286 354 418
#     4  10  21  41  67  98 137 181 229 285 351 419
#     4  11  23  44  67  98 141 183 236 292 345 422
#
# _framework density 22.435341000000001
#
# number of rings (size 3 to 8) (size 9 to 14) (size 15 to 20)
#    0.000    1.429    4.286    0.000    4.000    3.429 
#    5.143    0.714    0.000    0.000    0.000    0.000 
#    0.000    0.000    0.000    0.000    0.000    0.000 
#
# Total GULP energy -78063.923084 kJ/mol
# GULP energy per Si atom -5575.994506 kJ/mol
# Density = 2.238428 g / cm^3
# Si number density = 22.435341 Si / 1000 Ang^3
#
#
#
# Elastic Constant Matrix: (Units=GPa)
#
#
# Indices 1 2 3 4 5 6 
#
# 1 114.1816 20.9168 28.2281 6.8685 -30.7280 3.3206
# 2 20.9168 107.6867 18.6482 22.9734 -15.9802 3.3829
# 3 28.2281 18.6482 103.4797 9.5282 -8.5814 -8.5177
# 4 6.8685 22.9734 9.5282 39.3081 -6.4698 -0.7963
# 5 -30.7280 -15.9802 -8.5814 -6.4698 31.6388 -6.4892
# 6 3.3206 3.3829 -8.5177 -0.7963 -6.4892 26.1624
#
#
#
# Elastic Compliance Matrix: (Units=1/GPa)
#
#
# Indices 1 2 3 4 5 6 
#
# 1 0.012461 -0.000445 -0.002373 0.000556 0.011464 0.000563
# 2 -0.000445 0.011364 -0.001192 -0.005705 0.003596 -0.001083
# 3 -0.002373 -0.001192 0.011052 -0.001373 0.000666 0.004177
# 4 0.000556 -0.005705 -0.001373 0.029673 0.003777 0.002060
# 5 0.011464 0.003596 0.000666 0.003777 0.047606 0.010220
# 6 0.000563 -0.001083 0.004177 0.002060 0.010220 0.042249
#
#
# Mechanical properties :
#
#
# Convention : Reuss Voigt Hill
#
# Bulk Modulus (GPa) = 37.23548 51.21492 44.22520
# Shear Modulus (GPa) = 29.17550 36.59217 32.88384
#
# Velocity S-wave (km/s) = 3.61005 4.04295 3.83262
# Velocity P-wave (km/s) = 5.83177 6.68366 6.27219
#
# Compressibility (1/GPa) = 0.02685610
#
# Stress axis : x y z
#
# Youngs Moduli (GPa) = 80.24803 87.99976 90.48545
#
# Poissons Ratio (x) = 0.03913 0.21475
# Poissons Ratio (y) = 0.03568 0.10788
# Poissons Ratio (z) = 0.19046 0.10492
#
# Static dielectric constant tensor:
#      x y z
#    x 1.828210 -0.003250 0.040450 
#    y -0.003250 1.932720 -0.036150 
#    z 0.040450 -0.036150 1.882610 
# 
# From -- ./inp_files/518698.got.cif
#   From: 2010.05.17/outbox.cif.g08.bks.cpg/sg2_260_cif.got.tgz:518698.got - 2010.06.03 11:33:40.
