data_PCOD9014375
_publ_section_title
;
Structure prediction by ZEFSAII (Michael W. Deem and Ramdas Pophale) SiO2 
 PCOD9014375
Probable space group: P -1
;
_chemical_formula_sum "Si O2"
_cell_formula_units_Z 16
_cell_length_a 22.871853
_cell_length_b 13.043200
_cell_length_c 19.632355
_cell_angle_alpha 154.201301
_cell_angle_beta 17.370292
_cell_angle_gamma 146.101967
_cell_volume 741.454782
_symmetry_space_group_name_H-M "P -1"
_symmetry_group_IT_number 2
_symmetry_cell_setting 'triclinic'
loop_
_space_group_symop_operation_xyz
x,y,z
-x,-y,-z
loop_
_atom_site_type_symbol
_atom_site_label
_atom_site_fract_x
_atom_site_fract_y
_atom_site_fract_z
Si Si1 0.449939 0.652472 0.846491
Si Si2 0.707759 0.757564 0.286752
Si Si3 0.152530 0.577915 0.679248
Si Si4 0.198706 0.037088 0.262181
Si Si5 0.078503 0.411851 0.434385
Si Si6 0.415164 0.991659 0.856921
Si Si7 0.345845 0.689477 0.137673
Si Si8 0.294012 0.741497 0.484897
O O1 0.318632 0.457304 0.861261
O O2 0.679651 0.504231 0.499145
O O3 0.376295 0.878326 0.015073
O O4 0.417113 0.728826 0.006487
O O5 0.539961 0.780654 0.545514
O O6 0.685991 0.007546 0.419683
O O7 0.936139 0.684020 0.014224
O O8 0.206265 0.756839 0.668809
O O9 0.164937 0.326949 0.474077
O O10 0.000000 0.000000 0.500000
O O11 0.267047 0.949806 0.057536
O O12 0.151381 0.616307 0.520594
O O13 0.000000 0.500000 0.500000
O O14 0.883838 0.322811 0.623389
O O15 0.271824 0.190400 0.088013
O O16 0.589112 0.110843 0.767742
O O17 0.487101 0.440066 0.859712
#
# Coordination Sequence:
#
# PCOD9014375 Si02
#       8
#     2   2   2   2   2   2   2   2
#     4  11  24  41  70  94 125 171 228 263 316 387
#     4  12  25  41  63 100 141 168 204 277 338 370
#     4  11  23  44  66  99 127 172 223 264 322 389
#     4  12  22  47  75  89 125 177 227 269 312 389
#     4  11  20  36  64  95 130 176 217 255 321 392
#     4  11  25  43  64 101 133 166 220 272 324 382
#     4  10  21  41  67  96 126 173 226 257 317 391
#     4  10  22  41  64  97 138 170 213 265 321 397
#
# _framework density 21.579198999999999
#
# number of rings (size 3 to 8) (size 9 to 14) (size 15 to 20)
#    0.000    1.000    5.000    3.750    0.000    7.500 
#    0.000    0.625    0.000    0.000    0.000    0.000 
#    0.000    0.000    0.000    0.000    0.000    0.000 
#
# Total GULP energy -89313.831572 kJ/mol
# GULP energy per Si atom -5582.114473 kJ/mol
# Density = 2.153008 g / cm^3
# Si number density = 21.579199 Si / 1000 Ang^3
#
#
#
# Elastic Constant Matrix: (Units=GPa)
#
#
# Indices 1 2 3 4 5 6 
#
# 1 91.0763 18.7973 42.7175 6.8607 -20.4392 -16.6140
# 2 18.7973 76.3112 22.8106 -10.9619 -3.7656 -7.0694
# 3 42.7175 22.8106 102.6639 -21.1904 -14.9798 -10.9325
# 4 6.8607 -10.9619 -21.1904 29.7435 -6.8708 -3.1612
# 5 -20.4392 -3.7656 -14.9798 -6.8708 29.2031 -2.3271
# 6 -16.6140 -7.0694 -10.9325 -3.1612 -2.3271 36.7015
#
#
#
# Elastic Compliance Matrix: (Units=1/GPa)
#
#
# Indices 1 2 3 4 5 6 
#
# 1 0.017927 -0.002622 -0.006824 -0.007699 0.007325 0.005379
# 2 -0.002622 0.015099 -0.000470 0.006433 0.001562 0.002234
# 3 -0.006824 -0.000470 0.017738 0.016421 0.008449 0.004054
# 4 -0.007699 0.006433 0.016421 0.054364 0.017326 0.008426
# 5 0.007325 0.001562 0.008449 0.017326 0.048836 0.010722
# 6 0.005379 0.002234 0.004054 0.008426 0.010722 0.032725
#
#
# Mechanical properties :
#
#
# Convention : Reuss Voigt Hill
#
# Bulk Modulus (GPa) = 32.32997 48.74470 40.53733
# Shear Modulus (GPa) = 23.05929 31.51136 27.28533
#
# Velocity S-wave (km/s) = 3.27247 3.82549 3.55974
# Velocity P-wave (km/s) = 5.41233 6.49232 5.97677
#
# Compressibility (1/GPa) = 0.03093106
#
# Stress axis : x y z
#
# Youngs Moduli (GPa) = 55.78225 66.23039 56.37547
#
# Poissons Ratio (x) = 0.17367 0.38472
# Poissons Ratio (y) = 0.14627 0.02650
# Poissons Ratio (z) = 0.38067 0.03113
#
# Static dielectric constant tensor:
#      x y z
#    x 1.807430 0.010410 -0.005210 
#    y 0.010410 1.861860 -0.081850 
#    z -0.005210 -0.081850 1.821280 
# 
# From -- ./inp_files/578020.got.cif
#   From: 2010.05.17/outbox.cif.g08.bks.cpg/sg2_290_cif.got.tgz:578020.got - 2010.06.03 11:33:40.
