data_PCOD9014095
_publ_section_title
;
Structure prediction by ZEFSAII (Michael W. Deem and Ramdas Pophale) SiO2 
 PCOD9014095
Probable space group: P -1
;
_chemical_formula_sum "Si O2"
_cell_formula_units_Z 16
_cell_length_a 11.569904
_cell_length_b 8.736677
_cell_length_c 12.862922
_cell_angle_alpha 69.718296
_cell_angle_beta 130.439332
_cell_angle_gamma 131.611820
_cell_volume 731.747018
_symmetry_space_group_name_H-M "P -1"
_symmetry_group_IT_number 2
_symmetry_cell_setting 'triclinic'
loop_
_space_group_symop_operation_xyz
x,y,z
-x,-y,-z
loop_
_atom_site_type_symbol
_atom_site_label
_atom_site_fract_x
_atom_site_fract_y
_atom_site_fract_z
Si Si1 0.272916 0.947181 0.784115
Si Si2 0.225037 0.271881 0.213369
Si Si3 0.044944 0.714027 0.505691
Si Si4 0.296512 0.249606 0.034047
Si Si5 0.280952 0.319435 0.788300
Si Si6 0.183070 0.840098 0.975214
Si Si7 0.397983 0.078488 0.485127
Si Si8 0.378461 0.717746 0.230214
O O1 0.106904 0.788767 0.643085
O O2 0.260446 0.833372 0.908774
O O3 0.270695 0.126769 0.789657
O O4 0.461548 0.079859 0.791405
O O5 0.188156 0.197940 0.090584
O O6 0.318426 0.179664 0.348607
O O7 0.364546 0.520857 0.236266
O O8 0.025485 0.214862 0.153392
O O9 0.000000 0.500000 0.500000
O O10 0.850506 0.676484 0.370850
O O11 0.217018 0.892755 0.490193
O O12 0.507407 0.463717 0.128761
O O13 0.205468 0.277816 0.873540
O O14 0.305407 0.067735 0.046089
O O15 0.190264 0.696757 0.094952
O O16 0.557861 0.239072 0.624056
O O17 0.500000 0.000000 0.500000
#
# Coordination Sequence:
#
# PCOD9014095 Si02
#       8
#     2   2   2   2   2   2   2   2
#     4  10  22  43  65  96 131 173 218 273 326 392
#     4  12  24  44  66  98 134 177 220 271 335 397
#     4  11  26  41  68  97 129 171 221 275 327 393
#     4  10  22  39  68  94 128 177 215 271 326 389
#     4  10  21  41  66  97 128 171 226 262 327 394
#     4  11  24  41  68  99 137 171 223 277 329 393
#     4  11  26  45  66  96 136 174 220 275 334 397
#     4  11  24  42  67  97 133 178 220 268 334 397
#
# _framework density 21.865479000000001
#
# number of rings (size 3 to 8) (size 9 to 14) (size 15 to 20)
#    0.000    1.250    1.250    4.125    5.250    4.000 
#    0.000    0.000    0.000    0.000    0.000    0.000 
#    0.000    0.000    0.000    0.000    0.000    0.000 
#
# Total GULP energy -89317.868375 kJ/mol
# GULP energy per Si atom -5582.366773 kJ/mol
# Density = 2.181571 g / cm^3
# Si number density = 21.865479 Si / 1000 Ang^3
#
#
#
# Elastic Constant Matrix: (Units=GPa)
#
#
# Indices 1 2 3 4 5 6 
#
# 1 55.7096 1.1632 35.6141 3.0173 -15.6261 -11.7253
# 2 1.1632 80.8749 52.0241 8.9325 -2.5338 -19.7690
# 3 35.6141 52.0241 148.5885 18.0642 -7.9513 -19.2045
# 4 3.0173 8.9325 18.0642 37.2917 -9.5272 -0.7499
# 5 -15.6261 -2.5338 -7.9513 -9.5272 40.4294 0.3165
# 6 -11.7253 -19.7690 -19.2045 -0.7499 0.3165 31.0738
#
#
#
# Elastic Compliance Matrix: (Units=1/GPa)
#
#
# Indices 1 2 3 4 5 6 
#
# 1 0.027366 0.006890 -0.007437 0.002510 0.010059 0.010072
# 2 0.006890 0.019472 -0.006828 -0.001140 0.002188 0.010718
# 3 -0.007437 -0.006828 0.011210 -0.003701 -0.001967 -0.000291
# 4 0.002510 -0.001140 -0.003701 0.030535 0.007377 -0.001404
# 5 0.010059 0.002188 -0.001967 0.007377 0.030081 0.003843
# 6 0.010072 0.010718 -0.000291 -0.001404 0.003843 0.042548
#
#
# Mechanical properties :
#
#
# Convention : Reuss Voigt Hill
#
# Bulk Modulus (GPa) = 23.09548 51.41951 37.25750
# Shear Modulus (GPa) = 26.26128 34.85043 30.55586
#
# Velocity S-wave (km/s) = 3.46936 3.99664 3.74230
# Velocity P-wave (km/s) = 5.16082 6.69813 5.97909
#
# Compressibility (1/GPa) = 0.04329852
#
# Stress axis : x y z
#
# Youngs Moduli (GPa) = 36.54208 51.35479 89.20457
#
# Poissons Ratio (x) = -0.35383 0.66338
# Poissons Ratio (y) = -0.25177 0.60911
# Poissons Ratio (z) = 0.27175 0.35066
#
# Static dielectric constant tensor:
#      x y z
#    x 1.836740 0.059360 0.022840 
#    y 0.059360 1.918060 -0.044400 
#    z 0.022840 -0.044400 1.812170 
# 
# From -- ./inp_files/261484.got.cif
#   From: 2010.05.17/outbox.cif.g08.bks.cpg/sg2_131_cif.got.tgz:261484.got - 2010.06.03 11:33:40.
