data_PCOD9014896
_publ_section_title
;
Structure prediction by ZEFSAII (Michael W. Deem and Ramdas Pophale) SiO2 
 PCOD9014896
Probable space group: P -1
;
_chemical_formula_sum "Si O2"
_cell_formula_units_Z 16
_cell_length_a 8.384338
_cell_length_b 13.529006
_cell_length_c 8.063377
_cell_angle_alpha 76.336278
_cell_angle_beta 53.880239
_cell_angle_gamma 85.740554
_cell_volume 715.462598
_symmetry_space_group_name_H-M "P -1"
_symmetry_group_IT_number 2
_symmetry_cell_setting 'triclinic'
loop_
_space_group_symop_operation_xyz
x,y,z
-x,-y,-z
loop_
_atom_site_type_symbol
_atom_site_label
_atom_site_fract_x
_atom_site_fract_y
_atom_site_fract_z
Si Si1 0.795928 0.666359 0.620458
Si Si2 0.442366 0.151298 0.364058
Si Si3 0.453636 0.520576 0.214963
Si Si4 0.066718 0.007549 0.765220
Si Si5 0.650509 0.078287 0.968553
Si Si6 0.171951 0.783141 0.703649
Si Si7 0.115587 0.406614 0.033460
Si Si8 0.220000 0.715297 0.323822
O O1 0.672157 0.762675 0.695584
O O2 0.661899 0.586414 0.623562
O O3 0.998413 0.705503 0.390865
O O4 0.865070 0.611999 0.769953
O O5 0.264617 0.081644 0.586907
O O6 0.612112 0.210638 0.347219
O O7 0.571759 0.078173 0.204697
O O8 0.655945 0.561316 0.164787
O O9 0.307588 0.608212 0.289624
O O10 0.500000 0.500000 0.000000
O O11 0.870419 0.052202 0.793996
O O12 0.096010 0.895485 0.721341
O O13 0.000000 0.000000 0.000000
O O14 0.643049 0.196010 0.880499
O O15 0.500000 0.000000 0.000000
O O16 0.203072 0.750788 0.508933
O O17 0.007403 0.697650 0.910277
O O18 0.000000 0.500000 0.000000
#
# Coordination Sequence:
#
# PCOD9014896 Si02
#       8
#     2   2   2   2   2   2   2   2
#     4  10  22  43  69 100 137 184 236 294 348 429
#     4  12  25  49  73 105 145 191 241 292 359 425
#     4  10  21  41  69  98 141 181 237 289 351 424
#     4  12  27  48  70 108 144 193 240 291 360 424
#     4  12  27  42  75 105 142 191 240 295 360 418
#     4  11  26  44  70 100 150 187 241 298 353 430
#     4  10  22  42  67 103 136 183 233 291 357 418
#     4  11  24  44  67 107 137 190 240 296 359 421
#
# _framework density 22.363153000000001
#
# number of rings (size 3 to 8) (size 9 to 14) (size 15 to 20)
#    0.000    1.000    2.500    3.750    7.000    2.000 
#    0.000    9.375    0.000    0.000    0.000    0.000 
#    0.000    0.000    0.000    0.000    0.000    0.000 
#
# Total GULP energy -89317.352593 kJ/mol
# GULP energy per Si atom -5582.334537 kJ/mol
# Density = 2.231225 g / cm^3
# Si number density = 22.363153 Si / 1000 Ang^3
#
#
#
# Elastic Constant Matrix: (Units=GPa)
#
#
# Indices 1 2 3 4 5 6 
#
# 1 105.7119 55.3014 55.6084 -12.9832 -45.5588 15.7166
# 2 55.3014 159.0878 54.7169 0.1225 -25.0891 0.6140
# 3 55.6084 54.7169 88.2345 5.0390 -27.6906 16.8937
# 4 -12.9832 0.1225 5.0390 46.2477 5.2386 -17.8110
# 5 -45.5588 -25.0891 -27.6906 5.2386 45.0028 -11.4287
# 6 15.7166 0.6140 16.8937 -17.8110 -11.4287 50.2874
#
#
#
# Elastic Compliance Matrix: (Units=1/GPa)
#
#
# Indices 1 2 3 4 5 6 
#
# 1 0.022512 -0.002466 -0.008269 0.006006 0.016019 0.001540
# 2 -0.002466 0.008616 -0.004196 0.000619 0.000251 0.002351
# 3 -0.008269 -0.004196 0.021373 -0.007445 0.001574 -0.006824
# 4 0.006006 0.000619 -0.007445 0.028163 0.001333 0.010894
# 5 0.016019 0.000251 0.001574 0.001333 0.040438 0.004124
# 6 0.001540 0.002351 -0.006824 0.010894 0.004124 0.026464
#
#
# Mechanical properties :
#
#
# Convention : Reuss Voigt Hill
#
# Bulk Modulus (GPa) = 44.17213 76.03195 60.10204
# Shear Modulus (GPa) = 27.03069 40.80142 33.91606
#
# Velocity S-wave (km/s) = 3.48043 4.27604 3.89859
# Velocity P-wave (km/s) = 5.99552 7.64539 6.87016
#
# Compressibility (1/GPa) = 0.02263871
#
# Stress axis : x y z
#
# Youngs Moduli (GPa) = 44.42055 116.06175 46.78829
#
# Poissons Ratio (x) = 0.28616 0.38691
# Poissons Ratio (y) = 0.10952 0.19633
# Poissons Ratio (z) = 0.36733 0.48702
#
# Static dielectric constant tensor:
#      x y z
#    x 1.955960 -0.028460 0.068800 
#    y -0.028460 1.826970 -0.110270 
#    z 0.068800 -0.110270 2.055600 
# 
# From -- ./inp_files/186403.got.cif
#   From: 2010.05.17/outbox.cif.g08.bks.cpg/sg2_94_cif.got.tgz:186403.got - 2010.06.03 11:33:40.
