data_PCOD9014936
_publ_section_title
;
Structure prediction by ZEFSAII (Michael W. Deem and Ramdas Pophale) SiO2 
 PCOD9014936
Probable space group: P -1
;
_chemical_formula_sum "Si O2"
_cell_formula_units_Z 16
_cell_length_a 20.893840
_cell_length_b 5.482124
_cell_length_c 18.274586
_cell_angle_alpha 97.043346
_cell_angle_beta 160.484400
_cell_angle_gamma 80.765354
_cell_volume 687.596924
_symmetry_space_group_name_H-M "P -1"
_symmetry_group_IT_number 2
_symmetry_cell_setting 'triclinic'
loop_
_space_group_symop_operation_xyz
x,y,z
-x,-y,-z
loop_
_atom_site_type_symbol
_atom_site_label
_atom_site_fract_x
_atom_site_fract_y
_atom_site_fract_z
Si Si1 0.290454 0.920268 0.684583
Si Si2 0.566978 0.501478 0.887430
Si Si3 0.451081 0.235103 0.373425
Si Si4 0.814785 0.566874 0.027854
Si Si5 0.370863 0.173112 0.550498
Si Si6 0.219867 0.444835 0.259259
Si Si7 0.952585 0.972640 0.708966
Si Si8 0.380028 0.732045 0.920879
O O1 0.389489 0.675461 0.739678
O O2 0.239703 0.858753 0.711202
O O3 0.120176 0.037819 0.453404
O O4 0.463021 0.088000 0.882758
O O5 0.478178 0.308880 0.732764
O O6 0.693214 0.641144 0.973551
O O7 0.690731 0.368117 0.082815
O O8 0.330597 0.233201 0.317596
O O9 0.657592 0.327528 0.612272
O O10 0.479580 0.991144 0.346489
O O11 0.328336 0.435401 0.195186
O O12 0.925825 0.292375 0.150624
O O13 0.944022 0.784426 0.161141
O O14 0.243316 0.360247 0.365204
O O15 0.233362 0.005983 0.437694
O O16 0.000000 0.500000 0.000000
O O17 0.500000 0.500000 0.000000
#
# Coordination Sequence:
#
# PCOD9014936 Si02
#       8
#     2   2   2   2   2   2   2   2
#     4  10  21  41  70 102 138 188 248 301 361 443
#     4  11  22  43  72 100 139 193 245 298 371 436
#     4  11  26  47  72 105 148 191 247 302 372 444
#     4  12  27  45  69 107 151 190 241 312 373 430
#     4  12  24  45  75 102 141 194 247 305 360 442
#     4  11  26  47  73 105 147 192 245 303 374 442
#     4  12  27  42  73 108 147 188 250 306 367 438
#     4   9  20  38  71 100 138 185 249 295 362 439
#
# _framework density 23.269448000000001
#
# number of rings (size 3 to 8) (size 9 to 14) (size 15 to 20)
#    0.000    1.000    2.500    3.375    7.000    0.500 
#    0.000    1.250    0.000    0.000    0.000    0.000 
#    0.000    0.000    0.000    0.000    0.000    0.000 
#
# Total GULP energy -89553.757201 kJ/mol
# GULP energy per Si atom -5597.109825 kJ/mol
# Density = 2.321649 g / cm^3
# Si number density = 23.269448 Si / 1000 Ang^3
#
#
#
# Elastic Constant Matrix: (Units=GPa)
#
#
# Indices 1 2 3 4 5 6 
#
# 1 134.8443 29.4009 43.9312 9.6134 -19.9691 11.5658
# 2 29.4009 109.5925 44.5746 10.3534 -4.9681 -8.6296
# 3 43.9312 44.5746 90.9489 0.2945 -6.7993 -1.4560
# 4 9.6134 10.3534 0.2945 38.5786 12.6566 -6.2297
# 5 -19.9691 -4.9681 -6.7993 12.6566 37.0466 3.1525
# 6 11.5658 -8.6296 -1.4560 -6.2297 3.1525 46.7355
#
#
#
# Elastic Compliance Matrix: (Units=1/GPa)
#
#
# Indices 1 2 3 4 5 6 
#
# 1 0.010800 -0.000565 -0.004452 -0.005525 0.007168 -0.004136
# 2 -0.000565 0.011991 -0.005474 -0.003171 0.001239 0.001677
# 3 -0.004452 -0.005474 0.015731 0.003092 -0.001395 0.001087
# 4 -0.005525 -0.003171 0.003092 0.034096 -0.015032 0.006437
# 5 0.007168 0.001239 -0.001395 -0.015032 0.036417 -0.006049
# 6 -0.004136 0.001677 0.001087 0.006437 -0.006049 0.024030
#
#
# Mechanical properties :
#
#
# Convention : Reuss Voigt Hill
#
# Bulk Modulus (GPa) = 57.01410 63.46657 60.24033
# Shear Modulus (GPa) = 31.27065 38.97074 35.12070
#
# Velocity S-wave (km/s) = 3.66983 4.09682 3.88919
# Velocity P-wave (km/s) = 6.52011 7.05071 6.79059
#
# Compressibility (1/GPa) = 0.01753952
#
# Stress axis : x y z
#
# Youngs Moduli (GPa) = 92.59459 83.39913 63.56678
#
# Poissons Ratio (x) = 0.04715 0.28300
# Poissons Ratio (y) = 0.05234 0.34795
# Poissons Ratio (z) = 0.41223 0.45651
#
# Static dielectric constant tensor:
#      x y z
#    x 1.889910 0.028670 -0.010140 
#    y 0.028670 1.940360 -0.045610 
#    z -0.010140 -0.045610 1.884750 
# 
# From -- ./inp_files/576814.got.cif
#   From: 2010.05.17/outbox.cif.g08.bks.cpg/sg2_289_cif.got.tgz:576814.got - 2010.06.03 11:33:40.
