data_PCOD9014118
_publ_section_title
;
Structure prediction by ZEFSAII (Michael W. Deem and Ramdas Pophale) SiO2 
 PCOD9014118
Probable space group: P -1
;
_chemical_formula_sum "Si O2"
_cell_formula_units_Z 16
_cell_length_a 11.660672
_cell_length_b 8.068031
_cell_length_c 17.879670
_cell_angle_alpha 136.726515
_cell_angle_beta 135.343848
_cell_angle_gamma 78.940002
_cell_volume 596.595824
_symmetry_space_group_name_H-M "P -1"
_symmetry_group_IT_number 2
_symmetry_cell_setting 'triclinic'
loop_
_space_group_symop_operation_xyz
x,y,z
-x,-y,-z
loop_
_atom_site_type_symbol
_atom_site_label
_atom_site_fract_x
_atom_site_fract_y
_atom_site_fract_z
Si Si1 0.669178 0.694957 0.211768
Si Si2 0.559373 0.334975 0.687453
Si Si3 0.911364 0.635552 0.838276
Si Si4 0.150525 0.125172 0.366366
Si Si5 0.300040 0.153065 0.970287
Si Si6 0.420355 0.853863 0.696483
Si Si7 0.160046 0.614028 0.826288
Si Si8 0.731552 0.079872 0.785664
O O1 0.865672 0.700538 0.291900
O O2 0.696482 0.010455 0.335450
O O3 0.500000 0.500000 0.000000
O O4 0.530320 0.439391 0.131648
O O5 0.297902 0.113144 0.486718
O O6 0.660579 0.385642 0.669202
O O7 0.648988 0.229952 0.752051
O O8 0.674656 0.694965 0.887546
O O9 0.965496 0.562435 0.761569
O O10 0.055079 0.649635 0.974703
O O11 0.000000 0.000000 0.000000
O O12 0.256578 0.497866 0.539741
O O13 0.195522 0.052728 0.281850
O O14 0.890628 0.899936 0.181802
O O15 0.219127 0.803458 0.837420
O O16 0.537870 0.837840 0.675871
O O17 0.620847 0.121924 0.933666
#
# Coordination Sequence:
#
# PCOD9014118 Si02
#       8
#     2   2   2   2   2   2   2   2
#     4  10  23  44  74  98 130 187 233 280 341 404
#     4  12  23  42  67 103 145 180 223 281 345 405
#     4  11  20  38  68 103 139 177 225 273 340 415
#     4  12  25  40  67 106 139 178 226 281 346 407
#     4  12  23  45  74  99 135 184 230 276 345 408
#     4  10  21  41  66  97 140 177 227 285 334 404
#     4  10  21  41  71  99 132 186 230 276 341 406
#     4  11  22  38  64  99 138 185 224 276 340 407
#
# _framework density 26.818826000000001
#
# number of rings (size 3 to 8) (size 9 to 14) (size 15 to 20)
#    0.000    1.000    5.000    2.250    0.000    1.000 
#    0.000    5.625    0.000    0.000    0.000    0.000 
#    0.000    0.000    0.000    0.000    0.000    0.000 
#
# Total GULP energy -89699.812274 kJ/mol
# GULP energy per Si atom -5606.238267 kJ/mol
# Density = 2.675779 g / cm^3
# Si number density = 26.818826 Si / 1000 Ang^3
#
#
#
# Elastic Constant Matrix: (Units=GPa)
#
#
# Indices 1 2 3 4 5 6 
#
# 1 73.9236 35.1937 6.0072 2.3862 5.2599 -13.8931
# 2 35.1937 141.6589 15.7990 -8.9223 0.9963 -20.2402
# 3 6.0072 15.7990 78.0171 -13.3481 -1.9024 -12.2027
# 4 2.3862 -8.9223 -13.3481 38.6463 -12.0948 2.8171
# 5 5.2599 0.9963 -1.9024 -12.0948 36.3408 0.7169
# 6 -13.8931 -20.2402 -12.2027 2.8171 0.7169 41.8177
#
#
#
# Elastic Compliance Matrix: (Units=1/GPa)
#
#
# Indices 1 2 3 4 5 6 
#
# 1 0.016392 -0.003655 -0.000604 -0.003444 -0.003525 0.003793
# 2 -0.003655 0.008532 -0.000671 0.002056 0.000894 0.002565
# 3 -0.000604 -0.000671 0.014517 0.005477 0.002624 0.003297
# 4 -0.003444 0.002056 0.005477 0.032098 0.011430 -0.000909
# 5 -0.003525 0.000894 0.002624 0.011430 0.031970 -0.001291
# 6 0.003793 0.002565 0.003297 -0.000909 -0.001291 0.027460
#
#
# Mechanical properties :
#
#
# Convention : Reuss Voigt Hill
#
# Bulk Modulus (GPa) = 33.80755 45.28882 39.54818
# Shear Modulus (GPa) = 33.18084 39.13428 36.15756
#
# Velocity S-wave (km/s) = 3.52123 3.82410 3.67579
# Velocity P-wave (km/s) = 5.40050 6.03506 5.72658
#
# Compressibility (1/GPa) = 0.02957919
#
# Stress axis : x y z
#
# Youngs Moduli (GPa) = 61.00713 117.20633 68.88552
#
# Poissons Ratio (x) = 0.42841 0.04160
# Poissons Ratio (y) = 0.22299 0.04626
# Poissons Ratio (z) = 0.03684 0.07870
#
# Static dielectric constant tensor:
#      x y z
#    x 2.138190 -0.009320 -0.002920 
#    y -0.009320 2.113000 -0.002920 
#    z -0.002920 -0.002920 2.066890 
# 
# From -- ./inp_files/594270.got.cif
#   From: 2010.05.17/outbox.cif.g08.bks.cpg/sg2_298_cif.got.tgz:594270.got - 2010.06.03 11:33:40.
