data_PCOD9014354
_publ_section_title
;
Structure prediction by ZEFSAII (Michael W. Deem and Ramdas Pophale) SiO2 
 PCOD9014354
Probable space group: P -1
;
_chemical_formula_sum "Si O2"
_cell_formula_units_Z 14
_cell_length_a 18.461649
_cell_length_b 5.476096
_cell_length_c 8.723872
_cell_angle_alpha 72.232127
_cell_angle_beta 68.905595
_cell_angle_gamma 118.881609
_cell_volume 583.670045
_symmetry_space_group_name_H-M "P -1"
_symmetry_group_IT_number 2
_symmetry_cell_setting 'triclinic'
loop_
_space_group_symop_operation_xyz
x,y,z
-x,-y,-z
loop_
_atom_site_type_symbol
_atom_site_label
_atom_site_fract_x
_atom_site_fract_y
_atom_site_fract_z
Si Si1 0.091260 0.578198 0.817767
Si Si2 0.512986 0.440431 0.680528
Si Si3 0.274645 0.197960 0.382965
Si Si4 0.569526 0.226754 0.254067
Si Si5 0.207677 0.501340 0.989530
Si Si6 0.997162 0.765274 0.366727
Si Si7 0.774804 0.342039 0.732192
O O1 0.161025 0.549148 0.873897
O O2 0.037538 0.320687 0.766461
O O3 0.170121 0.952757 0.610769
O O4 0.000000 0.500000 0.000000
O O5 0.500000 0.500000 0.500000
O O6 0.630066 0.685165 0.606459
O O7 0.453727 0.527900 0.805015
O O8 0.468699 0.055928 0.791468
O O9 0.285131 0.518885 0.267642
O O10 0.258880 0.958745 0.301230
O O11 0.690359 0.430752 0.148269
O O12 0.500000 0.000000 0.500000
O O13 0.234656 0.748869 0.063790
O O14 0.114049 0.125302 0.200171
O O15 0.000000 0.500000 0.500000
O O16 0.897383 0.673281 0.540879
#
# Coordination Sequence:
#
# PCOD9014354 Si02
#       7
#     2   2   2   2   2   2   2
#     4  11  23  38  66 106 137 180 234 286 342 416
#     4  10  21  41  67  95 129 175 226 280 336 399
#     4  11  24  46  70  98 141 184 228 287 351 407
#     4  10  23  41  66 101 135 177 228 286 343 396
#     4  12  24  43  70 101 139 185 235 287 341 411
#     4  11  24  44  69 103 146 185 226 283 349 420
#     4  11  25  45  68 100 138 186 228 281 350 419
#
# _framework density 23.986153999999999
#
# number of rings (size 3 to 8) (size 9 to 14) (size 15 to 20)
#    0.000    1.143    0.000    6.857    0.000   10.286 
#    0.000    4.286    0.000    0.000    0.000    0.000 
#    0.000    0.000    0.000    0.000    0.000    0.000 
#
# Total GULP energy -78332.645757 kJ/mol
# GULP energy per Si atom -5595.188983 kJ/mol
# Density = 2.393156 g / cm^3
# Si number density = 23.986154 Si / 1000 Ang^3
#
#
#
# Elastic Constant Matrix: (Units=GPa)
#
#
# Indices 1 2 3 4 5 6 
#
# 1 161.4085 82.7841 41.7562 15.9084 -25.7093 1.5730
# 2 82.7841 124.3819 49.5989 1.0961 -7.4345 -9.9514
# 3 41.7562 49.5989 107.1002 18.6727 -18.3121 5.0542
# 4 15.9084 1.0961 18.6727 29.3510 3.0754 -0.8203
# 5 -25.7093 -7.4345 -18.3121 3.0754 49.3194 -3.7158
# 6 1.5730 -9.9514 5.0542 -0.8203 -3.7158 47.7817
#
#
#
# Elastic Compliance Matrix: (Units=1/GPa)
#
#
# Indices 1 2 3 4 5 6 
#
# 1 0.011656 -0.008164 0.001669 -0.007737 0.005801 -0.001942
# 2 -0.008164 0.016170 -0.006810 0.008749 -0.004579 0.004151
# 3 0.001669 -0.006810 0.014846 -0.010782 0.005819 -0.002776
# 4 -0.007737 0.008749 -0.010782 0.045866 -0.009330 0.003279
# 5 0.005801 -0.004579 0.005819 -0.009330 0.025356 0.000051
# 6 -0.001942 0.004151 -0.002776 0.003279 0.000051 0.022211
#
#
# Mechanical properties :
#
#
# Convention : Reuss Voigt Hill
#
# Bulk Modulus (GPa) = 62.25818 82.35211 72.30515
# Shear Modulus (GPa) = 29.74957 39.87384 34.81171
#
# Velocity S-wave (km/s) = 3.52558 4.08164 3.81376
# Velocity P-wave (km/s) = 6.52573 7.52468 7.04294
#
# Compressibility (1/GPa) = 0.01606215
#
# Stress axis : x y z
#
# Youngs Moduli (GPa) = 85.78938 61.84216 67.35841
#
# Poissons Ratio (x) = 0.50488 -0.11239
# Poissons Ratio (y) = 0.70038 0.45870
# Poissons Ratio (z) = -0.14315 0.42114
#
# Static dielectric constant tensor:
#      x y z
#    x 1.901500 0.098350 0.011770 
#    y 0.098350 2.560210 0.075170 
#    z 0.011770 0.075170 1.944570 
# 
# From -- ./inp_files/323438.got.cif
#   From: 2010.05.17/outbox.cif.g08.bks.cpg/sg2_162_cif.got.tgz:323438.got - 2010.06.03 11:33:40.
