data_PCOD9014902
_publ_section_title
;
Structure prediction by ZEFSAII (Michael W. Deem and Ramdas Pophale) SiO2 
 PCOD9014902
Probable space group: P -1
;
_chemical_formula_sum "Si O2"
_cell_formula_units_Z 16
_cell_length_a 15.155288
_cell_length_b 10.730934
_cell_length_c 7.016733
_cell_angle_alpha 81.922339
_cell_angle_beta 54.411329
_cell_angle_gamma 51.556149
_cell_volume 681.527342
_symmetry_space_group_name_H-M "P -1"
_symmetry_group_IT_number 2
_symmetry_cell_setting 'triclinic'
loop_
_space_group_symop_operation_xyz
x,y,z
-x,-y,-z
loop_
_atom_site_type_symbol
_atom_site_label
_atom_site_fract_x
_atom_site_fract_y
_atom_site_fract_z
Si Si1 0.592782 0.345716 0.566547
Si Si2 0.215504 0.717390 0.325146
Si Si3 0.642631 0.841614 0.743346
Si Si4 0.884801 0.955828 0.669726
Si Si5 0.190164 0.039566 0.647527
Si Si6 0.314965 0.421336 0.997232
Si Si7 0.066629 0.281564 0.086764
Si Si8 0.236656 0.390940 0.693659
O O1 0.500000 0.500000 0.500000
O O2 0.675012 0.368449 0.615178
O O3 0.708978 0.156142 0.374478
O O4 0.482429 0.337684 0.817929
O O5 0.046097 0.852638 0.571772
O O6 0.228820 0.845754 0.185385
O O7 0.233078 0.594850 0.176118
O O8 0.638380 0.756749 0.574745
O O9 0.721204 0.906264 0.551022
O O10 0.714276 0.688384 0.837677
O O11 0.500000 0.000000 0.000000
O O12 0.848373 0.847530 0.818124
O O13 0.895099 0.940142 0.434184
O O14 0.085092 0.169596 0.915167
O O15 0.283596 0.434355 0.808553
O O16 0.895568 0.443266 0.295432
O O17 0.152738 0.337755 0.903212
#
# Coordination Sequence:
#
# PCOD9014902 Si02
#       8
#     2   2   2   2   2   2   2   2
#     4  11  26  43  64  96 134 180 225 271 318 399
#     4  10  24  44  63  98 131 176 229 265 332 385
#     4  11  23  44  67  98 136 174 218 273 323 405
#     4  10  21  42  69  94 133 170 219 280 321 391
#     4  10  22  45  66 103 128 169 228 263 340 383
#     4  12  24  43  66  95 133 181 214 276 328 391
#     4  10  21  41  69  99 133 168 211 285 327 394
#     4  10  24  41  67 104 131 167 225 264 346 392
#
# _framework density 23.476680999999999
#
# number of rings (size 3 to 8) (size 9 to 14) (size 15 to 20)
#    0.000    1.500    1.250    2.625    5.250    0.500 
#    2.250    7.500    0.000    0.000    0.000    0.000 
#    0.000    0.000    0.000    0.000    0.000    0.000 
#
# Total GULP energy -89310.186755 kJ/mol
# GULP energy per Si atom -5581.886672 kJ/mol
# Density = 2.342325 g / cm^3
# Si number density = 23.476681 Si / 1000 Ang^3
#
#
#
# Elastic Constant Matrix: (Units=GPa)
#
#
# Indices 1 2 3 4 5 6 
#
# 1 90.9883 42.7539 42.1716 7.7807 27.7192 6.9250
# 2 42.7539 156.7897 37.2321 -1.4873 23.9549 1.4853
# 3 42.1716 37.2321 108.3795 21.8681 24.5428 -3.2882
# 4 7.7807 -1.4873 21.8681 40.8032 3.3604 12.3738
# 5 27.7192 23.9549 24.5428 3.3604 32.8777 3.9407
# 6 6.9250 1.4853 -3.2882 12.3738 3.9407 23.2055
#
#
#
# Elastic Compliance Matrix: (Units=1/GPa)
#
#
# Indices 1 2 3 4 5 6 
#
# 1 0.016991 -0.002197 -0.004104 0.000997 -0.009226 -0.004476
# 2 -0.002197 0.007810 -0.001634 0.002012 -0.002742 -0.000683
# 3 -0.004104 -0.001634 0.015248 -0.009894 -0.006912 0.009940
# 4 0.000997 0.002012 -0.009894 0.035936 0.004004 -0.021670
# 5 -0.009226 -0.002742 -0.006912 0.004004 0.045899 -0.007980
# 6 -0.004476 -0.000683 0.009940 -0.021670 -0.007980 0.058791
#
#
# Mechanical properties :
#
#
# Convention : Reuss Voigt Hill
#
# Bulk Modulus (GPa) = 41.35901 66.71919 54.03910
# Shear Modulus (GPa) = 24.43736 34.97727 29.70732
#
# Velocity S-wave (km/s) = 3.22983 3.86407 3.56110
# Velocity P-wave (km/s) = 5.61822 6.95623 6.32272
#
# Compressibility (1/GPa) = 0.02417853
#
# Stress axis : x y z
#
# Youngs Moduli (GPa) = 58.85388 128.04885 65.58107
#
# Poissons Ratio (x) = 0.28134 0.26917
# Poissons Ratio (y) = 0.12931 0.10714
# Poissons Ratio (z) = 0.24156 0.20920
#
# Static dielectric constant tensor:
#      x y z
#    x 1.935210 0.063590 -0.024090 
#    y 0.063590 2.025750 -0.054360 
#    z -0.024090 -0.054360 1.900680 
# 
# From -- ./inp_files/94927.got.cif
#   From: 2010.05.17/outbox.cif.g08.bks.cpg/sg2_48_cif.got.tgz:94927.got - 2010.06.03 11:33:40.
