data_PCOD9014599
_publ_section_title
;
Structure prediction by ZEFSAII (Michael W. Deem and Ramdas Pophale) SiO2 
 PCOD9014599
Probable space group: P -1
;
_chemical_formula_sum "Si O2"
_cell_formula_units_Z 16
_cell_length_a 20.455306
_cell_length_b 8.155145
_cell_length_c 9.958743
_cell_angle_alpha 132.224179
_cell_angle_beta 41.185705
_cell_angle_gamma 136.401040
_cell_volume 724.281375
_symmetry_space_group_name_H-M "P -1"
_symmetry_group_IT_number 2
_symmetry_cell_setting 'triclinic'
loop_
_space_group_symop_operation_xyz
x,y,z
-x,-y,-z
loop_
_atom_site_type_symbol
_atom_site_label
_atom_site_fract_x
_atom_site_fract_y
_atom_site_fract_z
Si Si1 0.223440 0.734365 0.481537
Si Si2 0.899108 0.949191 0.229785
Si Si3 0.377866 0.898382 0.078172
Si Si4 0.370465 0.826320 0.571106
Si Si5 0.384792 0.376765 0.194851
Si Si6 0.919244 0.746096 0.703831
Si Si7 0.211460 0.995817 0.075720
Si Si8 0.193137 0.555838 0.016626
O O1 0.172070 0.927164 0.657190
O O2 0.299141 0.779779 0.259553
O O3 0.309662 0.805309 0.509711
O O4 0.121316 0.457929 0.465321
O O5 0.952406 0.085278 0.361970
O O6 0.832717 0.652957 0.170576
O O7 0.000000 0.000000 0.000000
O O8 0.373894 0.139915 0.161007
O O9 0.323662 0.695704 0.932674
O O10 0.500000 0.000000 0.000000
O O11 0.369932 0.559916 0.422471
O O12 0.297674 0.916915 0.825100
O O13 0.500000 0.000000 0.500000
O O14 0.500000 0.500000 0.000000
O O15 0.284774 0.257775 0.178352
O O16 0.869963 0.584115 0.827186
O O17 0.869665 0.941751 0.858049
O O18 0.158023 0.764828 0.134508
#
# Coordination Sequence:
#
# PCOD9014599 Si02
#       8
#     2   2   2   2   2   2   2   2
#     4  11  23  41  65  97 133 170 229 266 329 408
#     4  10  21  41  68  94 127 172 224 281 328 385
#     4  10  23  39  66  92 128 180 213 266 341 387
#     4  12  24  37  62  95 127 179 219 262 332 393
#     4  11  22  41  61  88 137 173 215 273 323 396
#     4  10  21  43  70  91 129 177 215 277 341 379
#     4  11  23  41  65  94 133 172 218 276 329 392
#     4   9  22  39  64  93 132 162 224 270 326 391
#
# _framework density 22.090861
#
# number of rings (size 3 to 8) (size 9 to 14) (size 15 to 20)
#    0.000    1.500    2.500    2.625    5.250    1.500 
#    0.000    1.250    0.000    6.000    0.000    0.000 
#    0.000    0.000    0.000    0.000    0.000    0.000 
#
# Total GULP energy -89184.281530 kJ/mol
# GULP energy per Si atom -5574.017596 kJ/mol
# Density = 2.204058 g / cm^3
# Si number density = 22.090861 Si / 1000 Ang^3
#
#
#
# Elastic Constant Matrix: (Units=GPa)
#
#
# Indices 1 2 3 4 5 6 
#
# 1 118.2324 51.4826 -1.2709 3.9114 0.5982 16.5968
# 2 51.4826 110.2899 29.9290 35.4681 6.0307 31.6846
# 3 -1.2709 29.9290 54.6995 13.0607 8.9368 7.4822
# 4 3.9114 35.4681 13.0607 29.6571 3.7959 5.1034
# 5 0.5982 6.0307 8.9368 3.7959 31.3535 9.4652
# 6 16.5968 31.6846 7.4822 5.1034 9.4652 33.9402
#
#
#
# Elastic Compliance Matrix: (Units=1/GPa)
#
#
# Indices 1 2 3 4 5 6 
#
# 1 0.012254 -0.009629 0.003548 0.008228 -0.000747 0.001186
# 2 -0.009629 0.030122 -0.008248 -0.028620 0.005924 -0.018942
# 3 0.003548 -0.008248 0.023666 -0.000701 -0.005896 0.002497
# 4 0.008228 -0.028620 -0.000701 0.065483 -0.006885 0.014923
# 5 -0.000747 0.005924 -0.005896 -0.006885 0.037276 -0.013225
# 6 0.001186 -0.018942 0.002497 0.014923 -0.013225 0.047460
#
#
# Mechanical properties :
#
#
# Convention : Reuss Voigt Hill
#
# Bulk Modulus (GPa) = 26.74903 49.27814 38.01358
# Shear Modulus (GPa) = 19.42654 32.52891 25.97772
#
# Velocity S-wave (km/s) = 2.96867 3.84149 3.43293
# Velocity P-wave (km/s) = 4.88729 6.48317 5.74095
#
# Compressibility (1/GPa) = 0.03738454
#
# Stress axis : x y z
#
# Youngs Moduli (GPa) = 81.60633 33.19887 42.25434
#
# Poissons Ratio (x) = 0.31967 -0.14993
# Poissons Ratio (y) = 0.78578 0.34852
# Poissons Ratio (z) = -0.28957 0.27383
#
# Static dielectric constant tensor:
#      x y z
#    x 1.905400 0.059200 0.074730 
#    y 0.059200 1.885430 -0.018740 
#    z 0.074730 -0.018740 1.767630 
# 
# From -- ./inp_files/272267.got.cif
#   From: 2010.05.17/outbox.cif.g08.bks.cpg/sg2_137_cif.got.tgz:272267.got - 2010.06.03 11:33:40.
