data_PCOD9014048
_publ_section_title
;
Structure prediction by ZEFSAII (Michael W. Deem and Ramdas Pophale) SiO2 
 PCOD9014048
Probable space group: P -1
;
_chemical_formula_sum "Si O2"
_cell_formula_units_Z 16
_cell_length_a 10.780846
_cell_length_b 7.921980
_cell_length_c 18.425525
_cell_angle_alpha 67.934617
_cell_angle_beta 135.089439
_cell_angle_gamma 142.101560
_cell_volume 618.572992
_symmetry_space_group_name_H-M "P -1"
_symmetry_group_IT_number 2
_symmetry_cell_setting 'triclinic'
loop_
_space_group_symop_operation_xyz
x,y,z
-x,-y,-z
loop_
_atom_site_type_symbol
_atom_site_label
_atom_site_fract_x
_atom_site_fract_y
_atom_site_fract_z
Si Si1 0.915966 0.099564 0.229645
Si Si2 0.724173 0.613871 0.929979
Si Si3 0.336658 0.602632 0.761530
Si Si4 0.096686 0.749058 0.948728
Si Si5 0.063659 0.763753 0.468354
Si Si6 0.675859 0.453399 0.081479
Si Si7 0.556023 0.699319 0.552905
Si Si8 0.096809 0.796697 0.624320
O O1 0.957258 0.288091 0.154281
O O2 0.182954 0.180607 0.314359
O O3 0.905981 0.144163 0.303317
O O4 0.596566 0.747385 0.143589
O O5 0.643202 0.759560 0.879680
O O6 0.894389 0.731144 0.907059
O O7 0.853525 0.620214 0.053736
O O8 0.213603 0.409013 0.668074
O O9 0.163367 0.426765 0.794267
O O10 0.302842 0.789804 0.708211
O O11 0.000000 0.500000 0.000000
O O12 0.436659 0.091060 0.041431
O O13 0.173232 0.961663 0.553938
O O14 0.000000 0.500000 0.500000
O O15 0.320331 0.015759 0.478006
O O16 0.500000 0.500000 0.000000
O O17 0.500000 0.500000 0.500000
O O18 0.248678 0.501472 0.490300
#
# Coordination Sequence:
#
# PCOD9014048 Si02
#       8
#     2   2   2   2   2   2   2   2
#     4  10  23  42  68  97 136 181 211 275 348 383
#     4  10  22  43  69  93 137 172 223 274 335 406
#     4  10  21  41  66  95 129 183 208 266 341 385
#     4  11  26  42  69 106 129 169 232 276 332 403
#     4  10  22  42  62  98 133 177 222 268 331 386
#     4   9  22  44  67  96 134 173 219 271 342 397
#     4  10  22  42  65  98 132 173 226 268 327 398
#     4  10  24  40  68  97 138 171 227 275 324 399
#
# _framework density 25.865983
#
# number of rings (size 3 to 8) (size 9 to 14) (size 15 to 20)
#    0.000    2.000    1.250    0.000    5.250    9.000 
#    4.500    5.000    0.000    0.000    0.000    0.000 
#    0.000    0.000    0.000    0.000    0.000    0.000 
#
# Total GULP energy -89111.543216 kJ/mol
# GULP energy per Si atom -5569.471451 kJ/mol
# Density = 2.580711 g / cm^3
# Si number density = 25.865983 Si / 1000 Ang^3
#
#
#
# Elastic Constant Matrix: (Units=GPa)
#
#
# Indices 1 2 3 4 5 6 
#
# 1 101.6070 13.7002 34.5748 -11.8108 -9.9790 6.7750
# 2 13.7002 119.0040 43.3163 -20.5092 3.8165 5.3647
# 3 34.5748 43.3163 139.0765 -33.7602 -48.4080 4.9303
# 4 -11.8108 -20.5092 -33.7602 30.0642 7.2510 -5.3811
# 5 -9.9790 3.8165 -48.4080 7.2510 52.6198 -8.0399
# 6 6.7750 5.3647 4.9303 -5.3811 -8.0399 32.8017
#
#
#
# Elastic Compliance Matrix: (Units=1/GPa)
#
#
# Indices 1 2 3 4 5 6 
#
# 1 0.010924 0.000024 -0.002653 0.001192 -0.000820 -0.001867
# 2 0.000024 0.010887 -0.004463 0.003444 -0.005661 -0.001937
# 3 -0.002653 -0.004463 0.017185 0.012469 0.014571 0.004312
# 4 0.001192 0.003444 0.012469 0.049960 0.005615 0.006889
# 5 -0.000820 -0.005661 0.014571 0.005615 0.033103 0.007940
# 6 -0.001867 -0.001937 0.004312 0.006889 0.007940 0.033617
#
#
# Mechanical properties :
#
#
# Convention : Reuss Voigt Hill
#
# Bulk Modulus (GPa) = 40.30170 60.31891 50.31030
# Shear Modulus (GPa) = 28.06922 40.97022 34.51972
#
# Velocity S-wave (km/s) = 3.29778 3.98419 3.65713
# Velocity P-wave (km/s) = 5.48774 6.67349 6.10945
#
# Compressibility (1/GPa) = 0.02481285
#
# Stress axis : x y z
#
# Youngs Moduli (GPa) = 91.54229 91.85227 58.18915
#
# Poissons Ratio (x) = -0.00221 0.15439
# Poissons Ratio (y) = -0.00221 0.25968
# Poissons Ratio (z) = 0.24288 0.40990
#
# Static dielectric constant tensor:
#      x y z
#    x 2.182000 -0.076830 -0.091070 
#    y -0.076830 2.060930 0.028810 
#    z -0.091070 0.028810 2.155220 
# 
# From -- ./inp_files/566656.got.cif
#   From: 2010.05.17/outbox.cif.g08.bks.cpg/sg2_284_cif.got.tgz:566656.got - 2010.06.03 11:33:40.
