data_PCOD9014655
_publ_section_title
;
Structure prediction by ZEFSAII (Michael W. Deem and Ramdas Pophale) SiO2 
 PCOD9014655
Probable space group: P -1
;
_chemical_formula_sum "Si O2"
_cell_formula_units_Z 16
_cell_length_a 23.200087
_cell_length_b 6.664653
_cell_length_c 5.471782
_cell_angle_alpha 99.130027
_cell_angle_beta 96.363792
_cell_angle_gamma 52.026309
_cell_volume 658.391099
_symmetry_space_group_name_H-M "P -1"
_symmetry_group_IT_number 2
_symmetry_cell_setting 'triclinic'
loop_
_space_group_symop_operation_xyz
x,y,z
-x,-y,-z
loop_
_atom_site_type_symbol
_atom_site_label
_atom_site_fract_x
_atom_site_fract_y
_atom_site_fract_z
Si Si1 0.566282 0.063102 0.467404
Si Si2 0.220605 0.289792 0.152929
Si Si3 0.654204 0.260849 0.763078
Si Si4 0.091751 0.519142 0.475702
Si Si5 0.705725 0.494545 0.479315
Si Si6 0.517187 0.700203 0.031483
Si Si7 0.835442 0.284734 0.189340
Si Si8 0.946722 0.727194 0.201715
O O1 0.627679 0.759194 0.436995
O O2 0.512099 0.156658 0.693889
O O3 0.606113 0.197208 0.571729
O O4 0.528979 0.134874 0.197090
O O5 0.152010 0.332811 0.264029
O O6 0.254743 0.401402 0.347651
O O7 0.287848 0.991156 0.100014
O O8 0.190479 0.476519 0.946219
O O9 0.695234 0.320550 0.606748
O O10 0.601669 0.514190 0.953104
O O11 0.117471 0.690408 0.586877
O O12 0.094752 0.345300 0.658823
O O13 0.007439 0.708341 0.393971
O O14 0.761567 0.335675 0.255684
O O15 0.500000 0.500000 0.000000
O O16 0.892116 0.991147 0.082558
O O17 0.000000 0.500000 0.000000
#
# Coordination Sequence:
#
# PCOD9014655 Si02
#       8
#     2   2   2   2   2   2   2   2
#     4  10  23  43  67  97 137 177 232 285 352 406
#     4  10  23  42  63  94 131 171 220 267 332 398
#     4  10  21  42  64  94 129 178 219 279 338 403
#     4  10  23  43  66  92 135 171 212 274 327 407
#     4  10  24  41  64  94 129 173 224 275 331 407
#     4  10  21  41  68  96 136 180 226 288 349 410
#     4  11  24  43  66  93 132 177 214 278 333 404
#     4  11  24  41  69 103 127 167 222 270 332 405
#
# _framework density 24.301667999999999
#
# number of rings (size 3 to 8) (size 9 to 14) (size 15 to 20)
#    0.000    1.750    0.000    3.375    5.250    9.000 
#    9.000    0.000    0.000    0.000    0.000    0.000 
#    0.000    0.000    0.000    0.000    0.000    0.000 
#
# Total GULP energy -89449.585901 kJ/mol
# GULP energy per Si atom -5590.599119 kJ/mol
# Density = 2.424636 g / cm^3
# Si number density = 24.301668 Si / 1000 Ang^3
#
#
#
# Elastic Constant Matrix: (Units=GPa)
#
#
# Indices 1 2 3 4 5 6 
#
# 1 135.2749 52.9815 47.9389 -6.0333 -29.4948 -7.7062
# 2 52.9815 142.0586 49.8133 -17.9871 -0.2039 -34.4280
# 3 47.9389 49.8133 109.5845 -8.5621 -18.8083 -15.5917
# 4 -6.0333 -17.9871 -8.5621 41.1925 8.3987 0.2056
# 5 -29.4948 -0.2039 -18.8083 8.3987 42.1605 -0.4887
# 6 -7.7062 -34.4280 -15.5917 0.2056 -0.4887 43.6459
#
#
#
# Elastic Compliance Matrix: (Units=1/GPa)
#
#
# Indices 1 2 3 4 5 6 
#
# 1 0.011150 -0.004112 -0.002220 -0.002078 0.007181 -0.001978
# 2 -0.004112 0.012161 -0.003123 0.005067 -0.005132 0.007670
# 3 -0.002220 -0.003123 0.012438 0.000076 0.003985 0.001632
# 4 -0.002078 0.005067 0.000076 0.027580 -0.006849 0.003450
# 5 0.007181 -0.005132 0.003985 -0.006849 0.031849 -0.000968
# 6 -0.001978 0.007670 0.001632 0.003450 -0.000968 0.029168
#
#
# Mechanical properties :
#
#
# Convention : Reuss Voigt Hill
#
# Bulk Modulus (GPa) = 59.38305 76.48725 67.93515
# Shear Modulus (GPa) = 33.58684 41.14538 37.36611
#
# Velocity S-wave (km/s) = 3.72167 4.11920 3.92547
# Velocity P-wave (km/s) = 6.55413 7.35977 6.96860
#
# Compressibility (1/GPa) = 0.01683982
#
# Stress axis : x y z
#
# Youngs Moduli (GPa) = 89.68617 82.23050 80.39955
#
# Poissons Ratio (x) = 0.33816 0.17846
# Poissons Ratio (y) = 0.36882 0.25105
# Poissons Ratio (z) = 0.19907 0.25677
#
# Static dielectric constant tensor:
#      x y z
#    x 1.981020 -0.100600 0.062240 
#    y -0.100600 2.835150 0.204500 
#    z 0.062240 0.204500 2.051590 
# 
# From -- ./inp_files/121545.got.cif
#   From: 2010.05.17/outbox.cif.g08.bks.cpg/sg2_61_cif.got.tgz:121545.got - 2010.06.03 11:33:40.
