data_PCOD9014985
_publ_section_title
;
Structure prediction by ZEFSAII (Michael W. Deem and Ramdas Pophale) SiO2 
 PCOD9014985
Probable space group: P -1
;
_chemical_formula_sum "Si O2"
_cell_formula_units_Z 16
_cell_length_a 8.878982
_cell_length_b 10.992055
_cell_length_c 12.080649
_cell_angle_alpha 34.852594
_cell_angle_beta 75.950334
_cell_angle_gamma 69.965478
_cell_volume 631.396226
_symmetry_space_group_name_H-M "P -1"
_symmetry_group_IT_number 2
_symmetry_cell_setting 'triclinic'
loop_
_space_group_symop_operation_xyz
x,y,z
-x,-y,-z
loop_
_atom_site_type_symbol
_atom_site_label
_atom_site_fract_x
_atom_site_fract_y
_atom_site_fract_z
Si Si1 0.267789 0.515154 0.119605
Si Si2 0.507847 0.678758 0.229239
Si Si3 0.145072 0.673144 0.239706
Si Si4 0.357088 0.087660 0.544930
Si Si5 0.570831 0.166690 0.648741
Si Si6 0.137387 0.869499 0.489993
Si Si7 0.930807 0.796771 0.383066
Si Si8 0.361453 0.494035 0.874908
O O1 0.145927 0.679942 0.100615
O O2 0.253435 0.282826 0.343123
O O3 0.454183 0.512256 0.119079
O O4 0.265056 0.495177 0.003883
O O5 0.320104 0.700760 0.220596
O O6 0.578398 0.423751 0.446460
O O7 0.506906 0.837488 0.213966
O O8 0.606095 0.688500 0.091712
O O9 0.133749 0.423299 0.457155
O O10 0.012851 0.823003 0.231772
O O11 0.450452 0.135785 0.599383
O O12 0.216517 0.003760 0.693083
O O13 0.500000 0.000000 0.500000
O O14 0.745817 0.021967 0.686840
O O15 0.263428 0.714413 0.666994
O O16 0.058963 0.756586 0.490175
O O17 0.000000 0.000000 0.500000
#
# Coordination Sequence:
#
# PCOD9014985 Si02
#       8
#     2   2   2   2   2   2   2   2
#     4   9  17  33  52  75  98 132 171 206 244 296
#     4   9  15  28  51  73  98 121 170 220 239 282
#     4   9  16  30  47  73 102 122 167 212 253 288
#     4  11  20  33  50  74 106 134 165 202 248 305
#     4  10  17  30  49  73  98 128 170 211 242 282
#     4  11  20  31  48  75 105 131 164 206 252 299
#     4  10  19  28  48  74 101 132 158 211 259 286
#     4   9  18  31  53  75  99 131 170 208 246 289
#
# _framework density 25.340667
#
# number of rings (size 3 to 8) (size 9 to 14) (size 15 to 20)
#    0.000    2.250    6.250    0.750    0.000    0.000 
#    0.000    2.500    0.000    3.000    0.000    0.000 
#    0.000    0.000    0.000    0.000    0.000    0.000 
#
# Total GULP energy -89083.237034 kJ/mol
# GULP energy per Si atom -5567.702315 kJ/mol
# Density = 2.528299 g / cm^3
# Si number density = 25.340667 Si / 1000 Ang^3
#
#
#
# Elastic Constant Matrix: (Units=GPa)
#
#
# Indices 1 2 3 4 5 6 
#
# 1 68.4815 38.7290 18.3535 23.5952 4.2306 -17.8672
# 2 38.7290 222.3877 76.5062 79.0889 -6.0969 -37.8129
# 3 18.3535 76.5062 97.4669 65.5978 -9.9820 -5.3306
# 4 23.5952 79.0889 65.5978 72.2052 -4.3669 -9.5820
# 5 4.2306 -6.0969 -9.9820 -4.3669 19.0648 16.4009
# 6 -17.8672 -37.8129 -5.3306 -9.5820 16.4009 51.1257
#
#
#
# Elastic Compliance Matrix: (Units=1/GPa)
#
#
# Indices 1 2 3 4 5 6 
#
# 1 0.020689 0.000306 -0.002057 -0.004682 -0.016737 0.011734
# 2 0.000306 0.008796 -0.002690 -0.006730 -0.006308 0.007094
# 3 -0.002057 -0.002690 0.030421 -0.024226 0.018621 -0.010051
# 4 -0.004682 -0.006730 -0.024226 0.044585 -0.004020 0.000506
# 5 -0.016737 -0.006308 0.018621 -0.004020 0.098064 -0.040785
# 6 0.011734 0.007094 -0.010051 0.000506 -0.040785 0.041038
#
#
# Mechanical properties :
#
#
# Convention : Reuss Voigt Hill
#
# Bulk Modulus (GPa) = 19.59871 72.83482 46.21676
# Shear Modulus (GPa) = 18.55406 45.46230 32.00818
#
# Velocity S-wave (km/s) = 2.70883 4.24021 3.55789
# Velocity P-wave (km/s) = 4.18743 7.26479 5.92924
#
# Compressibility (1/GPa) = 0.05102376
#
# Stress axis : x y z
#
# Youngs Moduli (GPa) = 48.33378 113.69364 32.87202
#
# Poissons Ratio (x) = -0.03481 0.06763
# Poissons Ratio (y) = -0.01480 0.08842
# Poissons Ratio (z) = 0.09944 0.30583
#
# Static dielectric constant tensor:
#      x y z
#    x 1.997150 -0.013420 -0.075300 
#    y -0.013420 2.241390 -0.033970 
#    z -0.075300 -0.033970 2.093690 
# 
# From -- ./inp_files/295870.got.cif
#   From: 2010.05.17/outbox.cif.g08.bks.cpg/sg2_148_cif.got.tgz:295870.got - 2010.06.03 11:33:40.
