data_PCOD9014904
_publ_section_title
;
Structure prediction by ZEFSAII (Michael W. Deem and Ramdas Pophale) SiO2 
 PCOD9014904
Probable space group: P -1
;
_chemical_formula_sum "Si O2"
_cell_formula_units_Z 16
_cell_length_a 14.809398
_cell_length_b 8.988862
_cell_length_c 7.738361
_cell_angle_alpha 107.111135
_cell_angle_beta 95.642017
_cell_angle_gamma 130.557010
_cell_volume 685.932165
_symmetry_space_group_name_H-M "P -1"
_symmetry_group_IT_number 2
_symmetry_cell_setting 'triclinic'
loop_
_space_group_symop_operation_xyz
x,y,z
-x,-y,-z
loop_
_atom_site_type_symbol
_atom_site_label
_atom_site_fract_x
_atom_site_fract_y
_atom_site_fract_z
Si Si1 0.513051 0.695493 0.504393
Si Si2 0.130302 0.708442 0.501436
Si Si3 0.513082 0.331664 0.924709
Si Si4 0.223015 0.353884 0.012177
Si Si5 0.808275 0.097539 0.773038
Si Si6 0.746801 0.454392 0.563959
Si Si7 0.252460 0.029349 0.922453
Si Si8 0.946686 0.953354 0.664410
O O1 0.500000 0.500000 0.500000
O O2 0.507601 0.715514 0.301697
O O3 0.391233 0.639834 0.539607
O O4 0.654230 0.927387 0.663504
O O5 0.117960 0.717030 0.297260
O O6 0.234653 0.699032 0.540257
O O7 0.183215 0.923480 0.688188
O O8 0.000000 0.500000 0.500000
O O9 0.395250 0.132191 0.954608
O O10 0.500000 0.500000 0.000000
O O11 0.661743 0.469125 0.041733
O O12 0.074510 0.155219 0.864967
O O13 0.258213 0.220215 0.035122
O O14 0.238821 0.501538 0.212579
O O15 0.845817 0.967651 0.684332
O O16 0.828213 0.146569 0.997462
O O17 0.869455 0.702512 0.605298
O O18 0.000000 0.000000 0.500000
#
# Coordination Sequence:
#
# PCOD9014904 Si02
#       8
#     2   2   2   2   2   2   2   2
#     4  11  20  41  71 104 136 173 237 291 337 406
#     4  12  28  48  67  99 150 187 224 281 348 421
#     4   9  19  35  66 100 130 174 221 287 343 389
#     4  10  21  41  69  99 136 176 234 285 337 413
#     4  12  25  44  72  99 137 186 229 283 346 410
#     4  11  24  44  69  99 139 183 225 286 350 396
#     4  11  22  45  72  98 136 184 230 283 349 407
#     4  12  24  39  68 103 134 178 234 288 337 406
#
# _framework density 23.325923
#
# number of rings (size 3 to 8) (size 9 to 14) (size 15 to 20)
#    0.000    1.000    3.750    4.125    3.500    2.000 
#    2.250    0.625    0.000    0.000    0.000    0.000 
#    0.000    0.000    0.000    0.000    0.000    0.000 
#
# Total GULP energy -89344.044686 kJ/mol
# GULP energy per Si atom -5584.002793 kJ/mol
# Density = 2.327283 g / cm^3
# Si number density = 23.325923 Si / 1000 Ang^3
#
#
#
# Elastic Constant Matrix: (Units=GPa)
#
#
# Indices 1 2 3 4 5 6 
#
# 1 83.3208 15.4091 27.8081 -9.1947 -15.5327 8.2001
# 2 15.4091 82.6559 19.7209 -25.0871 -12.4188 27.3507
# 3 27.8081 19.7209 57.8474 -7.6087 -4.4037 18.3908
# 4 -9.1947 -25.0871 -7.6087 37.4347 8.6485 -8.4182
# 5 -15.5327 -12.4188 -4.4037 8.6485 27.0176 -1.9958
# 6 8.2001 27.3507 18.3908 -8.4182 -1.9958 36.0715
#
#
#
# Elastic Compliance Matrix: (Units=1/GPa)
#
#
# Indices 1 2 3 4 5 6 
#
# 1 0.015850 -0.000102 -0.007123 0.000754 0.007715 0.000709
# 2 -0.000102 0.019966 -0.001346 0.009214 0.005064 -0.012000
# 3 -0.007123 -0.001346 0.024181 0.000467 -0.001636 -0.009671
# 4 0.000754 0.009214 0.000467 0.034713 -0.006341 0.000355
# 5 0.007715 0.005064 -0.001636 -0.006341 0.045264 -0.003735
# 6 0.000709 -0.012000 -0.009671 0.000355 -0.003735 0.041467
#
#
# Mechanical properties :
#
#
# Convention : Reuss Voigt Hill
#
# Bulk Modulus (GPa) = 23.33385 38.85559 31.09472
# Shear Modulus (GPa) = 23.48887 30.83049 27.15968
#
# Velocity S-wave (km/s) = 3.17675 3.63950 3.41597
# Velocity P-wave (km/s) = 4.84569 5.86132 5.37754
#
# Compressibility (1/GPa) = 0.04285619
#
# Stress axis : x y z
#
# Youngs Moduli (GPa) = 63.09240 50.08424 41.35447
#
# Poissons Ratio (x) = 0.00509 0.29458
# Poissons Ratio (y) = 0.00641 0.05565
# Poissons Ratio (z) = 0.44943 0.06739
#
# Static dielectric constant tensor:
#      x y z
#    x 2.306690 0.622700 0.060140 
#    y 0.622700 2.763380 -0.038560 
#    z 0.060140 -0.038560 1.928910 
# 
# From -- ./inp_files/298856.got.cif
#   From: 2010.05.17/outbox.cif.g08.bks.cpg/sg2_150_cif.got.tgz:298856.got - 2010.06.03 11:33:40.
