data_PCOD9014816
_publ_section_title
;
Structure prediction by ZEFSAII (Michael W. Deem and Ramdas Pophale) SiO2 
 PCOD9014816
Probable space group: P -1
;
_chemical_formula_sum "Si O2"
_cell_formula_units_Z 14
_cell_length_a 6.527624
_cell_length_b 8.184932
_cell_length_c 13.749091
_cell_angle_alpha 116.492033
_cell_angle_beta 93.157932
_cell_angle_gamma 116.829314
_cell_volume 555.622747
_symmetry_space_group_name_H-M "P -1"
_symmetry_group_IT_number 2
_symmetry_cell_setting 'triclinic'
loop_
_space_group_symop_operation_xyz
x,y,z
-x,-y,-z
loop_
_atom_site_type_symbol
_atom_site_label
_atom_site_fract_x
_atom_site_fract_y
_atom_site_fract_z
Si Si1 0.552965 0.446974 0.097038
Si Si2 0.965733 0.344740 0.327775
Si Si3 0.156281 0.036915 0.920392
Si Si4 0.735853 0.714817 0.524825
Si Si5 0.477038 0.050006 0.320743
Si Si6 0.035121 0.694309 0.118261
Si Si7 0.466480 0.678683 0.328018
O O1 0.437746 0.527505 0.195364
O O2 0.835679 0.560771 0.161140
O O3 0.500000 0.500000 0.000000
O O4 0.424535 0.192220 0.011874
O O5 0.050945 0.287733 0.415602
O O6 0.208850 0.561686 0.350619
O O7 0.902954 0.170228 0.195589
O O8 0.692823 0.269403 0.335233
O O9 0.066795 0.161683 0.883856
O O10 0.000000 0.000000 0.000000
O O11 0.500000 0.500000 0.500000
O O12 0.686550 0.707661 0.407670
O O13 0.708115 0.903836 0.617943
O O14 0.313972 0.861187 0.189960
O O15 0.544028 0.916879 0.359293
O O16 0.000000 0.500000 0.000000
#
# Coordination Sequence:
#
# PCOD9014816 Si02
#       7
#     2   2   2   2   2   2   2
#     4  10  21  41  69  93 138 182 221 283 341 404
#     4  11  24  47  71 101 143 181 229 293 343 412
#     4  11  20  40  67  95 135 178 223 278 347 406
#     4  10  25  48  70 102 141 181 237 287 341 414
#     4  12  24  46  71 103 141 181 230 290 349 406
#     4  11  23  41  65 102 138 174 229 284 341 414
#     4  11  24  45  71 103 135 185 237 279 351 415
#
# _framework density 25.196952
#
# number of rings (size 3 to 8) (size 9 to 14) (size 15 to 20)
#    0.000    1.143    2.857    4.714    0.000    2.857 
#   10.286    1.429    0.000    0.000    0.000    0.000 
#    0.000    0.000    0.000    0.000    0.000    0.000 
#
# Total GULP energy -78051.537687 kJ/mol
# GULP energy per Si atom -5575.109835 kJ/mol
# Density = 2.513960 g / cm^3
# Si number density = 25.196952 Si / 1000 Ang^3
#
#
#
# Elastic Constant Matrix: (Units=GPa)
#
#
# Indices 1 2 3 4 5 6 
#
# 1 60.4666 13.4353 6.5431 -2.3015 0.1523 29.3061
# 2 13.4353 57.4226 3.6138 7.5463 -6.5669 24.4310
# 3 6.5431 3.6138 106.2210 0.0550 -5.3902 8.5956
# 4 -2.3015 7.5463 0.0550 30.1361 -0.2554 -2.3057
# 5 0.1523 -6.5669 -5.3902 -0.2554 28.2878 7.8289
# 6 29.3061 24.4310 8.5956 -2.3057 7.8289 40.0247
#
#
#
# Elastic Compliance Matrix: (Units=1/GPa)
#
#
# Indices 1 2 3 4 5 6 
#
# 1 0.027377 0.005281 0.000572 -0.001080 0.008108 -0.025041
# 2 0.005281 0.029795 0.001462 -0.008903 0.014187 -0.025656
# 3 0.000572 0.001462 0.009832 -0.000627 0.003342 -0.004112
# 4 -0.001080 -0.008903 -0.000627 0.036005 -0.004429 0.009300
# 5 0.008108 0.014187 0.003342 -0.004429 0.045997 -0.024566
# 6 -0.025041 -0.025656 -0.004112 0.009300 -0.024566 0.065204
#
#
# Mechanical properties :
#
#
# Convention : Reuss Voigt Hill
#
# Bulk Modulus (GPa) = 12.24968 30.14384 21.19676
# Shear Modulus (GPa) = 22.04678 33.05758 27.55218
#
# Velocity S-wave (km/s) = 2.96121 3.62604 3.31036
# Velocity P-wave (km/s) = 4.06987 5.43324 4.80021
#
# Compressibility (1/GPa) = 0.08163482
#
# Stress axis : x y z
#
# Youngs Moduli (GPa) = 36.52642 33.56281 101.70794
#
# Poissons Ratio (x) = -0.17726 -0.05820
# Poissons Ratio (y) = -0.19291 -0.14866
# Poissons Ratio (z) = -0.02090 -0.04906
#
# Static dielectric constant tensor:
#      x y z
#    x 2.126340 0.076000 0.063520 
#    y 0.076000 2.044500 0.001650 
#    z 0.063520 0.001650 2.016240 
# 
# From -- ./inp_files/179596.got.cif
#   From: 2010.05.17/outbox.cif.g08.bks.cpg/sg2_90_cif.got.tgz:179596.got - 2010.06.03 11:33:40.
