data_PCOD9014453
_publ_section_title
;
Structure prediction by ZEFSAII (Michael W. Deem and Ramdas Pophale) SiO2 
 PCOD9014453
Probable space group: P -1
;
_chemical_formula_sum "Si O2"
_cell_formula_units_Z 14
_cell_length_a 7.527597
_cell_length_b 10.320451
_cell_length_c 13.403516
_cell_angle_alpha 64.808717
_cell_angle_beta 38.576211
_cell_angle_gamma 67.595705
_cell_volume 585.386659
_symmetry_space_group_name_H-M "P -1"
_symmetry_group_IT_number 2
_symmetry_cell_setting 'triclinic'
loop_
_space_group_symop_operation_xyz
x,y,z
-x,-y,-z
loop_
_atom_site_type_symbol
_atom_site_label
_atom_site_fract_x
_atom_site_fract_y
_atom_site_fract_z
Si Si1 0.326702 0.622761 0.600174
Si Si2 0.352563 0.742258 0.348212
Si Si3 0.975211 0.580527 0.089337
Si Si4 0.782978 0.990972 0.311627
Si Si5 0.186510 0.286519 0.503473
Si Si6 0.691804 0.953246 0.836514
Si Si7 0.433964 0.809795 0.818810
O O1 0.500000 0.500000 0.500000
O O2 0.294918 0.746083 0.491089
O O3 0.045850 0.550344 0.780695
O O4 0.539667 0.648307 0.589042
O O5 0.673559 0.678698 0.201857
O O6 0.293016 0.903905 0.282880
O O7 0.123712 0.649714 0.420877
O O8 0.000000 0.500000 0.000000
O O9 0.228399 0.682285 0.956621
O O10 0.736279 0.047374 0.202263
O O11 0.500000 0.000000 0.500000
O O12 0.892285 0.825623 0.337385
O O13 0.998460 0.091144 0.238539
O O14 0.320474 0.222944 0.361446
O O15 0.558118 0.841292 0.861148
O O16 0.500000 0.000000 0.000000
#
# Coordination Sequence:
#
# PCOD9014453 Si02
#       7
#     2   2   2   2   2   2   2
#     4  10  22  41  66  92 129 173 223 266 322 386
#     4  10  24  43  70  94 133 171 222 274 330 392
#     4  11  23  44  67  95 133 181 224 269 328 389
#     4   9  21  39  68  95 128 166 211 269 335 394
#     4  10  21  41  67  99 128 168 222 270 331 397
#     4  11  24  42  66 104 134 168 220 274 341 400
#     4  11  23  42  67  96 138 174 214 277 335 389
#
# _framework density 23.915816
#
# number of rings (size 3 to 8) (size 9 to 14) (size 15 to 20)
#    0.000    1.714    1.429    1.714    0.000   16.571 
#    2.571    2.143    0.000    0.000    0.000    0.000 
#    0.000    0.000    0.000    0.000    0.000    0.000 
#
# Total GULP energy -78197.136394 kJ/mol
# GULP energy per Si atom -5585.509742 kJ/mol
# Density = 2.386138 g / cm^3
# Si number density = 23.915816 Si / 1000 Ang^3
#
#
#
# Elastic Constant Matrix: (Units=GPa)
#
#
# Indices 1 2 3 4 5 6 
#
# 1 136.6143 20.5716 43.6586 4.2790 -20.2283 24.7278
# 2 20.5716 27.1540 17.4955 -4.0670 -8.8811 12.1520
# 3 43.6586 17.4955 127.1979 -15.4713 -1.5983 13.2566
# 4 4.2790 -4.0670 -15.4713 35.0110 6.8634 0.9028
# 5 -20.2283 -8.8811 -1.5983 6.8634 43.6576 -6.0606
# 6 24.7278 12.1520 13.2566 0.9028 -6.0606 45.3177
#
#
#
# Elastic Compliance Matrix: (Units=1/GPa)
#
#
# Indices 1 2 3 4 5 6 
#
# 1 0.010093 -0.003558 -0.003057 -0.003703 0.003999 -0.003050
# 2 -0.003558 0.048811 -0.004054 0.003308 0.006338 -0.009180
# 3 -0.003057 -0.004054 0.010102 0.004920 -0.002737 -0.000664
# 4 -0.003703 0.003308 0.004920 0.032851 -0.006277 -0.001800
# 5 0.003999 0.006338 -0.002737 -0.006277 0.027026 0.000658
# 6 -0.003050 -0.009180 -0.000664 -0.001800 0.000658 0.026510
#
#
# Mechanical properties :
#
#
# Convention : Reuss Voigt Hill
#
# Bulk Modulus (GPa) = 20.97856 50.49086 35.73471
# Shear Modulus (GPa) = 25.95785 38.74661 32.35223
#
# Velocity S-wave (km/s) = 3.29809 4.02944 3.68197
# Velocity P-wave (km/s) = 4.82639 6.54265 5.74893
#
# Compressibility (1/GPa) = 0.04766772
#
# Stress axis : x y z
#
# Youngs Moduli (GPa) = 99.07929 20.48724 98.99090
#
# Poissons Ratio (x) = 0.07290 0.30263
# Poissons Ratio (y) = 0.35254 0.40129
# Poissons Ratio (z) = 0.30290 0.08305
#
# Static dielectric constant tensor:
#      x y z
#    x 1.796880 0.064430 0.020510 
#    y 0.064430 2.006490 -0.080020 
#    z 0.020510 -0.080020 1.903480 
# 
# From -- ./inp_files/363984.got.cif
#   From: 2010.05.17/outbox.cif.g08.bks.cpg/sg2_182_cif.got.tgz:363984.got - 2010.06.03 11:33:40.
