data_PCOD9014364
_publ_section_title
;
Structure prediction by ZEFSAII (Michael W. Deem and Ramdas Pophale) SiO2 
 PCOD9014364
Probable space group: P -1
;
_chemical_formula_sum "Si O2"
_cell_formula_units_Z 16
_cell_length_a 12.101636
_cell_length_b 22.609230
_cell_length_c 8.610977
_cell_angle_alpha 35.793511
_cell_angle_beta 41.871668
_cell_angle_gamma 29.926560
_cell_volume 680.408736
_symmetry_space_group_name_H-M "P -1"
_symmetry_group_IT_number 2
_symmetry_cell_setting 'triclinic'
loop_
_space_group_symop_operation_xyz
x,y,z
-x,-y,-z
loop_
_atom_site_type_symbol
_atom_site_label
_atom_site_fract_x
_atom_site_fract_y
_atom_site_fract_z
Si Si1 0.148033 0.913539 0.378199
Si Si2 0.496003 0.882961 0.212696
Si Si3 0.809314 0.513090 0.089380
Si Si4 0.866901 0.922371 0.386631
Si Si5 0.426069 0.197177 0.353129
Si Si6 0.054334 0.724391 0.347105
Si Si7 0.064744 0.304680 0.003803
Si Si8 0.713407 0.343489 0.074564
O O1 0.309209 0.943375 0.148014
O O2 0.013036 0.932048 0.330385
O O3 0.303376 0.756753 0.607972
O O4 0.000000 0.000000 0.500000
O O5 0.474381 0.844300 0.488560
O O6 0.717652 0.744230 0.202763
O O7 0.500000 0.000000 0.000000
O O8 0.796230 0.416163 0.408700
O O9 0.908015 0.444001 0.965509
O O10 0.608357 0.673649 0.941280
O O11 0.000000 0.500000 0.000000
O O12 0.854459 0.817214 0.705669
O O13 0.992060 0.845627 0.260167
O O14 0.616425 0.066819 0.327835
O O15 0.184603 0.236615 0.521309
O O16 0.203512 0.695211 0.106813
O O17 0.921665 0.310569 0.010061
O O18 0.500000 0.500000 0.000000
#
# Coordination Sequence:
#
# PCOD9014364 Si02
#       8
#     2   2   2   2   2   2   2   2
#     4  11  24  42  67 100 141 169 226 282 329 401
#     4  12  22  40  72 102 130 176 228 279 334 391
#     4   9  22  40  60 100 137 171 217 282 324 394
#     4  10  21  42  69 101 135 176 213 281 338 401
#     4  11  20  37  72 104 132 176 230 272 328 402
#     4  10  22  44  68  95 142 179 223 270 344 400
#     4  10  21  41  67  95 134 173 223 273 338 395
#     4  11  25  44  69  99 133 180 223 277 338 402
#
# _framework density 23.515277000000001
#
# number of rings (size 3 to 8) (size 9 to 14) (size 15 to 20)
#    0.000    1.500    3.750    1.125    1.750    2.500 
#    0.000    8.750    2.750    0.000    0.000    0.000 
#    0.000    0.000    0.000    0.000    0.000    0.000 
#
# Total GULP energy -89438.809287 kJ/mol
# GULP energy per Si atom -5589.925580 kJ/mol
# Density = 2.346175 g / cm^3
# Si number density = 23.515277 Si / 1000 Ang^3
#
#
#
# Elastic Constant Matrix: (Units=GPa)
#
#
# Indices 1 2 3 4 5 6 
#
# 1 98.2943 22.8360 19.1351 5.4254 -4.0180 15.7880
# 2 22.8360 140.9208 45.3990 -16.4840 13.5850 15.0033
# 3 19.1351 45.3990 83.5943 -22.6185 13.1091 3.4153
# 4 5.4254 -16.4840 -22.6185 42.7714 -0.8650 7.0398
# 5 -4.0180 13.5850 13.1091 -0.8650 30.7346 4.6021
# 6 15.7880 15.0033 3.4153 7.0398 4.6021 38.5516
#
#
#
# Elastic Compliance Matrix: (Units=1/GPa)
#
#
# Indices 1 2 3 4 5 6 
#
# 1 0.012113 -0.001166 -0.003435 -0.003039 0.004098 -0.004137
# 2 -0.001166 0.009258 -0.003708 0.002195 -0.002161 -0.002940
# 3 -0.003435 -0.003708 0.017981 0.008306 -0.006320 0.000494
# 4 -0.003039 0.002195 0.008306 0.029827 -0.003262 -0.005403
# 5 0.004098 -0.002161 -0.006320 -0.003262 0.037249 -0.004128
# 6 -0.004137 -0.002940 0.000494 -0.005403 -0.004128 0.030213
#
#
# Mechanical properties :
#
#
# Convention : Reuss Voigt Hill
#
# Bulk Modulus (GPa) = 43.98917 55.28329 49.63623
# Shear Modulus (GPa) = 31.08722 38.10748 34.59735
#
# Velocity S-wave (km/s) = 3.63988 4.02996 3.83988
# Velocity P-wave (km/s) = 6.03425 6.72419 6.38854
#
# Compressibility (1/GPa) = 0.02273287
#
# Stress axis : x y z
#
# Youngs Moduli (GPa) = 82.55659 108.01717 55.61471
#
# Poissons Ratio (x) = 0.12598 0.19105
# Poissons Ratio (y) = 0.09629 0.20621
# Poissons Ratio (z) = 0.28360 0.40051
#
# Static dielectric constant tensor:
#      x y z
#    x 1.926190 -0.040320 -0.013500 
#    y -0.040320 1.854390 0.027800 
#    z -0.013500 0.027800 1.976990 
# 
# From -- ./inp_files/282696.got.cif
#   From: 2010.05.17/outbox.cif.g08.bks.cpg/sg2_142_cif.got.tgz:282696.got - 2010.06.03 11:33:40.
