data_PCOD9014528
_publ_section_title
;
Structure prediction by ZEFSAII (Michael W. Deem and Ramdas Pophale) SiO2 
 PCOD9014528
Probable space group: P -1
;
_chemical_formula_sum "Si O2"
_cell_formula_units_Z 14
_cell_length_a 9.227795
_cell_length_b 9.003020
_cell_length_c 9.575672
_cell_angle_alpha 84.256316
_cell_angle_beta 118.802878
_cell_angle_gamma 77.085808
_cell_volume 659.067092
_symmetry_space_group_name_H-M "P -1"
_symmetry_group_IT_number 2
_symmetry_cell_setting 'triclinic'
loop_
_space_group_symop_operation_xyz
x,y,z
-x,-y,-z
loop_
_atom_site_type_symbol
_atom_site_label
_atom_site_fract_x
_atom_site_fract_y
_atom_site_fract_z
Si Si1 0.933242 0.823690 0.701857
Si Si2 0.775355 0.182896 0.617911
Si Si3 0.428908 0.166561 0.372233
Si Si4 0.640803 0.879442 0.976993
Si Si5 0.565680 0.612131 0.121088
Si Si6 0.210690 0.858385 0.041467
Si Si7 0.878103 0.392860 0.441976
O O1 0.770285 0.764620 0.675179
O O2 0.046830 0.726850 0.638872
O O3 0.853018 0.007445 0.606697
O O4 0.058947 0.818064 0.891928
O O5 0.571132 0.248254 0.474275
O O6 0.796027 0.158709 0.794668
O O7 0.871819 0.295333 0.586166
O O8 0.429602 0.136730 0.209581
O O9 0.500000 0.000000 0.500000
O O10 0.786118 0.966335 0.014350
O O11 0.674336 0.710640 0.080728
O O12 0.500000 0.000000 0.000000
O O13 0.395020 0.738578 0.091195
O O14 0.687572 0.504894 0.303126
O O15 0.500000 0.500000 0.000000
O O16 0.000000 0.500000 0.500000
#
# Coordination Sequence:
#
# PCOD9014528 Si02
#       7
#     2   2   2   2   2   2   2
#     4  11  24  45  72 101 139 173 238 283 337 409
#     4  11  25  46  74 100 140 177 231 289 344 400
#     4  10  21  41  68 105 133 167 227 289 341 384
#     4  10  22  39  73  98 131 182 238 277 329 410
#     4  11  24  46  67  98 146 187 228 271 351 418
#     4  11  23  44  73 103 131 184 234 287 335 407
#     4  12  29  47  67 104 141 185 224 285 349 411
#
# _framework density 21.242146999999999
#
# number of rings (size 3 to 8) (size 9 to 14) (size 15 to 20)
#    0.000    1.143    4.286    1.714    6.000    1.714 
#    2.571    1.429    0.000    0.000    0.000    0.000 
#    0.000    0.000    0.000    0.000    0.000    0.000 
#
# Total GULP energy -78249.952447 kJ/mol
# GULP energy per Si atom -5589.282318 kJ/mol
# Density = 2.119380 g / cm^3
# Si number density = 21.242147 Si / 1000 Ang^3
#
#
#
# Elastic Constant Matrix: (Units=GPa)
#
#
# Indices 1 2 3 4 5 6 
#
# 1 114.9891 43.7779 37.4219 -3.3486 2.7042 11.6817
# 2 43.7779 93.4052 18.0872 -7.2217 -7.1994 17.5437
# 3 37.4219 18.0872 55.3431 -5.6043 0.8220 7.7417
# 4 -3.3486 -7.2217 -5.6043 25.3818 3.9378 7.2297
# 5 2.7042 -7.1994 0.8220 3.9378 46.0104 -5.1127
# 6 11.6817 17.5437 7.7417 7.2297 -5.1127 33.9037
#
#
#
# Elastic Compliance Matrix: (Units=1/GPa)
#
#
# Indices 1 2 3 4 5 6 
#
# 1 0.012885 -0.004760 -0.007185 -0.000939 -0.001331 -0.000337
# 2 -0.004760 0.014773 -0.000129 0.005299 0.001374 -0.006898
# 3 -0.007185 -0.000129 0.024176 0.005751 -0.001006 -0.004356
# 4 -0.000939 0.005299 0.005751 0.046924 -0.004842 -0.014468
# 5 -0.001331 0.001374 -0.001006 -0.004842 0.022957 0.004472
# 6 -0.000337 -0.006898 -0.004356 -0.014468 0.004472 0.037935
#
#
# Mechanical properties :
#
#
# Convention : Reuss Voigt Hill
#
# Bulk Modulus (GPa) = 36.11791 51.36792 43.74292
# Shear Modulus (GPa) = 25.90328 32.02253 28.96290
#
# Velocity S-wave (km/s) = 3.49582 3.88687 3.69652
# Velocity P-wave (km/s) = 5.77358 6.66170 6.23347
#
# Compressibility (1/GPa) = 0.02768709
#
# Stress axis : x y z
#
# Youngs Moduli (GPa) = 77.60938 67.69184 41.36285
#
# Poissons Ratio (x) = 0.32219 0.29720
# Poissons Ratio (y) = 0.36939 0.00532
# Poissons Ratio (z) = 0.55764 0.00871
#
# Static dielectric constant tensor:
#      x y z
#    x 1.767220 0.031850 0.007820 
#    y 0.031850 1.748550 0.023820 
#    z 0.007820 0.023820 1.720310 
# 
# From -- ./inp_files/158164.got.cif
#   From: 2010.05.17/outbox.cif.g08.bks.cpg/sg2_80_cif.got.tgz:158164.got - 2010.06.03 11:33:40.
