data_PCOD9014494
_publ_section_title
;
Structure prediction by ZEFSAII (Michael W. Deem and Ramdas Pophale) SiO2 
 PCOD9014494
Probable space group: P -1
;
_chemical_formula_sum "Si O2"
_cell_formula_units_Z 14
_cell_length_a 9.214872
_cell_length_b 11.873569
_cell_length_c 18.225337
_cell_angle_alpha 36.138911
_cell_angle_beta 38.573518
_cell_angle_gamma 64.798367
_cell_volume 607.968378
_symmetry_space_group_name_H-M "P -1"
_symmetry_group_IT_number 2
_symmetry_cell_setting 'triclinic'
loop_
_space_group_symop_operation_xyz
x,y,z
-x,-y,-z
loop_
_atom_site_type_symbol
_atom_site_label
_atom_site_fract_x
_atom_site_fract_y
_atom_site_fract_z
Si Si1 0.165484 0.322453 0.310256
Si Si2 0.429703 0.945377 0.340881
Si Si3 0.292069 0.112476 0.864851
Si Si4 0.753468 0.438760 0.999851
Si Si5 0.613259 0.491783 0.643133
Si Si6 0.367871 0.772822 0.621934
Si Si7 0.824685 0.317131 0.773267
O O1 0.205487 0.399308 0.169315
O O2 0.137948 0.499281 0.277703
O O3 0.857021 0.084719 0.558201
O O4 0.452798 0.346544 0.205189
O O5 0.490965 0.813838 0.325845
O O6 0.394131 0.843558 0.488925
O O7 0.690953 0.207778 0.107488
O O8 0.362659 0.322969 0.776690
O O9 0.299038 0.923909 0.010453
O O10 0.000000 0.000000 0.000000
O O11 0.032628 0.580673 0.863770
O O12 0.548844 0.663350 0.615258
O O13 0.639021 0.335845 0.774813
O O14 0.893541 0.615474 0.417255
O O15 0.500000 0.000000 0.500000
#
# Coordination Sequence:
#
# PCOD9014494 Si02
#       7
#     2   2   2   2   2   2   2
#     4  10  21  41  68 101 141 178 234 293 345 416
#     4  11  22  41  72 103 136 182 242 285 353 409
#     4  12  24  42  75 106 139 182 234 294 351 422
#     4  10  22  43  69 102 135 186 237 289 345 415
#     4  11  26  47  69 100 148 184 230 293 352 424
#     4  11  27  48  68 103 143 190 236 288 357 420
#     4  11  24  46  69 106 139 187 232 287 357 416
#
# _framework density 23.027512999999999
#
# number of rings (size 3 to 8) (size 9 to 14) (size 15 to 20)
#    0.000    1.143    2.857    2.571    4.000    1.714 
#   10.286    0.000    0.000    0.000    0.000    0.000 
#    0.000    0.000    0.000    0.000    0.000    0.000 
#
# Total GULP energy -78238.831061 kJ/mol
# GULP energy per Si atom -5588.487933 kJ/mol
# Density = 2.297510 g / cm^3
# Si number density = 23.027513 Si / 1000 Ang^3
#
#
#
# Elastic Constant Matrix: (Units=GPa)
#
#
# Indices 1 2 3 4 5 6 
#
# 1 82.1792 56.4302 47.6560 12.7939 -6.3048 10.6918
# 2 56.4302 140.8373 28.3526 -1.9672 -18.3504 7.0378
# 3 47.6560 28.3526 61.0431 0.0134 -25.3795 14.0552
# 4 12.7939 -1.9672 0.0134 39.3558 -1.1419 -4.6509
# 5 -6.3048 -18.3504 -25.3795 -1.1419 49.2015 5.9643
# 6 10.6918 7.0378 14.0552 -4.6509 5.9643 33.9493
#
#
#
# Elastic Compliance Matrix: (Units=1/GPa)
#
#
# Indices 1 2 3 4 5 6 
#
# 1 0.041111 -0.012235 -0.035425 -0.013838 -0.018571 0.005622
# 2 -0.012235 0.011562 0.007669 0.004481 0.007089 -0.002350
# 3 -0.035425 0.007669 0.057184 0.010635 0.030242 -0.017964
# 4 -0.013838 0.004481 0.010635 0.030556 0.005827 0.002189
# 5 -0.018571 0.007089 0.030242 0.005827 0.038024 -0.014023
# 6 0.005622 -0.002350 -0.017964 0.002189 -0.014023 0.038373
#
#
# Mechanical properties :
#
#
# Convention : Reuss Voigt Hill
#
# Bulk Modulus (GPa) = 33.47279 60.99301 47.23290
# Shear Modulus (GPa) = 16.29991 34.60936 25.45463
#
# Velocity S-wave (km/s) = 2.66342 3.88100 3.32836
# Velocity P-wave (km/s) = 4.90163 6.82843 5.94363
#
# Compressibility (1/GPa) = 0.02987501
#
# Stress axis : x y z
#
# Youngs Moduli (GPa) = 24.32434 86.48713 17.48754
#
# Poissons Ratio (x) = 1.05814 0.61950
# Poissons Ratio (y) = 0.29760 -0.13411
# Poissons Ratio (z) = 0.86169 -0.66325
#
# Static dielectric constant tensor:
#      x y z
#    x 1.872470 -0.041850 -0.035750 
#    y -0.041850 1.882040 0.049220 
#    z -0.035750 0.049220 1.916770 
# 
# From -- ./inp_files/81461.got.cif
#   From: 2010.05.17/outbox.cif.g08.bks.cpg/sg2_41_cif.got.tgz:81461.got - 2010.06.03 11:33:40.
