data_PCOD9014602
_publ_section_title
;
Structure prediction by ZEFSAII (Michael W. Deem and Ramdas Pophale) SiO2 
 PCOD9014602
Probable space group: P -1
;
_chemical_formula_sum "Si O2"
_cell_formula_units_Z 16
_cell_length_a 8.033379
_cell_length_b 13.323364
_cell_length_c 11.153950
_cell_angle_alpha 148.333467
_cell_angle_beta 82.978864
_cell_angle_gamma 103.137640
_cell_volume 604.373894
_symmetry_space_group_name_H-M "P -1"
_symmetry_group_IT_number 2
_symmetry_cell_setting 'triclinic'
loop_
_space_group_symop_operation_xyz
x,y,z
-x,-y,-z
loop_
_atom_site_type_symbol
_atom_site_label
_atom_site_fract_x
_atom_site_fract_y
_atom_site_fract_z
Si Si1 0.244603 0.039969 0.944003
Si Si2 0.142320 0.125815 0.280321
Si Si3 0.052182 0.383078 0.070803
Si Si4 0.298033 0.679741 0.489314
Si Si5 0.833388 0.037328 0.623179
Si Si6 0.602810 0.716996 0.164200
Si Si7 0.811780 0.417265 0.329551
Si Si8 0.510102 0.636058 0.846243
O O1 0.355331 0.911574 0.735202
O O2 0.252985 0.039003 0.084777
O O3 0.307546 0.261296 0.122688
O O4 0.054214 0.959066 0.829304
O O5 0.168977 0.066376 0.352303
O O6 0.169370 0.357069 0.485198
O O7 0.161869 0.607532 0.319228
O O8 0.952907 0.337358 0.160490
O O9 0.214043 0.302687 0.929437
O O10 0.897144 0.276622 0.885648
O O11 0.199018 0.620065 0.565768
O O12 0.461660 0.583549 0.364176
O O13 0.664172 0.908190 0.437592
O O14 0.000000 0.000000 0.500000
O O15 0.500000 0.500000 0.000000
O O16 0.490392 0.733510 0.073769
O O17 0.625201 0.328180 0.200161
#
# Coordination Sequence:
#
# PCOD9014602 Si02
#       8
#     2   2   2   2   2   2   2   2
#     4  11  23  40  67 101 138 178 218 272 342 407
#     4  11  22  37  66 102 133 173 228 275 330 399
#     4  10  22  41  67  95 128 175 223 264 336 396
#     4  11  22  41  69  96 145 177 215 270 340 404
#     4  10  21  41  68  94 130 178 226 275 328 393
#     4  10  22  46  73  93 132 181 223 283 337 384
#     4  12  23  41  65 102 139 171 218 281 332 409
#     4  11  25  45  66  98 139 175 224 277 341 393
#
# _framework density 26.473680000000002
#
# number of rings (size 3 to 8) (size 9 to 14) (size 15 to 20)
#    0.000    1.250    2.500    4.500    1.750    0.500 
#    6.750    6.250    2.750    0.000    0.000    0.000 
#    0.000    0.000    0.000    0.000    0.000    0.000 
#
# Total GULP energy -89261.940077 kJ/mol
# GULP energy per Si atom -5578.871255 kJ/mol
# Density = 2.641342 g / cm^3
# Si number density = 26.473680 Si / 1000 Ang^3
#
#
#
# Elastic Constant Matrix: (Units=GPa)
#
#
# Indices 1 2 3 4 5 6 
#
# 1 92.3430 10.9352 49.3217 -4.9299 7.4268 2.4106
# 2 10.9352 71.0110 33.6852 -7.9173 -0.0700 11.9338
# 3 49.3217 33.6852 167.1157 -22.0526 7.7059 -11.6457
# 4 -4.9299 -7.9173 -22.0526 44.4656 2.0130 1.2098
# 5 7.4268 -0.0700 7.7059 2.0130 36.4149 4.1444
# 6 2.4106 11.9338 -11.6457 1.2098 4.1444 24.6139
#
#
#
# Elastic Compliance Matrix: (Units=1/GPa)
#
#
# Indices 1 2 3 4 5 6 
#
# 1 0.013195 0.000461 -0.004199 -0.000385 -0.001411 -0.003246
# 2 0.000461 0.018234 -0.004542 0.001260 0.002136 -0.011456
# 3 -0.004199 -0.004542 0.009149 0.003163 -0.002075 0.007136
# 4 -0.000385 0.001260 0.003163 0.024326 -0.001939 0.000054
# 5 -0.001411 0.002136 -0.002075 -0.001939 0.029059 -0.006677
# 6 -0.003246 -0.011456 0.007136 0.000054 -0.006677 0.050998
#
#
# Mechanical properties :
#
#
# Convention : Reuss Voigt Hill
#
# Bulk Modulus (GPa) = 41.63572 57.59488 49.61530
# Shear Modulus (GPa) = 29.49375 36.86740 33.18057
#
# Velocity S-wave (km/s) = 3.34140 3.73581 3.54410
# Velocity P-wave (km/s) = 5.53606 6.35698 5.96067
#
# Compressibility (1/GPa) = 0.02401784
#
# Stress axis : x y z
#
# Youngs Moduli (GPa) = 75.78551 54.84323 109.29955
#
# Poissons Ratio (x) = -0.02530 0.45899
# Poissons Ratio (y) = -0.03496 0.49645
# Poissons Ratio (z) = 0.31825 0.24910
#
# Static dielectric constant tensor:
#      x y z
#    x 2.049450 -0.000600 0.004460 
#    y -0.000600 2.047580 0.025210 
#    z 0.004460 0.025210 2.178390 
# 
# From -- ./inp_files/400058.got.cif
#   From: 2010.05.17/outbox.cif.g08.bks.cpg/sg2_201_cif.got.tgz:400058.got - 2010.06.03 11:33:40.
