data_PCOD9014325
_publ_section_title
;
Structure prediction by ZEFSAII (Michael W. Deem and Ramdas Pophale) SiO2 
 PCOD9014325
Probable space group: P -1
;
_chemical_formula_sum "Si O2"
_cell_formula_units_Z 16
_cell_length_a 8.443015
_cell_length_b 16.885631
_cell_length_c 13.085719
_cell_angle_alpha 147.042700
_cell_angle_beta 124.799254
_cell_angle_gamma 78.793374
_cell_volume 642.500658
_symmetry_space_group_name_H-M "P -1"
_symmetry_group_IT_number 2
_symmetry_cell_setting 'triclinic'
loop_
_space_group_symop_operation_xyz
x,y,z
-x,-y,-z
loop_
_atom_site_type_symbol
_atom_site_label
_atom_site_fract_x
_atom_site_fract_y
_atom_site_fract_z
Si Si1 0.030568 0.385061 0.467799
Si Si2 0.531003 0.944325 0.123791
Si Si3 0.384171 0.304556 0.799857
Si Si4 0.338811 0.586344 0.329672
Si Si5 0.855548 0.825773 0.838240
Si Si6 0.040954 0.694528 0.415004
Si Si7 0.601400 0.898153 0.589325
Si Si8 0.242868 0.205977 0.854544
O O1 0.072285 0.410695 0.632654
O O2 0.000000 0.500000 0.500000
O O3 0.195060 0.347823 0.428609
O O4 0.754651 0.184032 0.148740
O O5 0.631316 0.830513 0.051714
O O6 0.686568 0.103893 0.269988
O O7 0.533262 0.029023 0.327669
O O8 0.443585 0.188942 0.632885
O O9 0.430227 0.296571 0.925428
O O10 0.104668 0.239692 0.618723
O O11 0.500000 0.500000 0.000000
O O12 0.565767 0.724386 0.646303
O O13 0.099426 0.576698 0.245603
O O14 0.489961 0.714173 0.422282
O O15 0.229406 0.370230 0.054925
O O16 0.000000 0.000000 0.000000
O O17 0.094099 0.926435 0.110737
O O18 0.000000 0.000000 0.500000
#
# Coordination Sequence:
#
# PCOD9014325 Si02
#       8
#     2   2   2   2   2   2   2   2
#     4  11  23  40  66  99 133 164 215 275 327 385
#     4  10  23  43  67  94 134 172 215 273 326 387
#     4  12  25  42  71  94 130 181 223 266 321 396
#     4  10  21  41  67  94 132 173 217 269 323 389
#     4   9  18  38  66  94 131 164 211 273 325 381
#     4  11  24  43  66  96 126 178 219 263 333 391
#     4   9  20  40  66  99 125 171 221 268 323 384
#     4  12  25  45  64  97 138 173 219 273 322 384
#
# _framework density 24.902698999999998
#
# number of rings (size 3 to 8) (size 9 to 14) (size 15 to 20)
#    0.000    1.500    2.500    3.375    1.750    3.000 
#    4.500    1.250    0.000    0.000    0.000    0.000 
#    0.000    0.000    0.000    0.000    0.000    0.000 
#
# Total GULP energy -89069.821956 kJ/mol
# GULP energy per Si atom -5566.863872 kJ/mol
# Density = 2.484602 g / cm^3
# Si number density = 24.902699 Si / 1000 Ang^3
#
#
#
# Elastic Constant Matrix: (Units=GPa)
#
#
# Indices 1 2 3 4 5 6 
#
# 1 54.2358 24.1456 13.5080 16.5792 0.8884 -2.7204
# 2 24.1456 78.8927 -0.4403 21.6745 -18.3001 7.3245
# 3 13.5080 -0.4403 90.0041 20.0818 5.7809 5.4532
# 4 16.5792 21.6745 20.0818 29.0967 -4.6648 -5.4883
# 5 0.8884 -18.3001 5.7809 -4.6648 43.6875 1.9660
# 6 -2.7204 7.3245 5.4532 -5.4883 1.9660 33.5218
#
#
#
# Elastic Compliance Matrix: (Units=1/GPa)
#
#
# Indices 1 2 3 4 5 6 
#
# 1 0.024390 -0.006429 -0.001814 -0.007994 -0.003920 0.002600
# 2 -0.006429 0.021706 0.004819 -0.016398 0.007247 -0.009158
# 3 -0.001814 0.004819 0.015013 -0.014221 -0.001184 -0.005901
# 4 -0.007994 -0.016398 -0.014221 0.064119 0.001317 0.015668
# 5 -0.003920 0.007247 -0.001184 0.001317 0.026439 -0.003044
# 6 0.002600 -0.009158 -0.005901 0.015668 -0.003044 0.035747
#
#
# Mechanical properties :
#
#
# Convention : Reuss Voigt Hill
#
# Bulk Modulus (GPa) = 18.42940 33.06212 25.74576
# Shear Modulus (GPa) = 23.54589 33.65583 28.60086
#
# Velocity S-wave (km/s) = 3.07826 3.68025 3.39264
# Velocity P-wave (km/s) = 4.47782 5.60039 5.07027
#
# Compressibility (1/GPa) = 0.05426113
#
# Stress axis : x y z
#
# Youngs Moduli (GPa) = 40.99960 46.06941 66.60910
#
# Poissons Ratio (x) = 0.29620 0.12084
# Poissons Ratio (y) = 0.26360 -0.32100
# Poissons Ratio (z) = 0.07438 -0.22202
#
# Static dielectric constant tensor:
#      x y z
#    x 1.992110 -0.132270 -0.019820 
#    y -0.132270 1.993280 -0.130590 
#    z -0.019820 -0.130590 2.089660 
# 
# From -- ./inp_files/507112.got.cif
#   From: 2010.05.17/outbox.cif.g08.bks.cpg/sg2_254_cif.got.tgz:507112.got - 2010.06.03 11:33:40.
