data_PCOD9014843
_publ_section_title
;
Structure prediction by ZEFSAII (Michael W. Deem and Ramdas Pophale) SiO2 
 PCOD9014843
Probable space group: P -1
;
_chemical_formula_sum "Si O2"
_cell_formula_units_Z 16
_cell_length_a 12.869978
_cell_length_b 8.726071
_cell_length_c 16.859763
_cell_angle_alpha 46.073976
_cell_angle_beta 129.739145
_cell_angle_gamma 151.006748
_cell_volume 658.129133
_symmetry_space_group_name_H-M "P -1"
_symmetry_group_IT_number 2
_symmetry_cell_setting 'triclinic'
loop_
_space_group_symop_operation_xyz
x,y,z
-x,-y,-z
loop_
_atom_site_type_symbol
_atom_site_label
_atom_site_fract_x
_atom_site_fract_y
_atom_site_fract_z
Si Si1 0.004303 0.139932 0.032282
Si Si2 0.986824 0.333328 0.358604
Si Si3 0.841405 0.828115 0.606593
Si Si4 0.520644 0.375869 0.873707
Si Si5 0.031397 0.365736 0.632423
Si Si6 0.368626 0.574602 0.812614
Si Si7 0.684565 0.097468 0.914521
Si Si8 0.470020 0.256688 0.719285
O O1 0.244475 0.436227 0.074226
O O2 0.846168 0.818544 0.128816
O O3 0.899362 0.244973 0.937141
O O4 0.000000 0.000000 0.000000
O O5 0.114701 0.351458 0.348203
O O6 0.074131 0.650524 0.334091
O O7 0.926583 0.092816 0.485444
O O8 0.757913 0.111855 0.286979
O O9 0.589219 0.540179 0.609462
O O10 0.952534 0.052136 0.662495
O O11 0.530089 0.612951 0.835865
O O12 0.434598 0.316202 0.765770
O O13 0.365555 0.037050 0.972317
O O14 0.000000 0.500000 0.500000
O O15 0.278206 0.636899 0.684815
O O16 0.486225 0.771761 0.880723
O O17 0.652870 0.305544 0.810097
#
# Coordination Sequence:
#
# PCOD9014843 Si02
#       8
#     2   2   2   2   2   2   2   2
#     4  11  20  37  62  87 120 164 215 265 310 375
#     4  10  22  44  69  91 132 172 208 271 327 378
#     4  10  23  43  65  99 128 166 222 263 320 392
#     4  11  23  39  61  90 126 172 210 268 321 375
#     4  10  21  41  69  96 126 167 212 264 325 384
#     4  11  20  39  63  89 124 165 217 261 319 384
#     4  11  23  38  60  91 125 168 217 257 316 388
#     4  12  24  40  62  94 131 167 212 267 325 383
#
# _framework density 24.311337999999999
#
# number of rings (size 3 to 8) (size 9 to 14) (size 15 to 20)
#    0.000    1.250    3.750    3.000    0.000    3.500 
#    2.250    0.000    0.000    9.750    0.000    0.000 
#    0.000    0.000    0.000    0.000    0.000    0.000 
#
# Total GULP energy -89279.734563 kJ/mol
# GULP energy per Si atom -5579.983410 kJ/mol
# Density = 2.425600 g / cm^3
# Si number density = 24.311338 Si / 1000 Ang^3
#
#
#
# Elastic Constant Matrix: (Units=GPa)
#
#
# Indices 1 2 3 4 5 6 
#
# 1 136.6667 46.8954 28.1225 10.0096 -15.3792 -25.7198
# 2 46.8954 47.6422 13.9796 11.9773 -16.9494 -7.7307
# 3 28.1225 13.9796 65.5648 14.6796 -8.8868 3.6473
# 4 10.0096 11.9773 14.6796 27.2823 1.3770 -1.0581
# 5 -15.3792 -16.9494 -8.8868 1.3770 45.4035 8.5032
# 6 -25.7198 -7.7307 3.6473 -1.0581 8.5032 37.5657
#
#
#
# Elastic Compliance Matrix: (Units=1/GPa)
#
#
# Indices 1 2 3 4 5 6 
#
# 1 0.013456 -0.012378 -0.004682 0.003447 -0.002543 0.007793
# 2 -0.012378 0.040134 0.001953 -0.014890 0.012299 -0.003609
# 3 -0.004682 0.001953 0.020135 -0.010438 0.004539 -0.006080
# 4 0.003447 -0.014890 -0.010438 0.048115 -0.008568 0.003604
# 5 -0.002543 0.012299 0.004539 -0.008568 0.028073 -0.006247
# 6 0.007793 -0.003609 -0.006080 0.003604 -0.006247 0.033319
#
#
# Mechanical properties :
#
#
# Convention : Reuss Voigt Hill
#
# Bulk Modulus (GPa) = 22.98296 47.54099 35.26197
# Shear Modulus (GPa) = 21.93488 32.77538 27.35513
#
# Velocity S-wave (km/s) = 3.00700 3.67570 3.35804
# Velocity P-wave (km/s) = 4.64007 6.13285 5.43793
#
# Compressibility (1/GPa) = 0.04351049
#
# Stress axis : x y z
#
# Youngs Moduli (GPa) = 74.31761 24.91663 49.66584
#
# Poissons Ratio (x) = 0.30842 0.23256
# Poissons Ratio (y) = 0.91990 -0.09702
# Poissons Ratio (z) = 0.34799 -0.04867
#
# Static dielectric constant tensor:
#      x y z
#    x 2.016870 -0.032040 0.034320 
#    y -0.032040 1.911610 -0.036530 
#    z 0.034320 -0.036530 2.012200 
# 
# From -- ./inp_files/48665.got.cif
#   From: 2010.05.17/outbox.cif.g08.bks.cpg/sg2_25_cif.got.tgz:48665.got - 2010.06.03 11:33:40.
