data_PCOD9014775
_publ_section_title
;
Structure prediction by ZEFSAII (Michael W. Deem and Ramdas Pophale) SiO2 
 PCOD9014775
Probable space group: P -1
;
_chemical_formula_sum "Si O2"
_cell_formula_units_Z 16
_cell_length_a 18.629678
_cell_length_b 13.380455
_cell_length_c 7.282949
_cell_angle_alpha 136.671106
_cell_angle_beta 44.929563
_cell_angle_gamma 152.376979
_cell_volume 565.978947
_symmetry_space_group_name_H-M "P -1"
_symmetry_group_IT_number 2
_symmetry_cell_setting 'triclinic'
loop_
_space_group_symop_operation_xyz
x,y,z
-x,-y,-z
loop_
_atom_site_type_symbol
_atom_site_label
_atom_site_fract_x
_atom_site_fract_y
_atom_site_fract_z
Si Si1 0.583687 0.305133 0.942932
Si Si2 0.994606 0.022831 0.261131
Si Si3 0.342943 0.377419 0.514878
Si Si4 0.053329 0.470361 0.651447
Si Si5 0.378433 0.978460 0.396701
Si Si6 0.327794 0.498969 0.344748
Si Si7 0.734971 0.140499 0.963552
Si Si8 0.944964 0.234501 0.167844
O O1 0.616069 0.167989 0.701419
O O2 0.640027 0.461952 0.879100
O O3 0.662679 0.459951 0.187504
O O4 0.391820 0.098458 0.023786
O O5 0.361812 0.402843 0.295858
O O6 0.818929 0.865203 0.437797
O O7 0.000000 0.000000 0.000000
O O8 0.037933 0.911559 0.118735
O O9 0.500000 0.500000 0.500000
O O10 0.988378 0.410715 0.185639
O O11 0.135581 0.286720 0.414474
O O12 0.054408 0.378934 0.342437
O O13 0.902129 0.258138 0.757861
O O14 0.209237 0.666740 0.749659
O O15 0.540416 0.241113 0.481471
O O16 0.346744 0.912591 0.152061
O O17 0.232312 0.917071 0.648909
#
# Coordination Sequence:
#
# PCOD9014775 Si02
#       8
#     2   2   2   2   2   2   2   2
#     4  12  26  49  79 116 161 205 271 330 407 485
#     4  12  29  53  81 117 160 216 277 334 396 491
#     4  12  31  56  83 118 160 216 276 332 405 490
#     4   9  21  40  73 108 161 211 259 342 396 476
#     4  11  25  45  77 123 162 211 264 340 407 488
#     4  12  28  53  86 112 169 215 269 338 411 467
#     4  10  21  41  69 116 159 212 263 325 405 478
#     4  10  24  45  74 115 162 210 277 325 409 478
#
# _framework density 28.269604999999999
#
# number of rings (size 3 to 8) (size 9 to 14) (size 15 to 20)
#    0.000    1.000    2.500    1.875    7.000    4.000 
#    0.000    3.750    0.000    0.000    0.000    0.000 
#    0.000    0.000    0.000    0.000    0.000    0.000 
#
# Total GULP energy -89707.186455 kJ/mol
# GULP energy per Si atom -5606.699153 kJ/mol
# Density = 2.820526 g / cm^3
# Si number density = 28.269605 Si / 1000 Ang^3
#
#
#
# Elastic Constant Matrix: (Units=GPa)
#
#
# Indices 1 2 3 4 5 6 
#
# 1 132.0274 63.9696 34.1695 -23.9405 10.9206 4.6374
# 2 63.9696 276.1170 52.9771 -0.8391 -9.7541 3.2600
# 3 34.1695 52.9771 67.5919 3.5386 1.3425 -4.8359
# 4 -23.9405 -0.8391 3.5386 68.6834 0.6724 7.2771
# 5 10.9206 -9.7541 1.3425 0.6724 55.3637 1.2773
# 6 4.6374 3.2600 -4.8359 7.2771 1.2773 60.4843
#
#
#
# Elastic Compliance Matrix: (Units=1/GPa)
#
#
# Indices 1 2 3 4 5 6 
#
# 1 0.010445 -0.001653 -0.004256 0.004020 -0.002263 -0.001488
# 2 -0.001653 0.004585 -0.002787 -0.000354 0.001213 -0.000326
# 3 -0.004256 -0.002787 0.019448 -0.002769 -0.000144 0.002368
# 4 0.004020 -0.000354 -0.002769 0.016369 -0.000930 -0.002460
# 5 -0.002263 0.001213 -0.000144 -0.000930 0.018742 -0.000187
# 6 -0.001488 -0.000326 0.002368 -0.002460 -0.000187 0.017154
#
#
# Mechanical properties :
#
#
# Convention : Reuss Voigt Hill
#
# Bulk Modulus (GPa) = 58.53076 86.44095 72.48585
# Shear Modulus (GPa) = 45.52473 58.54762 52.03617
#
# Velocity S-wave (km/s) = 4.01730 4.55581 4.29501
# Velocity P-wave (km/s) = 6.50136 7.63660 7.09173
#
# Compressibility (1/GPa) = 0.01708503
#
# Stress axis : x y z
#
# Youngs Moduli (GPa) = 95.73784 218.10186 51.41983
#
# Poissons Ratio (x) = 0.36061 0.21886
# Poissons Ratio (y) = 0.15829 0.14329
# Poissons Ratio (z) = 0.40749 0.60778
#
# Static dielectric constant tensor:
#      x y z
#    x 2.232090 -0.005170 -0.061770 
#    y -0.005170 2.132000 -0.056800 
#    z -0.061770 -0.056800 2.301400 
# 
# From -- ./inp_files/355040.got.cif
#   From: 2010.05.17/outbox.cif.g08.bks.cpg/sg2_178_cif.got.tgz:355040.got - 2010.06.03 11:33:40.
