data_PCOD9014445
_publ_section_title
;
Structure prediction by ZEFSAII (Michael W. Deem and Ramdas Pophale) SiO2 
 PCOD9014445
Probable space group: P -1
;
_chemical_formula_sum "Si O2"
_cell_formula_units_Z 14
_cell_length_a 10.840820
_cell_length_b 14.617928
_cell_length_c 11.315106
_cell_angle_alpha 151.495649
_cell_angle_beta 135.132357
_cell_angle_gamma 42.181568
_cell_volume 565.258637
_symmetry_space_group_name_H-M "P -1"
_symmetry_group_IT_number 2
_symmetry_cell_setting 'triclinic'
loop_
_space_group_symop_operation_xyz
x,y,z
-x,-y,-z
loop_
_atom_site_type_symbol
_atom_site_label
_atom_site_fract_x
_atom_site_fract_y
_atom_site_fract_z
Si Si1 0.331366 0.956004 0.486268
Si Si2 0.655786 0.709783 0.292751
Si Si3 0.925468 0.044262 0.369142
Si Si4 0.860151 0.893018 0.835904
Si Si5 0.008543 0.370979 0.155601
Si Si6 0.491487 0.076516 0.945425
Si Si7 0.831155 0.490937 0.783876
O O1 0.456674 0.761131 0.276526
O O2 0.374207 0.150972 0.684851
O O3 0.112963 0.013668 0.386369
O O4 0.397300 0.942703 0.650976
O O5 0.790411 0.480160 0.102488
O O6 0.766733 0.806264 0.569195
O O7 0.797670 0.278685 0.539967
O O8 0.000000 0.000000 0.500000
O O9 0.887405 0.841845 0.081526
O O10 0.690545 0.036674 0.968117
O O11 0.964369 0.698379 0.769801
O O12 0.000000 0.000000 0.000000
O O13 0.098510 0.514756 0.310847
O O14 0.353970 0.311188 0.105386
O O15 0.500000 0.000000 0.000000
O O16 0.000000 0.500000 0.000000
#
# Coordination Sequence:
#
# PCOD9014445 Si02
#       7
#     2   2   2   2   2   2   2
#     4  10  21  41  67  98 134 179 237 284 349 423
#     4  10  22  43  69  93 136 191 229 285 353 420
#     4  12  24  39  68 105 138 180 242 290 347 428
#     4  11  25  44  70 104 145 181 240 296 353 427
#     4  12  23  42  70  96 139 190 234 288 359 419
#     4  11  22  43  74 106 141 189 234 293 364 427
#     4  12  22  44  72 100 143 187 231 290 361 418
#
# _framework density 24.767423000000001
#
# number of rings (size 3 to 8) (size 9 to 14) (size 15 to 20)
#    0.000    0.857    5.714    1.286    0.000    0.571 
#    2.571    0.714    3.143    0.000    0.000    0.000 
#    0.000    0.000    0.000    0.000    0.000    0.000 
#
# Total GULP energy -78199.187198 kJ/mol
# GULP energy per Si atom -5585.656228 kJ/mol
# Density = 2.471105 g / cm^3
# Si number density = 24.767423 Si / 1000 Ang^3
#
#
#
# Elastic Constant Matrix: (Units=GPa)
#
#
# Indices 1 2 3 4 5 6 
#
# 1 136.0300 48.2298 21.2105 22.8691 -2.1858 -2.1822
# 2 48.2298 132.0392 22.8451 33.9794 -9.8053 11.7945
# 3 21.2105 22.8451 60.6206 29.1469 -3.5857 8.4686
# 4 22.8691 33.9794 29.1469 53.1814 -2.9806 -17.9543
# 5 -2.1858 -9.8053 -3.5857 -2.9806 36.0713 4.8193
# 6 -2.1822 11.7945 8.4686 -17.9543 4.8193 64.0951
#
#
#
# Elastic Compliance Matrix: (Units=1/GPa)
#
#
# Indices 1 2 3 4 5 6 
#
# 1 0.008762 -0.002837 -0.001838 -0.000671 -0.000601 0.000920
# 2 -0.002837 0.011112 0.001639 -0.008264 0.002983 -0.004897
# 3 -0.001838 0.001639 0.026405 -0.017612 0.002705 -0.008990
# 4 -0.000671 -0.008264 -0.017612 0.038910 -0.002818 0.014936
# 5 -0.000601 0.002983 0.002705 -0.002818 0.029055 -0.003901
# 6 0.000920 -0.004897 -0.008990 0.014936 -0.003901 0.022199
#
#
# Mechanical properties :
#
#
# Convention : Reuss Voigt Hill
#
# Bulk Modulus (GPa) = 24.87100 57.02894 40.94997
# Shear Modulus (GPa) = 32.06853 46.42984 39.24919
#
# Velocity S-wave (km/s) = 3.60222 4.33440 3.98516
# Velocity P-wave (km/s) = 5.23115 6.93723 6.14370
#
# Compressibility (1/GPa) = 0.04020746
#
# Stress axis : x y z
#
# Youngs Moduli (GPa) = 114.13553 89.99478 37.87093
#
# Poissons Ratio (x) = 0.25527 0.06962
# Poissons Ratio (y) = 0.32375 -0.06208
# Poissons Ratio (z) = 0.20981 -0.14751
#
# Static dielectric constant tensor:
#      x y z
#    x 2.066650 0.000600 -0.001270 
#    y 0.000600 2.130470 -0.067060 
#    z -0.001270 -0.067060 2.024780 
# 
# From -- ./inp_files/433556.got.cif
#   From: 2010.05.17/outbox.cif.g08.bks.cpg/sg2_217_cif.got.tgz:433556.got - 2010.06.03 11:33:40.
