data_PCOD9014614
_publ_section_title
;
Structure prediction by ZEFSAII (Michael W. Deem and Ramdas Pophale) SiO2 
 PCOD9014614
Probable space group: P -1
;
_chemical_formula_sum "Si O2"
_cell_formula_units_Z 14
_cell_length_a 5.151311
_cell_length_b 13.380613
_cell_length_c 9.422075
_cell_angle_alpha 59.480920
_cell_angle_beta 110.771777
_cell_angle_gamma 115.291035
_cell_volume 497.875749
_symmetry_space_group_name_H-M "P -1"
_symmetry_group_IT_number 2
_symmetry_cell_setting 'triclinic'
loop_
_space_group_symop_operation_xyz
x,y,z
-x,-y,-z
loop_
_atom_site_type_symbol
_atom_site_label
_atom_site_fract_x
_atom_site_fract_y
_atom_site_fract_z
Si Si1 0.596893 0.273321 0.075292
Si Si2 0.797568 0.609838 0.982514
Si Si3 0.672830 0.163717 0.781146
Si Si4 0.674410 0.575094 0.278742
Si Si5 0.185725 0.928636 0.426151
Si Si6 0.711406 0.678144 0.508259
Si Si7 0.194901 0.929610 0.857441
O O1 0.356421 0.282421 0.134859
O O2 0.488431 0.329560 0.875271
O O3 0.929943 0.362240 0.088373
O O4 0.626746 0.142770 0.144895
O O5 0.892210 0.586605 0.179522
O O6 0.500000 0.500000 0.000000
O O7 0.768583 0.107799 0.700612
O O8 0.553050 0.271326 0.628417
O O9 0.378720 0.063140 0.850926
O O10 0.889664 0.156385 0.957125
O O11 0.807446 0.621480 0.423967
O O12 0.446044 0.440240 0.342687
O O13 0.971211 0.794779 0.532646
O O14 0.500000 0.000000 0.500000
O O15 0.018861 0.029351 0.316741
#
# Coordination Sequence:
#
# PCOD9014614 Si02
#       7
#     2   2   2   2   2   2   2
#     4  10  22  40  68 102 141 178 240 289 360 422
#     4  10  22  42  63 101 145 184 233 289 356 435
#     4  10  21  41  68  95 129 179 239 294 349 414
#     4   9  22  39  70 100 136 182 235 295 355 415
#     4  11  26  43  65  99 141 185 231 292 366 433
#     4  10  21  44  66  99 136 181 239 293 353 428
#     4  10  22  41  67  97 129 179 240 296 348 414
#
# _framework density 28.119467
#
# number of rings (size 3 to 8) (size 9 to 14) (size 15 to 20)
#    0.857    1.143    1.429    0.857    4.000    3.429 
#    7.714    2.857    0.000    0.000    0.000    0.000 
#    0.000    0.000    0.000    0.000    0.000    0.000 
#
# Total GULP energy -78163.590057 kJ/mol
# GULP energy per Si atom -5583.113575 kJ/mol
# Density = 2.805547 g / cm^3
# Si number density = 28.119467 Si / 1000 Ang^3
#
#
#
# Elastic Constant Matrix: (Units=GPa)
#
#
# Indices 1 2 3 4 5 6 
#
# 1 83.8463 25.0392 30.4748 1.8122 9.7858 26.7348
# 2 25.0392 158.8331 46.4571 -24.9539 2.3670 48.9786
# 3 30.4748 46.4571 139.8148 -28.1847 1.9677 20.5238
# 4 1.8122 -24.9539 -28.1847 45.9605 0.0655 -6.3969
# 5 9.7858 2.3670 1.9677 0.0655 45.8337 -1.0867
# 6 26.7348 48.9786 20.5238 -6.3969 -1.0867 53.9364
#
#
#
# Elastic Compliance Matrix: (Units=1/GPa)
#
#
# Indices 1 2 3 4 5 6 
#
# 1 0.015787 0.000169 -0.003070 -0.003422 -0.003415 -0.007285
# 2 0.000169 0.009653 -0.001411 0.003265 -0.000667 -0.007938
# 3 -0.003070 -0.001411 0.009325 0.005053 0.000317 -0.000139
# 4 -0.003422 0.003265 0.005053 0.026762 0.000307 -0.000011
# 5 -0.003415 -0.000667 0.000317 0.000307 0.022631 0.002670
# 6 -0.007285 -0.007938 -0.000139 -0.000011 0.002670 0.029466
#
#
# Mechanical properties :
#
#
# Convention : Reuss Voigt Hill
#
# Bulk Modulus (GPa) = 38.25410 65.15958 51.70684
# Shear Modulus (GPa) = 38.17889 47.84766 43.01328
#
# Velocity S-wave (km/s) = 3.68875 4.12950 3.91533
# Velocity P-wave (km/s) = 5.63703 6.77936 6.23442
#
# Compressibility (1/GPa) = 0.02614099
#
# Stress axis : x y z
#
# Youngs Moduli (GPa) = 63.34165 103.59534 107.23813
#
# Poissons Ratio (x) = -0.01748 0.32918
# Poissons Ratio (y) = -0.01069 0.15135
# Poissons Ratio (z) = 0.19443 0.14621
#
# Static dielectric constant tensor:
#      x y z
#    x 2.240270 0.046240 -0.042320 
#    y 0.046240 2.442750 0.073390 
#    z -0.042320 0.073390 2.246630 
# 
# From -- ./inp_files/366763.got.cif
#   From: 2010.05.17/outbox.cif.g08.bks.cpg/sg2_184_cif.got.tgz:366763.got - 2010.06.03 11:33:40.
