data_PCOD9014966
_publ_section_title
;
Structure prediction by ZEFSAII (Michael W. Deem and Ramdas Pophale) SiO2 
 PCOD9014966
Probable space group: P -1
;
_chemical_formula_sum "Si O2"
_cell_formula_units_Z 16
_cell_length_a 10.426445
_cell_length_b 8.136135
_cell_length_c 17.671739
_cell_angle_alpha 133.259083
_cell_angle_beta 34.904772
_cell_angle_gamma 137.079517
_cell_volume 570.176324
_symmetry_space_group_name_H-M "P -1"
_symmetry_group_IT_number 2
_symmetry_cell_setting 'triclinic'
loop_
_space_group_symop_operation_xyz
x,y,z
-x,-y,-z
loop_
_atom_site_type_symbol
_atom_site_label
_atom_site_fract_x
_atom_site_fract_y
_atom_site_fract_z
Si Si1 0.400127 0.379833 0.191054
Si Si2 0.791373 0.282952 0.776065
Si Si3 0.457248 0.723488 0.457930
Si Si4 0.346168 0.820608 0.865112
Si Si5 0.144477 0.193184 0.924615
Si Si6 0.972291 0.935250 0.286319
Si Si7 0.754473 0.244654 0.280909
Si Si8 0.924058 0.301023 0.552844
O O1 0.514794 0.290535 0.179648
O O2 0.635665 0.544999 0.079331
O O3 0.255964 0.558342 0.326713
O O4 0.181127 0.124013 0.191012
O O5 0.851488 0.187530 0.636188
O O6 0.959835 0.574927 0.783512
O O7 0.504972 0.119740 0.876871
O O8 0.912415 0.209332 0.764709
O O9 0.418557 0.698203 0.558991
O O10 0.203490 0.508082 0.486722
O O11 0.500000 0.000000 0.500000
O O12 0.721735 0.739175 0.311727
O O13 0.326336 0.742220 0.761460
O O14 0.065972 0.758832 0.002075
O O15 0.268791 0.028718 0.774023
O O16 0.000000 0.000000 0.000000
O O17 0.914622 0.110372 0.431711
#
# Coordination Sequence:
#
# PCOD9014966 Si02
#       8
#     2   2   2   2   2   2   2   2
#     4  11  22  38  66  96 125 164 209 263 320 374
#     4  10  23  41  63  93 128 167 215 263 309 374
#     4  11  23  39  63  95 131 168 212 254 310 378
#     4  10  22  43  67  93 129 163 213 269 318 377
#     4  10  21  41  70  92 121 166 215 265 321 380
#     4  11  23  39  61  94 131 167 214 256 315 373
#     4  10  23  42  65  94 127 171 214 259 316 374
#     4  11  22  39  64  94 128 174 211 254 312 380
#
# _framework density 28.061494
#
# number of rings (size 3 to 8) (size 9 to 14) (size 15 to 20)
#    0.000    1.500    1.250    4.125    1.750    5.500 
#    0.000    1.250    0.000    9.750    0.000    0.000 
#    0.000    0.000    0.000    0.000    0.000    0.000 
#
# Total GULP energy -89490.828572 kJ/mol
# GULP energy per Si atom -5593.176786 kJ/mol
# Density = 2.799763 g / cm^3
# Si number density = 28.061494 Si / 1000 Ang^3
#
#
#
# Elastic Constant Matrix: (Units=GPa)
#
#
# Indices 1 2 3 4 5 6 
#
# 1 90.9992 42.9443 38.2142 -11.9275 -12.0880 -3.4491
# 2 42.9443 163.8897 58.9430 -46.9359 -14.5152 19.5487
# 3 38.2142 58.9430 105.2962 -49.0211 -22.9737 8.2827
# 4 -11.9275 -46.9359 -49.0211 60.8186 5.8880 -13.3164
# 5 -12.0880 -14.5152 -22.9737 5.8880 53.3156 -3.2661
# 6 -3.4491 19.5487 8.2827 -13.3164 -3.2661 48.7534
#
#
#
# Elastic Compliance Matrix: (Units=1/GPa)
#
#
# Indices 1 2 3 4 5 6 
#
# 1 0.014286 -0.003066 -0.004931 -0.003114 0.000763 0.002278
# 2 -0.003066 0.009103 -0.001546 0.004627 0.000465 -0.002309
# 3 -0.004931 -0.001546 0.019377 0.013137 0.005417 0.000930
# 4 -0.003114 0.004627 0.013137 0.030626 0.003094 0.004265
# 5 0.000763 0.000465 0.005417 0.003094 0.021122 0.001207
# 6 0.002278 -0.002309 0.000930 0.004265 0.001207 0.022686
#
#
# Mechanical properties :
#
#
# Convention : Reuss Voigt Hill
#
# Bulk Modulus (GPa) = 42.22859 71.15425 56.69142
# Shear Modulus (GPa) = 34.67931 47.24976 40.96453
#
# Velocity S-wave (km/s) = 3.51925 4.10786 3.82489
# Velocity P-wave (km/s) = 5.62092 6.92177 6.30499
#
# Compressibility (1/GPa) = 0.02368064
#
# Stress axis : x y z
#
# Youngs Moduli (GPa) = 69.99729 109.85763 51.60879
#
# Poissons Ratio (x) = 0.33682 0.25448
# Poissons Ratio (y) = 0.21461 0.07977
# Poissons Ratio (z) = 0.34515 0.16979
#
# Static dielectric constant tensor:
#      x y z
#    x 2.198380 0.016040 0.028950 
#    y 0.016040 2.161970 0.042470 
#    z 0.028950 0.042470 2.301000 
# 
# From -- ./inp_files/609884.got.cif
#   From: 2010.05.17/outbox.cif.g08.bks.cpg/sg2_305_cif.got.tgz:609884.got - 2010.06.03 11:33:40.
