data_PCOD9014326
_publ_section_title
;
Structure prediction by ZEFSAII (Michael W. Deem and Ramdas Pophale) SiO2 
 PCOD9014326
Probable space group: P -1
;
_chemical_formula_sum "Si O2"
_cell_formula_units_Z 16
_cell_length_a 12.761330
_cell_length_b 9.191046
_cell_length_c 15.256786
_cell_angle_alpha 111.998703
_cell_angle_beta 151.034913
_cell_angle_gamma 75.398069
_cell_volume 792.023193
_symmetry_space_group_name_H-M "P -1"
_symmetry_group_IT_number 2
_symmetry_cell_setting 'triclinic'
loop_
_space_group_symop_operation_xyz
x,y,z
-x,-y,-z
loop_
_atom_site_type_symbol
_atom_site_label
_atom_site_fract_x
_atom_site_fract_y
_atom_site_fract_z
Si Si1 0.299581 0.548799 0.809966
Si Si2 0.707121 0.553975 0.600579
Si Si3 0.197471 0.932955 0.581082
Si Si4 0.205038 0.575247 0.550631
Si Si5 0.590568 0.835663 0.511685
Si Si6 0.133153 0.640269 0.185562
Si Si7 0.606297 0.079559 0.006827
Si Si8 0.055041 0.955438 0.285288
O O1 0.300221 0.519407 0.698847
O O2 0.059458 0.470507 0.650409
O O3 0.500000 0.500000 0.000000
O O4 0.316424 0.736237 0.877343
O O5 0.500000 0.500000 0.500000
O O6 0.699640 0.500072 0.481862
O O7 0.737317 0.746567 0.665772
O O8 0.866471 0.450666 0.741164
O O9 0.245320 0.765976 0.615977
O O10 0.127095 0.908974 0.423752
O O11 0.421408 0.053764 0.790579
O O12 0.000000 0.000000 0.500000
O O13 0.367067 0.704658 0.322293
O O14 0.500000 0.000000 0.500000
O O15 0.761426 0.892841 0.572501
O O16 0.050107 0.805046 0.183185
O O17 0.000000 0.500000 0.000000
O O18 0.500000 0.000000 0.000000
O O19 0.817094 0.002340 0.121750
#
# Coordination Sequence:
#
# PCOD9014326 Si02
#       8
#     2   2   2   2   2   2   2   2
#     4  11  25  43  67  99 135 176 227 281 340 403
#     4  10  21  41  67  94 132 177 221 270 337 405
#     4  12  23  41  70  96 136 180 222 278 348 404
#     4  11  23  43  68  96 137 179 220 281 345 401
#     4   9  21  43  66  92 132 172 218 277 339 397
#     4  10  22  44  70 101 129 175 232 279 339 407
#     4  12  24  41  64 100 133 173 230 272 332 413
#     4  11  23  45  67  95 140 178 220 283 344 401
#
# _framework density 20.201429000000001
#
# number of rings (size 3 to 8) (size 9 to 14) (size 15 to 20)
#    0.000    1.250    3.750    1.500    0.000    5.000 
#    9.000    1.250    0.000    0.000    0.000    0.000 
#    0.000    0.000    0.000    0.000    0.000    0.000 
#
# Total GULP energy -89117.071485 kJ/mol
# GULP energy per Si atom -5569.816968 kJ/mol
# Density = 2.015545 g / cm^3
# Si number density = 20.201429 Si / 1000 Ang^3
#
#
#
# Elastic Constant Matrix: (Units=GPa)
#
#
# Indices 1 2 3 4 5 6 
#
# 1 130.3514 40.1193 52.3346 -7.9396 0.5770 -8.5300
# 2 40.1193 101.4962 18.6020 -0.7076 0.6526 1.3622
# 3 52.3346 18.6020 108.9164 -0.0467 -3.4512 -8.1707
# 4 -7.9396 -0.7076 -0.0467 41.8864 -0.6954 3.8222
# 5 0.5770 0.6526 -3.4512 -0.6954 26.9203 0.2960
# 6 -8.5300 1.3622 -8.1707 3.8222 0.2960 31.0332
#
#
#
# Elastic Compliance Matrix: (Units=1/GPa)
#
#
# Indices 1 2 3 4 5 6 
#
# 1 0.010749 -0.003435 -0.004471 0.001807 -0.000692 0.001712
# 2 -0.003435 0.011303 -0.000400 -0.000328 -0.000244 -0.001503
# 3 -0.004471 -0.000400 0.011593 -0.000993 0.001545 0.001949
# 4 0.001807 -0.000328 -0.000993 0.024471 0.000504 -0.002769
# 5 -0.000692 -0.000244 0.001545 0.000504 0.037381 -0.000192
# 6 0.001712 -0.001503 0.001949 -0.002769 -0.000192 0.033616
#
#
# Mechanical properties :
#
#
# Convention : Reuss Voigt Hill
#
# Bulk Modulus (GPa) = 58.71419 62.54176 60.62797
# Shear Modulus (GPa) = 33.02428 35.28185 34.15306
#
# Velocity S-wave (km/s) = 4.04759 4.18365 4.11618
# Velocity P-wave (km/s) = 7.13943 7.37316 7.25724
#
# Compressibility (1/GPa) = 0.01703166
#
# Stress axis : x y z
#
# Youngs Moduli (GPa) = 93.03101 88.46910 86.26096
#
# Poissons Ratio (x) = 0.30393 0.38567
# Poissons Ratio (y) = 0.31960 0.03454
# Poissons Ratio (z) = 0.41594 0.03543
#
# Static dielectric constant tensor:
#      x y z
#    x 1.728020 0.011370 -0.009400 
#    y 0.011370 1.754720 -0.023070 
#    z -0.009400 -0.023070 1.757710 
# 
# From -- ./inp_files/516033.got.cif
#   From: 2010.05.17/outbox.cif.g08.bks.cpg/sg2_259_cif.got.tgz:516033.got - 2010.06.03 11:33:40.
