data_PCOD9014498
_publ_section_title
;
Structure prediction by ZEFSAII (Michael W. Deem and Ramdas Pophale) SiO2 
 PCOD9014498
Probable space group: P -1
;
_chemical_formula_sum "Si O2"
_cell_formula_units_Z 15
_cell_length_a 17.648752
_cell_length_b 9.487917
_cell_length_c 11.973291
_cell_angle_alpha 144.625217
_cell_angle_beta 38.022200
_cell_angle_gamma 140.309575
_cell_volume 667.941507
_symmetry_space_group_name_H-M "P -1"
_symmetry_group_IT_number 2
_symmetry_cell_setting 'triclinic'
loop_
_space_group_symop_operation_xyz
x,y,z
-x,-y,-z
loop_
_atom_site_type_symbol
_atom_site_label
_atom_site_fract_x
_atom_site_fract_y
_atom_site_fract_z
Si Si1 0.118977 0.463176 0.772070
Si Si2 0.448439 0.190240 0.351691
Si Si3 0.189273 0.730534 0.626521
Si Si4 0.000000 0.500000 0.500000
Si Si5 0.606114 0.561481 0.817733
Si Si6 0.568241 0.837755 0.387879
Si Si7 0.838211 0.069203 0.593017
Si Si8 0.709196 0.142958 0.006386
O O1 0.130560 0.589959 0.718956
O O2 0.245742 0.636071 0.808740
O O3 0.111310 0.166352 0.588473
O O4 0.000000 0.500000 0.000000
O O5 0.500000 0.500000 0.500000
O O6 0.439119 0.107248 0.438532
O O7 0.566012 0.121191 0.116120
O O8 0.307144 0.063864 0.378127
O O9 0.291116 0.585691 0.379489
O O10 0.088664 0.694448 0.620390
O O11 0.278006 0.035221 0.740148
O O12 0.931651 0.275959 0.532715
O O13 0.517624 0.453399 0.738990
O O14 0.500000 0.500000 0.000000
O O15 0.689149 0.864524 0.904205
O O16 0.500000 0.000000 0.500000
O O17 0.812124 0.195296 0.819975
#
# Coordination Sequence:
#
# PCOD9014498 Si02
#       8
#     2   2   2   1   2   2   2   2
#     4  12  27  49  76 103 146 205 255 306 369 444
#     4  12  23  45  72 108 149 186 235 309 386 443
#     4  11  23  48  70 105 148 195 247 310 364 448
#     4  12  28  48  74 100 156 202 246 310 370 438
#     4  11  22  39  73 113 144 187 246 305 375 447
#     4  10  21  41  68 101 149 188 232 299 370 437
#     4  12  27  50  72 112 148 198 255 309 374 448
#     4  12  24  45  78 112 143 195 248 309 382 444
#
# _framework density 22.457056000000001
#
# number of rings (size 3 to 8) (size 9 to 14) (size 15 to 20)
#    0.000    0.533    4.000    6.000    1.867    1.067 
#    0.000    2.667    0.000    0.000    0.000    0.000 
#    0.000    0.000    0.000    0.000    0.000    0.000 
#
# Total GULP energy -83654.704859 kJ/mol
# GULP energy per Si atom -5576.980324 kJ/mol
# Density = 2.240594 g / cm^3
# Si number density = 22.457056 Si / 1000 Ang^3
#
#
#
# Elastic Constant Matrix: (Units=GPa)
#
#
# Indices 1 2 3 4 5 6 
#
# 1 86.6598 2.7030 2.5454 -10.3077 30.5381 -3.7933
# 2 2.7030 118.6719 8.0640 -10.4346 14.0995 -19.4975
# 3 2.5454 8.0640 73.5761 -21.1922 9.8782 -23.9869
# 4 -10.3077 -10.4346 -21.1922 38.9314 -4.0166 13.1987
# 5 30.5381 14.0995 9.8782 -4.0166 33.4700 -5.4523
# 6 -3.7933 -19.4975 -23.9869 13.1987 -5.4523 42.7470
#
#
#
# Elastic Compliance Matrix: (Units=1/GPa)
#
#
# Indices 1 2 3 4 5 6 
#
# 1 0.018268 0.002004 0.003153 0.005101 -0.017754 0.000465
# 2 0.002004 0.009793 0.001537 0.002006 -0.005484 0.004188
# 3 0.003153 0.001537 0.019350 0.008214 -0.006877 0.008425
# 4 0.005101 0.002006 0.008214 0.033212 -0.004733 -0.004882
# 5 -0.017754 -0.005484 -0.006877 -0.004733 0.049829 -0.000119
# 6 0.000465 0.004188 0.008425 -0.004882 -0.000119 0.031565
#
#
# Mechanical properties :
#
#
# Convention : Reuss Voigt Hill
#
# Bulk Modulus (GPa) = 16.44816 33.94806 25.19811
# Shear Modulus (GPa) = 29.60425 40.73605 35.17015
#
# Velocity S-wave (km/s) = 3.63472 4.26367 3.96170
# Velocity P-wave (km/s) = 4.99551 6.27601 5.67201
#
# Compressibility (1/GPa) = 0.06079706
#
# Stress axis : x y z
#
# Youngs Moduli (GPa) = 54.74122 102.11847 51.68034
#
# Poissons Ratio (x) = -0.20464 -0.16294
# Poissons Ratio (y) = -0.10970 -0.07942
# Poissons Ratio (z) = -0.17259 -0.15694
#
# Static dielectric constant tensor:
#      x y z
#    x 1.851590 0.024820 -0.012040 
#    y 0.024820 1.854970 -0.025410 
#    z -0.012040 -0.025410 1.811590 
# 
# From -- ./inp_files/256170.got.cif
#   From: 2010.05.17/outbox.cif.g08.bks.cpg/sg2_129_cif.got.tgz:256170.got - 2010.06.03 11:33:40.
