data_PCOD9014254
_publ_section_title
;
Structure prediction by ZEFSAII (Michael W. Deem and Ramdas Pophale) SiO2 
 PCOD9014254
Probable space group: P -1
;
_chemical_formula_sum "Si O2"
_cell_formula_units_Z 14
_cell_length_a 22.707436
_cell_length_b 9.115991
_cell_length_c 21.391607
_cell_angle_alpha 29.604397
_cell_angle_beta 19.380008
_cell_angle_gamma 29.993723
_cell_volume 696.865518
_symmetry_space_group_name_H-M "P -1"
_symmetry_group_IT_number 2
_symmetry_cell_setting 'triclinic'
loop_
_space_group_symop_operation_xyz
x,y,z
-x,-y,-z
loop_
_atom_site_type_symbol
_atom_site_label
_atom_site_fract_x
_atom_site_fract_y
_atom_site_fract_z
Si Si1 0.065471 0.766673 0.078560
Si Si2 0.470321 0.659257 0.665960
Si Si3 0.381940 0.531016 0.542741
Si Si4 0.953036 0.275818 0.537147
Si Si5 0.812979 0.325583 0.530180
Si Si6 0.869648 0.830488 0.028795
Si Si7 0.999059 0.081170 0.700085
O O1 0.960716 0.506069 0.291275
O O2 0.281496 0.642712 0.893123
O O3 0.033943 0.979228 0.093166
O O4 0.000000 0.000000 0.000000
O O5 0.495203 0.507978 0.627896
O O6 0.631473 0.480202 0.616523
O O7 0.500000 0.000000 0.500000
O O8 0.500000 0.500000 0.500000
O O9 0.296521 0.239895 0.741681
O O10 0.200568 0.829686 0.603937
O O11 0.796972 0.353547 0.610977
O O12 0.986482 0.592141 0.409871
O O13 0.942089 0.099767 0.677965
O O14 0.117406 0.034935 0.424469
O O15 0.000000 0.500000 0.000000
O O16 0.838283 0.004866 0.930191
#
# Coordination Sequence:
#
# PCOD9014254 Si02
#       7
#     2   2   2   2   2   2   2
#     4  12  24  39  68  98 130 169 208 270 334 376
#     4  12  24  40  65 100 134 159 216 270 321 393
#     4  11  24  39  64  98 131 163 203 280 332 370
#     4  10  22  40  68  87 126 182 214 261 309 388
#     4  11  23  44  66  95 129 172 221 257 326 376
#     4  10  22  38  61  94 124 158 216 261 313 388
#     4  10  21  41  67  90 126 172 219 253 323 383
#
# _framework density 20.089959
#
# number of rings (size 3 to 8) (size 9 to 14) (size 15 to 20)
#    0.000    1.143    5.714    0.000    8.000    0.000 
#    0.000    2.857    6.286    3.429    0.000    0.000 
#    0.000    0.000    0.000    0.000    0.000    0.000 
#
# Total GULP energy -78028.346457 kJ/mol
# GULP energy per Si atom -5573.453318 kJ/mol
# Density = 2.004423 g / cm^3
# Si number density = 20.089959 Si / 1000 Ang^3
#
#
#
# Elastic Constant Matrix: (Units=GPa)
#
#
# Indices 1 2 3 4 5 6 
#
# 1 176.0630 41.6620 25.5238 4.2512 15.1101 -12.3367
# 2 41.6620 76.5751 23.5318 0.4252 -4.1088 -0.8960
# 3 25.5238 23.5318 61.8544 12.2269 4.4747 -1.0713
# 4 4.2512 0.4252 12.2269 20.8003 -3.0394 0.7838
# 5 15.1101 -4.1088 4.4747 -3.0394 29.5025 0.1616
# 6 -12.3367 -0.8960 -1.0713 0.7838 0.1616 42.5947
#
#
#
# Elastic Compliance Matrix: (Units=1/GPa)
#
#
# Indices 1 2 3 4 5 6 
#
# 1 0.007279 -0.003897 -0.000854 -0.001614 -0.004319 0.002051
# 2 -0.003897 0.017456 -0.006504 0.005172 0.005952 -0.001043
# 3 -0.000854 -0.006504 0.022029 -0.013417 -0.005194 0.000436
# 4 -0.001614 0.005172 -0.013417 0.057648 0.009531 -0.001793
# 5 -0.004319 0.005952 -0.005194 0.009531 0.038715 -0.001578
# 6 0.002051 -0.001043 0.000436 -0.001793 -0.001578 0.024099
#
#
# Mechanical properties :
#
#
# Convention : Reuss Voigt Hill
#
# Bulk Modulus (GPa) = 41.22855 55.10308 48.16582
# Shear Modulus (GPa) = 25.27540 33.49782 29.38661
#
# Velocity S-wave (km/s) = 3.55083 4.08780 3.82874
# Velocity P-wave (km/s) = 6.11373 7.05463 6.60097
#
# Compressibility (1/GPa) = 0.02425503
#
# Stress axis : x y z
#
# Youngs Moduli (GPa) = 137.38198 57.28625 45.39379
#
# Poissons Ratio (x) = 0.22322 0.03878
# Poissons Ratio (y) = 0.53531 0.29524
# Poissons Ratio (z) = 0.11735 0.37259
#
# Static dielectric constant tensor:
#      x y z
#    x 1.774030 -0.011930 0.019050 
#    y -0.011930 1.747270 -0.001830 
#    z 0.019050 -0.001830 1.722960 
# 
# From -- ./inp_files/235737.got.cif
#   From: 2010.05.17/outbox.cif.g08.bks.cpg/sg2_118_cif.got.tgz:235737.got - 2010.06.03 11:33:40.
