data_PCOD9014523
_publ_section_title
;
Structure prediction by ZEFSAII (Michael W. Deem and Ramdas Pophale) SiO2 
 PCOD9014523
Probable space group: P -1
;
_chemical_formula_sum "Si O2"
_cell_formula_units_Z 15
_cell_length_a 9.095418
_cell_length_b 11.104556
_cell_length_c 9.699819
_cell_angle_alpha 86.717249
_cell_angle_beta 136.725670
_cell_angle_gamma 103.153944
_cell_volume 645.262950
_symmetry_space_group_name_H-M "P -1"
_symmetry_group_IT_number 2
_symmetry_cell_setting 'triclinic'
loop_
_space_group_symop_operation_xyz
x,y,z
-x,-y,-z
loop_
_atom_site_type_symbol
_atom_site_label
_atom_site_fract_x
_atom_site_fract_y
_atom_site_fract_z
Si Si1 0.789877 0.868074 0.722303
Si Si2 0.971729 0.626765 0.400538
Si Si3 0.500000 0.000000 0.000000
Si Si4 0.212882 0.650473 0.165116
Si Si5 0.004589 0.870040 0.585484
Si Si6 0.701206 0.070467 0.831114
Si Si7 0.583232 0.368889 0.428735
Si Si8 0.266123 0.461288 0.029468
O O1 0.631533 0.743479 0.684137
O O2 0.827796 0.856274 0.588042
O O3 0.692851 0.978434 0.703700
O O4 0.039750 0.895218 0.949024
O O5 0.941676 0.741680 0.463434
O O6 0.211444 0.676836 0.486497
O O7 0.000000 0.500000 0.500000
O O8 0.783386 0.585152 0.156669
O O9 0.446490 0.989740 0.134402
O O10 0.743875 0.101515 0.187570
O O11 0.329027 0.796520 0.243833
O O12 0.322174 0.578692 0.360044
O O13 0.952746 0.617494 0.029223
O O14 0.249407 0.600847 0.042116
O O15 0.000000 0.000000 0.500000
O O16 0.497083 0.450719 0.251923
#
# Coordination Sequence:
#
# PCOD9014523 Si02
#       8
#     2   2   1   2   2   2   2   2
#     4  10  23  40  72  99 140 181 241 288 357 428
#     4  11  28  47  71 105 146 191 239 296 365 431
#     4  10  24  44  68 106 148 180 236 292 368 422
#     4  10  22  38  70 102 137 176 235 292 357 425
#     4  11  27  46  71 103 147 191 238 298 360 428
#     4  10  21  41  68 104 137 185 227 293 355 427
#     4  11  23  44  72 102 136 184 239 293 362 434
#     4  10  23  43  68 100 140 180 237 293 355 426
#
# _framework density 23.246334999999998
#
# number of rings (size 3 to 8) (size 9 to 14) (size 15 to 20)
#    0.000    1.600    1.333    1.200    9.333    5.333 
#    0.000    0.000    0.000    0.000    0.000    0.000 
#    0.000    0.000    0.000    0.000    0.000    0.000 
#
# Total GULP energy -83525.131853 kJ/mol
# GULP energy per Si atom -5568.342124 kJ/mol
# Density = 2.319343 g / cm^3
# Si number density = 23.246335 Si / 1000 Ang^3
#
#
#
# Elastic Constant Matrix: (Units=GPa)
#
#
# Indices 1 2 3 4 5 6 
#
# 1 118.0425 44.1080 36.5932 10.2949 -23.3088 -0.4973
# 2 44.1080 107.7788 35.8787 13.1195 -27.5289 -18.9901
# 3 36.5932 35.8787 128.2018 5.5250 -3.7797 -35.2292
# 4 10.2949 13.1195 5.5250 32.3923 -9.2719 -5.3364
# 5 -23.3088 -27.5289 -3.7797 -9.2719 46.5336 19.9121
# 6 -0.4973 -18.9901 -35.2292 -5.3364 19.9121 31.8284
#
#
#
# Elastic Compliance Matrix: (Units=1/GPa)
#
#
# Indices 1 2 3 4 5 6 
#
# 1 0.014634 -0.003274 -0.007901 -0.001481 0.012349 -0.018444
# 2 -0.003274 0.013061 -0.001749 -0.002264 0.004331 0.002716
# 3 -0.007901 -0.001749 0.017901 0.000380 -0.015662 0.028508
# 4 -0.001481 -0.002264 0.000380 0.033628 0.003613 0.002425
# 5 0.012349 0.004331 -0.015662 0.003613 0.048690 -0.044413
# 6 -0.018444 0.002716 0.028508 0.002425 -0.044413 0.092497
#
#
# Mechanical properties :
#
#
# Convention : Reuss Voigt Hill
#
# Bulk Modulus (GPa) = 50.64019 65.24257 57.94138
# Shear Modulus (GPa) = 19.77517 37.98041 28.87779
#
# Velocity S-wave (km/s) = 2.91980 4.04644 3.52838
# Velocity P-wave (km/s) = 5.76181 7.06812 6.44813
#
# Compressibility (1/GPa) = 0.01974716
#
# Stress axis : x y z
#
# Youngs Moduli (GPa) = 68.33294 76.56490 55.86337
#
# Poissons Ratio (x) = 0.25068 0.44140
# Poissons Ratio (y) = 0.22372 0.09770
# Poissons Ratio (z) = 0.53992 0.13391
#
# Static dielectric constant tensor:
#      x y z
#    x 1.870690 -0.032790 -0.026020 
#    y -0.032790 1.935930 -0.069880 
#    z -0.026020 -0.069880 1.949800 
# 
# From -- ./inp_files/179631.got.cif
#   From: 2010.05.17/outbox.cif.g08.bks.cpg/sg2_90_cif.got.tgz:179631.got - 2010.06.03 11:33:40.
