data_PCOD9014452
_publ_section_title
;
Structure prediction by ZEFSAII (Michael W. Deem and Ramdas Pophale) SiO2 
 PCOD9014452
Probable space group: P -1
;
_chemical_formula_sum "Si O2"
_cell_formula_units_Z 16
_cell_length_a 20.285014
_cell_length_b 12.047632
_cell_length_c 9.689459
_cell_angle_alpha 46.083723
_cell_angle_beta 45.227489
_cell_angle_gamma 27.394336
_cell_volume 756.374555
_symmetry_space_group_name_H-M "P -1"
_symmetry_group_IT_number 2
_symmetry_cell_setting 'triclinic'
loop_
_space_group_symop_operation_xyz
x,y,z
-x,-y,-z
loop_
_atom_site_type_symbol
_atom_site_label
_atom_site_fract_x
_atom_site_fract_y
_atom_site_fract_z
Si Si1 0.911961 0.085306 0.884556
Si Si2 0.542924 0.550960 0.601726
Si Si3 0.182884 0.223969 0.310581
Si Si4 0.505402 0.713152 0.203622
Si Si5 0.065045 0.499940 0.768120
Si Si6 0.841981 0.280100 0.527355
Si Si7 0.769763 0.944458 0.298491
Si Si8 0.168500 0.597363 0.026356
O O1 0.827698 0.252348 0.731747
O O2 0.901673 0.237527 0.876125
O O3 0.833578 0.032475 0.101931
O O4 0.084258 0.807948 0.852083
O O5 0.531437 0.615297 0.403665
O O6 0.512393 0.407690 0.768824
O O7 0.702921 0.388905 0.560425
O O8 0.408718 0.810499 0.653229
O O9 0.188168 0.159824 0.516387
O O10 0.132244 0.466645 0.174930
O O11 0.069816 0.282001 0.326412
O O12 0.348264 0.002358 0.194386
O O13 0.654905 0.612712 0.040120
O O14 0.146331 0.550873 0.649330
O O15 0.168576 0.252689 0.737410
O O16 0.000000 0.500000 0.000000
O O17 0.000000 0.000000 0.500000
#
# Coordination Sequence:
#
# PCOD9014452 Si02
#       8
#     2   2   2   2   2   2   2   2
#     4  11  24  39  70  98 129 174 226 272 325 389
#     4  10  23  42  68  96 132 174 218 273 329 393
#     4  11  24  41  70  96 133 174 221 273 334 388
#     4  10  21  41  67  99 127 170 222 273 327 389
#     4  12  27  45  66  99 137 176 217 274 339 395
#     4  12  26  44  66  95 134 177 220 268 336 397
#     4  11  23  46  69  96 134 176 225 275 326 394
#     4  11  22  40  66  98 128 170 223 277 318 392
#
# _framework density 21.15354
#
# number of rings (size 3 to 8) (size 9 to 14) (size 15 to 20)
#    0.000    1.000    2.500    3.750    5.250    1.000 
#    2.250    0.000    0.000    0.000    0.000    0.000 
#    0.000    0.000    0.000    0.000    0.000    0.000 
#
# Total GULP energy -89444.012895 kJ/mol
# GULP energy per Si atom -5590.250806 kJ/mol
# Density = 2.110539 g / cm^3
# Si number density = 21.153540 Si / 1000 Ang^3
#
#
#
# Elastic Constant Matrix: (Units=GPa)
#
#
# Indices 1 2 3 4 5 6 
#
# 1 99.9583 42.7178 13.3119 6.4891 -10.4593 -9.4022
# 2 42.7178 124.3853 18.3096 14.9919 6.4852 -5.6908
# 3 13.3119 18.3096 61.8133 2.4155 0.3442 6.4342
# 4 6.4891 14.9919 2.4155 28.8039 -2.2086 -5.2194
# 5 -10.4593 6.4852 0.3442 -2.2086 30.5365 3.1046
# 6 -9.4022 -5.6908 6.4342 -5.2194 3.1046 37.1463
#
#
#
# Elastic Compliance Matrix: (Units=1/GPa)
#
#
# Indices 1 2 3 4 5 6 
#
# 1 0.012847 -0.004345 -0.001785 0.000365 0.005113 0.002519
# 2 -0.004345 0.010631 -0.002072 -0.004590 -0.004114 0.000587
# 3 -0.001785 -0.002072 0.017611 -0.000708 -0.000023 -0.003917
# 4 0.000365 -0.004590 -0.000708 0.038176 0.003402 0.004592
# 5 0.005113 -0.004114 -0.000023 0.003402 0.035807 -0.001847
# 6 0.002519 0.000587 -0.003917 0.004592 -0.001847 0.029126
#
#
# Mechanical properties :
#
#
# Convention : Reuss Voigt Hill
#
# Bulk Modulus (GPa) = 40.50825 48.31507 44.41166
# Shear Modulus (GPa) = 29.61537 33.41851 31.51694
#
# Velocity S-wave (km/s) = 3.74574 3.97899 3.86413
# Velocity P-wave (km/s) = 6.15619 6.63322 6.39915
#
# Compressibility (1/GPa) = 0.02468633
#
# Stress axis : x y z
#
# Youngs Moduli (GPa) = 77.83992 94.06237 56.78127
#
# Poissons Ratio (x) = 0.40867 0.10134
# Poissons Ratio (y) = 0.33819 0.11766
# Poissons Ratio (z) = 0.13892 0.19492
#
# Static dielectric constant tensor:
#      x y z
#    x 1.758220 -0.016900 0.038010 
#    y -0.016900 1.795070 0.008090 
#    z 0.038010 0.008090 1.785460 
# 
# From -- ./inp_files/332850.got.cif
#   From: 2010.05.17/outbox.cif.g08.bks.cpg/sg2_167_cif.got.tgz:332850.got - 2010.06.03 11:33:40.
