data_PCOD9014621
_publ_section_title
;
Structure prediction by ZEFSAII (Michael W. Deem and Ramdas Pophale) SiO2 
 PCOD9014621
Probable space group: P -1
;
_chemical_formula_sum "Si O2"
_cell_formula_units_Z 14
_cell_length_a 30.800475
_cell_length_b 30.936235
_cell_length_c 8.996590
_cell_angle_alpha 30.364445
_cell_angle_beta 30.414304
_cell_angle_gamma 9.386259
_cell_volume 700.272374
_symmetry_space_group_name_H-M "P -1"
_symmetry_group_IT_number 2
_symmetry_cell_setting 'triclinic'
loop_
_space_group_symop_operation_xyz
x,y,z
-x,-y,-z
loop_
_atom_site_type_symbol
_atom_site_label
_atom_site_fract_x
_atom_site_fract_y
_atom_site_fract_z
Si Si1 0.220908 0.455350 0.910948
Si Si2 0.702008 0.582144 0.866542
Si Si3 0.263012 0.270517 0.811354
Si Si4 0.514864 0.343481 0.376709
Si Si5 0.186065 0.792717 0.201499
Si Si6 0.832410 0.992430 0.756150
Si Si7 0.359587 0.072976 0.820805
O O1 0.299542 0.477036 0.566023
O O2 0.318893 0.359170 0.078889
O O3 0.910272 0.722373 0.036417
O O4 0.405324 0.217089 0.977661
O O5 0.706647 0.656903 0.519724
O O6 0.444264 0.764902 0.062924
O O7 0.968211 0.273030 0.005509
O O8 0.263649 0.224075 0.788012
O O9 0.000000 0.500000 0.000000
O O10 0.500000 0.000000 0.000000
O O11 0.374512 0.540100 0.326830
O O12 0.743240 0.080526 0.582651
O O13 0.636237 0.290657 0.048957
O O14 0.996166 0.926453 0.485517
O O15 0.000000 0.000000 0.000000
O O16 0.500000 0.000000 0.500000
#
# Coordination Sequence:
#
# PCOD9014621 Si02
#       7
#     2   2   2   2   2   2   2
#     4  11  21  35  58  84 120 151 200 238 295 346
#     4  11  21  34  58  81 113 153 194 243 291 343
#     4  12  27  44  61  84 120 156 199 254 304 346
#     4   9  18  29  45  78 118 164 179 233 286 358
#     4   9  16  26  46  74 120 161 186 214 293 358
#     4  10  17  30  48  78 111 154 192 230 282 350
#     4  12  25  39  62  87 114 154 204 246 295 358
#
# _framework density 19.992221000000001
#
# number of rings (size 3 to 8) (size 9 to 14) (size 15 to 20)
#    0.000    1.429    4.286    3.857    4.000    0.000 
#    0.000    0.000    0.000    0.000    0.000    0.000 
#    0.000   22.857    0.000    0.000    0.000    0.000 
#
# Total GULP energy -78036.886196 kJ/mol
# GULP energy per Si atom -5574.063300 kJ/mol
# Density = 1.994672 g / cm^3
# Si number density = 19.992221 Si / 1000 Ang^3
#
#
#
# Elastic Constant Matrix: (Units=GPa)
#
#
# Indices 1 2 3 4 5 6 
#
# 1 23.8941 16.8082 29.9888 15.8547 -7.2917 1.1616
# 2 16.8082 149.1134 71.3034 11.7349 -8.8697 -7.4135
# 3 29.9888 71.3034 180.5293 21.7094 -20.7028 -17.2606
# 4 15.8547 11.7349 21.7094 51.1928 -5.9189 -6.3205
# 5 -7.2917 -8.8697 -20.7028 -5.9189 22.9974 6.7961
# 6 1.1616 -7.4135 -17.2606 -6.3205 6.7961 23.2361
#
#
#
# Elastic Compliance Matrix: (Units=1/GPa)
#
#
# Indices 1 2 3 4 5 6 
#
# 1 0.073524 -0.002533 -0.009157 -0.019120 0.015371 -0.020983
# 2 -0.002533 0.008370 -0.002865 0.000140 -0.000358 0.000811
# 3 -0.009157 -0.002865 0.008940 0.000692 0.002555 0.005625
# 4 -0.019120 0.000140 0.000692 0.026088 -0.001331 0.009000
# 5 0.015371 -0.000358 0.002555 -0.001331 0.054712 -0.015349
# 6 -0.020983 0.000811 0.005625 0.009000 -0.015349 0.055461
#
#
# Mechanical properties :
#
#
# Convention : Reuss Voigt Hill
#
# Bulk Modulus (GPa) = 16.20147 65.52640 40.86394
# Shear Modulus (GPa) = 18.06488 35.18100 26.62294
#
# Velocity S-wave (km/s) = 3.00925 4.19947 3.65316
# Velocity P-wave (km/s) = 4.49395 7.50741 6.18695
#
# Compressibility (1/GPa) = 0.06172278
#
# Stress axis : x y z
#
# Youngs Moduli (GPa) = 13.60093 119.47329 111.85869
#
# Poissons Ratio (x) = 0.30263 1.02432
# Poissons Ratio (y) = 0.03445 0.32053
# Poissons Ratio (z) = 0.12455 0.34234
#
# Static dielectric constant tensor:
#      x y z
#    x 1.726250 -0.030510 -0.031650 
#    y -0.030510 1.764850 0.014390 
#    z -0.031650 0.014390 1.778360 
# 
# From -- ./inp_files/359096.got.cif
#   From: 2010.05.17/outbox.cif.g08.bks.cpg/sg2_180_cif.got.tgz:359096.got - 2010.06.03 11:33:40.
