data_PCOD9014504
_publ_section_title
;
Structure prediction by ZEFSAII (Michael W. Deem and Ramdas Pophale) SiO2 
 PCOD9014504
Probable space group: P -1
;
_chemical_formula_sum "Si O2"
_cell_formula_units_Z 15
_cell_length_a 14.880877
_cell_length_b 9.235915
_cell_length_c 7.917058
_cell_angle_alpha 82.117584
_cell_angle_beta 39.209003
_cell_angle_gamma 65.543613
_cell_volume 593.390137
_symmetry_space_group_name_H-M "P -1"
_symmetry_group_IT_number 2
_symmetry_cell_setting 'triclinic'
loop_
_space_group_symop_operation_xyz
x,y,z
-x,-y,-z
loop_
_atom_site_type_symbol
_atom_site_label
_atom_site_fract_x
_atom_site_fract_y
_atom_site_fract_z
Si Si1 0.894891 0.923924 0.086268
Si Si2 0.000000 0.500000 0.500000
Si Si3 0.950264 0.598830 0.237079
Si Si4 0.611757 0.267852 0.947504
Si Si5 0.435707 0.875318 0.646989
Si Si6 0.592884 0.403088 0.636253
Si Si7 0.034090 0.811501 0.532806
Si Si8 0.701018 0.523001 0.184357
O O1 0.886727 0.789078 0.245394
O O2 0.718606 0.071472 0.257596
O O3 0.979648 0.827664 0.804488
O O4 0.000000 0.000000 0.000000
O O5 0.140144 0.431411 0.471778
O O6 0.037553 0.293623 0.440789
O O7 0.122489 0.506762 0.119323
O O8 0.000000 0.500000 0.000000
O O9 0.622077 0.249424 0.734523
O O10 0.771039 0.282402 0.755029
O O11 0.615449 0.127685 0.085779
O O12 0.448289 0.438893 0.208455
O O13 0.591624 0.698068 0.406438
O O14 0.500000 0.000000 0.500000
O O15 0.728564 0.385035 0.308259
O O16 0.425403 0.471012 0.767076
O O17 0.000000 0.000000 0.500000
#
# Coordination Sequence:
#
# PCOD9014504 Si02
#       8
#     2   1   2   2   2   2   2   2
#     4  12  27  46  75 109 152 205 260 320 402 469
#     4  12  28  46  74 116 152 206 262 320 388 472
#     4  12  25  47  73 107 148 199 251 319 382 458
#     4  10  21  41  68 102 136 191 249 315 378 461
#     4  11  25  46  67 101 148 199 248 319 388 467
#     4   9  20  38  68  99 127 176 243 309 372 445
#     4  12  24  45  76 108 158 195 260 326 391 459
#     4  10  22  40  70  95 137 179 244 302 376 457
#
# _framework density 25.278479999999998
#
# number of rings (size 3 to 8) (size 9 to 14) (size 15 to 20)
#    0.000    1.067    2.667    3.200    7.467    0.000 
#    7.200    0.667    0.000    0.000    0.000    0.000 
#    0.000    0.000    0.000    0.000    0.000    0.000 
#
# Total GULP energy -83560.210550 kJ/mol
# GULP energy per Si atom -5570.680703 kJ/mol
# Density = 2.522094 g / cm^3
# Si number density = 25.278480 Si / 1000 Ang^3
#
#
#
# Elastic Constant Matrix: (Units=GPa)
#
#
# Indices 1 2 3 4 5 6 
#
# 1 115.8328 51.8389 27.6270 -23.2166 19.5788 -0.7797
# 2 51.8389 155.0212 40.3408 -30.6175 25.1835 -18.0288
# 3 27.6270 40.3408 84.1950 -18.7533 1.2177 4.2270
# 4 -23.2166 -30.6175 -18.7533 44.6487 -12.9744 16.9949
# 5 19.5788 25.1835 1.2177 -12.9744 48.2867 -2.1678
# 6 -0.7797 -18.0288 4.2270 16.9949 -2.1678 47.7801
#
#
#
# Elastic Compliance Matrix: (Units=1/GPa)
#
#
# Indices 1 2 3 4 5 6 
#
# 1 0.011214 -0.002494 -0.001563 0.003538 -0.002345 -0.001985
# 2 -0.002494 0.009373 -0.003430 0.001574 -0.003229 0.003093
# 3 -0.001563 -0.003430 0.015605 0.006211 0.003485 -0.004751
# 4 0.003538 0.001574 0.006211 0.034230 0.006256 -0.011789
# 5 -0.002345 -0.003229 0.003485 0.006256 0.024818 -0.002664
# 6 -0.001985 0.003093 -0.004751 -0.011789 -0.002664 0.026557
#
#
# Mechanical properties :
#
#
# Convention : Reuss Voigt Hill
#
# Bulk Modulus (GPa) = 47.13235 66.07359 56.60297
# Shear Modulus (GPa) = 34.75980 43.82592 39.29286
#
# Velocity S-wave (km/s) = 3.71222 4.16832 3.94686
# Velocity P-wave (km/s) = 6.08768 7.02578 6.57348
#
# Compressibility (1/GPa) = 0.02121685
#
# Stress axis : x y z
#
# Youngs Moduli (GPa) = 89.17044 106.69470 64.08170
#
# Poissons Ratio (x) = 0.26614 0.10016
# Poissons Ratio (y) = 0.22243 0.21982
# Poissons Ratio (z) = 0.13937 0.36599
#
# Static dielectric constant tensor:
#      x y z
#    x 2.116290 0.004660 0.140850 
#    y 0.004660 1.775200 -0.020160 
#    z 0.140850 -0.020160 2.389230 
# 
# From -- ./inp_files/295128.got.cif
#   From: 2010.05.17/outbox.cif.g08.bks.cpg/sg2_148_cif.got.tgz:295128.got - 2010.06.03 11:33:40.
