data_PCOD9014347
_publ_section_title
;
Structure prediction by ZEFSAII (Michael W. Deem and Ramdas Pophale) SiO2 
 PCOD9014347
Probable space group: P -1
;
_chemical_formula_sum "Si O2"
_cell_formula_units_Z 16
_cell_length_a 6.678829
_cell_length_b 16.722697
_cell_length_c 14.674648
_cell_angle_alpha 24.633055
_cell_angle_beta 89.998941
_cell_angle_gamma 100.373478
_cell_volume 616.086564
_symmetry_space_group_name_H-M "P -1"
_symmetry_group_IT_number 2
_symmetry_cell_setting 'triclinic'
loop_
_space_group_symop_operation_xyz
x,y,z
-x,-y,-z
loop_
_atom_site_type_symbol
_atom_site_label
_atom_site_fract_x
_atom_site_fract_y
_atom_site_fract_z
Si Si1 0.376802 0.618484 0.113184
Si Si2 0.120644 0.302003 0.705918
Si Si3 0.727058 0.057570 0.604395
Si Si4 0.542782 0.288494 0.785154
Si Si5 0.840370 0.647628 0.767682
Si Si6 0.754378 0.146826 0.717437
Si Si7 0.795627 0.508954 0.101557
Si Si8 0.913492 0.615467 0.182633
O O1 0.518429 0.832799 0.834740
O O2 0.486314 0.621967 0.208420
O O3 0.319154 0.421433 0.248581
O O4 0.149993 0.621911 0.147201
O O5 0.351159 0.279555 0.726358
O O6 0.219856 0.553894 0.417047
O O7 0.051062 0.250038 0.865131
O O8 0.941208 0.174116 0.763312
O O9 0.807125 0.087330 0.678813
O O10 0.662518 0.253189 0.379451
O O11 0.952330 0.121718 0.480437
O O12 0.480067 0.042413 0.058929
O O13 0.960449 0.487203 0.920854
O O14 0.740686 0.604816 0.912399
O O15 0.761918 0.375115 0.464309
O O16 0.813701 0.635578 0.063965
#
# Coordination Sequence:
#
# PCOD9014347 Si02
#       8
#     2   2   2   2   2   2   2   2
#     4  10  17  30  48  73  94 127 162 196 238 285
#     4  11  21  36  49  71  99 130 162 202 244 282
#     4   8  15  26  44  70  96 121 155 198 231 283
#     4  10  22  34  52  71  95 130 169 196 235 297
#     4   8  13  27  45  68 101 123 153 194 245 278
#     4  10  18  34  51  70  97 127 163 196 240 287
#     4   7  14  28  42  70 100 124 150 197 246 277
#     4  10  19  33  51  71 104 125 157 208 244 275
#
# _framework density 25.970376999999999
#
# number of rings (size 3 to 8) (size 9 to 14) (size 15 to 20)
#    0.750    2.000    2.500    0.750    0.000    1.000 
#    4.500    0.000    0.000    0.750    0.000    3.500 
#    0.000    0.000    0.000    0.125    0.000    0.000 
#
# Total GULP energy -89287.010743 kJ/mol
# GULP energy per Si atom -5580.438171 kJ/mol
# Density = 2.591127 g / cm^3
# Si number density = 25.970377 Si / 1000 Ang^3
#
#
#
# Elastic Constant Matrix: (Units=GPa)
#
#
# Indices 1 2 3 4 5 6 
#
# 1 56.1874 26.3465 31.5237 -1.8632 -6.5520 0.6124
# 2 26.3465 97.3699 58.5164 18.0746 -23.6434 -8.9185
# 3 31.5237 58.5164 174.0281 -1.1435 -25.9874 -1.8502
# 4 -1.8632 18.0746 -1.1435 48.3170 0.5347 -10.1223
# 5 -6.5520 -23.6434 -25.9874 0.5347 20.7769 1.5941
# 6 0.6124 -8.9185 -1.8502 -10.1223 1.5941 28.5695
#
#
#
# Elastic Compliance Matrix: (Units=1/GPa)
#
#
# Indices 1 2 3 4 5 6 
#
# 1 0.021585 -0.005633 -0.002396 0.002640 -0.002569 -0.001298
# 2 -0.005633 0.019058 -0.002995 -0.007080 0.016157 0.002466
# 3 -0.002396 -0.002995 0.008077 0.001090 0.005935 -0.000306
# 4 0.002640 -0.007080 0.001090 0.025031 -0.007047 0.007066
# 5 -0.002569 0.016157 0.005935 -0.007047 0.073396 -0.001109
# 6 -0.001298 0.002466 -0.000306 0.007066 -0.001109 0.038346
#
#
# Mechanical properties :
#
#
# Convention : Reuss Voigt Hill
#
# Bulk Modulus (GPa) = 37.49285 62.26206 49.87746
# Shear Modulus (GPa) = 23.10186 33.61260 28.35723
#
# Velocity S-wave (km/s) = 2.98576 3.60149 3.30799
# Velocity P-wave (km/s) = 5.13366 6.42812 5.81701
#
# Compressibility (1/GPa) = 0.02667175
#
# Stress axis : x y z
#
# Youngs Moduli (GPa) = 46.32760 52.47191 123.80179
#
# Poissons Ratio (x) = 0.29559 0.29661
# Poissons Ratio (y) = 0.26098 0.37081
# Poissons Ratio (z) = 0.11099 0.15717
#
# Static dielectric constant tensor:
#      x y z
#    x 2.193910 0.004470 0.034070 
#    y 0.004470 2.112930 -0.012860 
#    z 0.034070 -0.012860 2.058260 
# 
# From -- ./inp_files/507879.got.cif
#   From: 2010.05.17/outbox.cif.g08.bks.cpg/sg2_254_cif.got.tgz:507879.got - 2010.06.03 11:33:40.
