data_PCOD9014956
_publ_section_title
;
Structure prediction by ZEFSAII (Michael W. Deem and Ramdas Pophale) SiO2 
 PCOD9014956
Probable space group: P -1
;
_chemical_formula_sum "Si O2"
_cell_formula_units_Z 15
_cell_length_a 11.960441
_cell_length_b 11.182275
_cell_length_c 8.132799
_cell_angle_alpha 67.420469
_cell_angle_beta 129.137234
_cell_angle_gamma 137.513317
_cell_volume 562.898681
_symmetry_space_group_name_H-M "P -1"
_symmetry_group_IT_number 2
_symmetry_cell_setting 'triclinic'
loop_
_space_group_symop_operation_xyz
x,y,z
-x,-y,-z
loop_
_atom_site_type_symbol
_atom_site_label
_atom_site_fract_x
_atom_site_fract_y
_atom_site_fract_z
Si Si1 0.905027 0.801300 0.980965
Si Si2 0.877428 0.333550 0.306504
Si Si3 0.500000 0.500000 0.500000
Si Si4 0.385896 0.014373 0.577444
Si Si5 0.763004 0.512221 0.239661
Si Si6 0.511621 0.681274 0.642954
Si Si7 0.241380 0.129141 0.653884
Si Si8 0.226153 0.891832 0.993276
O O1 0.691553 0.691418 0.748199
O O2 0.050618 0.807521 0.003294
O O3 0.852763 0.699396 0.155535
O O4 0.000000 0.000000 0.000000
O O5 0.785939 0.419706 0.167941
O O6 0.842410 0.230632 0.165766
O O7 0.105374 0.466586 0.501314
O O8 0.766928 0.197386 0.432448
O O9 0.387260 0.567102 0.427338
O O10 0.370442 0.335205 0.621513
O O11 0.417927 0.126859 0.391918
O O12 0.295849 0.062468 0.594966
O O13 0.594190 0.080993 0.784097
O O14 0.555973 0.398677 0.198478
O O15 0.288364 0.073224 0.889258
O O16 0.000000 0.000000 0.500000
#
# Coordination Sequence:
#
# PCOD9014956 Si02
#       8
#     2   2   1   2   2   2   2   2
#     4  12  29  49  71 110 145 197 246 306 380 446
#     4  10  24  46  72 106 142 191 238 302 371 444
#     4  10  24  40  74 110 146 188 254 292 372 442
#     4  10  23  44  73 108 138 191 249 295 373 436
#     4  11  27  45  72 106 149 188 243 310 371 432
#     4  11  26  45  72 106 146 194 242 310 371 441
#     4  10  21  41  70 109 144 192 239 308 364 429
#     4  11  25  45  80 104 146 194 248 301 365 454
#
# _framework density 26.647779
#
# number of rings (size 3 to 8) (size 9 to 14) (size 15 to 20)
#    0.000    1.333    0.000    4.400   13.067    4.267 
#    0.000    0.000    0.000    0.800    0.000    0.000 
#    0.000    0.000    0.000    0.000    0.000    0.000 
#
# Total GULP energy -83770.584648 kJ/mol
# GULP energy per Si atom -5584.705643 kJ/mol
# Density = 2.658713 g / cm^3
# Si number density = 26.647779 Si / 1000 Ang^3
#
#
#
# Elastic Constant Matrix: (Units=GPa)
#
#
# Indices 1 2 3 4 5 6 
#
# 1 171.9399 67.8539 57.8277 -3.2320 4.2751 9.2975
# 2 67.8539 166.7926 39.3504 -34.0603 -0.6564 -0.8311
# 3 57.8277 39.3504 96.3019 -9.4067 21.4459 15.6144
# 4 -3.2320 -34.0603 -9.4067 40.4772 0.1863 -10.8422
# 5 4.2751 -0.6564 21.4459 0.1863 42.2342 -0.4361
# 6 9.2975 -0.8311 15.6144 -10.8422 -0.4361 45.0979
#
#
#
# Elastic Compliance Matrix: (Units=1/GPa)
#
#
# Indices 1 2 3 4 5 6 
#
# 1 0.008416 -0.003086 -0.004203 -0.003201 0.001237 -0.001094
# 2 -0.003086 0.009436 -0.002120 0.008135 0.001536 0.003515
# 3 -0.004203 -0.002120 0.016373 0.000433 -0.007973 -0.004814
# 4 -0.003201 0.008135 0.000433 0.033746 0.000172 0.008775
# 5 0.001237 0.001536 -0.007973 0.000172 0.027653 0.002843
# 6 -0.001094 0.003515 -0.004814 0.008775 0.002843 0.026268
#
#
# Mechanical properties :
#
#
# Convention : Reuss Voigt Hill
#
# Bulk Modulus (GPa) = 64.91007 85.01094 74.96050
# Shear Modulus (GPa) = 34.28298 43.56199 38.92249
#
# Velocity S-wave (km/s) = 3.59070 4.04757 3.82596
# Velocity P-wave (km/s) = 6.44998 7.33585 6.90713
#
# Compressibility (1/GPa) = 0.01540593
#
# Stress axis : x y z
#
# Youngs Moduli (GPa) = 118.82390 105.97775 61.07791
#
# Poissons Ratio (x) = 0.32707 0.25673
# Poissons Ratio (y) = 0.36671 0.12947
# Poissons Ratio (z) = 0.49945 0.22464
#
# Static dielectric constant tensor:
#      x y z
#    x 1.595060 0.806090 0.925610 
#    y 0.806090 1.110520 -1.305120 
#    z 0.925610 -1.305120 0.523740 
# 
# From -- ./inp_files/262215.got.cif
#   From: 2010.05.17/outbox.cif.g08.bks.cpg/sg2_132_cif.got.tgz:262215.got - 2010.06.03 11:33:40.
