data_PCOD9014122
_publ_section_title
;
Structure prediction by ZEFSAII (Michael W. Deem and Ramdas Pophale) SiO2 
 PCOD9014122
Probable space group: P -1
;
_chemical_formula_sum "Si O2"
_cell_formula_units_Z 16
_cell_length_a 7.280463
_cell_length_b 12.480339
_cell_length_c 11.674358
_cell_angle_alpha 118.264450
_cell_angle_beta 52.003374
_cell_angle_gamma 123.008172
_cell_volume 685.510497
_symmetry_space_group_name_H-M "P -1"
_symmetry_group_IT_number 2
_symmetry_cell_setting 'triclinic'
loop_
_space_group_symop_operation_xyz
x,y,z
-x,-y,-z
loop_
_atom_site_type_symbol
_atom_site_label
_atom_site_fract_x
_atom_site_fract_y
_atom_site_fract_z
Si Si1 0.736330 0.919146 0.120964
Si Si2 0.557005 0.136444 0.391991
Si Si3 0.644007 0.661347 0.897243
Si Si4 0.977853 0.677589 0.189939
Si Si5 0.610611 0.644936 0.485131
Si Si6 0.932588 0.784902 0.627646
Si Si7 0.068966 0.073716 0.699814
Si Si8 0.130922 0.454103 0.065031
O O1 0.799291 0.879686 0.203878
O O2 0.601671 0.022772 0.244953
O O3 0.605870 0.787854 0.031564
O O4 0.000000 0.000000 0.000000
O O5 0.555638 0.265645 0.392994
O O6 0.288428 0.080514 0.529824
O O7 0.785691 0.182074 0.418732
O O8 0.742932 0.694742 0.748488
O O9 0.850762 0.632727 0.880562
O O10 0.401924 0.532507 0.943971
O O11 0.690034 0.647479 0.323473
O O12 0.076412 0.833424 0.235823
O O13 0.044853 0.573588 0.187959
O O14 0.023345 0.636639 0.024024
O O15 0.500000 0.500000 0.500000
O O16 0.861572 0.719213 0.499138
O O17 0.898945 0.923631 0.704534
#
# Coordination Sequence:
#
# PCOD9014122 Si02
#       8
#     2   2   2   2   2   2   2   2
#     4  11  19  37  65  94 125 166 211 263 326 373
#     4  10  24  42  68  96 133 173 211 274 328 384
#     4  11  22  39  63  95 127 167 220 260 323 390
#     4  10  22  42  63  89 129 170 207 270 324 374
#     4  11  26  44  63  96 131 172 221 263 321 398
#     4  11  23  43  67  97 130 169 217 273 319 388
#     4  10  21  41  66  98 130 168 217 268 328 391
#     4  10  23  40  62  92 129 170 214 263 318 391
#
# _framework density 23.34027
#
# number of rings (size 3 to 8) (size 9 to 14) (size 15 to 20)
#    0.000    1.500    3.750    2.250    1.750    5.500 
#    4.500    1.250    0.000    0.000    0.000    0.000 
#    0.000    0.000    0.000    0.000    0.000    0.000 
#
# Total GULP energy -89366.644327 kJ/mol
# GULP energy per Si atom -5585.415270 kJ/mol
# Density = 2.328715 g / cm^3
# Si number density = 23.340270 Si / 1000 Ang^3
#
#
#
# Elastic Constant Matrix: (Units=GPa)
#
#
# Indices 1 2 3 4 5 6 
#
# 1 60.9834 32.1425 24.8925 26.9530 -4.4987 -16.2230
# 2 32.1425 117.1109 21.7822 9.7350 -2.4551 -38.5269
# 3 24.8925 21.7822 102.6499 9.2337 -0.9546 -22.2661
# 4 26.9530 9.7350 9.2337 38.0313 -1.7421 -9.3142
# 5 -4.4987 -2.4551 -0.9546 -1.7421 28.8012 12.8565
# 6 -16.2230 -38.5269 -22.2661 -9.3142 12.8565 45.4244
#
#
#
# Elastic Compliance Matrix: (Units=1/GPa)
#
#
# Indices 1 2 3 4 5 6 
#
# 1 0.029480 -0.006222 -0.004517 -0.018472 0.003597 -0.001768
# 2 -0.006222 0.013580 0.000829 0.003392 -0.004834 0.011766
# 3 -0.004517 0.000829 0.011799 0.001457 -0.002821 0.005971
# 4 -0.018472 0.003392 0.001457 0.039475 -0.002783 0.005876
# 5 0.003597 -0.004834 -0.002821 -0.002783 0.042050 -0.016670
# 6 -0.001768 0.011766 0.005971 0.005876 -0.016670 0.040212
#
#
# Mechanical properties :
#
#
# Convention : Reuss Voigt Hill
#
# Bulk Modulus (GPa) = 28.53930 48.70872 38.62401
# Shear Modulus (GPa) = 24.02755 35.91319 29.97037
#
# Velocity S-wave (km/s) = 3.21198 3.92686 3.58727
# Velocity P-wave (km/s) = 5.09998 6.44007 5.80880
#
# Compressibility (1/GPa) = 0.03503940
#
# Stress axis : x y z
#
# Youngs Moduli (GPa) = 33.92147 73.63958 84.75190
#
# Poissons Ratio (x) = 0.45817 0.38283
# Poissons Ratio (y) = 0.21105 -0.07028
# Poissons Ratio (z) = 0.15323 -0.06106
#
# Static dielectric constant tensor:
#      x y z
#    x 1.950930 -0.001800 -0.002760 
#    y -0.001800 1.878630 0.014200 
#    z -0.002760 0.014200 1.861870 
# 
# From -- ./inp_files/390916.got.cif
#   From: 2010.05.17/outbox.cif.g08.bks.cpg/sg2_196_cif.got.tgz:390916.got - 2010.06.03 11:33:40.
