data_PCOD9014521
_publ_section_title
;
Structure prediction by ZEFSAII (Michael W. Deem and Ramdas Pophale) SiO2 
 PCOD9014521
Probable space group: P -1
;
_chemical_formula_sum "Si O2"
_cell_formula_units_Z 14
_cell_length_a 12.238086
_cell_length_b 15.028321
_cell_length_c 12.336974
_cell_angle_alpha 153.851641
_cell_angle_beta 139.063221
_cell_angle_gamma 49.624747
_cell_volume 651.560867
_symmetry_space_group_name_H-M "P -1"
_symmetry_group_IT_number 2
_symmetry_cell_setting 'triclinic'
loop_
_space_group_symop_operation_xyz
x,y,z
-x,-y,-z
loop_
_atom_site_type_symbol
_atom_site_label
_atom_site_fract_x
_atom_site_fract_y
_atom_site_fract_z
Si Si1 0.812113 0.962816 0.356501
Si Si2 0.395527 0.289463 0.654236
Si Si3 0.956172 0.513355 0.670948
Si Si4 0.023474 0.230777 0.230598
Si Si5 0.570058 0.277944 0.564788
Si Si6 0.743613 0.695711 0.219292
Si Si7 0.354528 0.349811 0.284333
O O1 0.806591 0.850481 0.344114
O O2 0.729822 0.171033 0.533307
O O3 0.711116 0.816530 0.034511
O O4 0.000000 0.000000 0.500000
O O5 0.218760 0.311930 0.487297
O O6 0.502464 0.192789 0.537053
O O7 0.339368 0.192913 0.621473
O O8 0.500000 0.500000 0.000000
O O9 0.011265 0.717026 0.863637
O O10 0.802369 0.543316 0.667614
O O11 0.915879 0.352051 0.366336
O O12 0.108012 0.426119 0.753566
O O13 0.000000 0.000000 0.000000
O O14 0.433593 0.247134 0.334799
O O15 0.614188 0.518925 0.877521
O O16 0.500000 0.500000 0.500000
#
# Coordination Sequence:
#
# PCOD9014521 Si02
#       7
#     2   2   2   2   2   2   2
#     4  12  28  44  67  98 136 181 230 270 327 406
#     4   9  20  41  70  96 130 166 216 276 339 389
#     4  10  23  42  69  95 140 173 217 279 331 400
#     4  10  21  41  68 104 131 171 221 272 337 398
#     4  11  23  46  69  96 135 171 228 284 331 391
#     4  10  23  45  68  99 132 179 221 270 345 398
#     4  12  25  44  70  97 133 182 223 275 337 389
#
# _framework density 21.486865999999999
#
# number of rings (size 3 to 8) (size 9 to 14) (size 15 to 20)
#    0.000    1.429    2.857    1.286    2.000    7.429 
#    0.000    0.000    0.000    0.000    0.000    0.000 
#    0.000    0.000    0.000    0.000    0.000    0.000 
#
# Total GULP energy -78182.885521 kJ/mol
# GULP energy per Si atom -5584.491823 kJ/mol
# Density = 2.143796 g / cm^3
# Si number density = 21.486866 Si / 1000 Ang^3
#
#
#
# Elastic Constant Matrix: (Units=GPa)
#
#
# Indices 1 2 3 4 5 6 
#
# 1 141.4526 4.2543 16.1347 0.7826 -14.1326 9.3269
# 2 4.2543 51.9301 8.3253 -7.5408 0.3679 17.7905
# 3 16.1347 8.3253 58.8377 -8.9089 1.0022 12.6716
# 4 0.7826 -7.5408 -8.9089 30.7906 0.8316 -3.7539
# 5 -14.1326 0.3679 1.0022 0.8316 26.3584 1.8818
# 6 9.3269 17.7905 12.6716 -3.7539 1.8818 42.5992
#
#
#
# Elastic Compliance Matrix: (Units=1/GPa)
#
#
# Indices 1 2 3 4 5 6 
#
# 1 0.007848 -0.000027 -0.002093 -0.001099 0.004421 -0.001376
# 2 -0.000027 0.023103 -0.000651 0.004359 0.000198 -0.009074
# 3 -0.002093 -0.000651 0.019425 0.005007 -0.001686 -0.004532
# 4 -0.001099 0.004359 0.005007 0.035088 -0.001955 0.000109
# 5 0.004421 0.000198 -0.001686 -0.001955 0.040611 -0.002515
# 6 -0.001376 -0.009074 -0.004532 0.000109 -0.002515 0.029034
#
#
# Mechanical properties :
#
#
# Convention : Reuss Voigt Hill
#
# Bulk Modulus (GPa) = 22.30460 34.40545 28.35502
# Shear Modulus (GPa) = 28.47444 34.85004 31.66224
#
# Velocity S-wave (km/s) = 3.64428 4.03168 3.84287
# Velocity P-wave (km/s) = 5.30196 6.14163 5.73718
#
# Compressibility (1/GPa) = 0.04483381
#
# Stress axis : x y z
#
# Youngs Moduli (GPa) = 127.42755 43.28392 51.47986
#
# Poissons Ratio (x) = 0.00115 0.10777
# Poissons Ratio (y) = 0.00339 0.03351
# Poissons Ratio (z) = 0.26677 0.02818
#
# Static dielectric constant tensor:
#      x y z
#    x 1.781350 0.012040 0.004490 
#    y 0.012040 1.792080 -0.003480 
#    z 0.004490 -0.003480 1.779700 
# 
# From -- ./inp_files/70621.got.cif
#   From: 2010.05.17/outbox.cif.g08.bks.cpg/sg2_36_cif.got.tgz:70621.got - 2010.06.03 11:33:40.
