data_PCOD9014827
_publ_section_title
;
Structure prediction by ZEFSAII (Michael W. Deem and Ramdas Pophale) SiO2 
 PCOD9014827
Probable space group: P -1
;
_chemical_formula_sum "Si O2"
_cell_formula_units_Z 14
_cell_length_a 15.878927
_cell_length_b 6.890940
_cell_length_c 11.129262
_cell_angle_alpha 62.095454
_cell_angle_beta 46.142696
_cell_angle_gamma 45.353898
_cell_volume 624.307058
_symmetry_space_group_name_H-M "P -1"
_symmetry_group_IT_number 2
_symmetry_cell_setting 'triclinic'
loop_
_space_group_symop_operation_xyz
x,y,z
-x,-y,-z
loop_
_atom_site_type_symbol
_atom_site_label
_atom_site_fract_x
_atom_site_fract_y
_atom_site_fract_z
Si Si1 0.006895 0.124672 0.281152
Si Si2 0.306580 0.691629 0.511639
Si Si3 0.924487 0.413123 0.511203
Si Si4 0.372681 0.775096 0.689787
Si Si5 0.333544 0.322257 0.941780
Si Si6 0.331169 0.122840 0.258580
Si Si7 0.165649 0.241078 0.932689
O O1 0.845606 0.264990 0.347411
O O2 0.988375 0.335160 0.337981
O O3 0.052484 0.851256 0.380021
O O4 0.132676 0.048905 0.088393
O O5 0.332642 0.779903 0.588658
O O6 0.452432 0.389482 0.429648
O O7 0.295437 0.902380 0.364412
O O8 0.756246 0.662630 0.611002
O O9 0.000000 0.500000 0.500000
O O10 0.342963 0.573119 0.842429
O O11 0.271808 0.068745 0.767300
O O12 0.238800 0.326363 0.928146
O O13 0.497573 0.050041 0.843955
O O14 0.287611 0.287036 0.128849
O O15 0.000000 0.500000 0.000000
#
# Coordination Sequence:
#
# PCOD9014827 Si02
#       7
#     2   2   2   2   2   2   2
#     4  11  25  39  63 100 128 168 222 262 333 388
#     4  10  22  44  68  97 127 173 225 273 326 387
#     4  11  22  39  63  95 133 165 208 274 328 384
#     4  10  24  46  66  92 135 174 221 275 324 392
#     4  10  23  44  64  97 132 172 224 264 338 397
#     4  10  21  41  69  94 130 174 214 278 328 387
#     4  12  27  42  66  97 133 181 218 270 331 403
#
# _framework density 22.424862000000001
#
# number of rings (size 3 to 8) (size 9 to 14) (size 15 to 20)
#    0.000    1.429    1.429    2.571    6.000    3.429 
#    0.000    5.714    0.000    0.000    0.000    0.000 
#    0.000    0.000    0.000    0.000    0.000    0.000 
#
# Total GULP energy -78265.938817 kJ/mol
# GULP energy per Si atom -5590.424201 kJ/mol
# Density = 2.237382 g / cm^3
# Si number density = 22.424862 Si / 1000 Ang^3
#
#
#
# Elastic Constant Matrix: (Units=GPa)
#
#
# Indices 1 2 3 4 5 6 
#
# 1 71.4038 13.2434 0.1817 13.3849 -8.8583 -1.9354
# 2 13.2434 84.2221 17.1976 27.1388 8.1418 -6.8401
# 3 0.1817 17.1976 80.7422 19.3601 3.2963 4.0940
# 4 13.3849 27.1388 19.3601 52.3054 -3.1732 1.9322
# 5 -8.8583 8.1418 3.2963 -3.1732 33.3998 -2.4298
# 6 -1.9354 -6.8401 4.0940 1.9322 -2.4298 19.0653
#
#
#
# Elastic Compliance Matrix: (Units=1/GPa)
#
#
# Indices 1 2 3 4 5 6 
#
# 1 0.015514 -0.001907 0.000857 -0.003094 0.004315 0.001570
# 2 -0.001907 0.015907 -0.001675 -0.007642 -0.004502 0.006074
# 3 0.000857 -0.001675 0.014045 -0.004515 -0.001416 -0.003253
# 4 -0.003094 -0.007642 -0.004515 0.025925 0.003642 -0.004250
# 5 0.004315 -0.004502 -0.001416 0.003642 0.032882 0.002948
# 6 0.001570 0.006074 -0.003253 -0.004250 0.002948 0.056295
#
#
# Mechanical properties :
#
#
# Convention : Reuss Voigt Hill
#
# Bulk Modulus (GPa) = 24.99022 33.06819 29.02920
# Shear Modulus (GPa) = 27.87739 34.67046 31.27393
#
# Velocity S-wave (km/s) = 3.52965 3.93628 3.73850
# Velocity P-wave (km/s) = 5.27062 5.95292 5.62213
#
# Compressibility (1/GPa) = 0.04001566
#
# Stress axis : x y z
#
# Youngs Moduli (GPa) = 64.45658 62.86735 71.19858
#
# Poissons Ratio (x) = 0.11990 -0.06105
# Poissons Ratio (y) = 0.12293 0.11928
# Poissons Ratio (z) = -0.05527 0.10533
#
# Static dielectric constant tensor:
#      x y z
#    x 1.807330 -0.036110 0.012320 
#    y -0.036110 1.852750 -0.046800 
#    z 0.012320 -0.046800 1.911350 
# 
# From -- ./inp_files/66605.got.cif
#   From: 2010.05.17/outbox.cif.g08.bks.cpg/sg2_34_cif.got.tgz:66605.got - 2010.06.03 11:33:40.
