data_PCOD9014608
_publ_section_title
;
Structure prediction by ZEFSAII (Michael W. Deem and Ramdas Pophale) SiO2 
 PCOD9014608
Probable space group: P -1
;
_chemical_formula_sum "Si O2"
_cell_formula_units_Z 16
_cell_length_a 12.256246
_cell_length_b 9.633552
_cell_length_c 8.290587
_cell_angle_alpha 94.021809
_cell_angle_beta 127.367399
_cell_angle_gamma 76.654297
_cell_volume 753.861201
_symmetry_space_group_name_H-M "P -1"
_symmetry_group_IT_number 2
_symmetry_cell_setting 'triclinic'
loop_
_space_group_symop_operation_xyz
x,y,z
-x,-y,-z
loop_
_atom_site_type_symbol
_atom_site_label
_atom_site_fract_x
_atom_site_fract_y
_atom_site_fract_z
Si Si1 0.915983 0.701260 0.075830
Si Si2 0.656252 0.997143 0.199692
Si Si3 0.663549 0.786237 0.640116
Si Si4 0.875828 0.227037 0.981436
Si Si5 0.656873 0.110792 0.565321
Si Si6 0.118204 0.554048 0.764846
Si Si7 0.803921 0.680709 0.428215
Si Si8 0.918031 0.995469 0.259428
O O1 0.941128 0.558523 0.189100
O O2 0.011114 0.705182 0.004902
O O3 0.943152 0.832971 0.212518
O O4 0.754502 0.731282 0.874504
O O5 0.660810 0.087944 0.374071
O O6 0.751356 0.047509 0.153811
O O7 0.731313 0.831599 0.293312
O O8 0.500000 0.000000 0.000000
O O9 0.498238 0.800006 0.515357
O O10 0.733263 0.692885 0.541932
O O11 0.678092 0.948961 0.638274
O O12 0.773593 0.179792 0.757152
O O13 0.801834 0.351736 0.048863
O O14 0.949473 0.090968 0.147084
O O15 0.207278 0.457589 0.697486
O O16 0.973595 0.661773 0.584363
O O17 0.000000 0.000000 0.500000
#
# Coordination Sequence:
#
# PCOD9014608 Si02
#       8
#     2   2   2   2   2   2   2   2
#     4  12  23  41  69  94 130 178 230 269 333 400
#     4  11  23  43  71 101 129 177 227 274 331 405
#     4  10  21  41  68  95 125 176 219 271 330 399
#     4  12  25  41  63 102 135 170 222 286 332 387
#     4  10  23  41  65  98 135 167 217 283 338 384
#     4  11  24  43  66  99 135 182 219 272 335 410
#     4  10  22  41  69  94 132 174 229 267 324 406
#     4  12  25  39  65 102 136 170 222 289 334 381
#
# _framework density 21.224067999999999
#
# number of rings (size 3 to 8) (size 9 to 14) (size 15 to 20)
#    0.000    1.000    3.750    3.000    7.000    0.000 
#    0.000    1.250    0.000    0.000    0.000    0.000 
#    0.000    0.000    0.000    0.000    0.000    0.000 
#
# Total GULP energy -89451.566371 kJ/mol
# GULP energy per Si atom -5590.722898 kJ/mol
# Density = 2.117576 g / cm^3
# Si number density = 21.224068 Si / 1000 Ang^3
#
#
#
# Elastic Constant Matrix: (Units=GPa)
#
#
# Indices 1 2 3 4 5 6 
#
# 1 68.7031 30.7718 27.3127 2.3156 4.0163 -25.1330
# 2 30.7718 111.7594 57.0063 21.6113 -6.2880 -24.7636
# 3 27.3127 57.0063 118.6280 13.3049 -0.5070 -15.0228
# 4 2.3156 21.6113 13.3049 40.4371 -5.6599 -11.9131
# 5 4.0163 -6.2880 -0.5070 -5.6599 29.7125 3.5754
# 6 -25.1330 -24.7636 -15.0228 -11.9131 3.5754 38.8461
#
#
#
# Elastic Compliance Matrix: (Units=1/GPa)
#
#
# Indices 1 2 3 4 5 6 
#
# 1 0.021684 -0.002938 -0.002448 0.004340 -0.004325 0.012939
# 2 -0.002938 0.014146 -0.005170 -0.004345 0.002042 0.003597
# 3 -0.002448 -0.005170 0.011517 -0.001200 -0.000708 -0.000728
# 4 0.004340 -0.004345 -0.001200 0.030158 0.003192 0.008529
# 5 -0.004325 0.002042 -0.000708 0.003192 0.035760 -0.004083
# 6 0.012939 0.003597 -0.000728 0.008529 -0.004083 0.039117
#
#
# Mechanical properties :
#
#
# Convention : Reuss Voigt Hill
#
# Bulk Modulus (GPa) = 38.11400 58.80801 48.46101
# Shear Modulus (GPa) = 27.43680 34.06579 30.75130
#
# Velocity S-wave (km/s) = 3.59934 4.01066 3.81056
# Velocity P-wave (km/s) = 5.93891 7.01538 6.49947
#
# Compressibility (1/GPa) = 0.02623708
#
# Stress axis : x y z
#
# Youngs Moduli (GPa) = 46.11671 70.69200 86.82900
#
# Poissons Ratio (x) = 0.20766 0.21252
# Poissons Ratio (y) = 0.13547 0.44889
# Poissons Ratio (z) = 0.11287 0.36546
#
# Static dielectric constant tensor:
#      x y z
#    x 1.808200 -0.018290 -0.041320 
#    y -0.018290 1.761430 0.014540 
#    z -0.041320 0.014540 1.788820 
# 
# From -- ./inp_files/244200.got.cif
#   From: 2010.05.17/outbox.cif.g08.bks.cpg/sg2_123_cif.got.tgz:244200.got - 2010.06.03 11:33:40.
