data_PCOD9014471
_publ_section_title
;
Structure prediction by ZEFSAII (Michael W. Deem and Ramdas Pophale) SiO2 
 PCOD9014471
Probable space group: P -1
;
_chemical_formula_sum "Si O2"
_cell_formula_units_Z 15
_cell_length_a 26.307980
_cell_length_b 8.652292
_cell_length_c 26.301422
_cell_angle_alpha 145.418426
_cell_angle_beta 11.157041
_cell_angle_gamma 146.033069
_cell_volume 644.666340
_symmetry_space_group_name_H-M "P -1"
_symmetry_group_IT_number 2
_symmetry_cell_setting 'triclinic'
loop_
_space_group_symop_operation_xyz
x,y,z
-x,-y,-z
loop_
_atom_site_type_symbol
_atom_site_label
_atom_site_fract_x
_atom_site_fract_y
_atom_site_fract_z
Si Si1 0.715617 0.805339 0.736780
Si Si2 0.582545 0.294000 0.796245
Si Si3 0.000000 0.000000 0.000000
Si Si4 0.919708 0.588882 0.213350
Si Si5 0.282929 0.222672 0.888402
Si Si6 0.161965 0.452107 0.553818
Si Si7 0.444916 0.855632 0.718783
Si Si8 0.946865 0.975478 0.706767
O O1 0.652924 0.608521 0.793630
O O2 0.713523 0.588507 0.633992
O O3 0.000000 0.000000 0.500000
O O4 0.500000 0.000000 0.000000
O O5 0.840721 0.217001 0.547152
O O6 0.502907 0.092399 0.770236
O O7 0.340601 0.205029 0.048320
O O8 0.130790 0.112937 0.957014
O O9 0.143154 0.723851 0.790537
O O10 0.693895 0.700605 0.433367
O O11 0.989042 0.790653 0.248445
O O12 0.187872 0.632034 0.928317
O O13 0.561449 0.430637 0.655713
O O14 0.380210 0.996245 0.767960
O O15 0.062846 0.358393 0.172207
O O16 0.005275 0.156779 0.648161
#
# Coordination Sequence:
#
# PCOD9014471 Si02
#       8
#     2   2   1   2   2   2   2   2
#     4  12  26  45  72 110 143 178 233 302 358 422
#     4  10  21  41  69  99 137 181 234 284 344 426
#     4  12  28  44  68 108 152 182 240 312 354 404
#     4  10  23  41  65  99 139 181 238 296 344 405
#     4  12  26  43  72 103 143 193 241 294 359 423
#     4  12  25  46  72 105 141 191 239 286 364 442
#     4  10  22  42  68  95 134 189 242 279 346 427
#     4  10  21  41  68 100 133 188 238 275 347 427
#
# _framework density 23.267848999999998
#
# number of rings (size 3 to 8) (size 9 to 14) (size 15 to 20)
#    0.000    1.067    2.667    3.200    7.467    3.200 
#    0.000    4.000    0.000    0.000    0.000    0.000 
#    0.000    0.000    0.000    0.000    0.000    0.000 
#
# Total GULP energy -83675.366368 kJ/mol
# GULP energy per Si atom -5578.357758 kJ/mol
# Density = 2.321489 g / cm^3
# Si number density = 23.267849 Si / 1000 Ang^3
#
#
#
# Elastic Constant Matrix: (Units=GPa)
#
#
# Indices 1 2 3 4 5 6 
#
# 1 103.1489 44.0752 43.6307 -5.5937 -16.4192 -19.6791
# 2 44.0752 64.2123 44.8177 39.7756 11.3824 -12.8841
# 3 43.6307 44.8177 191.7603 -2.5827 -12.9682 -16.4671
# 4 -5.5937 39.7756 -2.5827 31.5577 -12.8902 0.7838
# 5 -16.4192 11.3824 -12.9682 -12.8902 28.9037 1.7553
# 6 -19.6791 -12.8841 -16.4671 0.7838 1.7553 35.0338
#
#
#
# Elastic Compliance Matrix: (Units=1/GPa)
#
#
# Indices 1 2 3 4 5 6 
#
# 1 0.006794 0.008667 -0.003749 -0.013235 -0.007497 0.005913
# 2 0.008667 -0.011431 0.002521 0.025008 0.021697 0.000203
# 3 -0.003749 0.002521 0.005358 -0.004617 -0.002874 0.001587
# 4 -0.013235 0.025008 -0.004617 -0.012903 -0.025262 0.001147
# 5 -0.007497 0.021697 -0.002874 -0.025262 0.009086 0.002527
# 6 0.005913 0.000203 0.001587 0.001147 0.002527 0.032534
#
#
# Mechanical properties :
#
#
# Convention : Reuss Voigt Hill
#
# Bulk Modulus (GPa) = 64.10514 69.35206 66.72860
# Shear Modulus (GPa) = 253.04702 34.20559 143.62630
#
# Velocity S-wave (km/s) = 10.43983 3.83832 7.86520
# Velocity P-wave (km/s) = 13.15032 7.03664 10.54621
#
# Compressibility (1/GPa) = 0.01559937
#
# Stress axis : x y z
#
# Youngs Moduli (GPa) = 147.18122 -87.47843 186.62618
#
# Poissons Ratio (x) = 0.75814 0.69964
# Poissons Ratio (y) = -1.27556 -0.47054
# Poissons Ratio (z) = 0.55176 0.22056
#
# Static dielectric constant tensor:
#      x y z
#    x 1.886780 0.041970 0.006950 
#    y 0.041970 1.868840 -0.022510 
#    z 0.006950 -0.022510 1.807410 
# 
# From -- ./inp_files/621103.got.cif
#   From: 2010.05.17/outbox.cif.g08.bks.cpg/sg2_311_cif.got.tgz:621103.got - 2010.06.03 11:33:40.
