data_PCOD9014715
_publ_section_title
;
Structure prediction by ZEFSAII (Michael W. Deem and Ramdas Pophale) SiO2 
 PCOD9014715
Probable space group: P -1
;
_chemical_formula_sum "Si O2"
_cell_formula_units_Z 15
_cell_length_a 5.460178
_cell_length_b 22.922187
_cell_length_c 12.711252
_cell_angle_alpha 151.365720
_cell_angle_beta 111.073619
_cell_angle_gamma 65.290546
_cell_volume 692.496926
_symmetry_space_group_name_H-M "P -1"
_symmetry_group_IT_number 2
_symmetry_cell_setting 'triclinic'
loop_
_space_group_symop_operation_xyz
x,y,z
-x,-y,-z
loop_
_atom_site_type_symbol
_atom_site_label
_atom_site_fract_x
_atom_site_fract_y
_atom_site_fract_z
Si Si1 0.500000 0.500000 0.500000
Si Si2 0.811917 0.901170 0.188707
Si Si3 0.265736 0.316886 0.035781
Si Si4 0.654111 0.120502 0.647155
Si Si5 0.808715 0.283832 0.368774
Si Si6 0.369141 0.121897 0.105355
Si Si7 0.226330 0.562388 0.182638
Si Si8 0.263262 0.650387 0.103124
O O1 0.446837 0.404575 0.247404
O O2 0.673960 0.379272 0.406523
O O3 0.105311 0.919298 0.294882
O O4 0.611120 0.000603 0.388762
O O5 0.811931 0.759592 0.997761
O O6 0.736701 0.921118 0.088965
O O7 0.997818 0.387389 0.046350
O O8 0.409324 0.211194 0.809950
O O9 0.749108 0.210976 0.720285
O O10 0.595898 0.199149 0.232856
O O11 0.846061 0.358017 0.598309
O O12 0.102758 0.205806 0.253179
O O13 0.500000 0.000000 0.000000
O O14 0.483731 0.449425 0.061383
O O15 0.287047 0.644225 0.222586
O O16 0.000000 0.500000 0.000000
#
# Coordination Sequence:
#
# PCOD9014715 Si02
#       8
#     1   2   2   2   2   2   2   2
#     4  12  24  44  76 106 158 194 244 314 368 462
#     4  10  23  43  68  98 140 183 254 297 368 434
#     4  11  22  43  66 108 140 187 237 302 380 439
#     4  10  21  41  69 100 134 185 235 311 359 441
#     4  12  29  49  79 110 151 202 252 308 384 448
#     4  12  29  52  73 109 152 202 252 308 377 456
#     4  11  25  44  66 100 141 186 242 303 366 450
#     4  10  23  40  68 101 135 177 240 296 374 435
#
# _framework density 21.660746
#
# number of rings (size 3 to 8) (size 9 to 14) (size 15 to 20)
#    0.000    1.067    1.333    4.000    7.467    2.667 
#    0.000    0.000    0.000    0.000    0.000    0.000 
#    0.000    0.000    0.000    0.000    0.000    0.000 
#
# Total GULP energy -83594.024418 kJ/mol
# GULP energy per Si atom -5572.934961 kJ/mol
# Density = 2.161145 g / cm^3
# Si number density = 21.660746 Si / 1000 Ang^3
#
#
#
# Elastic Constant Matrix: (Units=GPa)
#
#
# Indices 1 2 3 4 5 6 
#
# 1 103.1884 42.7001 54.4383 3.4535 -25.0384 -14.8447
# 2 42.7001 170.2811 73.9226 6.2479 -13.9485 -11.8446
# 3 54.4383 73.9226 129.1839 -13.0320 -21.0105 -16.9617
# 4 3.4535 6.2479 -13.0320 43.5232 3.3869 6.1873
# 5 -25.0384 -13.9485 -21.0105 3.3869 27.1894 12.7391
# 6 -14.8447 -11.8446 -16.9617 6.1873 12.7391 27.5032
#
#
#
# Elastic Compliance Matrix: (Units=1/GPa)
#
#
# Indices 1 2 3 4 5 6 
#
# 1 0.015058 -0.000832 -0.004445 -0.003346 0.009851 0.001218
# 2 -0.000832 0.008178 -0.004490 -0.002576 -0.000171 0.000962
# 3 -0.004445 -0.004490 0.013268 0.004538 0.002510 0.001666
# 4 -0.003346 -0.002576 0.004538 0.025834 -0.001707 -0.005138
# 5 0.009851 -0.000171 0.002510 -0.001707 0.056903 -0.019181
# 6 0.001218 0.000962 0.001666 -0.005138 -0.019181 0.048499
#
#
# Mechanical properties :
#
#
# Convention : Reuss Voigt Hill
#
# Bulk Modulus (GPa) = 58.92776 82.75281 70.84028
# Shear Modulus (GPa) = 25.91618 35.08267 30.49942
#
# Velocity S-wave (km/s) = 3.46274 4.02884 3.75647
# Velocity P-wave (km/s) = 6.57657 7.74139 7.18263
#
# Compressibility (1/GPa) = 0.01696993
#
# Stress axis : x y z
#
# Youngs Moduli (GPa) = 66.41135 122.27716 75.36744
#
# Poissons Ratio (x) = 0.10172 0.33499
# Poissons Ratio (y) = 0.05525 0.33843
# Poissons Ratio (z) = 0.29518 0.54908
#
# Static dielectric constant tensor:
#      x y z
#    x 1.889800 0.049280 0.016390 
#    y 0.049280 1.773660 0.035630 
#    z 0.016390 0.035630 1.775310 
# 
# From -- ./inp_files/82613.got.cif
#   From: 2010.05.17/outbox.cif.g08.bks.cpg/sg2_42_cif.got.tgz:82613.got - 2010.06.03 11:33:40.
