data_PCOD9014658
_publ_section_title
;
Structure prediction by ZEFSAII (Michael W. Deem and Ramdas Pophale) SiO2 
 PCOD9014658
Probable space group: P -1
;
_chemical_formula_sum "Si O2"
_cell_formula_units_Z 14
_cell_length_a 10.840493
_cell_length_b 5.568909
_cell_length_c 11.244365
_cell_angle_alpha 88.106707
_cell_angle_beta 79.960870
_cell_angle_gamma 60.813348
_cell_volume 582.492173
_symmetry_space_group_name_H-M "P -1"
_symmetry_group_IT_number 2
_symmetry_cell_setting 'triclinic'
loop_
_space_group_symop_operation_xyz
x,y,z
-x,-y,-z
loop_
_atom_site_type_symbol
_atom_site_label
_atom_site_fract_x
_atom_site_fract_y
_atom_site_fract_z
Si Si1 0.434847 0.175330 0.126291
Si Si2 0.009375 0.388133 0.773479
Si Si3 0.407681 0.339439 0.526800
Si Si4 0.127086 0.740252 0.412686
Si Si5 0.775175 0.355499 0.978796
Si Si6 0.695584 0.752059 0.212556
Si Si7 0.814814 0.959649 0.814836
O O1 0.561003 0.048267 0.199735
O O2 0.303082 0.131998 0.188367
O O3 0.362562 0.485060 0.089256
O O4 0.500000 0.000000 0.000000
O O5 0.957571 0.374307 0.650714
O O6 0.174739 0.199810 0.771258
O O7 0.912051 0.343487 0.888418
O O8 0.973703 0.701139 0.789161
O O9 0.500000 0.500000 0.500000
O O10 0.263239 0.506209 0.466309
O O11 0.349527 0.372312 0.669576
O O12 0.500000 0.000000 0.500000
O O13 0.191074 0.852851 0.296838
O O14 0.000000 0.000000 0.500000
O O15 0.798536 0.054154 0.954971
O O16 0.740145 0.535136 0.099025
#
# Coordination Sequence:
#
# PCOD9014658 Si02
#       7
#     2   2   2   2   2   2   2
#     4   9  20  39  62  95 133 177 227 288 357 429
#     4  10  23  43  71 104 139 184 239 306 371 441
#     4  12  31  52  75 114 151 201 255 314 370 439
#     4  11  26  47  76 100 144 195 250 303 375 444
#     4   9  21  42  68 101 136 186 231 300 373 440
#     4  11  23  43  68 103 143 183 245 301 361 448
#     4  10  21  41  68  96 138 183 235 295 373 433
#
# _framework density 24.034656999999999
#
# number of rings (size 3 to 8) (size 9 to 14) (size 15 to 20)
#    0.000    1.714    0.000    2.143   10.000    4.000 
#    7.714    0.000    0.000    0.000    0.000    0.000 
#    0.000    0.000    0.000    0.000    0.000    0.000 
#
# Total GULP energy -78139.355846 kJ/mol
# GULP energy per Si atom -5581.382560 kJ/mol
# Density = 2.397995 g / cm^3
# Si number density = 24.034657 Si / 1000 Ang^3
#
#
#
# Elastic Constant Matrix: (Units=GPa)
#
#
# Indices 1 2 3 4 5 6 
#
# 1 147.5307 49.2323 41.5901 -6.8610 14.2409 -36.3768
# 2 49.2323 82.3729 27.5777 12.2524 11.2182 -10.4549
# 3 41.5901 27.5777 119.0416 13.2087 -0.3599 -4.3599
# 4 -6.8610 12.2524 13.2087 42.2627 -3.8607 10.7478
# 5 14.2409 11.2182 -0.3599 -3.8607 34.2393 -2.8928
# 6 -36.3768 -10.4549 -4.3599 10.7478 -2.8928 35.4550
#
#
#
# Elastic Compliance Matrix: (Units=1/GPa)
#
#
# Indices 1 2 3 4 5 6 
#
# 1 0.011909 -0.004814 -0.002862 0.001513 -0.002408 0.009792
# 2 -0.004814 0.017198 -0.001596 -0.006013 -0.004208 0.001416
# 3 -0.002862 -0.001596 0.010027 -0.002691 0.001410 -0.001243
# 4 0.001513 -0.006013 -0.002691 0.029149 0.003832 -0.009075
# 5 -0.002408 -0.004208 0.001410 0.003832 0.031856 -0.002101
# 6 0.009792 0.001416 -0.001243 -0.009075 -0.002101 0.041095
#
#
# Mechanical properties :
#
#
# Convention : Reuss Voigt Hill
#
# Bulk Modulus (GPa) = 48.56525 65.08280 56.82403
# Shear Modulus (GPa) = 30.00443 37.76108 33.88276
#
# Velocity S-wave (km/s) = 3.53708 3.96802 3.75873
# Velocity P-wave (km/s) = 6.07712 6.93766 6.52160
#
# Compressibility (1/GPa) = 0.02059086
#
# Stress axis : x y z
#
# Youngs Moduli (GPa) = 83.97319 58.14466 99.72678
#
# Poissons Ratio (x) = 0.27989 0.28541
# Poissons Ratio (y) = 0.40422 0.15918
# Poissons Ratio (z) = 0.24033 0.09281
#
# Static dielectric constant tensor:
#      x y z
#    x 1.960110 0.040950 0.027870 
#    y 0.040950 2.079440 -0.009630 
#    z 0.027870 -0.009630 1.926730 
# 
# From -- ./inp_files/78305.got.cif
#   From: 2010.05.17/outbox.cif.g08.bks.cpg/sg2_40_cif.got.tgz:78305.got - 2010.06.03 11:33:40.
