data_PCOD9014409
_publ_section_title
;
Structure prediction by ZEFSAII (Michael W. Deem and Ramdas Pophale) SiO2 
 PCOD9014409
Probable space group: P -1
;
_chemical_formula_sum "Si O2"
_cell_formula_units_Z 12
_cell_length_a 7.828139
_cell_length_b 8.443878
_cell_length_c 11.711407
_cell_angle_alpha 140.543699
_cell_angle_beta 103.073873
_cell_angle_gamma 75.015635
_cell_volume 474.773171
_symmetry_space_group_name_H-M "P -1"
_symmetry_group_IT_number 2
_symmetry_cell_setting 'triclinic'
loop_
_space_group_symop_operation_xyz
x,y,z
-x,-y,-z
loop_
_atom_site_type_symbol
_atom_site_label
_atom_site_fract_x
_atom_site_fract_y
_atom_site_fract_z
Si Si1 0.215440 0.099306 0.263984
Si Si2 0.708979 0.040063 0.047868
Si Si3 0.837137 0.024201 0.575212
Si Si4 0.386148 0.099144 0.711967
Si Si5 0.702026 0.376347 0.440091
Si Si6 0.191053 0.434045 0.049624
O O1 0.217422 0.949863 0.062954
O O2 0.192590 0.392634 0.390946
O O3 0.099121 0.064386 0.337442
O O4 0.409407 0.000085 0.291643
O O5 0.805448 0.792758 0.987357
O O6 0.500000 0.000000 0.000000
O O7 0.727930 0.281525 0.261363
O O8 0.762375 0.318235 0.743052
O O9 0.690865 0.872141 0.410869
O O10 0.000000 0.000000 0.500000
O O11 0.287062 0.874060 0.622973
O O12 0.326734 0.337899 0.915719
O O13 0.500000 0.500000 0.500000
O O14 0.000000 0.500000 0.000000
#
# Coordination Sequence:
#
# PCOD9014409 Si02
#       6
#     2   2   2   2   2   2
#     4  11  23  40  67 106 125 168 229 277 319 390
#     4  11  20  40  69 101 127 172 221 273 328 387
#     4  12  26  42  64  92 139 182 217 267 337 392
#     4  10  21  41  67  97 127 172 219 271 333 386
#     4   9  18  35  65  93 132 156 209 276 329 369
#     4  11  23  43  68  90 138 178 210 269 340 392
#
# _framework density 25.275229
#
# number of rings (size 3 to 8) (size 9 to 14) (size 15 to 20)
#    0.000    1.333    6.667    1.500    2.333    2.000 
#    0.000    4.167    0.000    0.000    0.000    0.000 
#    0.000    0.000    0.000    0.000    0.000    0.000 
#
# Total GULP energy -67167.586045 kJ/mol
# GULP energy per Si atom -5597.298837 kJ/mol
# Density = 2.521770 g / cm^3
# Si number density = 25.275229 Si / 1000 Ang^3
#
#
#
# Elastic Constant Matrix: (Units=GPa)
#
#
# Indices 1 2 3 4 5 6 
#
# 1 77.7627 25.8608 7.0343 -5.9059 -14.3497 -4.4147
# 2 25.8608 95.1575 28.2783 -22.5295 -19.1630 2.7104
# 3 7.0343 28.2783 190.8818 -22.2432 -27.0981 15.1545
# 4 -5.9059 -22.5295 -22.2432 52.9585 2.3904 -5.6314
# 5 -14.3497 -19.1630 -27.0981 2.3904 27.5267 -14.4957
# 6 -4.4147 2.7104 15.1545 -5.6314 -14.4957 37.6646
#
#
#
# Elastic Compliance Matrix: (Units=1/GPa)
#
#
# Indices 1 2 3 4 5 6 
#
# 1 0.015953 -0.002325 0.000953 0.001343 0.010656 0.005955
# 2 -0.002325 0.014472 -0.000257 0.005710 0.009941 0.003469
# 3 0.000953 -0.000257 0.006440 0.002451 0.006699 0.000484
# 4 0.001343 0.005710 0.002451 0.022687 0.007839 0.005169
# 5 0.010656 0.009941 0.006699 0.007839 0.067973 0.025170
# 6 0.005955 0.003469 0.000484 0.005169 0.025170 0.037264
#
#
# Mechanical properties :
#
#
# Convention : Reuss Voigt Hill
#
# Bulk Modulus (GPa) = 29.75563 54.01652 41.88607
# Shear Modulus (GPa) = 27.89432 43.80520 35.84976
#
# Velocity S-wave (km/s) = 3.32569 4.16760 3.77022
# Velocity P-wave (km/s) = 5.15220 6.67655 5.96328
#
# Compressibility (1/GPa) = 0.03360708
#
# Stress axis : x y z
#
# Youngs Moduli (GPa) = 62.68478 69.09928 155.27763
#
# Poissons Ratio (x) = 0.16062 -0.14795
# Poissons Ratio (y) = 0.14571 0.03993
# Poissons Ratio (z) = -0.05973 0.01777
#
# Static dielectric constant tensor:
#      x y z
#    x 2.084390 0.002040 0.022250 
#    y 0.002040 2.095230 -0.083190 
#    z 0.022250 -0.083190 2.017870 
# 
# From -- ./inp_files/156431.got.cif
#   From: 2010.05.17/outbox.cif.g08.bks.cpg/sg2_79_cif.got.tgz:156431.got - 2010.06.03 11:33:40.
