data_PCOD9014249
_publ_section_title
;
Structure prediction by ZEFSAII (Michael W. Deem and Ramdas Pophale) SiO2 
 PCOD9014249
Probable space group: P -1
;
_chemical_formula_sum "Si O2"
_cell_formula_units_Z 16
_cell_length_a 6.550397
_cell_length_b 17.346402
_cell_length_c 7.422864
_cell_angle_alpha 84.421968
_cell_angle_beta 119.070239
_cell_angle_gamma 114.044974
_cell_volume 667.822898
_symmetry_space_group_name_H-M "P -1"
_symmetry_group_IT_number 2
_symmetry_cell_setting 'triclinic'
loop_
_space_group_symop_operation_xyz
x,y,z
-x,-y,-z
loop_
_atom_site_type_symbol
_atom_site_label
_atom_site_fract_x
_atom_site_fract_y
_atom_site_fract_z
Si Si1 0.893196 0.411907 0.224688
Si Si2 0.848989 0.068465 0.807353
Si Si3 0.743255 0.831901 0.319711
Si Si4 0.158870 0.596756 0.210711
Si Si5 0.802571 0.229439 0.800210
Si Si6 0.770764 0.893608 0.723836
Si Si7 0.368514 0.285512 0.187200
Si Si8 0.277605 0.340597 0.531906
O O1 0.601155 0.355734 0.165341
O O2 0.978320 0.512661 0.255382
O O3 0.075121 0.380774 0.424018
O O4 0.939568 0.400753 0.034381
O O5 0.731677 0.136876 0.704781
O O6 0.095316 0.101944 0.774288
O O7 0.690980 0.970225 0.716691
O O8 0.959339 0.078837 0.056030
O O9 0.437783 0.794097 0.160386
O O10 0.799605 0.876424 0.530121
O O11 0.806562 0.748688 0.378023
O O12 0.194788 0.684473 0.302913
O O13 0.437866 0.596403 0.298832
O O14 0.091435 0.256972 0.983072
O O15 0.592127 0.801171 0.748258
O O16 0.329345 0.318539 0.356319
#
# Coordination Sequence:
#
# PCOD9014249 Si02
#       8
#     2   2   2   2   2   2   2   2
#     4  11  23  43  65  92 127 177 207 268 341 376
#     4  10  21  41  67  89 133 182 209 274 336 374
#     4  10  22  40  66  94 133 177 216 270 329 385
#     4  10  23  42  65  95 129 161 225 270 313 408
#     4  10  22  39  61  96 130 164 224 268 311 405
#     4   9  21  40  61  99 130 164 235 264 310 415
#     4  10  22  40  63  88 131 168 209 271 325 381
#     4  10  22  41  61  94 128 166 218 270 315 401
#
# _framework density 23.958448000000001
#
# number of rings (size 3 to 8) (size 9 to 14) (size 15 to 20)
#    0.000    2.000    1.250    0.750    7.000    4.500 
#    0.000   10.625    0.000    0.000    0.000    0.000 
#    0.000    0.000    0.000    0.000    0.000    0.000 
#
# Total GULP energy -89394.933188 kJ/mol
# GULP energy per Si atom -5587.183324 kJ/mol
# Density = 2.390392 g / cm^3
# Si number density = 23.958448 Si / 1000 Ang^3
#
#
#
# Elastic Constant Matrix: (Units=GPa)
#
#
# Indices 1 2 3 4 5 6 
#
# 1 60.6559 54.5208 36.8906 -17.4183 7.9765 -5.6400
# 2 54.5208 139.8420 24.9740 -4.2934 11.6364 -2.3214
# 3 36.8906 24.9740 93.3777 1.6556 8.7629 3.1508
# 4 -17.4183 -4.2934 1.6556 27.1449 -2.5725 -6.0341
# 5 7.9765 11.6364 8.7629 -2.5725 39.8251 -1.7393
# 6 -5.6400 -2.3214 3.1508 -6.0341 -1.7393 32.1777
#
#
#
# Elastic Compliance Matrix: (Units=1/GPa)
#
#
# Indices 1 2 3 4 5 6 
#
# 1 0.055618 -0.016958 -0.018820 0.038178 0.001191 0.017592
# 2 -0.016958 0.012869 0.003782 -0.010260 -0.002053 -0.004449
# 3 -0.018820 0.003782 0.017886 -0.014507 -0.002542 -0.007635
# 4 0.038178 -0.010260 -0.014507 0.065350 0.003630 0.019823
# 5 0.001191 -0.002053 -0.002542 0.003630 0.026371 0.002416
# 6 0.017592 -0.004449 -0.007635 0.019823 0.002416 0.038435
#
#
# Mechanical properties :
#
#
# Convention : Reuss Voigt Hill
#
# Bulk Modulus (GPa) = 44.67795 58.51626 51.59711
# Shear Modulus (GPa) = 17.36239 31.66221 24.51230
#
# Velocity S-wave (km/s) = 2.69492 3.63925 3.20209
# Velocity P-wave (km/s) = 5.32654 6.49122 5.93751
#
# Compressibility (1/GPa) = 0.02238240
#
# Stress axis : x y z
#
# Youngs Moduli (GPa) = 17.97991 77.70719 55.90970
#
# Poissons Ratio (x) = 1.31775 1.05220
# Poissons Ratio (y) = 0.30490 -0.21148
# Poissons Ratio (z) = 0.33837 -0.29392
#
# Static dielectric constant tensor:
#      x y z
#    x 1.901460 -0.057980 0.010270 
#    y -0.057980 1.924010 0.017730 
#    z 0.010270 0.017730 1.978720 
# 
# From -- ./inp_files/46541.got.cif
#   From: 2010.05.17/outbox.cif.g08.bks.cpg/sg2_24_cif.got.tgz:46541.got - 2010.06.03 11:33:40.
