data_PCOD9014714
_publ_section_title
;
Structure prediction by ZEFSAII (Michael W. Deem and Ramdas Pophale) SiO2 
 PCOD9014714
Probable space group: P -1
;
_chemical_formula_sum "Si O2"
_cell_formula_units_Z 12
_cell_length_a 7.327094
_cell_length_b 9.328531
_cell_length_c 10.671322
_cell_angle_alpha 87.036141
_cell_angle_beta 138.165775
_cell_angle_gamma 112.044848
_cell_volume 419.152445
_symmetry_space_group_name_H-M "P -1"
_symmetry_group_IT_number 2
_symmetry_cell_setting 'triclinic'
loop_
_space_group_symop_operation_xyz
x,y,z
-x,-y,-z
loop_
_atom_site_type_symbol
_atom_site_label
_atom_site_fract_x
_atom_site_fract_y
_atom_site_fract_z
Si Si1 0.792809 0.282626 0.131406
Si Si2 0.381426 0.556902 0.314935
Si Si3 0.230487 0.997933 0.723952
Si Si4 0.129270 0.773086 0.274592
Si Si5 0.505943 0.404046 0.171238
Si Si6 0.563309 0.891160 0.710866
O O1 0.775091 0.388289 0.235105
O O2 0.015602 0.405204 0.132595
O O3 0.917901 0.162867 0.253636
O O4 0.437925 0.163382 0.903393
O O5 0.500000 0.500000 0.500000
O O6 0.357228 0.719473 0.322187
O O7 0.564630 0.552828 0.285931
O O8 0.497349 0.974021 0.791126
O O9 0.000000 0.000000 0.500000
O O10 0.237261 0.790130 0.471540
O O11 0.203134 0.955608 0.263201
O O12 0.773977 0.637478 0.066979
O O13 0.353290 0.243161 0.193520
#
# Coordination Sequence:
#
# PCOD9014714 Si02
#       6
#     2   2   2   2   2   2
#     4  10  25  44  67 102 136 174 227 277 334 400
#     4  12  26  46  67  99 143 181 220 277 339 401
#     4  10  21  41  69 100 134 175 222 283 335 392
#     4  11  23  41  67  99 134 178 225 273 340 397
#     4  11  23  45  69  95 132 176 225 284 328 393
#     4  10  22  40  66 100 129 177 228 271 333 400
#
# _framework density 28.629204000000001
#
# number of rings (size 3 to 8) (size 9 to 14) (size 15 to 20)
#    0.000    1.333    1.667    3.000    2.333    4.000 
#    0.000    0.000    0.000    0.000    0.000    0.000 
#    0.000    0.000    0.000    0.000    0.000    0.000 
#
# Total GULP energy -67353.751792 kJ/mol
# GULP energy per Si atom -5612.812649 kJ/mol
# Density = 2.856404 g / cm^3
# Si number density = 28.629204 Si / 1000 Ang^3
#
#
#
# Elastic Constant Matrix: (Units=GPa)
#
#
# Indices 1 2 3 4 5 6 
#
# 1 128.8240 32.7528 18.7317 20.5139 -17.4013 -28.4382
# 2 32.7528 172.9821 17.7132 -16.4853 0.2677 4.1860
# 3 18.7317 17.7132 119.5462 -17.6974 -7.4754 12.1245
# 4 20.5139 -16.4853 -17.6974 36.5243 -6.7151 -2.3065
# 5 -17.4013 0.2677 -7.4754 -6.7151 45.1008 12.1883
# 6 -28.4382 4.1860 12.1245 -2.3065 12.1883 56.8246
#
#
#
# Elastic Compliance Matrix: (Units=1/GPa)
#
#
# Indices 1 2 3 4 5 6 
#
# 1 0.011993 -0.002949 -0.003372 -0.009114 0.001012 0.006352
# 2 -0.002949 0.006805 0.000362 0.004804 0.000106 -0.001882
# 3 -0.003372 0.000362 0.010531 0.007387 0.002687 -0.004238
# 4 -0.009114 0.004804 0.007387 0.038800 0.005080 -0.006006
# 5 0.001012 0.000106 0.002687 0.005080 0.025189 -0.005271
# 6 0.006352 -0.001882 -0.004238 -0.006006 -0.005271 0.022706
#
#
# Mechanical properties :
#
#
# Convention : Reuss Voigt Hill
#
# Bulk Modulus (GPa) = 57.43365 62.19420 59.81393
# Shear Modulus (GPa) = 37.38420 51.16691 44.27556
#
# Velocity S-wave (km/s) = 3.61751 4.23215 3.93684
# Velocity P-wave (km/s) = 6.12808 6.75667 6.45004
#
# Compressibility (1/GPa) = 0.01741139
#
# Stress axis : x y z
#
# Youngs Moduli (GPa) = 83.38304 146.94023 94.95745
#
# Poissons Ratio (x) = 0.43336 0.32022
# Poissons Ratio (y) = 0.24592 -0.03442
# Poissons Ratio (z) = 0.28119 -0.05327
#
# Static dielectric constant tensor:
#      x y z
#    x 2.174180 0.032540 0.056030 
#    y 0.032540 2.210790 0.000670 
#    z 0.056030 0.000670 2.215390 
# 
# From -- ./inp_files/157792.got.cif
#   From: 2010.05.17/outbox.cif.g08.bks.cpg/sg2_79_cif.got.tgz:157792.got - 2010.06.03 11:33:40.
