data_PCOD9014941
_publ_section_title
;
Structure prediction by ZEFSAII (Michael W. Deem and Ramdas Pophale) SiO2 
 PCOD9014941
Probable space group: P -1
;
_chemical_formula_sum "Si O2"
_cell_formula_units_Z 16
_cell_length_a 16.375990
_cell_length_b 11.939103
_cell_length_c 14.382644
_cell_angle_alpha 146.688966
_cell_angle_beta 150.488539
_cell_angle_gamma 28.741561
_cell_volume 633.969621
_symmetry_space_group_name_H-M "P -1"
_symmetry_group_IT_number 2
_symmetry_cell_setting 'triclinic'
loop_
_space_group_symop_operation_xyz
x,y,z
-x,-y,-z
loop_
_atom_site_type_symbol
_atom_site_label
_atom_site_fract_x
_atom_site_fract_y
_atom_site_fract_z
Si Si1 0.314884 0.015799 0.228944
Si Si2 0.913169 0.466252 0.178226
Si Si3 0.746172 0.760597 0.402895
Si Si4 0.229414 0.105153 0.777897
Si Si5 0.731645 0.171610 0.761721
Si Si6 0.847487 0.173706 0.369950
Si Si7 0.528523 0.420785 0.367097
Si Si8 0.716926 0.347218 0.159126
O O1 0.151358 0.298095 0.286571
O O2 0.507731 0.950587 0.315938
O O3 0.377433 0.866639 0.285431
O O4 0.202736 0.916307 0.989450
O O5 0.809993 0.662155 0.294449
O O6 0.814784 0.631908 0.104299
O O7 0.851874 0.273515 0.998586
O O8 0.797985 0.518504 0.340847
O O9 0.835604 0.907621 0.633310
O O10 0.167243 0.057711 0.783503
O O11 0.438866 0.849388 0.788879
O O12 0.069226 0.106103 0.548504
O O13 0.620957 0.363056 0.700749
O O14 0.734975 0.342033 0.465372
O O15 0.728559 0.303080 0.249492
O O16 0.500000 0.500000 0.500000
O O17 0.500000 0.500000 0.000000
#
# Coordination Sequence:
#
# PCOD9014941 Si02
#       8
#     2   2   2   2   2   2   2   2
#     4  11  26  47  72 110 151 193 250 306 375 460
#     4  12  27  49  70 116 156 184 258 312 371 458
#     4  11  26  44  76 107 149 203 240 302 396 431
#     4   9  23  44  69 101 144 201 239 308 372 428
#     4  12  26  45  73 113 149 196 250 312 375 457
#     4   9  21  43  73 100 140 198 250 298 367 444
#     4  10  21  41  70 103 141 190 255 299 363 450
#     4  10  21  43  73 106 144 194 245 307 375 439
#
# _framework density 25.237803
#
# number of rings (size 3 to 8) (size 9 to 14) (size 15 to 20)
#    0.750    0.750    1.250    3.000    5.250    3.000 
#    0.000    3.125    0.000    0.000    0.000    0.000 
#    0.000    0.000    0.000    0.000    0.000    0.000 
#
# Total GULP energy -89276.899059 kJ/mol
# GULP energy per Si atom -5579.806191 kJ/mol
# Density = 2.518036 g / cm^3
# Si number density = 25.237803 Si / 1000 Ang^3
#
#
#
# Elastic Constant Matrix: (Units=GPa)
#
#
# Indices 1 2 3 4 5 6 
#
# 1 137.6737 80.6840 36.5231 0.0518 -17.0165 11.5154
# 2 80.6840 168.8531 39.0551 -1.3751 -11.4312 7.9297
# 3 36.5231 39.0551 100.3167 17.9511 -2.4097 -5.3363
# 4 0.0518 -1.3751 17.9511 49.4941 10.2690 -5.2314
# 5 -17.0165 -11.4312 -2.4097 10.2690 36.9467 7.8144
# 6 11.5154 7.9297 -5.3363 -5.2314 7.8144 54.8620
#
#
#
# Elastic Compliance Matrix: (Units=1/GPa)
#
#
# Indices 1 2 3 4 5 6 
#
# 1 0.011217 -0.004413 -0.002317 -0.000468 0.004331 -0.002604
# 2 -0.004413 0.008515 -0.001867 0.000795 0.000357 -0.000461
# 3 -0.002317 -0.001867 0.012409 -0.004401 0.000063 0.001534
# 4 -0.000468 0.000795 -0.004401 0.023671 -0.007443 0.002872
# 5 0.004331 0.000357 0.000063 -0.007443 0.032577 -0.006304
# 6 -0.002604 -0.000461 0.001534 0.002872 -0.006304 0.020162
#
#
# Mechanical properties :
#
#
# Convention : Reuss Voigt Hill
#
# Bulk Modulus (GPa) = 66.89290 79.92977 73.41133
# Shear Modulus (GPa) = 38.24753 44.96600 41.60677
#
# Velocity S-wave (km/s) = 3.89715 4.22559 4.06469
# Velocity P-wave (km/s) = 6.84200 7.45298 7.15401
#
# Compressibility (1/GPa) = 0.01494927
#
# Stress axis : x y z
#
# Youngs Moduli (GPa) = 89.14736 117.44195 80.58375
#
# Poissons Ratio (x) = 0.51822 0.18670
# Poissons Ratio (y) = 0.39337 0.15043
# Poissons Ratio (z) = 0.20654 0.21924
#
# Static dielectric constant tensor:
#      x y z
#    x 2.019520 -0.026420 0.069410 
#    y -0.026420 2.070190 0.013480 
#    z 0.069410 0.013480 2.083480 
# 
# From -- ./inp_files/538315.got.cif
#   From: 2010.05.17/outbox.cif.g08.bks.cpg/sg2_270_cif.got.tgz:538315.got - 2010.06.03 11:33:40.
