data_PCOD9014382
_publ_section_title
;
Structure prediction by ZEFSAII (Michael W. Deem and Ramdas Pophale) SiO2 
 PCOD9014382
Probable space group: P -1
;
_chemical_formula_sum "Si O2"
_cell_formula_units_Z 16
_cell_length_a 11.650776
_cell_length_b 6.811055
_cell_length_c 10.242508
_cell_angle_alpha 100.347694
_cell_angle_beta 119.502597
_cell_angle_gamma 66.687875
_cell_volume 649.525453
_symmetry_space_group_name_H-M "P -1"
_symmetry_group_IT_number 2
_symmetry_cell_setting 'triclinic'
loop_
_space_group_symop_operation_xyz
x,y,z
-x,-y,-z
loop_
_atom_site_type_symbol
_atom_site_label
_atom_site_fract_x
_atom_site_fract_y
_atom_site_fract_z
Si Si1 0.361841 0.752319 0.732207
Si Si2 0.805473 0.817790 0.609951
Si Si3 0.692892 0.585856 0.859080
Si Si4 0.856949 0.761942 0.343589
Si Si5 0.646521 0.527035 0.542273
Si Si6 0.912528 0.744003 0.952370
Si Si7 0.782176 0.372856 0.146788
Si Si8 0.971499 0.072635 0.733251
O O1 0.525968 0.701561 0.791558
O O2 0.312312 0.613983 0.581844
O O3 0.346637 0.656786 0.852520
O O4 0.268155 0.003389 0.703035
O O5 0.666627 0.753850 0.542570
O O6 0.888840 0.763384 0.787425
O O7 0.876043 0.707671 0.501583
O O8 0.818611 0.051126 0.629335
O O9 0.728616 0.486038 0.721895
O O10 0.761009 0.769039 0.931614
O O11 0.752822 0.403912 0.980023
O O12 0.809080 0.584872 0.228856
O O13 0.986729 0.788402 0.337540
O O14 0.500000 0.500000 0.500000
O O15 0.000000 0.500000 0.000000
O O16 0.988985 0.867887 0.094734
O O17 0.911149 0.166004 0.243381
#
# Coordination Sequence:
#
# PCOD9014382 Si02
#       8
#     2   2   2   2   2   2   2   2
#     4  10  22  42  67  95 134 171 223 273 324 394
#     4  11  23  41  68  96 131 180 212 267 344 378
#     4  10  21  41  67  96 129 177 216 273 331 381
#     4  11  24  43  65 100 135 172 219 276 321 399
#     4   9  20  41  65  92 128 165 224 269 315 390
#     4  11  24  45  69  98 133 169 222 277 324 397
#     4  11  22  43  66  95 136 173 219 275 327 391
#     4  11  25  44  66  99 134 170 224 271 327 399
#
# _framework density 24.633368000000001
#
# number of rings (size 3 to 8) (size 9 to 14) (size 15 to 20)
#    0.000    1.500    2.500    1.875    0.000    4.000 
#    2.250    5.625    2.750    0.000    0.000    0.000 
#    0.000    0.000    0.000    0.000    0.000    0.000 
#
# Total GULP energy -89308.696192 kJ/mol
# GULP energy per Si atom -5581.793512 kJ/mol
# Density = 2.457730 g / cm^3
# Si number density = 24.633368 Si / 1000 Ang^3
#
#
#
# Elastic Constant Matrix: (Units=GPa)
#
#
# Indices 1 2 3 4 5 6 
#
# 1 133.9972 30.6300 33.7331 4.8861 5.1954 37.9193
# 2 30.6300 78.3897 20.7578 19.4930 5.6824 16.5241
# 3 33.7331 20.7578 118.1178 3.0409 -11.9789 20.3247
# 4 4.8861 19.4930 3.0409 49.4650 15.1418 -1.7680
# 5 5.1954 5.6824 -11.9789 15.1418 54.4493 -2.4574
# 6 37.9193 16.5241 20.3247 -1.7680 -2.4574 34.1627
#
#
#
# Elastic Compliance Matrix: (Units=1/GPa)
#
#
# Indices 1 2 3 4 5 6 
#
# 1 0.011396 -0.001545 -0.001186 -0.000359 -0.001598 -0.011329
# 2 -0.001545 0.016565 -0.001333 -0.006392 -0.000362 -0.005860
# 3 -0.001186 -0.001333 0.009978 -0.000879 0.002519 -0.003839
# 4 -0.000359 -0.006392 -0.000879 0.024895 -0.006196 0.004856
# 5 -0.001598 -0.000362 0.002519 -0.006196 0.020907 0.001634
# 6 -0.011329 -0.005860 -0.003839 0.004856 0.001634 0.047334
#
#
# Mechanical properties :
#
#
# Convention : Reuss Voigt Hill
#
# Bulk Modulus (GPa) = 33.54775 55.63851 44.59313
# Shear Modulus (GPa) = 33.52543 43.97430 38.74987
#
# Velocity S-wave (km/s) = 3.69314 4.22969 3.97049
# Velocity P-wave (km/s) = 5.64217 6.81831 6.25794
#
# Compressibility (1/GPa) = 0.02980826
#
# Stress axis : x y z
#
# Youngs Moduli (GPa) = 87.75124 60.36940 100.22174
#
# Poissons Ratio (x) = 0.09329 0.11890
# Poissons Ratio (y) = 0.13560 0.13364
# Poissons Ratio (z) = 0.10410 0.08050
#
# Static dielectric constant tensor:
#      x y z
#    x 2.079090 0.015560 0.020640 
#    y 0.015560 1.993800 0.009520 
#    z 0.020640 0.009520 1.968050 
# 
# From -- ./inp_files/411113.got.cif
#   From: 2010.05.17/outbox.cif.g08.bks.cpg/sg2_206_cif.got.tgz:411113.got - 2010.06.03 11:33:40.
