data_PCOD9014255
_publ_section_title
;
Structure prediction by ZEFSAII (Michael W. Deem and Ramdas Pophale) SiO2 
 PCOD9014255
Probable space group: P -1
;
_chemical_formula_sum "Si O2"
_cell_formula_units_Z 16
_cell_length_a 15.167200
_cell_length_b 10.507086
_cell_length_c 12.339384
_cell_angle_alpha 105.269286
_cell_angle_beta 28.361657
_cell_angle_gamma 116.645320
_cell_volume 794.012927
_symmetry_space_group_name_H-M "P -1"
_symmetry_group_IT_number 2
_symmetry_cell_setting 'triclinic'
loop_
_space_group_symop_operation_xyz
x,y,z
-x,-y,-z
loop_
_atom_site_type_symbol
_atom_site_label
_atom_site_fract_x
_atom_site_fract_y
_atom_site_fract_z
Si Si1 0.578100 0.779910 0.025527
Si Si2 0.474714 0.865687 0.671537
Si Si3 0.255872 0.800974 0.544510
Si Si4 0.344806 0.335085 0.673875
Si Si5 0.795829 0.394877 0.771324
Si Si6 0.660292 0.087750 0.942472
Si Si7 0.205878 0.330914 0.061841
Si Si8 0.919546 0.329499 0.077727
O O1 0.398973 0.772576 0.299255
O O2 0.430124 0.681071 0.064484
O O3 0.708418 0.713002 0.933629
O O4 0.719840 0.958395 0.886377
O O5 0.582678 0.772453 0.487221
O O6 0.238318 0.780869 0.864303
O O7 0.607614 0.032535 0.521875
O O8 0.459283 0.882883 0.820983
O O9 0.194788 0.693978 0.688892
O O10 0.041473 0.779693 0.715792
O O11 0.500000 0.500000 0.500000
O O12 0.331753 0.327907 0.817423
O O13 0.111808 0.296193 0.880391
O O14 0.816953 0.253672 0.765681
O O15 0.780917 0.506393 0.900809
O O16 0.000000 0.500000 0.500000
O O17 0.500000 0.000000 0.000000
O O18 0.000000 0.500000 0.000000
#
# Coordination Sequence:
#
# PCOD9014255 Si02
#       8
#     2   2   2   2   2   2   2   2
#     4  10  21  41  67  90 127 168 214 263 318 379
#     4  11  22  41  67  89 126 167 210 250 324 373
#     4  10  23  40  62  90 130 167 205 263 317 373
#     4  11  23  40  62  93 132 163 203 266 314 373
#     4  11  21  40  68  91 126 169 212 266 325 362
#     4   9  22  42  67  91 128 167 206 264 318 373
#     4  11  23  39  67  94 128 166 221 259 313 383
#     4  11  23  37  62  92 128 163 211 254 312 380
#
# _framework density 20.150804999999998
#
# number of rings (size 3 to 8) (size 9 to 14) (size 15 to 20)
#    0.000    1.500    2.500    2.250    1.750    5.000 
#    0.000    0.625    5.500    0.000    0.000    0.000 
#    0.000    0.000    0.000    0.000    0.000    0.000 
#
# Total GULP energy -89283.601206 kJ/mol
# GULP energy per Si atom -5580.225075 kJ/mol
# Density = 2.010494 g / cm^3
# Si number density = 20.150805 Si / 1000 Ang^3
#
#
#
# Elastic Constant Matrix: (Units=GPa)
#
#
# Indices 1 2 3 4 5 6 
#
# 1 91.9083 30.7984 21.3581 -5.2921 -1.9882 10.3858
# 2 30.7984 101.5619 26.2618 -23.7420 -1.6443 9.0838
# 3 21.3581 26.2618 52.6052 -13.5546 0.5686 3.2713
# 4 -5.2921 -23.7420 -13.5546 39.3421 1.5000 12.0606
# 5 -1.9882 -1.6443 0.5686 1.5000 24.0301 -4.0953
# 6 10.3858 9.0838 3.2713 12.0606 -4.0953 33.6015
#
#
#
# Elastic Compliance Matrix: (Units=1/GPa)
#
#
# Indices 1 2 3 4 5 6 
#
# 1 0.012999 -0.002818 -0.003838 -0.000486 0.000554 -0.002640
# 2 -0.002818 0.014130 -0.003250 0.008868 -0.000750 -0.005907
# 3 -0.003838 -0.003250 0.024161 0.006843 -0.002049 -0.002993
# 4 -0.000486 0.008868 0.006843 0.038574 -0.004962 -0.017363
# 5 0.000554 -0.000750 -0.002049 -0.004962 0.043208 0.007278
# 6 -0.002640 -0.005907 -0.002993 -0.017363 0.007278 0.039584
#
#
# Mechanical properties :
#
#
# Convention : Reuss Voigt Hill
#
# Bulk Modulus (GPa) = 31.76646 44.76800 38.26723
# Shear Modulus (GPa) = 24.63529 30.57188 27.60359
#
# Velocity S-wave (km/s) = 3.50029 3.89929 3.70516
# Velocity P-wave (km/s) = 5.66874 6.52207 6.11032
#
# Compressibility (1/GPa) = 0.03147974
#
# Stress axis : x y z
#
# Youngs Moduli (GPa) = 76.92928 70.76991 41.38817
#
# Poissons Ratio (x) = 0.19943 0.15884
# Poissons Ratio (y) = 0.21679 0.13450
# Poissons Ratio (z) = 0.29525 0.22998
#
# Static dielectric constant tensor:
#      x y z
#    x 1.730120 -0.027900 0.052580 
#    y -0.027900 1.713410 0.009650 
#    z 0.052580 0.009650 1.679110 
# 
# From -- ./inp_files/447620.got.cif
#   From: 2010.05.17/outbox.cif.g08.bks.cpg/sg2_224_cif.got.tgz:447620.got - 2010.06.03 11:33:40.
