data_PCOD9014694
_publ_section_title
;
Structure prediction by ZEFSAII (Michael W. Deem and Ramdas Pophale) SiO2 
 PCOD9014694
Probable space group: P -1
;
_chemical_formula_sum "Si O2"
_cell_formula_units_Z 14
_cell_length_a 11.158160
_cell_length_b 8.448325
_cell_length_c 11.853345
_cell_angle_alpha 60.560770
_cell_angle_beta 105.026110
_cell_angle_gamma 138.500108
_cell_volume 633.223875
_symmetry_space_group_name_H-M "P -1"
_symmetry_group_IT_number 2
_symmetry_cell_setting 'triclinic'
loop_
_space_group_symop_operation_xyz
x,y,z
-x,-y,-z
loop_
_atom_site_type_symbol
_atom_site_label
_atom_site_fract_x
_atom_site_fract_y
_atom_site_fract_z
Si Si1 0.137112 0.555810 0.601014
Si Si2 0.098846 0.847655 0.114515
Si Si3 0.770240 0.568811 0.534516
Si Si4 0.486992 0.704081 0.949663
Si Si5 0.398110 0.953094 0.696655
Si Si6 0.119108 0.256258 0.107708
Si Si7 0.104008 0.915897 0.662727
O O1 0.205131 0.456502 0.582019
O O2 0.000000 0.500000 0.500000
O O3 0.018437 0.388435 0.741181
O O4 0.315230 0.855982 0.583368
O O5 0.304804 0.008804 0.080166
O O6 0.115821 0.059129 0.110823
O O7 0.990064 0.739659 0.009597
O O8 0.591824 0.267054 0.638418
O O9 0.950904 0.709924 0.601751
O O10 0.769050 0.785498 0.461404
O O11 0.418121 0.767983 0.812184
O O12 0.500000 0.500000 0.000000
O O13 0.331685 0.548650 0.062568
O O14 0.241252 0.903767 0.736521
O O15 0.015668 0.145382 0.239146
#
# Coordination Sequence:
#
# PCOD9014694 Si02
#       7
#     2   2   2   2   2   2   2
#     4  12  22  43  71 102 136 180 233 293 341 409
#     4  10  21  41  68  99 131 176 236 281 343 404
#     4  11  25  45  68 104 142 189 233 283 352 421
#     4  10  23  41  68 103 132 176 233 290 345 408
#     4  12  25  44  70 106 142 180 237 292 349 414
#     4  10  21  43  69  96 133 182 229 284 344 411
#     4  11  25  46  69 100 147 189 230 282 356 425
#
# _framework density 22.109082999999998
#
# number of rings (size 3 to 8) (size 9 to 14) (size 15 to 20)
#    0.000    1.143    4.286    1.714    0.000    1.714 
#    0.000    4.286    0.000    0.000    0.000    0.000 
#    0.000    0.000    0.000    0.000    0.000    0.000 
#
# Total GULP energy -78093.308588 kJ/mol
# GULP energy per Si atom -5578.093471 kJ/mol
# Density = 2.205876 g / cm^3
# Si number density = 22.109083 Si / 1000 Ang^3
#
#
#
# Elastic Constant Matrix: (Units=GPa)
#
#
# Indices 1 2 3 4 5 6 
#
# 1 89.6210 40.1032 24.9969 -12.1027 10.8637 15.5046
# 2 40.1032 114.5916 31.8798 -16.4132 -4.7251 21.3377
# 3 24.9969 31.8798 82.3356 -15.4166 4.6055 4.9951
# 4 -12.1027 -16.4132 -15.4166 24.3037 3.9509 -10.9987
# 5 10.8637 -4.7251 4.6055 3.9509 40.9695 3.3592
# 6 15.5046 21.3377 4.9951 -10.9987 3.3592 26.4128
#
#
#
# Elastic Compliance Matrix: (Units=1/GPa)
#
#
# Indices 1 2 3 4 5 6 
#
# 1 0.014911 -0.003724 -0.002162 0.002490 -0.004071 -0.003781
# 2 -0.003724 0.012593 -0.003375 0.000539 0.003387 -0.007555
# 3 -0.002162 -0.003375 0.015732 0.009529 -0.002943 0.005363
# 4 0.002490 0.000539 0.009529 0.060606 -0.009377 0.022731
# 5 -0.004071 0.003387 -0.002943 -0.009377 0.027705 -0.007218
# 6 -0.003781 -0.007555 0.005363 0.022731 -0.007218 0.055553
#
#
# Mechanical properties :
#
#
# Convention : Reuss Voigt Hill
#
# Bulk Modulus (GPa) = 40.46380 53.38976 46.92678
# Shear Modulus (GPa) = 23.37976 30.97508 27.17742
#
# Velocity S-wave (km/s) = 3.25541 3.74707 3.50986
# Velocity P-wave (km/s) = 5.69841 6.55145 6.13976
#
# Compressibility (1/GPa) = 0.02471345
#
# Stress axis : x y z
#
# Youngs Moduli (GPa) = 67.06301 79.41156 63.56431
#
# Poissons Ratio (x) = 0.29574 0.13741
# Poissons Ratio (y) = 0.24976 0.21455
# Poissons Ratio (z) = 0.14498 0.26804
#
# Static dielectric constant tensor:
#      x y z
#    x 1.890360 -0.061580 0.030920 
#    y -0.061580 1.866600 -0.030300 
#    z 0.030920 -0.030300 1.804270 
# 
# From -- ./inp_files/416631.got.cif
#   From: 2010.05.17/outbox.cif.g08.bks.cpg/sg2_209_cif.got.tgz:416631.got - 2010.06.03 11:33:40.
