data_PCOD9014685
_publ_section_title
;
Structure prediction by ZEFSAII (Michael W. Deem and Ramdas Pophale) SiO2 
 PCOD9014685
Probable space group: P -1
;
_chemical_formula_sum "Si O2"
_cell_formula_units_Z 16
_cell_length_a 21.627520
_cell_length_b 5.188834
_cell_length_c 8.774177
_cell_angle_alpha 130.490810
_cell_angle_beta 122.766164
_cell_angle_gamma 70.205880
_cell_volume 629.561903
_symmetry_space_group_name_H-M "P -1"
_symmetry_group_IT_number 2
_symmetry_cell_setting 'triclinic'
loop_
_space_group_symop_operation_xyz
x,y,z
-x,-y,-z
loop_
_atom_site_type_symbol
_atom_site_label
_atom_site_fract_x
_atom_site_fract_y
_atom_site_fract_z
Si Si1 0.436136 0.770406 0.627132
Si Si2 0.950098 0.308989 0.482821
Si Si3 0.083391 0.573025 0.188504
Si Si4 0.522958 0.334193 0.808528
Si Si5 0.205416 0.982368 0.380610
Si Si6 0.331031 0.334019 0.853165
Si Si7 0.695330 0.651018 0.821882
Si Si8 0.825571 0.992609 0.004497
O O1 0.495631 0.598099 0.747600
O O2 0.385939 0.461299 0.378328
O O3 0.474292 0.986892 0.623940
O O4 0.384771 0.023590 0.754587
O O5 0.923991 0.502350 0.671996
O O6 0.000000 0.500000 0.500000
O O7 0.000000 0.000000 0.500000
O O8 0.875317 0.241619 0.263469
O O9 0.136338 0.907636 0.372395
O O10 0.127173 0.344261 0.040259
O O11 0.000000 0.500000 0.000000
O O12 0.500000 0.500000 0.000000
O O13 0.611427 0.344973 0.943276
O O14 0.259809 0.662768 0.312169
O O15 0.261109 0.284050 0.627473
O O16 0.175868 0.997449 0.175253
O O17 0.301944 0.307127 0.976663
O O18 0.742178 0.962277 0.934733
#
# Coordination Sequence:
#
# PCOD9014685 Si02
#       8
#     2   2   2   2   2   2   2   2
#     4  10  23  43  67  99 137 175 230 282 339 397
#     4  12  27  44  71 105 134 169 224 279 331 403
#     4  11  23  44  71  97 135 177 222 276 346 395
#     4  10  21  41  68  98 134 179 226 283 337 402
#     4  10  24  43  65  98 137 178 229 277 337 409
#     4  10  21  43  66  93 135 180 224 279 343 402
#     4  10  24  42  65  97 138 179 228 281 336 405
#     4  11  25  44  69  97 137 180 226 281 336 406
#
# _framework density 25.4145
#
# number of rings (size 3 to 8) (size 9 to 14) (size 15 to 20)
#    0.000    1.500    1.250    3.000    8.750    3.000 
#    9.000    0.000    0.000    0.000    0.000    0.000 
#    0.000    0.000    0.000    0.000    0.000    0.000 
#
# Total GULP energy -89276.520667 kJ/mol
# GULP energy per Si atom -5579.782542 kJ/mol
# Density = 2.535666 g / cm^3
# Si number density = 25.414500 Si / 1000 Ang^3
#
#
#
# Elastic Constant Matrix: (Units=GPa)
#
#
# Indices 1 2 3 4 5 6 
#
# 1 184.6815 53.8614 57.8251 -1.2127 23.6443 20.8979
# 2 53.8614 70.9368 29.0209 -5.6320 17.8101 15.8078
# 3 57.8251 29.0209 188.1253 -20.1301 40.0171 12.0548
# 4 -1.2127 -5.6320 -20.1301 34.5372 -1.0820 -7.3730
# 5 23.6443 17.8101 40.0171 -1.0820 48.8921 -6.6520
# 6 20.8979 15.8078 12.0548 -7.3730 -6.6520 48.7712
#
#
#
# Elastic Compliance Matrix: (Units=1/GPa)
#
#
# Indices 1 2 3 4 5 6 
#
# 1 0.007539 -0.004604 -0.001454 -0.001748 -0.001061 -0.001788
# 2 -0.004604 0.020347 0.000065 0.001909 -0.005898 -0.005154
# 3 -0.001454 0.000065 0.007421 0.003812 -0.005501 -0.001406
# 4 -0.001748 0.001909 0.003812 0.032187 -0.001739 0.003817
# 5 -0.001061 -0.005898 -0.005501 -0.001739 0.028581 0.007361
# 6 -0.001788 -0.005154 -0.001406 0.003817 0.007361 0.024869
#
#
# Mechanical properties :
#
#
# Convention : Reuss Voigt Hill
#
# Bulk Modulus (GPa) = 42.87754 80.57315 61.72535
# Shear Modulus (GPa) = 35.53619 46.64251 41.08935
#
# Velocity S-wave (km/s) = 3.74339 4.28865 4.02527
# Velocity P-wave (km/s) = 5.96590 7.50306 6.77819
#
# Compressibility (1/GPa) = 0.02332223
#
# Stress axis : x y z
#
# Youngs Moduli (GPa) = 132.63847 49.14792 134.75812
#
# Poissons Ratio (x) = 0.22626 0.19595
# Poissons Ratio (y) = 0.61062 -0.00882
# Poissons Ratio (z) = 0.19287 -0.00322
#
# Static dielectric constant tensor:
#      x y z
#    x 2.026150 -0.094600 0.089430 
#    y -0.094600 2.275780 0.133000 
#    z 0.089430 0.133000 2.071630 
# 
# From -- ./inp_files/340770.got.cif
#   From: 2010.05.17/outbox.cif.g08.bks.cpg/sg2_171_cif.got.tgz:340770.got - 2010.06.03 11:33:40.
