data_PCOD9014538
_publ_section_title
;
Structure prediction by ZEFSAII (Michael W. Deem and Ramdas Pophale) SiO2 
 PCOD9014538
Probable space group: P -1
;
_chemical_formula_sum "Si O2"
_cell_formula_units_Z 12
_cell_length_a 9.875954
_cell_length_b 6.256697
_cell_length_c 8.563289
_cell_angle_alpha 77.385397
_cell_angle_beta 70.384922
_cell_angle_gamma 69.273197
_cell_volume 463.180346
_symmetry_space_group_name_H-M "P -1"
_symmetry_group_IT_number 2
_symmetry_cell_setting 'triclinic'
loop_
_space_group_symop_operation_xyz
x,y,z
-x,-y,-z
loop_
_atom_site_type_symbol
_atom_site_label
_atom_site_fract_x
_atom_site_fract_y
_atom_site_fract_z
Si Si1 0.398394 0.265331 0.504760
Si Si2 0.126308 0.459959 0.189408
Si Si3 0.348081 0.683345 0.255545
Si Si4 0.153476 0.093079 0.478641
Si Si5 0.890637 0.910194 0.160860
Si Si6 0.358507 0.208678 0.873513
O O1 0.435880 0.445891 0.347850
O O2 0.247072 0.245302 0.494063
O O3 0.368314 0.333528 0.684630
O O4 0.500000 0.000000 0.500000
O O5 0.226932 0.610617 0.206312
O O6 0.076832 0.277498 0.346578
O O7 0.971129 0.636586 0.164965
O O8 0.240625 0.325115 0.033847
O O9 0.472449 0.803144 0.125185
O O10 0.252301 0.866238 0.389305
O O11 0.093164 0.023247 0.675172
O O12 0.721742 0.974021 0.141888
O O13 0.000000 0.000000 0.000000
#
# Coordination Sequence:
#
# PCOD9014538 Si02
#       6
#     2   2   2   2   2   2
#     4  10  21  41  68 108 139 180 233 288 352 412
#     4  11  26  47  67 108 145 186 232 287 362 424
#     4  11  24  44  75 107 140 188 228 295 363 413
#     4  10  24  46  72 100 147 183 237 287 357 423
#     4  11  27  48  73 103 139 194 241 289 345 422
#     4  11  24  44  74 102 144 178 242 293 346 419
#
# _framework density 25.907834999999999
#
# number of rings (size 3 to 8) (size 9 to 14) (size 15 to 20)
#    0.000    1.333    1.667    2.000    4.667    2.667 
#    3.000    0.000    0.000    0.000    0.000    0.000 
#    0.000    0.000    0.000    0.000    0.000    0.000 
#
# Total GULP energy -66837.832702 kJ/mol
# GULP energy per Si atom -5569.819392 kJ/mol
# Density = 2.584887 g / cm^3
# Si number density = 25.907835 Si / 1000 Ang^3
#
#
#
# Elastic Constant Matrix: (Units=GPa)
#
#
# Indices 1 2 3 4 5 6 
#
# 1 134.9573 24.9812 32.9209 -15.1749 -12.8123 42.9407
# 2 24.9812 90.1250 54.4226 -2.3282 0.0333 -2.5207
# 3 32.9209 54.4226 140.2909 15.2624 -9.7745 8.5905
# 4 -15.1749 -2.3282 15.2624 44.8517 5.8925 -0.8962
# 5 -12.8123 0.0333 -9.7745 5.8925 30.1680 0.0018
# 6 42.9407 -2.5207 8.5905 -0.8962 0.0018 48.6921
#
#
#
# Elastic Compliance Matrix: (Units=1/GPa)
#
#
# Indices 1 2 3 4 5 6 
#
# 1 0.012560 -0.002934 -0.001255 0.003754 0.004198 -0.010938
# 2 -0.002934 0.015916 -0.006311 0.002573 -0.003811 0.004572
# 3 -0.001255 -0.006311 0.010757 -0.004953 0.003927 -0.001209
# 4 0.003754 0.002573 -0.004953 0.026018 -0.005095 -0.001825
# 5 0.004198 -0.003811 0.003927 -0.005095 0.037203 -0.004687
# 6 -0.010938 0.004572 -0.001209 -0.001825 -0.004687 0.030600
#
#
# Mechanical properties :
#
#
# Convention : Reuss Voigt Hill
#
# Bulk Modulus (GPa) = 54.84775 65.55804 60.20290
# Shear Modulus (GPa) = 31.22446 41.61227 36.41836
#
# Velocity S-wave (km/s) = 3.47538 4.01205 3.75332
# Velocity P-wave (km/s) = 6.10907 6.84261 6.48622
#
# Compressibility (1/GPa) = 0.01823229
#
# Stress axis : x y z
#
# Youngs Moduli (GPa) = 79.61819 62.83123 92.95994
#
# Poissons Ratio (x) = 0.18433 0.11670
# Poissons Ratio (y) = 0.23358 0.58668
# Poissons Ratio (z) = 0.09995 0.39653
#
# Static dielectric constant tensor:
#      x y z
#    x 2.189800 -0.042740 0.041000 
#    y -0.042740 2.114320 -0.088270 
#    z 0.041000 -0.088270 2.130450 
# 
# From -- ./inp_files/21477.got.cif
#   From: 2010.05.17/outbox.cif.g08.bks.cpg/sg2_11_cif.got.tgz:21477.got - 2010.06.03 11:33:40.
