data_PCOD9014733
_publ_section_title
;
Structure prediction by ZEFSAII (Michael W. Deem and Ramdas Pophale) SiO2 
 PCOD9014733
Probable space group: P -1
;
_chemical_formula_sum "Si O2"
_cell_formula_units_Z 14
_cell_length_a 5.856079
_cell_length_b 23.412303
_cell_length_c 5.006194
_cell_angle_alpha 61.137760
_cell_angle_beta 97.429550
_cell_angle_gamma 93.567333
_cell_volume 596.065097
_symmetry_space_group_name_H-M "P -1"
_symmetry_group_IT_number 2
_symmetry_cell_setting 'triclinic'
loop_
_space_group_symop_operation_xyz
x,y,z
-x,-y,-z
loop_
_atom_site_type_symbol
_atom_site_label
_atom_site_fract_x
_atom_site_fract_y
_atom_site_fract_z
Si Si1 0.716848 0.661159 0.538209
Si Si2 0.397002 0.915106 0.924810
Si Si3 0.400466 0.577424 0.031630
Si Si4 0.215668 0.981126 0.259005
Si Si5 0.643520 0.237169 0.793053
Si Si6 0.824961 0.540819 0.559686
Si Si7 0.873847 0.297410 0.167338
O O1 0.579491 0.720103 0.251053
O O2 0.889882 0.611723 0.524603
O O3 0.864157 0.691742 0.730181
O O4 0.516500 0.612762 0.719736
O O5 0.204683 0.945150 0.624636
O O6 0.630962 0.954590 0.810930
O O7 0.348247 0.932001 0.188169
O O8 0.410986 0.838671 0.052399
O O9 0.609540 0.558852 0.298669
O O10 0.257886 0.511503 0.111622
O O11 0.241311 0.631191 0.028017
O O12 0.000000 0.000000 0.000000
O O13 0.735588 0.260728 0.466128
O O14 0.840006 0.256289 0.989697
O O15 0.000000 0.500000 0.500000
#
# Coordination Sequence:
#
# PCOD9014733 Si02
#       7
#     2   2   2   2   2   2   2
#     4  11  25  43  66  90 132 174 221 283 340 403
#     4  10  22  40  66 100 137 174 219 268 324 380
#     4  10  23  41  62  92 127 166 220 287 343 406
#     4  10  21  41  69 101 136 174 217 271 316 385
#     4  11  25  44  64  98 135 177 222 273 326 403
#     4  11  23  39  68  93 124 167 225 284 351 402
#     4  11  25  42  69  91 133 174 226 273 339 398
#
# _framework density 23.487369000000001
#
# number of rings (size 3 to 8) (size 9 to 14) (size 15 to 20)
#    0.000    1.429    1.429    2.571    4.000    5.714 
#    0.000    0.000    0.000    0.000    0.000    0.000 
#    0.000    0.000    0.000    0.000    0.000    0.000 
#
# Total GULP energy -78319.207588 kJ/mol
# GULP energy per Si atom -5594.229113 kJ/mol
# Density = 2.343391 g / cm^3
# Si number density = 23.487369 Si / 1000 Ang^3
#
#
#
# Elastic Constant Matrix: (Units=GPa)
#
#
# Indices 1 2 3 4 5 6 
#
# 1 58.4485 25.9639 20.9637 -8.6923 9.6389 6.8002
# 2 25.9639 177.7521 56.5597 -29.7062 4.1965 17.1499
# 3 20.9637 56.5597 98.8805 -5.1763 4.8415 7.6830
# 4 -8.6923 -29.7062 -5.1763 39.7055 4.2412 2.2683
# 5 9.6389 4.1965 4.8415 4.2412 30.4395 15.2461
# 6 6.8002 17.1499 7.6830 2.2683 15.2461 23.3172
#
#
#
# Elastic Compliance Matrix: (Units=1/GPa)
#
#
# Indices 1 2 3 4 5 6 
#
# 1 0.020376 -0.001146 -0.003127 0.003874 -0.006111 -0.000450
# 2 -0.001146 0.008638 -0.003978 0.005825 0.002431 -0.006864
# 3 -0.003127 -0.003978 0.012969 -0.001943 -0.000193 -0.000120
# 4 0.003874 0.005825 -0.001943 0.030801 -0.003153 -0.005709
# 5 -0.006111 0.002431 -0.000193 -0.003153 0.051657 -0.033412
# 6 -0.000450 -0.006864 -0.000120 -0.005709 -0.033412 0.070508
#
#
# Mechanical properties :
#
#
# Convention : Reuss Voigt Hill
#
# Bulk Modulus (GPa) = 39.24819 60.22841 49.73830
# Shear Modulus (GPa) = 22.73290 34.13204 28.43247
#
# Velocity S-wave (km/s) = 3.11445 3.81623 3.48306
# Velocity P-wave (km/s) = 5.44790 6.71690 6.11541
#
# Compressibility (1/GPa) = 0.02547888
#
# Stress axis : x y z
#
# Youngs Moduli (GPa) = 49.07689 115.77406 77.10699
#
# Poissons Ratio (x) = 0.13268 0.24115
# Poissons Ratio (y) = 0.05624 0.30677
# Poissons Ratio (z) = 0.15348 0.46060
#
# Static dielectric constant tensor:
#      x y z
#    x 1.970780 -0.026890 -0.022680 
#    y -0.026890 1.854840 0.026420 
#    z -0.022680 0.026420 1.900320 
# 
# From -- ./inp_files/7683.got.cif
#   From: 2010.05.17/outbox.cif.g08.bks.cpg/sg2_4_cif.got.tgz:7683.got - 2010.06.03 11:33:40.
