data_PCOD9014665
_publ_section_title
;
Structure prediction by ZEFSAII (Michael W. Deem and Ramdas Pophale) SiO2 
 PCOD9014665
Probable space group: P -1
;
_chemical_formula_sum "Si O2"
_cell_formula_units_Z 14
_cell_length_a 10.075329
_cell_length_b 8.879755
_cell_length_c 10.085294
_cell_angle_alpha 64.823001
_cell_angle_beta 91.233913
_cell_angle_gamma 131.392740
_cell_volume 565.980698
_symmetry_space_group_name_H-M "P -1"
_symmetry_group_IT_number 2
_symmetry_cell_setting 'triclinic'
loop_
_space_group_symop_operation_xyz
x,y,z
-x,-y,-z
loop_
_atom_site_type_symbol
_atom_site_label
_atom_site_fract_x
_atom_site_fract_y
_atom_site_fract_z
Si Si1 0.218160 0.230269 0.874125
Si Si2 0.336604 0.620042 0.914459
Si Si3 0.651252 0.123048 0.833135
Si Si4 0.722434 0.200022 0.387380
Si Si5 0.399467 0.579720 0.220810
Si Si6 0.173387 0.046743 0.438970
Si Si7 0.023822 0.318595 0.672634
O O1 0.318975 0.426419 0.918817
O O2 0.368195 0.219331 0.853644
O O3 0.180563 0.322928 0.718896
O O4 0.000000 0.000000 0.000000
O O5 0.231967 0.652513 0.799909
O O6 0.540929 0.895586 0.820895
O O7 0.294055 0.542936 0.095764
O O8 0.663162 0.329053 0.715932
O O9 0.860041 0.231225 0.807577
O O10 0.500000 0.000000 0.000000
O O11 0.847602 0.398027 0.433258
O O12 0.500000 0.000000 0.500000
O O13 0.776884 0.058406 0.423053
O O14 0.340192 0.334812 0.329637
O O15 0.095765 0.883831 0.367138
O O16 0.000000 0.000000 0.500000
#
# Coordination Sequence:
#
# PCOD9014665 Si02
#       7
#     2   2   2   2   2   2   2
#     4  11  21  37  66 101 132 169 217 274 335 390
#     4  10  22  41  66  93 132 177 218 265 328 396
#     4  10  21  41  68  97 132 176 219 268 332 400
#     4  11  24  43  68  98 135 181 222 265 332 406
#     4  11  23  42  66  98 133 171 223 283 328 385
#     4  12  26  45  69  99 132 174 226 282 334 387
#     4  11  23  43  65  94 135 178 218 269 334 404
#
# _framework density 24.735824000000001
#
# number of rings (size 3 to 8) (size 9 to 14) (size 15 to 20)
#    0.000    1.143    0.000    7.714    0.000    2.286 
#    0.000   26.429    0.000    0.000    0.000    0.000 
#    0.000    0.000    0.000    0.000    0.000    0.000 
#
# Total GULP energy -78032.800369 kJ/mol
# GULP energy per Si atom -5573.771455 kJ/mol
# Density = 2.467952 g / cm^3
# Si number density = 24.735824 Si / 1000 Ang^3
#
#
#
# Elastic Constant Matrix: (Units=GPa)
#
#
# Indices 1 2 3 4 5 6 
#
# 1 175.9501 32.0160 43.4929 -5.3601 -0.4983 0.9883
# 2 32.0160 118.9380 5.1339 -30.0139 -14.8517 6.4414
# 3 43.4929 5.1339 51.1357 -13.0656 5.8436 -7.4096
# 4 -5.3601 -30.0139 -13.0656 32.3512 -1.6470 8.1504
# 5 -0.4983 -14.8517 5.8436 -1.6470 38.6792 -12.6694
# 6 0.9883 6.4414 -7.4096 8.1504 -12.6694 33.8070
#
#
#
# Elastic Compliance Matrix: (Units=1/GPa)
#
#
# Indices 1 2 3 4 5 6 
#
# 1 0.007974 -0.002930 -0.007645 -0.004405 -0.000170 -0.000352
# 2 -0.002930 0.013422 0.003910 0.014672 0.003947 -0.003673
# 3 -0.007645 0.003910 0.029677 0.013755 -0.001848 0.001974
# 4 -0.004405 0.014672 0.013755 0.052356 0.001947 -0.011545
# 5 -0.000170 0.003947 -0.001848 0.001947 0.031004 0.009997
# 6 -0.000352 -0.003673 0.001974 -0.011545 0.009997 0.037252
#
#
# Mechanical properties :
#
#
# Convention : Reuss Voigt Hill
#
# Bulk Modulus (GPa) = 26.49449 56.36772 41.43111
# Shear Modulus (GPa) = 25.30429 38.65956 31.98193
#
# Velocity S-wave (km/s) = 3.20188 3.95764 3.59965
# Velocity P-wave (km/s) = 4.94000 6.61220 5.83630
#
# Compressibility (1/GPa) = 0.03774369
#
# Stress axis : x y z
#
# Youngs Moduli (GPa) = 125.41447 74.50477 33.69604
#
# Poissons Ratio (x) = 0.21830 0.25759
# Poissons Ratio (y) = 0.36747 -0.13176
# Poissons Ratio (z) = 0.95875 -0.29133
#
# Static dielectric constant tensor:
#      x y z
#    x 1.968430 0.007500 -0.019540 
#    y 0.007500 2.020960 -0.020720 
#    z -0.019540 -0.020720 2.248410 
# 
# From -- ./inp_files/381382.got.cif
#   From: 2010.05.17/outbox.cif.g08.bks.cpg/sg2_191_cif.got.tgz:381382.got - 2010.06.03 11:33:40.
