data_PCOD9014561
_publ_section_title
;
Structure prediction by ZEFSAII (Michael W. Deem and Ramdas Pophale) SiO2 
 PCOD9014561
Probable space group: P -1
;
_chemical_formula_sum "Si O2"
_cell_formula_units_Z 16
_cell_length_a 8.688057
_cell_length_b 14.125853
_cell_length_c 12.271936
_cell_angle_alpha 116.859108
_cell_angle_beta 37.760976
_cell_angle_gamma 133.325329
_cell_volume 656.895405
_symmetry_space_group_name_H-M "P -1"
_symmetry_group_IT_number 2
_symmetry_cell_setting 'triclinic'
loop_
_space_group_symop_operation_xyz
x,y,z
-x,-y,-z
loop_
_atom_site_type_symbol
_atom_site_label
_atom_site_fract_x
_atom_site_fract_y
_atom_site_fract_z
Si Si1 0.311496 0.060451 0.644560
Si Si2 0.257689 0.588840 0.178379
Si Si3 0.565619 0.679558 0.270924
Si Si4 0.408547 0.595782 0.560127
Si Si5 0.305521 0.222413 0.152968
Si Si6 0.328904 0.045925 0.385127
Si Si7 0.012312 0.245180 0.540788
Si Si8 0.693171 0.149586 0.022137
O O1 0.440147 0.197755 0.699751
O O2 0.500000 0.000000 0.500000
O O3 0.343374 0.103894 0.523480
O O4 0.964509 0.933166 0.806658
O O5 0.403018 0.582580 0.207143
O O6 0.941381 0.452884 0.236482
O O7 0.099024 0.664751 0.326566
O O8 0.538615 0.676328 0.981007
O O9 0.403862 0.606141 0.436989
O O10 0.932558 0.759266 0.137082
O O11 0.500000 0.500000 0.500000
O O12 0.708511 0.724564 0.518800
O O13 0.147826 0.258599 0.350766
O O14 0.574804 0.222044 0.060932
O O15 0.281965 0.907830 0.356539
O O16 0.592959 0.130587 0.193821
O O17 0.000000 0.000000 0.500000
O O18 0.500000 0.000000 0.000000
#
# Coordination Sequence:
#
# PCOD9014561 Si02
#       8
#     2   2   2   2   2   2   2   2
#     4  11  24  39  62  95 135 170 207 259 331 402
#     4  11  25  43  63  94 133 173 220 272 322 389
#     4  12  24  40  68  95 130 175 211 272 334 382
#     4  10  22  44  71  91 124 173 228 276 325 373
#     4  11  23  41  64  99 134 169 221 262 327 400
#     4  11  19  36  58  93 128 162 211 264 315 389
#     4  10  21  41  68  91 128 174 215 275 322 379
#     4  12  21  36  59  95 130 167 218 260 317 398
#
# _framework density 24.356998999999998
#
# number of rings (size 3 to 8) (size 9 to 14) (size 15 to 20)
#    0.000    1.000    3.750    5.625    1.750    1.000 
#    0.000    0.000    0.000    5.250    0.000    0.000 
#    0.000    0.000    0.000    0.000    0.000    0.000 
#
# Total GULP energy -89350.118399 kJ/mol
# GULP energy per Si atom -5584.382400 kJ/mol
# Density = 2.430156 g / cm^3
# Si number density = 24.356999 Si / 1000 Ang^3
#
#
#
# Elastic Constant Matrix: (Units=GPa)
#
#
# Indices 1 2 3 4 5 6 
#
# 1 96.0514 11.8177 25.5883 -19.6499 2.0638 10.8968
# 2 11.8177 59.8995 8.9620 -7.5271 1.8062 -2.0254
# 3 25.5883 8.9620 98.2127 -25.8982 18.0478 -6.2320
# 4 -19.6499 -7.5271 -25.8982 30.7941 -11.2176 -5.3674
# 5 2.0638 1.8062 18.0478 -11.2176 47.1408 1.6762
# 6 10.8968 -2.0254 -6.2320 -5.3674 1.6762 39.1907
#
#
#
# Elastic Compliance Matrix: (Units=1/GPa)
#
#
# Indices 1 2 3 4 5 6 
#
# 1 0.012740 -0.001597 -0.002118 0.006081 0.001876 -0.003209
# 2 -0.001597 0.017532 -0.000190 0.003506 0.000242 0.001790
# 3 -0.002118 -0.000190 0.014307 0.010275 -0.003089 0.004394
# 4 0.006081 0.003506 0.010275 0.049644 0.007244 0.006613
# 5 0.001876 0.000242 -0.003089 0.007244 0.024065 -0.001037
# 6 -0.003209 0.001790 0.004394 0.006613 -0.001037 0.028150
#
#
# Mechanical properties :
#
#
# Convention : Reuss Voigt Hill
#
# Bulk Modulus (GPa) = 27.19744 38.54440 32.87092
# Shear Modulus (GPa) = 30.02924 37.27816 33.65370
#
# Velocity S-wave (km/s) = 3.51505 3.91639 3.72114
# Velocity P-wave (km/s) = 5.25970 6.02578 5.65573
#
# Compressibility (1/GPa) = 0.03676816
#
# Stress axis : x y z
#
# Youngs Moduli (GPa) = 78.49448 57.03844 69.89591
#
# Poissons Ratio (x) = 0.09111 0.14805
# Poissons Ratio (y) = 0.12539 0.01327
# Poissons Ratio (z) = 0.16626 0.01083
#
# Static dielectric constant tensor:
#      x y z
#    x 2.024410 0.058710 0.006140 
#    y 0.058710 2.160650 -0.001490 
#    z 0.006140 -0.001490 1.903010 
# 
# From -- ./inp_files/239042.got.cif
#   From: 2010.05.17/outbox.cif.g08.bks.cpg/sg2_120_cif.got.tgz:239042.got - 2010.06.03 11:33:40.
