data_PCOD9014092
_publ_section_title
;
Structure prediction by ZEFSAII (Michael W. Deem and Ramdas Pophale) SiO2 
 PCOD9014092
Probable space group: P -1
;
_chemical_formula_sum "Si O2"
_cell_formula_units_Z 14
_cell_length_a 12.773959
_cell_length_b 9.184858
_cell_length_c 5.644082
_cell_angle_alpha 103.661712
_cell_angle_beta 80.902555
_cell_angle_gamma 97.261115
_cell_volume 632.631148
_symmetry_space_group_name_H-M "P -1"
_symmetry_group_IT_number 2
_symmetry_cell_setting 'triclinic'
loop_
_space_group_symop_operation_xyz
x,y,z
-x,-y,-z
loop_
_atom_site_type_symbol
_atom_site_label
_atom_site_fract_x
_atom_site_fract_y
_atom_site_fract_z
Si Si1 0.576933 0.678026 0.135115
Si Si2 0.327684 0.408729 0.442151
Si Si3 0.674209 0.299885 0.704902
Si Si4 0.234397 0.846719 0.999672
Si Si5 0.384286 0.985147 0.653199
Si Si6 0.935631 0.087746 0.244624
Si Si7 0.849327 0.870330 0.582254
O O1 0.607680 0.590266 0.330874
O O2 0.449417 0.684082 0.181162
O O3 0.634716 0.844100 0.227406
O O4 0.611792 0.631072 0.841400
O O5 0.296171 0.574441 0.453361
O O6 0.231065 0.278451 0.448082
O O7 0.752976 0.296647 0.895977
O O8 0.677257 0.128852 0.550135
O O9 0.195387 0.999904 0.186973
O O10 0.352806 0.897206 0.873166
O O11 0.144743 0.812016 0.818202
O O12 0.500000 0.000000 0.500000
O O13 0.031015 0.164859 0.399992
O O14 0.867105 0.957545 0.362856
O O15 0.000000 0.000000 0.000000
#
# Coordination Sequence:
#
# PCOD9014092 Si02
#       7
#     2   2   2   2   2   2   2
#     4  11  25  43  65  91 134 184 229 264 317 394
#     4  12  25  43  65  96 134 179 221 274 327 392
#     4  11  26  38  61  95 137 177 216 270 331 391
#     4  11  20  39  64  92 130 168 217 273 331 385
#     4  10  23  39  62  92 130 177 223 270 316 390
#     4   9  20  38  68  95 122 162 223 279 330 390
#     4  10  21  41  66  97 123 169 225 274 328 396
#
# _framework density 22.129799999999999
#
# number of rings (size 3 to 8) (size 9 to 14) (size 15 to 20)
#    0.000    1.429    1.429    3.429    8.000    1.143 
#    0.000    0.714    0.000   12.000    0.000    0.000 
#    0.000    0.000    0.000    0.000    0.000    0.000 
#
# Total GULP energy -78007.709087 kJ/mol
# GULP energy per Si atom -5571.979221 kJ/mol
# Density = 2.207943 g / cm^3
# Si number density = 22.129800 Si / 1000 Ang^3
#
#
#
# Elastic Constant Matrix: (Units=GPa)
#
#
# Indices 1 2 3 4 5 6 
#
# 1 136.9761 60.3387 43.0912 -23.2126 20.7207 -9.8868
# 2 60.3387 83.1086 28.2612 -13.7460 22.3642 -3.1348
# 3 43.0912 28.2612 96.8456 -22.5100 -4.1625 -5.0258
# 4 -23.2126 -13.7460 -22.5100 39.3253 -9.7227 9.2305
# 5 20.7207 22.3642 -4.1625 -9.7227 42.9183 -16.0323
# 6 -9.8868 -3.1348 -5.0258 9.2305 -16.0323 32.3829
#
#
#
# Elastic Compliance Matrix: (Units=1/GPa)
#
#
# Indices 1 2 3 4 5 6 
#
# 1 0.011902 -0.006878 -0.002726 0.002436 -0.001452 0.001132
# 2 -0.006878 0.020749 -0.003735 -0.000099 -0.009958 -0.005573
# 3 -0.002726 -0.003735 0.014611 0.006581 0.007203 0.002764
# 4 0.002436 -0.000099 0.006581 0.033065 0.005078 -0.005155
# 5 -0.001452 -0.009958 0.007203 0.005078 0.037286 0.016723
# 6 0.001132 -0.005573 0.002764 -0.005155 0.016723 0.040864
#
#
# Mechanical properties :
#
#
# Convention : Reuss Voigt Hill
#
# Bulk Modulus (GPa) = 48.57958 64.47918 56.52938
# Shear Modulus (GPa) = 26.03950 35.27459 30.65704
#
# Velocity S-wave (km/s) = 3.43399 3.99681 3.72604
# Velocity P-wave (km/s) = 6.14189 7.10629 6.64162
#
# Compressibility (1/GPa) = 0.02058478
#
# Stress axis : x y z
#
# Youngs Moduli (GPa) = 84.01922 48.19527 68.44055
#
# Poissons Ratio (x) = 0.33147 0.18658
# Poissons Ratio (y) = 0.57786 0.25561
# Poissons Ratio (z) = 0.22905 0.18000
#
# Static dielectric constant tensor:
#      x y z
#    x 1.850350 -0.021540 0.012450 
#    y -0.021540 1.797920 0.016660 
#    z 0.012450 0.016660 1.972820 
# 
# From -- ./inp_files/44255.got.cif
#   From: 2010.05.17/outbox.cif.g08.bks.cpg/sg2_23_cif.got.tgz:44255.got - 2010.06.03 11:33:40.
