data_PCOD9014484
_publ_section_title
;
Structure prediction by ZEFSAII (Michael W. Deem and Ramdas Pophale) SiO2 
 PCOD9014484
Probable space group: P -1
;
_chemical_formula_sum "Si O2"
_cell_formula_units_Z 14
_cell_length_a 8.730923
_cell_length_b 13.470633
_cell_length_c 7.369578
_cell_angle_alpha 60.116665
_cell_angle_beta 49.963249
_cell_angle_gamma 60.451016
_cell_volume 555.571455
_symmetry_space_group_name_H-M "P -1"
_symmetry_group_IT_number 2
_symmetry_cell_setting 'triclinic'
loop_
_space_group_symop_operation_xyz
x,y,z
-x,-y,-z
loop_
_atom_site_type_symbol
_atom_site_label
_atom_site_fract_x
_atom_site_fract_y
_atom_site_fract_z
Si Si1 0.004192 0.133607 0.990749
Si Si2 0.761920 0.320254 0.568632
Si Si3 0.782600 0.048997 0.724717
Si Si4 0.945969 0.381139 0.996182
Si Si5 0.307935 0.381699 0.975447
Si Si6 0.434647 0.901019 0.520783
Si Si7 0.823176 0.758607 0.508750
O O1 0.992677 0.267687 0.937727
O O2 0.774754 0.122682 0.214684
O O3 0.178131 0.041805 0.055997
O O4 0.084121 0.131535 0.725274
O O5 0.753348 0.183694 0.684609
O O6 0.820267 0.352905 0.293029
O O7 0.951866 0.332397 0.539834
O O8 0.537911 0.385898 0.751870
O O9 0.615733 0.055127 0.687024
O O10 0.000000 0.000000 0.500000
O O11 0.163979 0.394932 0.895038
O O12 0.804969 0.505247 0.918477
O O13 0.288679 0.261449 0.199307
O O14 0.624689 0.781928 0.504146
O O15 0.500000 0.000000 0.500000
#
# Coordination Sequence:
#
# PCOD9014484 Si02
#       7
#     2   2   2   2   2   2   2
#     4  11  24  43  68  99 139 181 219 283 337 407
#     4  11  21  44  72  96 140 175 228 282 340 401
#     4  10  21  41  68 101 130 175 223 274 341 402
#     4  10  22  43  71  99 134 174 240 278 335 398
#     4  10  24  42  69 101 130 186 227 283 332 399
#     4  11  24  41  67 100 139 177 222 278 347 407
#     4  11  25  41  62 101 140 179 224 276 339 399
#
# _framework density 25.199280000000002
#
# number of rings (size 3 to 8) (size 9 to 14) (size 15 to 20)
#    0.000    1.429    2.857    3.000    4.000    4.571 
#    0.000    2.857    0.000    0.000    0.000    0.000 
#    0.000    0.000    0.000    0.000    0.000    0.000 
#
# Total GULP energy -78109.142119 kJ/mol
# GULP energy per Si atom -5579.224437 kJ/mol
# Density = 2.514193 g / cm^3
# Si number density = 25.199280 Si / 1000 Ang^3
#
#
#
# Elastic Constant Matrix: (Units=GPa)
#
#
# Indices 1 2 3 4 5 6 
#
# 1 142.4081 45.7494 39.9908 13.3055 -18.9079 -32.6895
# 2 45.7494 126.5341 16.1803 -5.3260 -16.9306 -3.8495
# 3 39.9908 16.1803 114.6094 16.3252 -10.6214 -29.1111
# 4 13.3055 -5.3260 16.3252 22.9391 -15.3904 -20.2157
# 5 -18.9079 -16.9306 -10.6214 -15.3904 53.4243 8.7674
# 6 -32.6895 -3.8495 -29.1111 -20.2157 8.7674 43.2311
#
#
#
# Elastic Compliance Matrix: (Units=1/GPa)
#
#
# Indices 1 2 3 4 5 6 
#
# 1 0.009984 -0.002929 -0.001433 0.001613 0.001679 0.006738
# 2 -0.002929 0.010048 -0.000918 0.008618 0.004246 0.001231
# 3 -0.001433 -0.000918 0.011003 -0.003173 -0.000316 0.004824
# 4 0.001613 0.008618 -0.003173 0.100267 0.024708 0.041726
# 5 0.001679 0.004246 -0.000316 0.024708 0.026462 0.007622
# 6 0.006738 0.001231 0.004824 0.041726 0.007622 0.049550
#
#
# Mechanical properties :
#
#
# Convention : Reuss Voigt Hill
#
# Bulk Modulus (GPa) = 48.84066 65.26584 57.05325
# Shear Modulus (GPa) = 22.25193 42.69431 32.47312
#
# Velocity S-wave (km/s) = 2.97482 4.12061 3.59368
# Velocity P-wave (km/s) = 5.58778 6.97104 6.31738
#
# Compressibility (1/GPa) = 0.02047474
#
# Stress axis : x y z
#
# Youngs Moduli (GPa) = 100.15641 99.52488 90.88465
#
# Poissons Ratio (x) = 0.29152 0.13024
# Poissons Ratio (y) = 0.29337 0.08343
# Poissons Ratio (z) = 0.14353 0.09136
#
# Static dielectric constant tensor:
#      x y z
#    x 2.147180 -0.081110 -0.127650 
#    y -0.081110 2.099010 0.068100 
#    z -0.127650 0.068100 2.223900 
# 
# From -- ./inp_files/199236.got.cif
#   From: 2010.05.17/outbox.cif.g08.bks.cpg/sg2_100_cif.got.tgz:199236.got - 2010.06.03 11:33:40.
