data_PCOD9014947
_publ_section_title
;
Structure prediction by ZEFSAII (Michael W. Deem and Ramdas Pophale) SiO2 
 PCOD9014947
Probable space group: P -1
;
_chemical_formula_sum "Si O2"
_cell_formula_units_Z 16
_cell_length_a 10.148717
_cell_length_b 18.239750
_cell_length_c 9.482945
_cell_angle_alpha 117.825650
_cell_angle_beta 100.422086
_cell_angle_gamma 28.402693
_cell_volume 618.632155
_symmetry_space_group_name_H-M "P -1"
_symmetry_group_IT_number 2
_symmetry_cell_setting 'triclinic'
loop_
_space_group_symop_operation_xyz
x,y,z
-x,-y,-z
loop_
_atom_site_type_symbol
_atom_site_label
_atom_site_fract_x
_atom_site_fract_y
_atom_site_fract_z
Si Si1 0.573198 0.271316 0.577678
Si Si2 0.125345 0.292967 0.274962
Si Si3 0.219882 0.134724 0.693988
Si Si4 0.884427 0.125598 0.216373
Si Si5 0.641100 0.542506 0.797550
Si Si6 0.230292 0.725499 0.136628
Si Si7 0.222024 0.306099 0.610368
Si Si8 0.559294 0.059704 0.890467
O O1 0.769469 0.215446 0.675912
O O2 0.776772 0.144409 0.358868
O O3 0.433140 0.269192 0.625811
O O4 0.237726 0.508155 0.681519
O O5 0.129475 0.345012 0.463367
O O6 0.245218 0.133962 0.199300
O O7 0.363467 0.197158 0.116025
O O8 0.912431 0.319236 0.693013
O O9 0.107208 0.134580 0.798314
O O10 0.702836 0.824936 0.170961
O O11 0.555477 0.356132 0.294890
O O12 0.183193 0.021277 0.195428
O O13 0.000000 0.000000 0.000000
O O14 0.873943 0.492136 0.789733
O O15 0.363361 0.698889 0.003976
O O16 0.539992 0.905747 0.493323
O O17 0.500000 0.500000 0.000000
#
# Coordination Sequence:
#
# PCOD9014947 Si02
#       8
#     2   2   2   2   2   2   2   2
#     4  12  26  46  74 107 149 201 241 300 380 438
#     4  10  21  41  70 105 140 191 246 297 364 438
#     4  10  24  49  71 103 147 193 246 306 362 439
#     4  12  29  48  74 114 151 187 252 312 362 437
#     4  11  25  47  74 104 147 192 239 315 360 429
#     4  10  25  46  73 104 147 187 246 300 363 433
#     4  11  24  43  72 105 147 192 244 302 366 437
#     4  10  24  42  76 103 142 196 244 301 365 439
#
# _framework density 25.863512
#
# number of rings (size 3 to 8) (size 9 to 14) (size 15 to 20)
#    0.000    1.250    1.250    3.000   12.250    6.500 
#    2.250    0.000    0.000    0.000    0.000    0.000 
#    0.000    0.000    0.000    0.000    0.000    0.000 
#
# Total GULP energy -89629.252314 kJ/mol
# GULP energy per Si atom -5601.828270 kJ/mol
# Density = 2.580465 g / cm^3
# Si number density = 25.863512 Si / 1000 Ang^3
#
#
#
# Elastic Constant Matrix: (Units=GPa)
#
#
# Indices 1 2 3 4 5 6 
#
# 1 128.9126 16.7529 26.3872 -11.5740 -24.4542 -28.1561
# 2 16.7529 112.9297 13.1593 -3.9886 -5.6069 3.1468
# 3 26.3872 13.1593 78.3939 -0.0151 -20.5743 -1.6269
# 4 -11.5740 -3.9886 -0.0151 33.8025 -10.1240 -3.5412
# 5 -24.4542 -5.6069 -20.5743 -10.1240 37.0061 6.1228
# 6 -28.1561 3.1468 -1.6269 -3.5412 6.1228 48.4911
#
#
#
# Elastic Compliance Matrix: (Units=1/GPa)
#
#
# Indices 1 2 3 4 5 6 
#
# 1 0.011627 -0.001104 -0.001657 0.006725 0.007388 0.006325
# 2 -0.001104 0.009229 -0.001079 0.000720 0.000479 -0.001284
# 3 -0.001657 -0.001079 0.015581 0.001590 0.008050 -0.001269
# 4 0.006725 0.000720 0.001590 0.036885 0.014743 0.004744
# 5 0.007388 0.000479 0.008050 0.014743 0.040403 0.000504
# 6 0.006325 -0.001284 -0.001269 0.004744 0.000504 0.024619
#
#
# Mechanical properties :
#
#
# Convention : Reuss Voigt Hill
#
# Bulk Modulus (GPa) = 34.77120 48.09278 41.43199
# Shear Modulus (GPa) = 32.13207 41.45571 36.79389
#
# Velocity S-wave (km/s) = 3.52855 4.00792 3.77585
# Velocity P-wave (km/s) = 5.48400 6.32875 5.92146
#
# Compressibility (1/GPa) = 0.02875943
#
# Stress axis : x y z
#
# Youngs Moduli (GPa) = 86.01018 108.34897 64.17911
#
# Poissons Ratio (x) = 0.11958 0.10632
# Poissons Ratio (y) = 0.09492 0.06923
# Poissons Ratio (z) = 0.14249 0.11687
#
# Static dielectric constant tensor:
#      x y z
#    x 2.129780 0.071430 -0.094380 
#    y 0.071430 2.026760 0.010730 
#    z -0.094380 0.010730 2.084320 
# 
# From -- ./inp_files/399805.got.cif
#   From: 2010.05.17/outbox.cif.g08.bks.cpg/sg2_200_cif.got.tgz:399805.got - 2010.06.03 11:33:40.
