data_PCOD9014283
_publ_section_title
;
Structure prediction by ZEFSAII (Michael W. Deem and Ramdas Pophale) SiO2 
 PCOD9014283
Probable space group: P -1
;
_chemical_formula_sum "Si O2"
_cell_formula_units_Z 14
_cell_length_a 9.564707
_cell_length_b 14.225241
_cell_length_c 7.174053
_cell_angle_alpha 56.744625
_cell_angle_beta 68.104138
_cell_angle_gamma 41.818141
_cell_volume 543.130300
_symmetry_space_group_name_H-M "P -1"
_symmetry_group_IT_number 2
_symmetry_cell_setting 'triclinic'
loop_
_space_group_symop_operation_xyz
x,y,z
-x,-y,-z
loop_
_atom_site_type_symbol
_atom_site_label
_atom_site_fract_x
_atom_site_fract_y
_atom_site_fract_z
Si Si1 0.742598 0.558552 0.525551
Si Si2 0.927907 0.255278 0.990192
Si Si3 0.481208 0.140608 0.113306
Si Si4 0.724903 0.223134 0.449049
Si Si5 0.074589 0.091974 0.717987
Si Si6 0.366527 0.970117 0.248991
Si Si7 0.863684 0.674496 0.629264
O O1 0.511262 0.631935 0.520995
O O2 0.115034 0.201793 0.522201
O O3 0.894812 0.488031 0.348811
O O4 0.846690 0.414126 0.773991
O O5 0.781398 0.276589 0.195597
O O6 0.159813 0.141793 0.087063
O O7 0.959931 0.157290 0.904600
O O8 0.273591 0.287289 0.164667
O O9 0.693470 0.075881 0.171186
O O10 0.480862 0.004236 0.275101
O O11 0.509208 0.137386 0.879786
O O12 0.714528 0.097563 0.533184
O O13 0.250538 0.328673 0.484558
O O14 0.903551 0.135744 0.611537
#
# Coordination Sequence:
#
# PCOD9014283 Si02
#       7
#     2   2   2   2   2   2   2
#     4  10  24  44  67  96 136 180 225 271 331 403
#     4  10  23  43  65  97 141 176 218 282 336 392
#     4  10  21  42  69 101 135 169 222 288 335 389
#     4  12  24  43  69  99 137 181 220 273 339 402
#     4  10  23  41  68 104 134 171 227 277 336 407
#     4  10  23  42  70 101 131 174 227 276 338 403
#     4  10  21  41  67  92 129 179 221 270 330 389
#
# _framework density 25.776503000000002
#
# number of rings (size 3 to 8) (size 9 to 14) (size 15 to 20)
#    0.000    1.714    0.000    3.000    0.000   11.429 
#    0.000   10.714    0.000    0.000    0.000    0.000 
#    0.000    0.000    0.000    0.000    0.000    0.000 
#
# Total GULP energy -78373.404355 kJ/mol
# GULP energy per Si atom -5598.100311 kJ/mol
# Density = 2.571783 g / cm^3
# Si number density = 25.776503 Si / 1000 Ang^3
#
#
#
# Elastic Constant Matrix: (Units=GPa)
#
#
# Indices 1 2 3 4 5 6 
#
# 1 126.5958 18.8618 59.1371 16.3243 -5.0571 -31.5543
# 2 18.8618 123.8135 60.3448 41.8541 -2.7924 -36.0588
# 3 59.1371 60.3448 113.5145 21.8523 1.1977 -12.5409
# 4 16.3243 41.8541 21.8523 58.6264 5.9861 -14.1615
# 5 -5.0571 -2.7924 1.1977 5.9861 36.3889 1.0634
# 6 -31.5543 -36.0588 -12.5409 -14.1615 1.0634 42.0036
#
#
#
# Elastic Compliance Matrix: (Units=1/GPa)
#
#
# Indices 1 2 3 4 5 6 
#
# 1 0.015530 0.007804 -0.010120 -0.003005 0.003168 0.014251
# 2 0.007804 0.020462 -0.011412 -0.008843 0.003990 0.016939
# 3 -0.010120 -0.011412 0.018630 0.001598 -0.002830 -0.011226
# 4 -0.003005 -0.008843 0.001598 0.023834 -0.005034 -0.001209
# 5 0.003168 0.003990 -0.002830 -0.005034 0.029075 0.002527
# 6 0.014251 0.016939 -0.011226 -0.001209 0.002527 0.045232
#
#
# Mechanical properties :
#
#
# Convention : Reuss Voigt Hill
#
# Bulk Modulus (GPa) = 36.80913 71.17902 53.99408
# Shear Modulus (GPa) = 26.41686 42.44245 34.42965
#
# Velocity S-wave (km/s) = 3.20479 4.06218 3.65869
# Velocity P-wave (km/s) = 5.29201 7.04809 6.23221
#
# Compressibility (1/GPa) = 0.02716717
#
# Stress axis : x y z
#
# Youngs Moduli (GPa) = 64.39242 48.87014 53.67693
#
# Poissons Ratio (x) = -0.38138 0.54319
# Poissons Ratio (y) = -0.50251 0.61255
# Poissons Ratio (z) = 0.65163 0.55769
#
# Static dielectric constant tensor:
#      x y z
#    x 1.974810 0.003590 -0.012300 
#    y 0.003590 2.107120 -0.012670 
#    z -0.012300 -0.012670 2.048850 
# 
# From -- ./inp_files/277550.got.cif
#   From: 2010.05.17/outbox.cif.g08.bks.cpg/sg2_139_cif.got.tgz:277550.got - 2010.06.03 11:33:40.
