data_PCOD9014136
_publ_section_title
;
Structure prediction by ZEFSAII (Michael W. Deem and Ramdas Pophale) SiO2 
 PCOD9014136
Probable space group: P -1
;
_chemical_formula_sum "Si O2"
_cell_formula_units_Z 14
_cell_length_a 22.625487
_cell_length_b 18.363218
_cell_length_c 18.933147
_cell_angle_alpha 16.641136
_cell_angle_beta 163.200954
_cell_angle_gamma 162.810513
_cell_volume 577.972862
_symmetry_space_group_name_H-M "P -1"
_symmetry_group_IT_number 2
_symmetry_cell_setting 'triclinic'
loop_
_space_group_symop_operation_xyz
x,y,z
-x,-y,-z
loop_
_atom_site_type_symbol
_atom_site_label
_atom_site_fract_x
_atom_site_fract_y
_atom_site_fract_z
Si Si1 0.551355 0.541391 0.602689
Si Si2 0.824194 0.223367 0.276503
Si Si3 0.467671 0.627701 0.771600
Si Si4 0.281399 0.096431 0.329796
Si Si5 0.297905 0.364097 0.611821
Si Si6 0.610669 0.891890 0.926344
Si Si7 0.077309 0.728739 0.187532
O O1 0.500000 0.500000 0.500000
O O2 0.329177 0.409196 0.522540
O O3 0.694309 0.884602 0.458033
O O4 0.683560 0.362768 0.945457
O O5 0.046855 0.287201 0.424261
O O6 0.900998 0.402984 0.270446
O O7 0.683526 0.829345 0.782348
O O8 0.285143 0.751788 0.452860
O O9 0.500000 0.500000 0.000000
O O10 0.355349 0.359229 0.839126
O O11 0.488994 0.348102 0.379210
O O12 0.356696 0.847974 0.657297
O O13 0.051969 0.096640 0.094876
O O14 0.347346 0.117870 0.933872
O O15 0.799790 0.156430 0.854042
#
# Coordination Sequence:
#
# PCOD9014136 Si02
#       7
#     2   2   2   2   2   2   2
#     4  12  30  47  71 107 146 185 234 301 369 425
#     4  12  25  46  74 103 142 186 242 294 351 439
#     4  10  23  41  61  97 146 182 231 297 360 417
#     4  10  22  38  65 102 130 181 239 289 350 419
#     4  11  24  40  72 102 133 186 234 293 350 421
#     4  10  21  41  66  98 138 180 242 289 355 415
#     4  11  22  40  69 104 129 189 244 292 348 426
#
# _framework density 24.22259
#
# number of rings (size 3 to 8) (size 9 to 14) (size 15 to 20)
#    0.000    1.143    5.714    1.286    2.000    6.286 
#    0.000    1.429    0.000    0.000    0.000    0.000 
#    0.000    0.000    0.000    0.000    0.000    0.000 
#
# Total GULP energy -78232.325818 kJ/mol
# GULP energy per Si atom -5588.023273 kJ/mol
# Density = 2.416746 g / cm^3
# Si number density = 24.222590 Si / 1000 Ang^3
#
#
#
# Elastic Constant Matrix: (Units=GPa)
#
#
# Indices 1 2 3 4 5 6 
#
# 1 161.9118 32.6791 54.5396 -0.6261 -11.4419 37.4703
# 2 32.6791 58.1528 23.1503 -10.0951 4.4445 20.1432
# 3 54.5396 23.1503 158.3903 4.7637 15.0500 32.7001
# 4 -0.6261 -10.0951 4.7637 28.2613 12.7112 5.1563
# 5 -11.4419 4.4445 15.0500 12.7112 47.9007 4.7532
# 6 37.4703 20.1432 32.7001 5.1563 4.7532 37.8814
#
#
#
# Elastic Compliance Matrix: (Units=1/GPa)
#
#
# Indices 1 2 3 4 5 6 
#
# 1 0.009043 -0.002653 -0.001747 -0.001026 0.003860 -0.006371
# 2 -0.002653 0.025786 -0.000267 0.013834 -0.005417 -0.012061
# 3 -0.001747 -0.000267 0.008212 0.000572 -0.002631 -0.004967
# 4 -0.001026 0.013834 0.000572 0.048365 -0.013378 -0.011739
# 5 0.003860 -0.005417 -0.002631 -0.013378 0.026697 -0.000195
# 6 -0.006371 -0.012061 -0.004967 -0.011739 -0.000195 0.045024
#
#
# Mechanical properties :
#
#
# Convention : Reuss Voigt Hill
#
# Bulk Modulus (GPa) = 29.66565 66.57698 48.12132
# Shear Modulus (GPa) = 27.21879 40.68108 33.94993
#
# Velocity S-wave (km/s) = 3.35579 4.10258 3.74783
# Velocity P-wave (km/s) = 5.22387 7.07013 6.21593
#
# Compressibility (1/GPa) = 0.03370902
#
# Stress axis : x y z
#
# Youngs Moduli (GPa) = 110.57980 38.78055 121.76894
#
# Poissons Ratio (x) = 0.10287 0.21269
# Poissons Ratio (y) = 0.29334 0.03250
# Poissons Ratio (z) = 0.19315 0.01035
#
# Static dielectric constant tensor:
#      x y z
#    x 1.939850 0.010210 -0.021600 
#    y 0.010210 2.007110 -0.067550 
#    z -0.021600 -0.067550 2.050640 
# 
# From -- ./inp_files/578409.got.cif
#   From: 2010.05.17/outbox.cif.g08.bks.cpg/sg2_290_cif.got.tgz:578409.got - 2010.06.03 11:33:40.
