data_PCOD9014063
_publ_section_title
;
Structure prediction by ZEFSAII (Michael W. Deem and Ramdas Pophale) SiO2 
 PCOD9014063
Probable space group: P -1
;
_chemical_formula_sum "Si O2"
_cell_formula_units_Z 14
_cell_length_a 20.136846
_cell_length_b 9.056897
_cell_length_c 11.399157
_cell_angle_alpha 51.593949
_cell_angle_beta 28.333248
_cell_angle_gamma 37.544391
_cell_volume 579.741019
_symmetry_space_group_name_H-M "P -1"
_symmetry_group_IT_number 2
_symmetry_cell_setting 'triclinic'
loop_
_space_group_symop_operation_xyz
x,y,z
-x,-y,-z
loop_
_atom_site_type_symbol
_atom_site_label
_atom_site_fract_x
_atom_site_fract_y
_atom_site_fract_z
Si Si1 0.051041 0.435475 0.090410
Si Si2 0.275176 0.644653 0.094764
Si Si3 0.433138 0.760352 0.321616
Si Si4 0.760371 0.391320 0.574201
Si Si5 0.229613 0.611646 0.855714
Si Si6 0.591922 0.094992 0.243627
Si Si7 0.064501 0.068906 0.649219
O O1 0.884545 0.459015 0.384430
O O2 0.101584 0.589055 0.989571
O O3 0.000000 0.500000 0.000000
O O4 0.237020 0.151046 0.966323
O O5 0.267903 0.694117 0.219051
O O6 0.453008 0.369766 0.911732
O O7 0.307706 0.817092 0.892019
O O8 0.084476 0.714748 0.317954
O O9 0.337097 0.661762 0.579923
O O10 0.603510 0.646702 0.204462
O O11 0.239994 0.030719 0.446314
O O12 0.573350 0.652653 0.689435
O O13 0.852864 0.180481 0.432776
O O14 0.081468 0.836841 0.064276
O O15 0.500000 0.000000 0.500000
#
# Coordination Sequence:
#
# PCOD9014063 Si02
#       7
#     2   2   2   2   2   2   2
#     4  12  25  44  68 102 144 176 231 293 348 407
#     4  11  24  41  70 106 136 183 236 284 344 416
#     4  10  21  41  66  95 139 177 238 277 339 414
#     4  12  25  43  71 107 140 182 232 289 350 412
#     4  10  24  42  65 102 139 185 227 289 351 411
#     4  12  24  40  69 103 142 178 227 293 349 399
#     4  11  22  41  70  99 139 186 231 282 343 423
#
# _framework density 24.148716
#
# number of rings (size 3 to 8) (size 9 to 14) (size 15 to 20)
#    0.000    0.857    4.286    3.000    0.000    1.143 
#    0.000    2.857    0.000    5.143    0.000    0.000 
#    0.000    0.000    0.000    0.000    0.000    0.000 
#
# Total GULP energy -78008.735109 kJ/mol
# GULP energy per Si atom -5572.052508 kJ/mol
# Density = 2.409375 g / cm^3
# Si number density = 24.148716 Si / 1000 Ang^3
#
#
#
# Elastic Constant Matrix: (Units=GPa)
#
#
# Indices 1 2 3 4 5 6 
#
# 1 150.7920 29.5547 79.9281 10.2147 -10.7912 1.9471
# 2 29.5547 41.9480 39.1402 14.3132 -7.9737 -10.0801
# 3 79.9281 39.1402 125.2257 21.8111 -21.4555 -8.5002
# 4 10.2147 14.3132 21.8111 40.4062 -4.3665 -9.1826
# 5 -10.7912 -7.9737 -21.4555 -4.3665 43.7653 -3.5610
# 6 1.9471 -10.0801 -8.5002 -9.1826 -3.5610 25.9207
#
#
#
# Elastic Compliance Matrix: (Units=1/GPa)
#
#
# Indices 1 2 3 4 5 6 
#
# 1 0.010511 -0.002854 -0.006450 0.000803 -0.001329 -0.003913
# 2 -0.002854 0.038383 -0.007966 -0.005823 0.002685 0.010835
# 3 -0.006450 -0.007966 0.016111 -0.003243 0.004710 0.002168
# 4 0.000803 -0.005823 -0.003243 0.030181 0.001166 0.007464
# 5 -0.001329 0.002685 0.004710 0.001166 0.025979 0.006670
# 6 -0.003913 0.010835 0.002168 0.007464 0.006670 0.047358
#
#
# Mechanical properties :
#
#
# Convention : Reuss Voigt Hill
#
# Bulk Modulus (GPa) = 32.82345 68.35687 50.59016
# Shear Modulus (GPa) = 23.45030 33.30794 28.37912
#
# Velocity S-wave (km/s) = 3.11959 3.71790 3.43181
# Velocity P-wave (km/s) = 5.15728 6.84094 6.05789
#
# Compressibility (1/GPa) = 0.03046603
#
# Stress axis : x y z
#
# Youngs Moduli (GPa) = 95.13987 26.05312 62.07000
#
# Poissons Ratio (x) = 0.07436 0.40033
# Poissons Ratio (y) = 0.27154 0.49442
# Poissons Ratio (z) = 0.61363 0.20753
#
# Static dielectric constant tensor:
#      x y z
#    x 2.018080 -0.011120 0.110880 
#    y -0.011120 2.012620 0.027740 
#    z 0.110880 0.027740 1.764870 
# 
# From -- ./inp_files/469881.got.cif
#   From: 2010.05.17/outbox.cif.g08.bks.cpg/sg2_235_cif.got.tgz:469881.got - 2010.06.03 11:33:40.
