data_PCOD9014804
_publ_section_title
;
Structure prediction by ZEFSAII (Michael W. Deem and Ramdas Pophale) SiO2 
 PCOD9014804
Probable space group: P -1
;
_chemical_formula_sum "Si O2"
_cell_formula_units_Z 16
_cell_length_a 11.300222
_cell_length_b 10.873787
_cell_length_c 10.196378
_cell_angle_alpha 54.950238
_cell_angle_beta 50.412197
_cell_angle_gamma 39.015020
_cell_volume 599.687017
_symmetry_space_group_name_H-M "P -1"
_symmetry_group_IT_number 2
_symmetry_cell_setting 'triclinic'
loop_
_space_group_symop_operation_xyz
x,y,z
-x,-y,-z
loop_
_atom_site_type_symbol
_atom_site_label
_atom_site_fract_x
_atom_site_fract_y
_atom_site_fract_z
Si Si1 0.705976 0.431635 0.686842
Si Si2 0.092936 0.823666 0.858236
Si Si3 0.980692 0.367541 0.332205
Si Si4 0.050474 0.291151 0.734955
Si Si5 0.400791 0.156107 0.147607
Si Si6 0.605332 0.126852 0.290379
Si Si7 0.304674 0.877418 0.184575
Si Si8 0.693882 0.564722 0.179561
O O1 0.831319 0.342491 0.518148
O O2 0.554568 0.669037 0.642711
O O3 0.627675 0.311661 0.837227
O O4 0.867721 0.358460 0.730589
O O5 0.200080 0.883544 0.832320
O O6 0.266180 0.629185 0.774045
O O7 0.931227 0.971335 0.769916
O O8 0.980797 0.781119 0.063200
O O9 0.971383 0.518585 0.340399
O O10 0.866330 0.488853 0.207561
O O11 0.212834 0.161976 0.289965
O O12 0.268448 0.107702 0.630088
O O13 0.482594 0.165318 0.221382
O O14 0.609346 0.019917 0.000271
O O15 0.283572 0.351743 0.019475
O O16 0.461834 0.747917 0.272364
#
# Coordination Sequence:
#
# PCOD9014804 Si02
#       8
#     2   2   2   2   2   2   2   2
#     4  12  25  43  64  95 137 169 211 266 323 385
#     4  12  21  40  73 103 119 165 217 285 314 365
#     4  12  26  45  63  92 139 182 201 257 329 386
#     4  12  23  40  68  94 135 162 214 266 324 381
#     4  10  21  41  69  93 124 168 218 265 315 377
#     4  12  22  40  68 102 124 162 219 269 328 366
#     4  10  22  42  67  99 122 164 220 268 316 368
#     4  10  23  44  67  92 132 167 222 261 313 381
#
# _framework density 26.680582999999999
#
# number of rings (size 3 to 8) (size 9 to 14) (size 15 to 20)
#    0.750    0.000    6.250    1.875    0.000    2.500 
#    2.250    2.500    0.000    0.000    0.000    0.000 
#    0.000    0.000    0.000    0.000    0.000    0.000 
#
# Total GULP energy -89172.610826 kJ/mol
# GULP energy per Si atom -5573.288177 kJ/mol
# Density = 2.661986 g / cm^3
# Si number density = 26.680583 Si / 1000 Ang^3
#
#
#
# Elastic Constant Matrix: (Units=GPa)
#
#
# Indices 1 2 3 4 5 6 
#
# 1 147.7746 22.3156 9.4923 -3.4003 -8.9573 -38.8351
# 2 22.3156 167.9240 13.1935 18.4765 -7.9377 -25.9369
# 3 9.4923 13.1935 57.9096 1.4846 -9.6171 -8.1033
# 4 -3.4003 18.4765 1.4846 24.6495 -2.2501 -9.0595
# 5 -8.9573 -7.9377 -9.6171 -2.2501 16.0376 3.4649
# 6 -38.8351 -25.9369 -8.1033 -9.0595 3.4649 52.2261
#
#
#
# Elastic Compliance Matrix: (Units=1/GPa)
#
#
# Indices 1 2 3 4 5 6 
#
# 1 0.009018 -0.000430 0.000158 0.004509 0.004032 0.007031
# 2 -0.000430 0.006959 -0.000831 -0.004284 0.001639 0.002155
# 3 0.000158 -0.000831 0.019554 0.001299 0.011104 0.002227
# 4 0.004509 -0.004284 0.001299 0.048325 0.005923 0.009417
# 5 0.004032 0.001639 0.011104 0.005923 0.072528 0.001750
# 6 0.007031 0.002155 0.002227 0.009417 0.001750 0.027309
#
#
# Mechanical properties :
#
#
# Convention : Reuss Voigt Hill
#
# Bulk Modulus (GPa) = 30.00913 51.51234 40.76073
# Shear Modulus (GPa) = 25.37949 40.48975 32.93462
#
# Velocity S-wave (km/s) = 3.08755 3.89983 3.51722
# Velocity P-wave (km/s) = 4.89721 6.29501 5.63959
#
# Compressibility (1/GPa) = 0.03332320
#
# Stress axis : x y z
#
# Youngs Moduli (GPa) = 110.89147 143.69214 51.13996
#
# Poissons Ratio (x) = 0.06184 -0.00806
# Poissons Ratio (y) = 0.04772 0.04252
# Poissons Ratio (z) = -0.01749 0.11947
#
# Static dielectric constant tensor:
#      x y z
#    x 2.096910 -0.003350 -0.048500 
#    y -0.003350 2.121580 0.106790 
#    z -0.048500 0.106790 2.261900 
# 
# From -- ./inp_files/425441.got.cif
#   From: 2010.05.17/outbox.cif.g08.bks.cpg/sg2_213_cif.got.tgz:425441.got - 2010.06.03 11:33:40.
