data_PCOD9014586
_publ_section_title
;
Structure prediction by ZEFSAII (Michael W. Deem and Ramdas Pophale) SiO2 
 PCOD9014586
Probable space group: P -1
;
_chemical_formula_sum "Si O2"
_cell_formula_units_Z 12
_cell_length_a 5.438711
_cell_length_b 19.566042
_cell_length_c 8.829311
_cell_angle_alpha 39.183840
_cell_angle_beta 67.544543
_cell_angle_gamma 93.735150
_cell_volume 431.042265
_symmetry_space_group_name_H-M "P -1"
_symmetry_group_IT_number 2
_symmetry_cell_setting 'triclinic'
loop_
_space_group_symop_operation_xyz
x,y,z
-x,-y,-z
loop_
_atom_site_type_symbol
_atom_site_label
_atom_site_fract_x
_atom_site_fract_y
_atom_site_fract_z
Si Si1 0.236742 0.941122 0.485226
Si Si2 0.848457 0.798448 0.129807
Si Si3 0.559249 0.695362 0.911571
Si Si4 0.508014 0.178171 0.574705
Si Si5 0.304643 0.733386 0.180114
Si Si6 0.808014 0.568154 0.930409
O O1 0.480831 0.921639 0.368103
O O2 0.125398 0.885458 0.779945
O O3 0.891701 0.840604 0.645591
O O4 0.403374 0.099910 0.167220
O O5 0.481842 0.692252 0.319366
O O6 0.972332 0.718681 0.312755
O O7 0.782890 0.872213 0.147451
O O8 0.488397 0.721714 0.716123
O O9 0.275502 0.667965 0.138342
O O10 0.635515 0.587287 0.081708
O O11 0.856817 0.268759 0.433486
O O12 0.500000 0.500000 0.000000
O O13 0.000000 0.500000 0.000000
#
# Coordination Sequence:
#
# PCOD9014586 Si02
#       6
#     2   2   2   2   2   2
#     4  10  23  42  61  95 137 178 215 254 311 375
#     4  11  24  39  62  94 133 174 215 264 309 368
#     4  10  21  41  68  93 127 168 216 259 322 378
#     4  11  24  40  69  98 126 169 218 263 323 381
#     4  11  24  42  63  92 137 179 213 256 310 377
#     4  11  23  42  69  96 124 162 212 269 330 390
#
# _framework density 27.839500000000001
#
# number of rings (size 3 to 8) (size 9 to 14) (size 15 to 20)
#    0.000    1.333    3.333    2.500    7.000    1.333 
#    0.000    0.000    0.000   26.000    0.000    0.000 
#    0.000    0.000    0.000    0.000    0.000    0.000 
#
# Total GULP energy -67009.276577 kJ/mol
# GULP energy per Si atom -5584.106381 kJ/mol
# Density = 2.777614 g / cm^3
# Si number density = 27.839500 Si / 1000 Ang^3
#
#
#
# Elastic Constant Matrix: (Units=GPa)
#
#
# Indices 1 2 3 4 5 6 
#
# 1 204.8837 94.2998 27.0185 14.2358 -7.2236 -12.1903
# 2 94.2998 217.5699 70.1370 33.3003 -5.1505 -39.0642
# 3 27.0185 70.1370 111.3069 12.9776 -13.6318 -2.3498
# 4 14.2358 33.3003 12.9776 58.9920 -1.2605 -5.8138
# 5 -7.2236 -5.1505 -13.6318 -1.2605 28.8853 3.4887
# 6 -12.1903 -39.0642 -2.3498 -5.8138 3.4887 74.3458
#
#
#
# Elastic Compliance Matrix: (Units=1/GPa)
#
#
# Indices 1 2 3 4 5 6 
#
# 1 0.006163 -0.002896 0.000477 0.000016 0.001318 -0.000557
# 2 -0.002896 0.008268 -0.004343 -0.002697 -0.001853 0.003608
# 3 0.000477 -0.004343 0.012272 -0.000455 0.005370 -0.002104
# 4 0.000016 -0.002697 -0.000455 0.018574 0.000117 0.000018
# 5 0.001318 -0.001853 0.005370 0.000117 0.037440 -0.002336
# 6 -0.000557 0.003608 -0.002104 0.000018 -0.002336 0.015300
#
#
# Mechanical properties :
#
#
# Convention : Reuss Voigt Hill
#
# Bulk Modulus (GPa) = 75.88694 101.85234 88.86964
# Shear Modulus (GPa) = 43.12700 55.26497 49.19598
#
# Velocity S-wave (km/s) = 3.94017 4.46031 4.20828
# Velocity P-wave (km/s) = 6.92949 7.94926 7.45683
#
# Compressibility (1/GPa) = 0.01317750
#
# Stress axis : x y z
#
# Youngs Moduli (GPa) = 162.25463 120.94130 81.48773
#
# Poissons Ratio (x) = 0.35026 -0.03884
# Poissons Ratio (y) = 0.46991 0.35394
# Poissons Ratio (z) = -0.07734 0.52531
#
# Static dielectric constant tensor:
#      x y z
#    x 2.341740 -0.020690 0.018460 
#    y -0.020690 2.156370 0.069710 
#    z 0.018460 0.069710 2.274720 
# 
# From -- ./inp_files/53827.got.cif
#   From: 2010.05.17/outbox.cif.g08.bks.cpg/sg2_27_cif.got.tgz:53827.got - 2010.06.03 11:33:40.
