data_PCOD9014184
_publ_section_title
;
Structure prediction by ZEFSAII (Michael W. Deem and Ramdas Pophale) SiO2 
 PCOD9014184
Probable space group: P -1
;
_chemical_formula_sum "Si O2"
_cell_formula_units_Z 16
_cell_length_a 8.779066
_cell_length_b 12.470136
_cell_length_c 15.306341
_cell_angle_alpha 29.005519
_cell_angle_beta 75.504954
_cell_angle_gamma 87.352136
_cell_volume 731.497041
_symmetry_space_group_name_H-M "P -1"
_symmetry_group_IT_number 2
_symmetry_cell_setting 'triclinic'
loop_
_space_group_symop_operation_xyz
x,y,z
-x,-y,-z
loop_
_atom_site_type_symbol
_atom_site_label
_atom_site_fract_x
_atom_site_fract_y
_atom_site_fract_z
Si Si1 0.698772 0.779876 0.002511
Si Si2 0.194778 0.211141 0.827097
Si Si3 0.077762 0.881893 0.500943
Si Si4 0.340341 0.823241 0.046735
Si Si5 0.190664 0.510460 0.460099
Si Si6 0.681531 0.624445 0.926780
Si Si7 0.887996 0.405068 0.927893
Si Si8 0.947899 0.935717 0.302938
O O1 0.750774 0.709584 0.138435
O O2 0.527749 0.831170 0.996992
O O3 0.683110 0.610293 0.041809
O O4 0.862214 0.016530 0.791322
O O5 0.226793 0.450077 0.596512
O O6 0.314392 0.072785 0.876826
O O7 0.000000 0.000000 0.000000
O O8 0.057743 0.623142 0.720307
O O9 0.252785 0.090492 0.303336
O O10 0.000000 0.000000 0.500000
O O11 0.951430 0.851130 0.460071
O O12 0.285907 0.707824 0.233664
O O13 0.223843 0.680497 0.083655
O O14 0.000000 0.500000 0.500000
O O15 0.185543 0.266836 0.588550
O O16 0.799179 0.510565 0.939564
O O17 0.500000 0.500000 0.000000
O O18 0.921961 0.181950 0.120808
#
# Coordination Sequence:
#
# PCOD9014184 Si02
#       8
#     2   2   2   2   2   2   2   2
#     4  11  24  41  66  97 139 176 219 278 341 399
#     4  12  23  44  68  98 131 178 226 275 336 403
#     4   9  21  37  65  94 127 170 226 274 324 393
#     4  12  23  41  69  98 138 174 219 282 343 395
#     4  12  24  40  69  99 129 174 226 273 333 406
#     4  10  21  41  67 101 136 177 225 277 342 396
#     4  11  21  41  71  96 131 181 226 277 331 399
#     4  11  22  41  65  97 128 175 229 268 329 407
#
# _framework density 21.872951
#
# number of rings (size 3 to 8) (size 9 to 14) (size 15 to 20)
#    0.000    1.000    6.250    0.375    0.000    5.000 
#    0.000    3.750    0.000    5.250    0.000    0.000 
#    0.000    0.000    0.000    0.000    0.000    0.000 
#
# Total GULP energy -89272.445522 kJ/mol
# GULP energy per Si atom -5579.527845 kJ/mol
# Density = 2.182317 g / cm^3
# Si number density = 21.872951 Si / 1000 Ang^3
#
#
#
# Elastic Constant Matrix: (Units=GPa)
#
#
# Indices 1 2 3 4 5 6 
#
# 1 84.2976 37.7211 28.4595 7.0152 5.8043 -5.0361
# 2 37.7211 134.2408 26.6724 19.9300 13.3579 14.0226
# 3 28.4595 26.6724 80.8470 -0.1871 30.6471 -12.7782
# 4 7.0152 19.9300 -0.1871 41.0009 5.3415 4.9124
# 5 5.8043 13.3579 30.6471 5.3415 26.2831 -1.8237
# 6 -5.0361 14.0226 -12.7782 4.9124 -1.8237 41.5037
#
#
#
# Elastic Compliance Matrix: (Units=1/GPa)
#
#
# Indices 1 2 3 4 5 6 
#
# 1 0.015459 -0.003580 -0.006451 -0.001967 0.006440 0.001615
# 2 -0.003580 0.009985 -0.002219 -0.003594 -0.001252 -0.004121
# 3 -0.006451 -0.002219 0.028168 0.005551 -0.030961 0.006622
# 4 -0.001967 -0.003594 0.005551 0.027923 -0.009960 -0.001058
# 5 0.006440 -0.001252 -0.030961 -0.009960 0.075121 -0.003848
# 6 0.001615 -0.004121 0.006622 -0.001058 -0.003848 0.027677
#
#
# Mechanical properties :
#
#
# Convention : Reuss Voigt Hill
#
# Bulk Modulus (GPa) = 34.34967 53.89903 44.12435
# Shear Modulus (GPa) = 22.87940 35.52638 29.20289
#
# Velocity S-wave (km/s) = 3.23772 4.03453 3.65789
# Velocity P-wave (km/s) = 5.45118 6.81165 6.16903
#
# Compressibility (1/GPa) = 0.02911236
#
# Stress axis : x y z
#
# Youngs Moduli (GPa) = 64.68583 100.15349 35.50096
#
# Poissons Ratio (x) = 0.35851 0.22903
# Poissons Ratio (y) = 0.23155 0.07877
# Poissons Ratio (z) = 0.41732 0.22223
#
# Static dielectric constant tensor:
#      x y z
#    x 1.789970 -0.002600 -0.041370 
#    y -0.002600 1.815270 -0.006500 
#    z -0.041370 -0.006500 1.839870 
# 
# From -- ./inp_files/223901.got.cif
#   From: 2010.05.17/outbox.cif.g08.bks.cpg/sg2_112_cif.got.tgz:223901.got - 2010.06.03 11:33:40.
