data_PCOD9014669
_publ_section_title
;
Structure prediction by ZEFSAII (Michael W. Deem and Ramdas Pophale) SiO2 
 PCOD9014669
Probable space group: P -1
;
_chemical_formula_sum "Si O2"
_cell_formula_units_Z 12
_cell_length_a 15.403862
_cell_length_b 8.840087
_cell_length_c 10.579486
_cell_angle_alpha 136.591190
_cell_angle_beta 38.342705
_cell_angle_gamma 147.021076
_cell_volume 476.350873
_symmetry_space_group_name_H-M "P -1"
_symmetry_group_IT_number 2
_symmetry_cell_setting 'triclinic'
loop_
_space_group_symop_operation_xyz
x,y,z
-x,-y,-z
loop_
_atom_site_type_symbol
_atom_site_label
_atom_site_fract_x
_atom_site_fract_y
_atom_site_fract_z
Si Si1 0.555851 0.483966 0.069060
Si Si2 0.760245 0.366066 0.495656
Si Si3 0.525508 0.226699 0.425628
Si Si4 0.907727 0.133769 0.043294
Si Si5 0.149998 0.086700 0.279843
Si Si6 0.696277 0.535711 0.170668
O O1 0.346436 0.235248 0.201957
O O2 0.653625 0.402421 0.998575
O O3 0.715274 0.830949 0.111433
O O4 0.500000 0.500000 0.000000
O O5 0.647323 0.321899 0.470891
O O6 0.908831 0.352703 0.260282
O O7 0.833088 0.657741 0.654267
O O8 0.623481 0.110021 0.590663
O O9 0.639839 0.331837 0.230729
O O10 0.426056 0.364239 0.621606
O O11 0.905810 0.803666 0.105924
O O12 0.901395 0.145477 0.905320
O O13 0.000000 0.000000 0.500000
#
# Coordination Sequence:
#
# PCOD9014669 Si02
#       6
#     2   2   2   2   2   2
#     4  10  21  41  68  97 133 184 222 272 345 409
#     4  11  21  45  67 101 135 188 223 279 339 418
#     4  10  22  37  71  98 139 180 231 273 347 404
#     4  11  24  39  75  99 136 180 229 277 347 401
#     4  11  24  42  68  99 135 181 230 276 339 413
#     4  11  21  41  69 106 133 182 224 288 340 402
#
# _framework density 25.191513
#
# number of rings (size 3 to 8) (size 9 to 14) (size 15 to 20)
#    0.000    1.333    3.333    2.500    2.333    2.667 
#    0.000    0.833    7.333   15.000    0.000    0.000 
#    0.000    0.000    0.000    0.000    0.000    0.000 
#
# Total GULP energy -66803.073371 kJ/mol
# GULP energy per Si atom -5566.922781 kJ/mol
# Density = 2.513418 g / cm^3
# Si number density = 25.191513 Si / 1000 Ang^3
#
#
#
# Elastic Constant Matrix: (Units=GPa)
#
#
# Indices 1 2 3 4 5 6 
#
# 1 144.4493 28.6536 36.3078 -23.5411 -2.4984 16.0215
# 2 28.6536 72.3082 28.0352 -22.8667 19.6151 -7.6303
# 3 36.3078 28.0352 92.4647 -25.8219 11.6510 1.9095
# 4 -23.5411 -22.8667 -25.8219 48.0939 -3.3823 3.4780
# 5 -2.4984 19.6151 11.6510 -3.3823 41.6688 -14.1968
# 6 16.0215 -7.6303 1.9095 3.4780 -14.1968 39.4363
#
#
#
# Elastic Compliance Matrix: (Units=1/GPa)
#
#
# Indices 1 2 3 4 5 6 
#
# 1 0.008787 -0.002705 -0.002087 0.002255 0.001298 -0.003724
# 2 -0.002705 0.020118 -0.002313 0.006321 -0.007892 0.001705
# 3 -0.002087 -0.002313 0.014316 0.005477 -0.003259 -0.001949
# 4 0.002255 0.006321 0.005477 0.027869 -0.003343 -0.003619
# 5 0.001298 -0.007892 -0.003259 -0.003343 0.031784 0.009840
# 6 -0.003724 0.001705 -0.001949 -0.003619 0.009840 0.031156
#
#
# Mechanical properties :
#
#
# Convention : Reuss Voigt Hill
#
# Bulk Modulus (GPa) = 34.46989 55.02394 44.74692
# Shear Modulus (GPa) = 31.66343 40.25485 35.95914
#
# Velocity S-wave (km/s) = 3.54914 4.00178 3.78223
# Velocity P-wave (km/s) = 5.52341 6.57586 6.07248
#
# Compressibility (1/GPa) = 0.02901082
#
# Stress axis : x y z
#
# Youngs Moduli (GPa) = 113.80526 49.70657 69.85107
#
# Poissons Ratio (x) = 0.13444 0.14579
# Poissons Ratio (y) = 0.30781 0.16159
# Poissons Ratio (z) = 0.23753 0.11499
#
# Static dielectric constant tensor:
#      x y z
#    x 2.023770 -0.023140 0.155410 
#    y -0.023140 2.131910 0.030830 
#    z 0.155410 0.030830 2.513120 
# 
# From -- ./inp_files/255839.got.cif
#   From: 2010.05.17/outbox.cif.g08.bks.cpg/sg2_128_cif.got.tgz:255839.got - 2010.06.03 11:33:40.
