data_PCOD9014664
_publ_section_title
;
Structure prediction by ZEFSAII (Michael W. Deem and Ramdas Pophale) SiO2 
 PCOD9014664
Probable space group: P -1
;
_chemical_formula_sum "Si O2"
_cell_formula_units_Z 12
_cell_length_a 8.737305
_cell_length_b 17.539683
_cell_length_c 18.201977
_cell_angle_alpha 17.639363
_cell_angle_beta 143.614225
_cell_angle_gamma 140.151340
_cell_volume 501.428299
_symmetry_space_group_name_H-M "P -1"
_symmetry_group_IT_number 2
_symmetry_cell_setting 'triclinic'
loop_
_space_group_symop_operation_xyz
x,y,z
-x,-y,-z
loop_
_atom_site_type_symbol
_atom_site_label
_atom_site_fract_x
_atom_site_fract_y
_atom_site_fract_z
Si Si1 0.626598 0.219802 0.799344
Si Si2 0.833429 0.583774 0.129698
Si Si3 0.239006 0.558757 0.930494
Si Si4 0.259245 0.476012 0.697184
Si Si5 0.753192 0.739473 0.657726
Si Si6 0.663623 0.081940 0.771346
O O1 0.500000 0.500000 0.500000
O O2 0.600341 0.139905 0.777539
O O3 0.923206 0.238499 0.924427
O O4 0.500000 0.000000 0.000000
O O5 0.864716 0.468516 0.167238
O O6 0.832609 0.418826 0.355853
O O7 0.530788 0.665232 0.938322
O O8 0.031212 0.719298 0.747589
O O9 0.241007 0.291718 0.222672
O O10 0.573766 0.490719 0.800332
O O11 0.185501 0.677542 0.423395
O O12 0.200815 0.183692 0.940579
O O13 0.580196 0.926150 0.371396
#
# Coordination Sequence:
#
# PCOD9014664 Si02
#       6
#     2   2   2   2   2   2
#     4  12  27  45  71  98 134 175 221 280 332 392
#     4  10  22  39  69  99 139 168 230 267 341 378
#     4   9  17  40  67  98 137 176 215 279 318 405
#     4   9  21  40  68  99 132 170 217 269 331 390
#     4   8  18  37  70  94 134 174 222 257 341 382
#     4  10  21  41  68  97 129 178 217 267 327 397
#
# _framework density 23.931639000000001
#
# number of rings (size 3 to 8) (size 9 to 14) (size 15 to 20)
#    1.000    1.333    0.000    2.000    2.333    2.667 
#    0.000    8.333    7.333    0.000    0.000    0.000 
#    0.000    0.000    0.000    0.000    0.000    0.000 
#
# Total GULP energy -66810.508890 kJ/mol
# GULP energy per Si atom -5567.542407 kJ/mol
# Density = 2.387717 g / cm^3
# Si number density = 23.931639 Si / 1000 Ang^3
#
#
#
# Elastic Constant Matrix: (Units=GPa)
#
#
# Indices 1 2 3 4 5 6 
#
# 1 156.9654 73.5780 68.3759 2.3737 -35.3000 -17.7378
# 2 73.5780 101.3349 71.5515 -1.0280 -13.1832 10.5643
# 3 68.3759 71.5515 155.1038 18.2019 -32.7157 -21.3238
# 4 2.3737 -1.0280 18.2019 33.7871 -0.3969 -3.4070
# 5 -35.3000 -13.1832 -32.7157 -0.3969 38.9255 8.9966
# 6 -17.7378 10.5643 -21.3238 -3.4070 8.9966 59.6087
#
#
#
# Elastic Compliance Matrix: (Units=1/GPa)
#
#
# Indices 1 2 3 4 5 6 
#
# 1 0.012689 -0.009615 0.001401 -0.001372 0.008341 0.004644
# 2 -0.009615 0.024435 -0.010541 0.006051 -0.007033 -0.009555
# 3 0.001401 -0.010541 0.014042 -0.007318 0.008119 0.005665
# 4 -0.001372 0.006051 -0.007318 0.033616 -0.004662 -0.001474
# 5 0.008341 -0.007033 0.008119 -0.004662 0.037484 0.000709
# 6 0.004644 -0.009555 0.005665 -0.001474 0.000709 0.021687
#
#
# Mechanical properties :
#
#
# Convention : Reuss Voigt Hill
#
# Bulk Modulus (GPa) = 73.22963 93.37943 83.30453
# Shear Modulus (GPa) = 26.87933 39.79085 33.33509
#
# Velocity S-wave (km/s) = 3.35501 4.08203 3.73625
# Velocity P-wave (km/s) = 6.75826 7.83079 7.31421
#
# Compressibility (1/GPa) = 0.01365568
#
# Stress axis : x y z
#
# Youngs Moduli (GPa) = 78.80708 40.92482 71.21290
#
# Poissons Ratio (x) = 0.39351 -0.09974
# Poissons Ratio (y) = 0.75776 0.75063
# Poissons Ratio (z) = -0.11037 0.43138
#
# Static dielectric constant tensor:
#      x y z
#    x 1.913600 0.003630 0.008240 
#    y 0.003630 2.009870 -0.000370 
#    z 0.008240 -0.000370 1.989640 
# 
# From -- ./inp_files/562033.got.cif
#   From: 2010.05.17/outbox.cif.g08.bks.cpg/sg2_282_cif.got.tgz:562033.got - 2010.06.03 11:33:40.
