data_PCOD9014155
_publ_section_title
;
Structure prediction by ZEFSAII (Michael W. Deem and Ramdas Pophale) SiO2 
 PCOD9014155
Probable space group: P -1
;
_chemical_formula_sum "Si O2"
_cell_formula_units_Z 16
_cell_length_a 11.602828
_cell_length_b 7.336403
_cell_length_c 11.303011
_cell_angle_alpha 51.417238
_cell_angle_beta 99.065502
_cell_angle_gamma 105.398072
_cell_volume 725.078803
_symmetry_space_group_name_H-M "P -1"
_symmetry_group_IT_number 2
_symmetry_cell_setting 'triclinic'
loop_
_space_group_symop_operation_xyz
x,y,z
-x,-y,-z
loop_
_atom_site_type_symbol
_atom_site_label
_atom_site_fract_x
_atom_site_fract_y
_atom_site_fract_z
Si Si1 0.736656 0.109963 0.182875
Si Si2 0.963870 0.152891 0.825294
Si Si3 0.113211 0.081757 0.330374
Si Si4 0.437264 0.236978 0.558168
Si Si5 0.921880 0.313107 0.326963
Si Si6 0.485578 0.191517 0.147140
Si Si7 0.287481 0.882205 0.091375
Si Si8 0.364289 0.399876 0.236066
O O1 0.838189 0.264804 0.217472
O O2 0.622836 0.234401 0.112846
O O3 0.682078 0.863652 0.342560
O O4 0.761648 0.073320 0.065047
O O5 0.966081 0.027930 0.749786
O O6 0.826064 0.169657 0.819647
O O7 0.047349 0.415252 0.737189
O O8 0.000000 0.000000 0.000000
O O9 0.133385 0.865396 0.504197
O O10 0.234224 0.252036 0.235874
O O11 0.043758 0.238087 0.336579
O O12 0.500000 0.500000 0.500000
O O13 0.403156 0.254745 0.410286
O O14 0.519895 0.050112 0.675951
O O15 0.455811 0.388875 0.149665
O O16 0.388465 0.102448 0.065717
O O17 0.348542 0.654508 0.179404
#
# Coordination Sequence:
#
# PCOD9014155 Si02
#       8
#     2   2   2   2   2   2   2   2
#     4  10  24  41  64  99 136 174 217 269 337 392
#     4  12  27  44  67 101 135 180 226 274 338 399
#     4  11  23  43  70  99 129 173 228 277 337 391
#     4  10  21  41  66  99 132 172 218 273 330 392
#     4  11  24  45  69  98 137 171 224 285 330 398
#     4  10  23  41  67  96 133 167 223 267 326 398
#     4  12  24  42  67  96 136 175 221 271 330 397
#     4  12  21  42  70  96 128 175 221 275 329 392
#
# _framework density 22.066569000000001
#
# number of rings (size 3 to 8) (size 9 to 14) (size 15 to 20)
#    0.750    0.250    5.000    1.875    1.750    1.500 
#    0.000    6.250    0.000    0.000    0.000    0.000 
#    0.000    0.000    0.000    0.000    0.000    0.000 
#
# Total GULP energy -89433.041508 kJ/mol
# GULP energy per Si atom -5589.565094 kJ/mol
# Density = 2.201634 g / cm^3
# Si number density = 22.066569 Si / 1000 Ang^3
#
#
#
# Elastic Constant Matrix: (Units=GPa)
#
#
# Indices 1 2 3 4 5 6 
#
# 1 51.4416 -3.8430 -21.6702 -6.1686 -2.5118 7.4267
# 2 -3.8430 93.0940 12.4166 -6.2860 4.1461 13.8957
# 3 -21.6702 12.4166 62.7585 11.8214 10.1786 2.3202
# 4 -6.1686 -6.2860 11.8214 39.0702 2.1422 3.0995
# 5 -2.5118 4.1461 10.1786 2.1422 30.5943 9.8407
# 6 7.4267 13.8957 2.3202 3.0995 9.8407 42.5977
#
#
#
# Elastic Compliance Matrix: (Units=1/GPa)
#
#
# Indices 1 2 3 4 5 6 
#
# 1 0.023777 0.000810 0.007754 0.001904 0.000786 -0.005152
# 2 0.000810 0.011945 -0.002593 0.003145 0.000451 -0.004229
# 3 0.007754 -0.002593 0.021029 -0.005248 -0.005652 0.000036
# 4 0.001904 0.003145 -0.005248 0.028217 0.000546 -0.003251
# 5 0.000786 0.000451 -0.005652 0.000546 0.037309 -0.008635
# 6 -0.005152 -0.004229 0.000036 -0.003251 -0.008635 0.027983
#
#
# Mechanical properties :
#
#
# Convention : Reuss Voigt Hill
#
# Bulk Modulus (GPa) = 14.55753 20.12231 17.33992
# Shear Modulus (GPa) = 31.01460 37.14515 34.07988
#
# Velocity S-wave (km/s) = 3.75307 4.10728 3.93416
# Velocity P-wave (km/s) = 5.03906 5.62421 5.33966
#
# Compressibility (1/GPa) = 0.06869298
#
# Stress axis : x y z
#
# Youngs Moduli (GPa) = 42.05740 83.71948 47.55447
#
# Poissons Ratio (x) = -0.06780 -0.36875
# Poissons Ratio (y) = -0.03406 0.12329
# Poissons Ratio (z) = -0.32612 0.21706
#
# Static dielectric constant tensor:
#      x y z
#    x 1.816030 0.004640 -0.007920 
#    y 0.004640 1.764890 -0.018230 
#    z -0.007920 -0.018230 1.859410 
# 
# From -- ./inp_files/409890.got.cif
#   From: 2010.05.17/outbox.cif.g08.bks.cpg/sg2_205_cif.got.tgz:409890.got - 2010.06.03 11:33:40.
