data_PCOD9014478
_publ_section_title
;
Structure prediction by ZEFSAII (Michael W. Deem and Ramdas Pophale) SiO2 
 PCOD9014478
Probable space group: P -1
;
_chemical_formula_sum "Si O2"
_cell_formula_units_Z 16
_cell_length_a 5.088083
_cell_length_b 18.002151
_cell_length_c 8.341141
_cell_angle_alpha 106.456105
_cell_angle_beta 78.138269
_cell_angle_gamma 127.769656
_cell_volume 578.684324
_symmetry_space_group_name_H-M "P -1"
_symmetry_group_IT_number 2
_symmetry_cell_setting 'triclinic'
loop_
_space_group_symop_operation_xyz
x,y,z
-x,-y,-z
loop_
_atom_site_type_symbol
_atom_site_label
_atom_site_fract_x
_atom_site_fract_y
_atom_site_fract_z
Si Si1 0.546948 0.406798 0.096782
Si Si2 0.454802 0.443524 0.634584
Si Si3 0.541822 0.318327 0.355013
Si Si4 0.708779 0.961041 0.137331
Si Si5 0.779254 0.867369 0.381745
Si Si6 0.802237 0.131962 0.403594
Si Si7 0.179586 0.760704 0.947575
Si Si8 0.747035 0.329763 0.796391
O O1 0.457769 0.480548 0.188760
O O2 0.680297 0.396090 0.240916
O O3 0.210208 0.298844 0.061207
O O4 0.734212 0.414859 0.916093
O O5 0.500000 0.500000 0.500000
O O6 0.617893 0.387555 0.540883
O O7 0.064791 0.363800 0.670979
O O8 0.687856 0.261018 0.241303
O O9 0.146565 0.232523 0.369086
O O10 0.807333 0.925665 0.258187
O O11 0.698489 0.048276 0.241883
O O12 0.377479 0.870670 0.040953
O O13 0.000000 0.000000 0.000000
O O14 0.507353 0.865549 0.522800
O O15 0.593649 0.757231 0.289242
O O16 0.097718 0.896416 0.461140
O O17 0.216515 0.712709 0.069755
#
# Coordination Sequence:
#
# PCOD9014478 Si02
#       8
#     2   2   2   2   2   2   2   2
#     4  10  23  41  69  97 141 183 242 298 362 430
#     4  10  21  41  68 100 139 182 241 296 367 433
#     4  10  22  41  66  99 139 183 241 293 362 422
#     4  11  24  47  72 106 143 191 244 302 359 435
#     4  11  27  46  75 104 152 190 244 294 372 430
#     4  12  25  48  71 107 147 194 239 303 361 441
#     4  10  23  43  65 100 138 183 240 295 360 431
#     4  10  22  42  66  98 140 186 230 298 359 435
#
# _framework density 27.648924999999998
#
# number of rings (size 3 to 8) (size 9 to 14) (size 15 to 20)
#    0.000    1.500    2.500    1.125    5.250    1.000 
#    4.500    5.625    0.000    0.000    0.000    0.000 
#    0.000    0.000    0.000    0.000    0.000    0.000 
#
# Total GULP energy -89642.406721 kJ/mol
# GULP energy per Si atom -5602.650420 kJ/mol
# Density = 2.758599 g / cm^3
# Si number density = 27.648925 Si / 1000 Ang^3
#
#
#
# Elastic Constant Matrix: (Units=GPa)
#
#
# Indices 1 2 3 4 5 6 
#
# 1 69.3458 -7.0007 35.4437 -2.9908 -7.7798 -7.5545
# 2 -7.0007 91.1429 39.0334 18.3806 -4.4944 -8.4156
# 3 35.4437 39.0334 182.4335 38.2345 -48.6195 -17.1057
# 4 -2.9908 18.3806 38.2345 66.5809 -8.7829 13.2554
# 5 -7.7798 -4.4944 -48.6195 -8.7829 41.4442 -6.4539
# 6 -7.5545 -8.4156 -17.1057 13.2554 -6.4539 40.2936
#
#
#
# Elastic Compliance Matrix: (Units=1/GPa)
#
#
# Indices 1 2 3 4 5 6 
#
# 1 0.017168 0.002881 -0.004744 0.002354 -0.001406 0.000807
# 2 0.002881 0.013160 -0.003114 -0.002449 -0.001818 0.002481
# 3 -0.004744 -0.003114 0.012921 -0.006609 0.013827 0.008334
# 4 0.002354 -0.002449 -0.006609 0.021073 -0.004757 -0.010570
# 5 -0.001406 -0.001818 0.013827 -0.004757 0.040960 0.013352
# 6 0.000807 0.002481 0.008334 -0.010570 0.013352 0.034641
#
#
# Mechanical properties :
#
#
# Convention : Reuss Voigt Hill
#
# Bulk Modulus (GPa) = 30.03525 53.09722 41.56624
# Shear Modulus (GPa) = 31.06061 48.02679 39.54370
#
# Velocity S-wave (km/s) = 3.35534 4.17228 3.78591
# Velocity P-wave (km/s) = 5.08898 6.51585 5.84611
#
# Compressibility (1/GPa) = 0.03329421
#
# Stress axis : x y z
#
# Youngs Moduli (GPa) = 58.24831 75.98763 77.39434
#
# Poissons Ratio (x) = -0.21891 0.36718
# Poissons Ratio (y) = -0.16781 0.24099
# Poissons Ratio (z) = 0.27635 0.23661
#
# Static dielectric constant tensor:
#      x y z
#    x 2.113790 -0.033100 0.036130 
#    y -0.033100 2.131880 0.002060 
#    z 0.036130 0.002060 2.208000 
# 
# From -- ./inp_files/141493.got.cif
#   From: 2010.05.17/outbox.cif.g08.bks.cpg/sg2_71_cif.got.tgz:141493.got - 2010.06.03 11:33:40.
