data_PCOD9014467
_publ_section_title
;
Structure prediction by ZEFSAII (Michael W. Deem and Ramdas Pophale) SiO2 
 PCOD9014467
Probable space group: P -1
;
_chemical_formula_sum "Si O2"
_cell_formula_units_Z 14
_cell_length_a 24.144011
_cell_length_b 14.946433
_cell_length_c 5.317158
_cell_angle_alpha 109.194385
_cell_angle_beta 83.472895
_cell_angle_gamma 159.053757
_cell_volume 531.031044
_symmetry_space_group_name_H-M "P -1"
_symmetry_group_IT_number 2
_symmetry_cell_setting 'triclinic'
loop_
_space_group_symop_operation_xyz
x,y,z
-x,-y,-z
loop_
_atom_site_type_symbol
_atom_site_label
_atom_site_fract_x
_atom_site_fract_y
_atom_site_fract_z
Si Si1 0.118781 0.432338 0.642439
Si Si2 0.406982 0.244862 0.099318
Si Si3 0.796302 0.620673 0.208993
Si Si4 0.402586 0.631441 0.425287
Si Si5 0.726511 0.772258 0.073919
Si Si6 0.741563 0.197438 0.439053
Si Si7 0.076388 0.723869 0.079018
O O1 0.190804 0.470207 0.829826
O O2 0.272969 0.735720 0.673374
O O3 0.000378 0.319527 0.745362
O O4 0.949051 0.111721 0.268931
O O5 0.626057 0.595436 0.235160
O O6 0.328344 0.211706 0.971010
O O7 0.321682 0.005295 0.832590
O O8 0.301109 0.087076 0.272640
O O9 0.660951 0.439013 0.333972
O O10 0.720106 0.521898 0.880576
O O11 0.000000 0.000000 0.500000
O O12 0.616332 0.003224 0.576008
O O13 0.368201 0.463389 0.262547
O O14 0.962493 0.552477 0.719729
O O15 0.000000 0.500000 0.000000
#
# Coordination Sequence:
#
# PCOD9014467 Si02
#       7
#     2   2   2   2   2   2   2
#     4  12  26  42  73 100 139 188 239 292 360 418
#     4  10  21  41  67  99 142 178 235 285 356 425
#     4  12  28  49  76 106 142 186 244 300 356 418
#     4  11  28  49  76 105 145 187 240 300 354 421
#     4  10  22  42  69 103 137 186 229 297 349 425
#     4  11  25  46  68 103 148 181 237 292 360 427
#     4  12  24  40  71 102 142 188 230 291 357 428
#
# _framework density 26.363807000000001
#
# number of rings (size 3 to 8) (size 9 to 14) (size 15 to 20)
#    0.000    0.857    4.286    1.714    6.000    1.714 
#    0.000    0.000    0.000    0.000    0.000    0.000 
#    0.000    0.000    0.000    0.000    0.000    0.000 
#
# Total GULP energy -78454.360050 kJ/mol
# GULP energy per Si atom -5603.882861 kJ/mol
# Density = 2.630380 g / cm^3
# Si number density = 26.363807 Si / 1000 Ang^3
#
#
#
# Elastic Constant Matrix: (Units=GPa)
#
#
# Indices 1 2 3 4 5 6 
#
# 1 139.7933 36.1338 22.7725 -4.3435 13.7159 -30.3401
# 2 36.1338 164.7350 19.0516 7.3818 -15.0478 -6.6048
# 3 22.7725 19.0516 65.8051 13.8014 10.8859 -6.7734
# 4 -4.3435 7.3818 13.8014 37.8709 5.5195 -2.7095
# 5 13.7159 -15.0478 10.8859 5.5195 44.1383 -6.7600
# 6 -30.3401 -6.6048 -6.7734 -2.7095 -6.7600 48.3895
#
#
#
# Elastic Compliance Matrix: (Units=1/GPa)
#
#
# Indices 1 2 3 4 5 6 
#
# 1 0.009540 -0.001987 -0.002409 0.003115 -0.002644 0.005178
# 2 -0.001987 0.007094 -0.001651 -0.001543 0.003622 -0.000089
# 3 -0.002409 -0.001651 0.018386 -0.006133 -0.003583 -0.000006
# 4 0.003115 -0.001543 -0.006133 0.029945 -0.003407 0.002085
# 5 -0.002644 0.003622 -0.003583 -0.003407 0.026301 0.001818
# 6 0.005178 -0.000089 -0.000006 0.002085 0.001818 0.024270
#
#
# Mechanical properties :
#
#
# Convention : Reuss Voigt Hill
#
# Bulk Modulus (GPa) = 43.61918 58.47213 51.04565
# Shear Modulus (GPa) = 36.96293 45.57144 41.26719
#
# Velocity S-wave (km/s) = 3.74844 4.16211 3.96068
# Velocity P-wave (km/s) = 5.94267 6.73235 6.34980
#
# Compressibility (1/GPa) = 0.02292569
#
# Stress axis : x y z
#
# Youngs Moduli (GPa) = 104.82673 140.97088 54.38820
#
# Poissons Ratio (x) = 0.28017 0.13101
# Poissons Ratio (y) = 0.20834 0.08978
# Poissons Ratio (z) = 0.25251 0.23270
#
# Static dielectric constant tensor:
#      x y z
#    x 2.069450 -0.028450 0.065080 
#    y -0.028450 2.046270 -0.019230 
#    z 0.065080 -0.019230 2.217400 
# 
# From -- ./inp_files/36749.got.cif
#   From: 2010.05.17/outbox.cif.g08.bks.cpg/sg2_19_cif.got.tgz:36749.got - 2010.06.03 11:33:40.
