data_PCOD9014582
_publ_section_title
;
Structure prediction by ZEFSAII (Michael W. Deem and Ramdas Pophale) SiO2 
 PCOD9014582
Probable space group: P -1
;
_chemical_formula_sum "Si O2"
_cell_formula_units_Z 16
_cell_length_a 7.810822
_cell_length_b 17.598768
_cell_length_c 9.131687
_cell_angle_alpha 44.410157
_cell_angle_beta 130.258346
_cell_angle_gamma 120.105829
_cell_volume 668.469672
_symmetry_space_group_name_H-M "P -1"
_symmetry_group_IT_number 2
_symmetry_cell_setting 'triclinic'
loop_
_space_group_symop_operation_xyz
x,y,z
-x,-y,-z
loop_
_atom_site_type_symbol
_atom_site_label
_atom_site_fract_x
_atom_site_fract_y
_atom_site_fract_z
Si Si1 0.548733 0.678695 0.647884
Si Si2 0.187971 0.649308 0.751649
Si Si3 0.923747 0.607353 0.397634
Si Si4 0.567758 0.011632 0.723720
Si Si5 0.795954 0.171030 0.853415
Si Si6 0.444377 0.530130 0.262748
Si Si7 0.209074 0.886064 0.565548
Si Si8 0.124044 0.143302 0.334803
O O1 0.391835 0.650996 0.741605
O O2 0.435564 0.768228 0.359838
O O3 0.559839 0.574608 0.698283
O O4 0.786784 0.731854 0.759096
O O5 0.166500 0.773040 0.613862
O O6 0.983258 0.594646 0.619624
O O7 0.233306 0.590908 0.009015
O O8 0.660890 0.608681 0.227200
O O9 0.000000 0.500000 0.500000
O O10 0.042839 0.726507 0.262320
O O11 0.722621 0.060913 0.873070
O O12 0.724077 0.030791 0.642158
O O13 0.351867 0.086603 0.499188
O O14 0.429540 0.894973 0.783341
O O15 0.928356 0.140634 0.111202
O O16 0.500000 0.500000 0.500000
O O17 0.992649 0.904059 0.517478
#
# Coordination Sequence:
#
# PCOD9014582 Si02
#       8
#     2   2   2   2   2   2   2   2
#     4  10  22  43  61  92 133 173 209 268 318 387
#     4  11  23  44  64  90 129 176 214 264 328 380
#     4  11  22  40  65  87 125 176 215 255 320 390
#     4  10  23  48  64  94 134 166 217 271 325 383
#     4  10  21  41  68  93 125 168 221 261 322 390
#     4  12  27  38  61  98 131 168 220 266 317 386
#     4  11  23  43  70  94 130 170 215 274 321 386
#     4  11  23  40  70  95 127 172 213 265 334 383
#
# _framework density 23.935265000000001
#
# number of rings (size 3 to 8) (size 9 to 14) (size 15 to 20)
#    0.000    1.250    6.250    1.500    5.250    1.000 
#    0.000    6.250    0.000    0.000    0.000    0.000 
#    0.000    0.000    0.000    0.000    0.000    0.000 
#
# Total GULP energy -89279.595540 kJ/mol
# GULP energy per Si atom -5579.974721 kJ/mol
# Density = 2.388079 g / cm^3
# Si number density = 23.935265 Si / 1000 Ang^3
#
#
#
# Elastic Constant Matrix: (Units=GPa)
#
#
# Indices 1 2 3 4 5 6 
#
# 1 75.9136 20.6907 12.8840 10.1885 -12.7147 -1.3949
# 2 20.6907 170.2823 27.6195 47.0192 3.7977 -2.5064
# 3 12.8840 27.6195 88.0477 32.2586 -8.0307 -3.0263
# 4 10.1885 47.0192 32.2586 39.0860 5.8752 5.3843
# 5 -12.7147 3.7977 -8.0307 5.8752 15.0998 3.0746
# 6 -1.3949 -2.5064 -3.0263 5.3843 3.0746 32.2104
#
#
#
# Elastic Compliance Matrix: (Units=1/GPa)
#
#
# Indices 1 2 3 4 5 6 
#
# 1 0.017411 -0.000377 0.002920 -0.009582 0.019894 0.000702
# 2 -0.000377 0.009472 0.002966 -0.014770 0.003996 0.003087
# 3 0.002920 0.002966 0.021946 -0.026505 0.022744 0.004679
# 4 -0.009582 -0.014770 -0.026505 0.076296 -0.045600 -0.012456
# 5 0.019894 0.003996 0.022744 -0.045600 0.111757 0.000264
# 6 0.000702 0.003087 0.004679 -0.012456 0.000264 0.033813
#
#
# Mechanical properties :
#
#
# Convention : Reuss Voigt Hill
#
# Bulk Modulus (GPa) = 16.70937 50.73690 33.72314
# Shear Modulus (GPa) = 17.88105 35.48254 26.68179
#
# Velocity S-wave (km/s) = 2.73620 3.85442 3.34241
# Velocity P-wave (km/s) = 4.12051 6.40721 5.38660
#
# Compressibility (1/GPa) = 0.05984665
#
# Stress axis : x y z
#
# Youngs Moduli (GPa) = 57.43539 105.57395 45.56662
#
# Poissons Ratio (x) = 0.03976 -0.13304
# Poissons Ratio (y) = 0.02163 -0.13515
# Poissons Ratio (z) = -0.16769 -0.31312
#
# Static dielectric constant tensor:
#      x y z
#    x 2.214840 0.314260 -0.010040 
#    y 0.314260 2.299030 0.007560 
#    z -0.010040 0.007560 1.954890 
# 
# From -- ./inp_files/216853.got.cif
#   From: 2010.05.17/outbox.cif.g08.bks.cpg/sg2_109_cif.got.tgz:216853.got - 2010.06.03 11:33:40.
