data_PCOD9014432
_publ_section_title
;
Structure prediction by ZEFSAII (Michael W. Deem and Ramdas Pophale) SiO2 
 PCOD9014432
Probable space group: P -1
;
_chemical_formula_sum "Si O2"
_cell_formula_units_Z 15
_cell_length_a 5.086621
_cell_length_b 19.200720
_cell_length_c 5.830866
_cell_angle_alpha 103.167794
_cell_angle_beta 81.653189
_cell_angle_gamma 83.596727
_cell_volume 542.420320
_symmetry_space_group_name_H-M "P -1"
_symmetry_group_IT_number 2
_symmetry_cell_setting 'triclinic'
loop_
_space_group_symop_operation_xyz
x,y,z
-x,-y,-z
loop_
_atom_site_type_symbol
_atom_site_label
_atom_site_fract_x
_atom_site_fract_y
_atom_site_fract_z
Si Si1 0.524504 0.809601 0.698385
Si Si2 0.246885 0.061431 0.104094
Si Si3 0.277739 0.720526 0.304555
Si Si4 0.223831 0.589167 0.968598
Si Si5 0.141845 0.324148 0.305402
Si Si6 0.185134 0.456691 0.637355
Si Si7 0.000000 0.000000 0.500000
Si Si8 0.924372 0.143257 0.853603
O O1 0.686376 0.875144 0.685808
O O2 0.480535 0.763452 0.445990
O O3 0.670026 0.750836 0.817303
O O4 0.253010 0.843598 0.883492
O O5 0.029495 0.024955 0.245085
O O6 0.199871 0.102983 0.898937
O O7 0.500000 0.000000 0.000000
O O8 0.109583 0.779456 0.204285
O O9 0.073228 0.697558 0.501422
O O10 0.395217 0.645770 0.104460
O O11 0.354402 0.514017 0.774853
O O12 0.030984 0.636642 0.847685
O O13 0.022363 0.565279 0.165510
O O14 0.310804 0.382053 0.445647
O O15 0.000000 0.500000 0.500000
O O16 0.847212 0.082279 0.647580
#
# Coordination Sequence:
#
# PCOD9014432 Si02
#       8
#     2   2   2   2   2   2   1   2
#     4  12  25  44  67 101 140 182 232 289 358 422
#     4  12  28  51  75 104 140 182 231 298 358 430
#     4  11  24  42  67  98 136 186 230 291 352 421
#     4   9  17  36  65  97 136 183 236 291 344 413
#     4  10  21  41  67  97 139 183 235 290 354 417
#     4   8  16  32  63 100 134 183 234 286 352 408
#     4  12  26  50  76 100 134 176 232 290 358 420
#     4  12  27  46  70 101 137 175 235 291 354 436
#
# _framework density 27.653834
#
# number of rings (size 3 to 8) (size 9 to 14) (size 15 to 20)
#    0.000    1.333    1.333    4.400    1.867    4.800 
#    2.400    0.667    0.000   32.800    0.000    0.000 
#    0.000    0.000    0.000    0.000    0.000    0.000 
#
# Total GULP energy -83810.598474 kJ/mol
# GULP energy per Si atom -5587.373232 kJ/mol
# Density = 2.759089 g / cm^3
# Si number density = 27.653834 Si / 1000 Ang^3
#
#
#
# Elastic Constant Matrix: (Units=GPa)
#
#
# Indices 1 2 3 4 5 6 
#
# 1 50.6430 18.4182 11.6826 -3.0846 7.8133 -3.3860
# 2 18.4182 185.5590 47.1749 1.3938 11.6264 8.4188
# 3 11.6826 47.1749 110.2622 -9.0566 8.3481 4.2594
# 4 -3.0846 1.3938 -9.0566 93.9300 4.1648 13.8308
# 5 7.8133 11.6264 8.3481 4.1648 31.5533 9.6776
# 6 -3.3860 8.4188 4.2594 13.8308 9.6776 45.1381
#
#
#
# Elastic Compliance Matrix: (Units=1/GPa)
#
#
# Indices 1 2 3 4 5 6 
#
# 1 0.021705 -0.001633 -0.001276 0.000399 -0.005438 0.003097
# 2 -0.001633 0.006266 -0.002420 -0.000221 -0.000995 -0.000782
# 3 -0.001276 -0.002420 0.010477 0.001169 -0.001514 -0.000667
# 4 0.000399 -0.000221 0.001169 0.011301 -0.000797 -0.003331
# 5 -0.005438 -0.000995 -0.001514 -0.000797 0.036244 -0.007606
# 6 0.003097 -0.000782 -0.000667 -0.003331 -0.007606 0.025247
#
#
# Mechanical properties :
#
#
# Convention : Reuss Voigt Hill
#
# Bulk Modulus (GPa) = 35.98644 55.66839 45.82741
# Shear Modulus (GPa) = 38.12119 52.07018 45.09568
#
# Velocity S-wave (km/s) = 3.71686 4.34398 4.04260
# Velocity P-wave (km/s) = 5.60906 6.73308 6.19661
#
# Compressibility (1/GPa) = 0.02778825
#
# Stress axis : x y z
#
# Youngs Moduli (GPa) = 46.07329 159.59098 95.45167
#
# Poissons Ratio (x) = 0.26056 0.12182
# Poissons Ratio (y) = 0.07522 0.23104
# Poissons Ratio (z) = 0.05880 0.38628
#
# Static dielectric constant tensor:
#      x y z
#    x 2.234110 0.058020 0.072090 
#    y 0.058020 2.092710 0.036630 
#    z 0.072090 0.036630 2.194040 
# 
# From -- ./inp_files/8061.got.cif
#   From: 2010.05.17/outbox.cif.g08.bks.cpg/sg2_5_cif.got.tgz:8061.got - 2010.06.03 11:33:40.
