data_PCOD9014097
_publ_section_title
;
Structure prediction by ZEFSAII (Michael W. Deem and Ramdas Pophale) SiO2 
 PCOD9014097
Probable space group: P -1
;
_chemical_formula_sum "Si O2"
_cell_formula_units_Z 16
_cell_length_a 11.480375
_cell_length_b 12.192434
_cell_length_c 6.522055
_cell_angle_alpha 78.034104
_cell_angle_beta 94.781077
_cell_angle_gamma 124.771822
_cell_volume 732.910320
_symmetry_space_group_name_H-M "P -1"
_symmetry_group_IT_number 2
_symmetry_cell_setting 'triclinic'
loop_
_space_group_symop_operation_xyz
x,y,z
-x,-y,-z
loop_
_atom_site_type_symbol
_atom_site_label
_atom_site_fract_x
_atom_site_fract_y
_atom_site_fract_z
Si Si1 0.233567 0.399906 0.753990
Si Si2 0.997520 0.999609 0.757817
Si Si3 0.013880 0.640253 0.982551
Si Si4 0.453550 0.104979 0.166626
Si Si5 0.439854 0.696168 0.518574
Si Si6 0.691318 0.199814 0.824516
Si Si7 0.688434 0.802560 0.197601
Si Si8 0.965191 0.779185 0.570929
O O1 0.362939 0.553994 0.679032
O O2 0.283660 0.302960 0.857074
O O3 0.154824 0.339090 0.545932
O O4 0.124206 0.389535 0.907031
O O5 0.167538 0.083557 0.709316
O O6 0.948917 0.092909 0.624023
O O7 0.923236 0.852577 0.702612
O O8 0.000000 0.000000 0.000000
O O9 0.032122 0.717852 0.741611
O O10 0.000000 0.500000 0.000000
O O11 0.149390 0.735066 0.108547
O O12 0.490792 0.183222 0.353588
O O13 0.378997 0.944898 0.239541
O O14 0.596375 0.167657 0.027249
O O15 0.353210 0.129255 0.004052
O O16 0.326424 0.703290 0.362875
O O17 0.561060 0.722459 0.370498
#
# Coordination Sequence:
#
# PCOD9014097 Si02
#       8
#     2   2   2   2   2   2   2   2
#     4  11  25  42  62  93 130 167 215 265 316 381
#     4  10  21  41  66  97 130 160 206 262 320 384
#     4  12  25  42  66  94 130 172 216 266 318 381
#     4  10  22  41  66  90 122 166 210 266 321 372
#     4  11  23  41  64  90 126 173 215 258 315 375
#     4  10  23  42  62  93 127 160 218 268 310 377
#     4  10  23  40  62  94 126 160 209 263 316 383
#     4  10  22  39  65  93 127 168 202 256 323 375
#
# _framework density 21.830774000000002
#
# number of rings (size 3 to 8) (size 9 to 14) (size 15 to 20)
#    0.000    1.500    0.000    4.500    0.000   10.500 
#    0.000    0.000    0.000    0.000    0.000    0.000 
#    0.000    0.000    0.000    0.000    0.000    0.000 
#
# Total GULP energy -89448.280532 kJ/mol
# GULP energy per Si atom -5590.517533 kJ/mol
# Density = 2.178109 g / cm^3
# Si number density = 21.830774 Si / 1000 Ang^3
#
#
#
# Elastic Constant Matrix: (Units=GPa)
#
#
# Indices 1 2 3 4 5 6 
#
# 1 81.3021 19.6929 20.9601 -9.2943 -4.0438 -14.0333
# 2 19.6929 83.2995 21.4188 -6.5308 -12.2243 -21.6351
# 3 20.9601 21.4188 84.2599 -3.7077 -4.1636 -9.7036
# 4 -9.2943 -6.5308 -3.7077 30.3009 -10.0483 -1.5981
# 5 -4.0438 -12.2243 -4.1636 -10.0483 21.2764 4.0976
# 6 -14.0333 -21.6351 -9.7036 -1.5981 4.0976 31.5473
#
#
#
# Elastic Compliance Matrix: (Units=1/GPa)
#
#
# Indices 1 2 3 4 5 6 
#
# 1 0.014807 -0.000504 -0.002519 0.005620 0.003670 0.005274
# 2 -0.000504 0.017561 -0.002295 0.007592 0.011196 0.010044
# 3 -0.002519 -0.002295 0.013306 0.000728 0.000896 0.001319
# 4 0.005620 0.007592 0.000728 0.045321 0.025649 0.006895
# 5 0.003670 0.011196 0.000896 0.025649 0.065973 0.002317
# 6 0.005274 0.010044 0.001319 0.006895 0.002317 0.041387
#
#
# Mechanical properties :
#
#
# Convention : Reuss Voigt Hill
#
# Bulk Modulus (GPa) = 28.53976 41.44503 34.99240
# Shear Modulus (GPa) = 22.65839 29.07756 25.86798
#
# Velocity S-wave (km/s) = 3.22516 3.65355 3.44602
# Velocity P-wave (km/s) = 5.19330 6.06826 5.64775
#
# Compressibility (1/GPa) = 0.03503883
#
# Stress axis : x y z
#
# Youngs Moduli (GPa) = 67.53724 56.94478 75.15287
#
# Poissons Ratio (x) = 0.02868 0.18932
# Poissons Ratio (y) = 0.03401 0.17245
# Poissons Ratio (z) = 0.17014 0.13067
#
# Static dielectric constant tensor:
#      x y z
#    x 1.809780 -0.001670 -0.012760 
#    y -0.001670 1.765110 -0.013630 
#    z -0.012760 -0.013630 1.794240 
# 
# From -- ./inp_files/69978.got.cif
#   From: 2010.05.17/outbox.cif.g08.bks.cpg/sg2_35_cif.got.tgz:69978.got - 2010.06.03 11:33:40.
