data_PCOD9014752
_publ_section_title
;
Structure prediction by ZEFSAII (Michael W. Deem and Ramdas Pophale) SiO2 
 PCOD9014752
Probable space group: P -1
;
_chemical_formula_sum "Si O2"
_cell_formula_units_Z 11
_cell_length_a 8.096091
_cell_length_b 8.937741
_cell_length_c 7.988776
_cell_angle_alpha 60.697583
_cell_angle_beta 95.838167
_cell_angle_gamma 127.873536
_cell_volume 380.980716
_symmetry_space_group_name_H-M "P -1"
_symmetry_group_IT_number 2
_symmetry_cell_setting 'triclinic'
loop_
_space_group_symop_operation_xyz
x,y,z
-x,-y,-z
loop_
_atom_site_type_symbol
_atom_site_label
_atom_site_fract_x
_atom_site_fract_y
_atom_site_fract_z
Si Si1 0.943685 0.680987 0.267187
Si Si2 0.432753 0.275713 0.439033
Si Si3 0.000000 0.500000 0.000000
Si Si4 0.238548 0.853478 0.514615
Si Si5 0.207448 0.031610 0.877336
Si Si6 0.434115 0.596880 0.079573
O O1 0.697370 0.442532 0.361274
O O2 0.907940 0.860317 0.201836
O O3 0.112301 0.728441 0.396544
O O4 0.052255 0.762777 0.044378
O O5 0.358564 0.131724 0.677983
O O6 0.387869 0.448417 0.320828
O O7 0.262643 0.076952 0.401315
O O8 0.754739 0.410565 0.993705
O O9 0.091150 0.678599 0.742446
O O10 0.500000 0.000000 0.500000
O O11 0.365132 0.149593 0.987155
O O12 0.500000 0.500000 0.000000
#
# Coordination Sequence:
#
# PCOD9014752 Si02
#       6
#     2   2   1   2   2   2
#     4  10  22  42  67  97 138 181 230 295 356 415
#     4  11  24  44  73 101 135 187 244 292 351 430
#     4  12  26  44  72 108 148 186 234 300 360 416
#     4  12  27  46  69 106 147 189 243 296 357 436
#     4  10  21  41  69 103 136 181 244 293 350 429
#     4  11  23  45  75 108 145 191 243 294 357 434
#
# _framework density 28.872855000000001
#
# number of rings (size 3 to 8) (size 9 to 14) (size 15 to 20)
#    0.000    1.091    0.000    7.636    0.000    9.455 
#    0.000   10.000    0.000    1.091    0.000    0.000 
#    0.000    0.000    0.000    0.000    0.000    0.000 
#
# Total GULP energy -61442.235884 kJ/mol
# GULP energy per Si atom -5585.657808 kJ/mol
# Density = 2.880714 g / cm^3
# Si number density = 28.872855 Si / 1000 Ang^3
#
#
#
# Elastic Constant Matrix: (Units=GPa)
#
#
# Indices 1 2 3 4 5 6 
#
# 1 114.6733 13.9545 25.0033 12.6088 12.3833 48.8638
# 2 13.9545 189.7282 84.4089 -16.1290 12.0694 32.7562
# 3 25.0033 84.4089 247.8158 -19.9032 -21.1173 19.5012
# 4 12.6088 -16.1290 -19.9032 68.6385 -2.8211 17.2626
# 5 12.3833 12.0694 -21.1173 -2.8211 52.2566 11.4661
# 6 48.8638 32.7562 19.5012 17.2626 11.4661 54.8272
#
#
#
# Elastic Compliance Matrix: (Units=1/GPa)
#
#
# Indices 1 2 3 4 5 6 
#
# 1 0.014670 0.001958 -0.001094 0.000882 -0.001281 -0.013865
# 2 0.001958 0.007390 -0.002251 0.002075 -0.001728 -0.005651
# 3 -0.001094 -0.002251 0.005367 0.001547 0.003195 -0.000744
# 4 0.000882 0.002075 0.001547 0.017651 0.002803 -0.008720
# 5 -0.001281 -0.001728 0.003195 0.002803 0.022269 -0.004502
# 6 -0.013865 -0.005651 -0.000744 -0.008720 -0.004502 0.037924
#
#
# Mechanical properties :
#
#
# Convention : Reuss Voigt Hill
#
# Bulk Modulus (GPa) = 40.56150 88.77230 64.66690
# Shear Modulus (GPa) = 43.00550 63.73450 53.37000
#
# Velocity S-wave (km/s) = 3.86356 4.70342 4.30402
# Velocity P-wave (km/s) = 5.82938 7.76588 6.86624
#
# Compressibility (1/GPa) = 0.02465392
#
# Stress axis : x y z
#
# Youngs Moduli (GPa) = 68.16552 135.31841 186.31201
#
# Poissons Ratio (x) = -0.26497 0.20389
# Poissons Ratio (y) = -0.13348 0.41932
# Poissons Ratio (z) = 0.07460 0.30455
#
# Static dielectric constant tensor:
#      x y z
#    x 2.263670 -0.105090 -0.039540 
#    y -0.105090 2.163740 0.002470 
#    z -0.039540 0.002470 2.335360 
# 
# From -- ./inp_files/155752.got.cif
#   From: 2010.05.17/outbox.cif.g08.bks.cpg/sg2_78_cif.got.tgz:155752.got - 2010.06.03 11:33:40.
