data_PCOD9014738
_publ_section_title
;
Structure prediction by ZEFSAII (Michael W. Deem and Ramdas Pophale) SiO2 
 PCOD9014738
Probable space group: P -1
;
_chemical_formula_sum "Si O2"
_cell_formula_units_Z 13
_cell_length_a 5.275775
_cell_length_b 14.980200
_cell_length_c 15.936900
_cell_angle_alpha 26.690813
_cell_angle_beta 52.749187
_cell_angle_gamma 57.604656
_cell_volume 450.287831
_symmetry_space_group_name_H-M "P -1"
_symmetry_group_IT_number 2
_symmetry_cell_setting 'triclinic'
loop_
_space_group_symop_operation_xyz
x,y,z
-x,-y,-z
loop_
_atom_site_type_symbol
_atom_site_label
_atom_site_fract_x
_atom_site_fract_y
_atom_site_fract_z
Si Si1 0.352531 0.742631 0.924934
Si Si2 0.500000 0.500000 0.500000
Si Si3 0.931127 0.094276 0.320650
Si Si4 0.733682 0.414691 0.190767
Si Si5 0.831208 0.317945 0.432383
Si Si6 0.357761 0.819946 0.126438
Si Si7 0.266120 0.040170 0.806951
O O1 0.257636 0.779244 0.818286
O O2 0.700400 0.841970 0.790539
O O3 0.111985 0.884865 0.903844
O O4 0.408441 0.523509 0.136868
O O5 0.799490 0.384162 0.481225
O O6 0.437964 0.624337 0.323498
O O7 0.760017 0.177789 0.368433
O O8 0.935417 0.866957 0.479634
O O9 0.824846 0.458050 0.232770
O O10 0.000000 0.500000 0.000000
O O11 0.486960 0.206229 0.584616
O O12 0.972751 0.834471 0.193258
O O13 0.500000 0.000000 0.000000
O O14 0.443360 0.883087 0.963144
#
# Coordination Sequence:
#
# PCOD9014738 Si02
#       7
#     2   1   2   2   2   2   2
#     4  10  21  41  69 101 139 183 239 301 371 436
#     4  12  24  42  72 106 144 186 252 290 372 444
#     4  10  22  43  70  98 142 188 241 303 369 428
#     4  10  22  44  69 106 145 191 251 308 368 439
#     4  11  23  44  69 108 146 195 248 305 369 448
#     4  11  23  45  67  98 144 192 241 302 357 441
#     4  10  23  43  67  98 144 194 239 302 376 429
#
# _framework density 28.870425000000001
#
# number of rings (size 3 to 8) (size 9 to 14) (size 15 to 20)
#    0.000    1.538    1.538    2.769    2.154    0.615 
#    2.769   21.538    0.000    0.000    0.000    0.000 
#    0.000    0.000    0.000    0.000    0.000    0.000 
#
# Total GULP energy -72372.045639 kJ/mol
# GULP energy per Si atom -5567.080434 kJ/mol
# Density = 2.880471 g / cm^3
# Si number density = 28.870425 Si / 1000 Ang^3
#
#
#
# Elastic Constant Matrix: (Units=GPa)
#
#
# Indices 1 2 3 4 5 6 
#
# 1 109.7655 16.8850 15.1662 13.9728 25.0333 -5.1594
# 2 16.8850 130.9039 22.1058 7.0584 0.8210 16.1940
# 3 15.1662 22.1058 132.3389 7.0631 26.0907 -2.3215
# 4 13.9728 7.0584 7.0631 58.9651 4.8596 18.9526
# 5 25.0333 0.8210 26.0907 4.8596 33.0292 5.1180
# 6 -5.1594 16.1940 -2.3215 18.9526 5.1180 45.2838
#
#
#
# Elastic Compliance Matrix: (Units=1/GPa)
#
#
# Indices 1 2 3 4 5 6 
#
# 1 0.012360 -0.002168 0.001309 -0.003537 -0.010591 0.004928
# 2 -0.002168 0.008715 -0.002024 0.000766 0.003562 -0.004191
# 3 0.001309 -0.002024 0.009603 -0.001447 -0.008774 0.002963
# 4 -0.003537 0.000766 -0.001447 0.020817 0.002248 -0.009718
# 5 -0.010591 0.003562 -0.008774 0.002248 0.046224 -0.009096
# 6 0.004928 -0.004191 0.002963 -0.009718 -0.009096 0.029390
#
#
# Mechanical properties :
#
#
# Convention : Reuss Voigt Hill
#
# Bulk Modulus (GPa) = 40.13915 53.48028 46.80971
# Shear Modulus (GPa) = 35.41539 48.71238 42.06388
#
# Velocity S-wave (km/s) = 3.50623 4.11210 3.82119
# Velocity P-wave (km/s) = 5.50681 6.41173 5.97642
#
# Compressibility (1/GPa) = 0.02491333
#
# Stress axis : x y z
#
# Youngs Moduli (GPa) = 80.90362 114.73947 104.12935
#
# Poissons Ratio (x) = 0.24874 -0.13630
# Poissons Ratio (y) = 0.17539 0.21076
# Poissons Ratio (z) = -0.10590 0.23223
#
# Static dielectric constant tensor:
#      x y z
#    x 1.394890 -0.341580 0.278210 
#    y -0.341580 2.407760 0.077500 
#    z 0.278210 0.077500 2.175410 
# 
# From -- ./inp_files/483726.got.cif
#   From: 2010.05.17/outbox.cif.g08.bks.cpg/sg2_242_cif.got.tgz:483726.got - 2010.06.03 11:33:40.
