data_PCOD9014410
_publ_section_title
;
Structure prediction by ZEFSAII (Michael W. Deem and Ramdas Pophale) SiO2 
 PCOD9014410
Probable space group: P -1
;
_chemical_formula_sum "Si O2"
_cell_formula_units_Z 14
_cell_length_a 13.039330
_cell_length_b 15.823013
_cell_length_c 7.955538
_cell_angle_alpha 138.559986
_cell_angle_beta 43.201236
_cell_angle_gamma 148.688644
_cell_volume 545.553328
_symmetry_space_group_name_H-M "P -1"
_symmetry_group_IT_number 2
_symmetry_cell_setting 'triclinic'
loop_
_space_group_symop_operation_xyz
x,y,z
-x,-y,-z
loop_
_atom_site_type_symbol
_atom_site_label
_atom_site_fract_x
_atom_site_fract_y
_atom_site_fract_z
Si Si1 0.006967 0.599017 0.802685
Si Si2 0.347322 0.224871 0.749577
Si Si3 0.346577 0.973315 0.513290
Si Si4 0.353618 0.803290 0.959980
Si Si5 0.642867 0.453268 0.260648
Si Si6 0.703738 0.583851 0.702419
Si Si7 0.987141 0.160681 0.034597
O O1 0.153700 0.349562 0.208208
O O2 0.000000 0.500000 0.500000
O O3 0.086428 0.789805 0.948563
O O4 0.782753 0.493615 0.996373
O O5 0.826046 0.344845 0.172892
O O6 0.494854 0.391925 0.706071
O O7 0.436264 0.138289 0.539315
O O8 0.341800 0.292456 0.038260
O O9 0.178219 0.947620 0.786012
O O10 0.500000 0.000000 0.500000
O O11 0.262216 0.819676 0.259061
O O12 0.453536 0.733246 0.822991
O O13 0.500000 0.000000 0.000000
O O14 0.500000 0.500000 0.500000
O O15 0.794379 0.591579 0.432697
O O16 0.880698 0.890154 0.225500
#
# Coordination Sequence:
#
# PCOD9014410 Si02
#       7
#     2   2   2   2   2   2   2
#     4  12  26  49  75 106 151 205 254 305 378 451
#     4   9  21  41  72  99 139 189 238 296 369 448
#     4  12  25  42  68 102 147 191 236 296 384 438
#     4  12  28  48  71 110 156 193 250 320 381 444
#     4  12  26  45  75 112 145 197 258 311 366 460
#     4   9  20  41  71  98 134 178 251 297 353 425
#     4  10  21  41  67  97 128 191 238 292 352 438
#
# _framework density 25.662016999999999
#
# number of rings (size 3 to 8) (size 9 to 14) (size 15 to 20)
#    0.857    0.286    0.000    6.000    2.000    1.143 
#    0.000    1.429    0.000    0.000    0.000    0.000 
#    0.000    0.000    0.000    0.000    0.000    0.000 
#
# Total GULP energy -78003.365021 kJ/mol
# GULP energy per Si atom -5571.668930 kJ/mol
# Density = 2.560361 g / cm^3
# Si number density = 25.662017 Si / 1000 Ang^3
#
#
#
# Elastic Constant Matrix: (Units=GPa)
#
#
# Indices 1 2 3 4 5 6 
#
# 1 115.3127 30.6520 56.5722 6.5027 -22.8062 -9.2715
# 2 30.6520 94.5161 63.1936 3.1843 -23.0691 -15.1490
# 3 56.5722 63.1936 149.0686 3.8686 -8.5669 -15.0028
# 4 6.5027 3.1843 3.8686 41.3028 -8.9612 -15.3951
# 5 -22.8062 -23.0691 -8.5669 -8.9612 46.8768 4.8997
# 6 -9.2715 -15.1490 -15.0028 -15.3951 4.8997 34.0010
#
#
#
# Elastic Compliance Matrix: (Units=1/GPa)
#
#
# Indices 1 2 3 4 5 6 
#
# 1 0.011707 0.000380 -0.004241 -0.000123 0.005010 0.000713
# 2 0.000380 0.017501 -0.006685 0.002765 0.007570 0.005112
# 3 -0.004241 -0.006685 0.011074 -0.000172 -0.003485 0.001176
# 4 -0.000123 0.002765 -0.000172 0.030522 0.005627 0.014131
# 5 0.005010 0.007570 -0.003485 0.005627 0.027751 0.001750
# 6 0.000713 0.005112 0.001176 0.014131 0.001750 0.038548
#
#
# Mechanical properties :
#
#
# Convention : Reuss Voigt Hill
#
# Bulk Modulus (GPa) = 52.11300 73.30368 62.70834
# Shear Modulus (GPa) = 30.37820 38.33475 34.35648
#
# Velocity S-wave (km/s) = 3.44434 3.86921 3.66294
# Velocity P-wave (km/s) = 6.01411 6.97051 6.50990
#
# Compressibility (1/GPa) = 0.01918907
#
# Stress axis : x y z
#
# Youngs Moduli (GPa) = 85.42124 57.14084 90.29811
#
# Poissons Ratio (x) = -0.02172 0.38296
# Poissons Ratio (y) = -0.03247 0.60368
# Poissons Ratio (z) = 0.36228 0.38201
#
# Static dielectric constant tensor:
#      x y z
#    x 2.162120 -0.008540 0.002790 
#    y -0.008540 2.033260 -0.021930 
#    z 0.002790 -0.021930 2.210430 
# 
# From -- ./inp_files/316021.got.cif
#   From: 2010.05.17/outbox.cif.g08.bks.cpg/sg2_159_cif.got.tgz:316021.got - 2010.06.03 11:33:40.
