data_PCOD9014342
_publ_section_title
;
Structure prediction by ZEFSAII (Michael W. Deem and Ramdas Pophale) SiO2 
 PCOD9014342
Probable space group: P -1
;
_chemical_formula_sum "Si O2"
_cell_formula_units_Z 16
_cell_length_a 9.126351
_cell_length_b 12.210337
_cell_length_c 14.098296
_cell_angle_alpha 110.997642
_cell_angle_beta 75.141631
_cell_angle_gamma 46.037860
_cell_volume 696.211761
_symmetry_space_group_name_H-M "P -1"
_symmetry_group_IT_number 2
_symmetry_cell_setting 'triclinic'
loop_
_space_group_symop_operation_xyz
x,y,z
-x,-y,-z
loop_
_atom_site_type_symbol
_atom_site_label
_atom_site_fract_x
_atom_site_fract_y
_atom_site_fract_z
Si Si1 0.244006 0.256185 0.831141
Si Si2 0.323442 0.783379 0.938306
Si Si3 0.213492 0.397967 0.328098
Si Si4 0.323755 0.693626 0.294096
Si Si5 0.674906 0.047007 0.317133
Si Si6 0.897002 0.764585 0.643387
Si Si7 0.899980 0.015685 0.756990
Si Si8 0.401110 0.860640 0.434766
O O1 0.389791 0.213944 0.699255
O O2 0.126999 0.203649 0.811428
O O3 0.538898 0.041311 0.783762
O O4 0.000000 0.500000 0.000000
O O5 0.581616 0.689334 0.816025
O O6 0.457539 0.561058 0.846940
O O7 0.276990 0.862110 0.076288
O O8 0.000000 0.000000 0.000000
O O9 0.445006 0.215859 0.320785
O O10 0.065703 0.368325 0.330840
O O11 0.997492 0.642605 0.487252
O O12 0.290965 0.808524 0.247930
O O13 0.449434 0.688226 0.357854
O O14 0.976436 0.880488 0.431867
O O15 0.531006 0.132679 0.471678
O O16 0.854677 0.046594 0.291190
O O17 0.048506 0.787811 0.645040
#
# Coordination Sequence:
#
# PCOD9014342 Si02
#       8
#     2   2   2   2   2   2   2   2
#     4  11  23  40  65  96 137 169 212 280 332 385
#     4  12  25  40  65  99 139 175 211 274 339 393
#     4  10  23  45  66  93 136 175 219 270 324 404
#     4  10  23  40  69  99 131 171 224 275 323 390
#     4  10  23  40  65 100 130 175 220 268 325 392
#     4  10  23  44  68  91 130 177 220 269 327 392
#     4  11  23  43  68 102 131 171 224 275 330 389
#     4  10  21  41  67  95 124 177 222 268 325 389
#
# _framework density 22.981511999999999
#
# number of rings (size 3 to 8) (size 9 to 14) (size 15 to 20)
#    0.000    1.500    2.500    1.500    5.250    4.000 
#    0.000    3.750    0.000    0.000    0.000    0.000 
#    0.000    0.000    0.000    0.000    0.000    0.000 
#
# Total GULP energy -89380.358350 kJ/mol
# GULP energy per Si atom -5586.272397 kJ/mol
# Density = 2.292920 g / cm^3
# Si number density = 22.981512 Si / 1000 Ang^3
#
#
#
# Elastic Constant Matrix: (Units=GPa)
#
#
# Indices 1 2 3 4 5 6 
#
# 1 111.7482 40.0149 41.5462 5.9905 19.4406 44.6718
# 2 40.0149 82.7169 65.9902 5.5902 13.7859 29.0960
# 3 41.5462 65.9902 156.3721 -0.7004 13.5965 26.1715
# 4 5.9905 5.5902 -0.7004 40.9351 5.9394 2.5548
# 5 19.4406 13.7859 13.5965 5.9394 37.6892 0.9011
# 6 44.6718 29.0960 26.1715 2.5548 0.9011 39.9258
#
#
#
# Elastic Compliance Matrix: (Units=1/GPa)
#
#
# Indices 1 2 3 4 5 6 
#
# 1 0.019060 0.000376 -0.000961 -0.000243 -0.009088 -0.020749
# 2 0.000376 0.023067 -0.007332 -0.001784 -0.005414 -0.012188
# 3 -0.000961 -0.007332 0.009817 0.001400 -0.000583 -0.000094
# 4 -0.000243 -0.001784 0.001400 0.025324 -0.003696 -0.000882
# 5 -0.009088 -0.005414 -0.000583 -0.003696 0.033659 0.013972
# 6 -0.020749 -0.012188 -0.000094 -0.000882 0.013972 0.056946
#
#
# Mechanical properties :
#
#
# Convention : Reuss Voigt Hill
#
# Bulk Modulus (GPa) = 27.69327 71.77110 49.73219
# Shear Modulus (GPa) = 25.54387 37.26243 31.40315
#
# Velocity S-wave (km/s) = 3.33753 4.03104 3.70057
# Velocity P-wave (km/s) = 5.18927 7.27760 6.32028
#
# Compressibility (1/GPa) = 0.03610986
#
# Stress axis : x y z
#
# Youngs Moduli (GPa) = 52.46663 43.35265 101.86608
#
# Poissons Ratio (x) = -0.01628 0.09787
# Poissons Ratio (y) = -0.01971 0.74683
# Poissons Ratio (z) = 0.05041 0.31784
#
# Static dielectric constant tensor:
#      x y z
#    x 1.986800 -0.000130 -0.014610 
#    y -0.000130 1.886110 -0.008660 
#    z -0.014610 -0.008660 1.859830 
# 
# From -- ./inp_files/500698.got.cif
#   From: 2010.05.17/outbox.cif.g08.bks.cpg/sg2_251_cif.got.tgz:500698.got - 2010.06.03 11:33:40.
