data_PCOD9014922
_publ_section_title
;
Structure prediction by ZEFSAII (Michael W. Deem and Ramdas Pophale) SiO2 
 PCOD9014922
Probable space group: P -1
;
_chemical_formula_sum "Si O2"
_cell_formula_units_Z 16
_cell_length_a 8.701361
_cell_length_b 12.221602
_cell_length_c 24.282007
_cell_angle_alpha 26.545606
_cell_angle_beta 37.926220
_cell_angle_gamma 35.801643
_cell_volume 655.030073
_symmetry_space_group_name_H-M "P -1"
_symmetry_group_IT_number 2
_symmetry_cell_setting 'triclinic'
loop_
_space_group_symop_operation_xyz
x,y,z
-x,-y,-z
loop_
_atom_site_type_symbol
_atom_site_label
_atom_site_fract_x
_atom_site_fract_y
_atom_site_fract_z
Si Si1 0.680139 0.597905 0.982283
Si Si2 0.765056 0.149419 0.245300
Si Si3 0.199321 0.106349 0.429318
Si Si4 0.187701 0.308245 0.707318
Si Si5 0.431753 0.184023 0.804664
Si Si6 0.616455 0.305344 0.339992
Si Si7 0.893034 0.218709 0.997957
Si Si8 0.986026 0.405822 0.608271
O O1 0.736202 0.407430 0.103791
O O2 0.882044 0.434640 0.950435
O O3 0.383066 0.649466 0.017876
O O4 0.657619 0.887559 0.876015
O O5 0.502979 0.072675 0.342021
O O6 0.759073 0.218573 0.280164
O O7 0.002753 0.888831 0.272474
O O8 0.047013 0.422895 0.327877
O O9 0.249250 0.935352 0.548003
O O10 0.000000 0.000000 0.500000
O O11 0.420003 0.259395 0.709153
O O12 0.207151 0.373008 0.608346
O O13 0.116136 0.045808 0.851224
O O14 0.410178 0.428733 0.739091
O O15 0.152511 0.152971 0.915780
O O16 0.296964 0.385796 0.383111
O O17 0.000000 0.500000 0.500000
#
# Coordination Sequence:
#
# PCOD9014922 Si02
#       8
#     2   2   2   2   2   2   2   2
#     4  10  22  40  70 101 131 178 226 278 337 405
#     4  12  24  45  72  96 137 186 222 274 348 403
#     4  12  23  43  72 101 129 172 232 283 335 397
#     4  11  21  44  72  98 133 175 228 283 333 404
#     4  11  24  43  67 104 138 176 227 281 335 394
#     4  12  27  44  67 100 143 182 223 279 335 415
#     4  10  21  41  70 101 137 170 227 286 335 396
#     4  12  25  45  69  98 136 182 227 271 343 411
#
# _framework density 24.426359999999999
#
# number of rings (size 3 to 8) (size 9 to 14) (size 15 to 20)
#    0.000    0.750    5.000    4.125    0.000    1.500 
#    0.000    5.000    0.000    0.000    0.000    0.000 
#    0.000    0.000    0.000    0.000    0.000    0.000 
#
# Total GULP energy -89363.170927 kJ/mol
# GULP energy per Si atom -5585.198183 kJ/mol
# Density = 2.437076 g / cm^3
# Si number density = 24.426360 Si / 1000 Ang^3
#
#
#
# Elastic Constant Matrix: (Units=GPa)
#
#
# Indices 1 2 3 4 5 6 
#
# 1 107.3628 29.9357 64.3684 -8.6051 6.7173 23.4965
# 2 29.9357 115.4018 35.9865 -23.3973 11.2020 20.0997
# 3 64.3684 35.9865 106.9650 -25.9068 37.2821 -2.5656
# 4 -8.6051 -23.3973 -25.9068 42.0464 3.7205 -0.1069
# 5 6.7173 11.2020 37.2821 3.7205 58.2755 -4.4858
# 6 23.4965 20.0997 -2.5656 -0.1069 -4.4858 29.7359
#
#
#
# Elastic Compliance Matrix: (Units=1/GPa)
#
#
# Indices 1 2 3 4 5 6 
#
# 1 0.025110 0.001236 -0.021279 -0.008168 0.009377 -0.021127
# 2 0.001236 0.012268 -0.003375 0.005101 -0.001418 -0.009756
# 3 -0.021279 -0.003375 0.034110 0.016450 -0.018282 0.019340
# 4 -0.008168 0.005101 0.016450 0.036214 -0.012672 0.002644
# 5 0.009377 -0.001418 -0.018282 -0.012672 0.028567 -0.003765
# 6 -0.021127 -0.009756 0.019340 0.002644 -0.003765 0.058028
#
#
# Mechanical properties :
#
#
# Convention : Reuss Voigt Hill
#
# Bulk Modulus (GPa) = 40.56860 65.59008 53.07934
# Shear Modulus (GPa) = 20.05198 39.30749 29.67974
#
# Velocity S-wave (km/s) = 2.86827 4.01587 3.48957
# Velocity P-wave (km/s) = 5.25489 6.95797 6.16552
#
# Compressibility (1/GPa) = 0.02464960
#
# Stress axis : x y z
#
# Youngs Moduli (GPa) = 39.82489 81.51012 29.31696
#
# Poissons Ratio (x) = -0.10071 0.62385
# Poissons Ratio (y) = -0.04921 0.09896
# Poissons Ratio (z) = 0.84745 0.27513
#
# Static dielectric constant tensor:
#      x y z
#    x 2.927140 -0.331090 -0.159200 
#    y -0.331090 2.072290 0.059960 
#    z -0.159200 0.059960 1.935000 
# 
# From -- ./inp_files/607453.got.cif
#   From: 2010.05.17/outbox.cif.g08.bks.cpg/sg2_304_cif.got.tgz:607453.got - 2010.06.03 11:33:40.
