data_PCOD9014483
_publ_section_title
;
Structure prediction by ZEFSAII (Michael W. Deem and Ramdas Pophale) SiO2 
 PCOD9014483
Probable space group: P -1
;
_chemical_formula_sum "Si O2"
_cell_formula_units_Z 12
_cell_length_a 10.926261
_cell_length_b 16.815585
_cell_length_c 10.042869
_cell_angle_alpha 30.363927
_cell_angle_beta 142.716571
_cell_angle_gamma 151.528798
_cell_volume 439.325198
_symmetry_space_group_name_H-M "P -1"
_symmetry_group_IT_number 2
_symmetry_cell_setting 'triclinic'
loop_
_space_group_symop_operation_xyz
x,y,z
-x,-y,-z
loop_
_atom_site_type_symbol
_atom_site_label
_atom_site_fract_x
_atom_site_fract_y
_atom_site_fract_z
Si Si1 0.439995 0.492079 0.772680
Si Si2 0.258428 0.535530 0.123164
Si Si3 0.682777 0.953762 0.285590
Si Si4 0.961037 0.800574 0.383090
Si Si5 0.458235 0.956369 0.711546
Si Si6 0.982239 0.153680 0.996573
O O1 0.661249 0.476080 0.939345
O O2 0.542293 0.718039 0.516923
O O3 0.210628 0.347760 0.672716
O O4 0.262864 0.372367 0.921362
O O5 0.217709 0.354788 0.427511
O O6 0.462278 0.769253 0.004320
O O7 0.000000 0.500000 0.000000
O O8 0.723606 0.042443 0.339681
O O9 0.500000 0.000000 0.000000
O O10 0.911183 0.068009 0.209642
O O11 0.261767 0.883535 0.520712
O O12 0.001175 0.004355 0.142412
O O13 0.748704 0.141717 0.744646
#
# Coordination Sequence:
#
# PCOD9014483 Si02
#       6
#     2   2   2   2   2   2
#     4  12  23  42  74  98 132 179 227 276 331 401
#     4  10  21  41  68 101 129 174 229 276 330 398
#     4  10  23  44  69  96 139 180 218 275 338 398
#     4  11  21  40  70  96 133 175 218 280 331 389
#     4  10  23  41  67 102 135 177 222 274 339 396
#     4  11  23  42  69 100 135 173 230 271 334 397
#
# _framework density 27.314617999999999
#
# number of rings (size 3 to 8) (size 9 to 14) (size 15 to 20)
#    0.000    1.333    3.333    3.000    0.000    4.000 
#    3.000    0.833    0.000    0.000    0.000    0.000 
#    0.000    0.000    0.000    0.000    0.000    0.000 
#
# Total GULP energy -67013.309696 kJ/mol
# GULP energy per Si atom -5584.442475 kJ/mol
# Density = 2.725245 g / cm^3
# Si number density = 27.314618 Si / 1000 Ang^3
#
#
#
# Elastic Constant Matrix: (Units=GPa)
#
#
# Indices 1 2 3 4 5 6 
#
# 1 126.3317 16.8796 48.5886 -39.4272 13.5386 16.2421
# 2 16.8796 141.3471 41.8692 -13.4817 15.4530 23.2936
# 3 48.5886 41.8692 104.8365 -29.2008 23.2556 16.3988
# 4 -39.4272 -13.4817 -29.2008 55.0731 5.0075 2.7633
# 5 13.5386 15.4530 23.2556 5.0075 36.8974 -8.0640
# 6 16.2421 23.2936 16.3988 2.7633 -8.0640 56.4133
#
#
#
# Elastic Compliance Matrix: (Units=1/GPa)
#
#
# Indices 1 2 3 4 5 6 
#
# 1 0.012654 0.001433 -0.001473 0.009505 -0.006749 -0.005237
# 2 0.001433 0.008909 -0.001715 0.002929 -0.004531 -0.004384
# 3 -0.001473 -0.001715 0.016965 0.008905 -0.011941 -0.005942
# 4 0.009505 0.002929 0.008905 0.032480 -0.017043 -0.010562
# 5 -0.006749 -0.004531 -0.011941 -0.017043 0.044480 0.014478
# 6 -0.005237 -0.004384 -0.005942 -0.010562 0.014478 0.025358
#
#
# Mechanical properties :
#
#
# Convention : Reuss Voigt Hill
#
# Bulk Modulus (GPa) = 28.55790 65.24332 46.90061
# Shear Modulus (GPa) = 32.04511 47.35529 39.70020
#
# Velocity S-wave (km/s) = 3.42890 4.16829 3.81654
# Velocity P-wave (km/s) = 5.11413 6.86323 6.05220
#
# Compressibility (1/GPa) = 0.03501658
#
# Stress axis : x y z
#
# Youngs Moduli (GPa) = 79.02736 112.24640 58.94478
#
# Poissons Ratio (x) = -0.16082 0.08683
# Poissons Ratio (y) = -0.11322 0.10111
# Poissons Ratio (z) = 0.11641 0.19254
#
# Static dielectric constant tensor:
#      x y z
#    x 2.348280 0.033930 -0.186420 
#    y 0.033930 2.215400 0.202750 
#    z -0.186420 0.202750 2.366260 
# 
# From -- ./inp_files/437207.got.cif
#   From: 2010.05.17/outbox.cif.g08.bks.cpg/sg2_219_cif.got.tgz:437207.got - 2010.06.03 11:33:40.
