data_PCOD9014763
_publ_section_title
;
Structure prediction by ZEFSAII (Michael W. Deem and Ramdas Pophale) SiO2 
 PCOD9014763
Probable space group: P -1
;
_chemical_formula_sum "Si O2"
_cell_formula_units_Z 16
_cell_length_a 12.728420
_cell_length_b 20.709436
_cell_length_c 7.394040
_cell_angle_alpha 137.868499
_cell_angle_beta 70.038878
_cell_angle_gamma 143.428386
_cell_volume 601.174494
_symmetry_space_group_name_H-M "P -1"
_symmetry_group_IT_number 2
_symmetry_cell_setting 'triclinic'
loop_
_space_group_symop_operation_xyz
x,y,z
-x,-y,-z
loop_
_atom_site_type_symbol
_atom_site_label
_atom_site_fract_x
_atom_site_fract_y
_atom_site_fract_z
Si Si1 0.653184 0.062769 0.895924
Si Si2 0.315330 0.676366 0.049702
Si Si3 0.242896 0.989055 0.687382
Si Si4 0.803041 0.920096 0.777523
Si Si5 0.987830 0.827702 0.127671
Si Si6 0.341222 0.557744 0.099065
Si Si7 0.538364 0.554123 0.376134
Si Si8 0.091218 0.673416 0.016022
O O1 0.867339 0.153031 0.002391
O O2 0.772104 0.232173 0.053224
O O3 0.477459 0.866833 0.473337
O O4 0.500000 0.000000 0.000000
O O5 0.104669 0.581643 0.913011
O O6 0.492722 0.781713 0.006923
O O7 0.262767 0.547154 0.934952
O O8 0.111193 0.929867 0.463530
O O9 0.225050 0.859964 0.430364
O O10 0.135878 0.951664 0.850538
O O11 0.721234 0.771167 0.648078
O O12 0.986391 0.064300 0.806033
O O13 0.577295 0.772245 0.485992
O O14 0.720439 0.610750 0.867041
O O15 0.390918 0.486375 0.864670
O O16 0.150164 0.457230 0.134418
O O17 0.500000 0.500000 0.500000
#
# Coordination Sequence:
#
# PCOD9014763 Si02
#       8
#     2   2   2   2   2   2   2   2
#     4  10  21  41  70 104 144 184 247 297 358 440
#     4  10  21  41  69 104 144 187 237 304 361 438
#     4  10  22  46  73 109 145 185 253 297 361 453
#     4  12  25  48  80 101 150 198 243 303 380 424
#     4  10  25  51  75 109 149 193 247 305 368 441
#     4  12  25  49  66 108 151 185 250 307 358 447
#     4  12  30  51  73 111 150 190 252 312 360 445
#     4  10  23  41  73 104 147 194 234 303 374 427
#
# _framework density 26.614568999999999
#
# number of rings (size 3 to 8) (size 9 to 14) (size 15 to 20)
#    0.000    1.500    2.500    4.500    5.250    1.000 
#    4.500    5.000    0.000    0.000    0.000    0.000 
#    0.000    0.000    0.000    0.000    0.000    0.000 
#
# Total GULP energy -89492.123227 kJ/mol
# GULP energy per Si atom -5593.257702 kJ/mol
# Density = 2.655399 g / cm^3
# Si number density = 26.614569 Si / 1000 Ang^3
#
#
#
# Elastic Constant Matrix: (Units=GPa)
#
#
# Indices 1 2 3 4 5 6 
#
# 1 149.0846 19.8412 14.9718 -9.5849 14.8130 -5.5496
# 2 19.8412 92.1430 18.7899 -8.7793 -2.7676 0.5673
# 3 14.9718 18.7899 45.0687 -3.7318 7.5655 10.6127
# 4 -9.5849 -8.7793 -3.7318 42.0320 -2.1295 3.7435
# 5 14.8130 -2.7676 7.5655 -2.1295 21.1136 4.3042
# 6 -5.5496 0.5673 10.6127 3.7435 4.3042 54.9005
#
#
#
# Elastic Compliance Matrix: (Units=1/GPa)
#
#
# Indices 1 2 3 4 5 6 
#
# 1 0.007672 -0.001466 -0.001299 0.000935 -0.005299 0.001393
# 2 -0.001466 0.012621 -0.005474 0.002035 0.004795 0.000265
# 3 -0.001299 -0.005474 0.027558 0.000999 -0.008603 -0.004795
# 4 0.000935 0.002035 0.000999 0.024804 0.002158 -0.001980
# 5 -0.005299 0.004795 -0.008603 0.002158 0.055710 -0.003437
# 6 0.001393 0.000265 -0.004795 -0.001980 -0.003437 0.019684
#
#
# Mechanical properties :
#
#
# Convention : Reuss Voigt Hill
#
# Bulk Modulus (GPa) = 31.87327 43.72244 37.79785
# Shear Modulus (GPa) = 28.57424 39.12212 33.84818
#
# Velocity S-wave (km/s) = 3.28019 3.83815 3.57009
# Velocity P-wave (km/s) = 5.13303 6.00879 5.58809
#
# Compressibility (1/GPa) = 0.03137425
#
# Stress axis : x y z
#
# Youngs Moduli (GPa) = 130.35145 79.23398 36.28725
#
# Poissons Ratio (x) = 0.11614 0.04712
# Poissons Ratio (y) = 0.19106 0.19863
# Poissons Ratio (z) = 0.16927 0.43371
#
# Static dielectric constant tensor:
#      x y z
#    x 2.141980 -0.063050 0.005570 
#    y -0.063050 2.158520 0.049420 
#    z 0.005570 0.049420 2.109680 
# 
# From -- ./inp_files/283234.got.cif
#   From: 2010.05.17/outbox.cif.g08.bks.cpg/sg2_142_cif.got.tgz:283234.got - 2010.06.03 11:33:40.
