data_PCOD9014412
_publ_section_title
;
Structure prediction by ZEFSAII (Michael W. Deem and Ramdas Pophale) SiO2 
 PCOD9014412
Probable space group: P -1
;
_chemical_formula_sum "Si O2"
_cell_formula_units_Z 14
_cell_length_a 12.543516
_cell_length_b 11.781413
_cell_length_c 6.198580
_cell_angle_alpha 60.951919
_cell_angle_beta 63.481401
_cell_angle_gamma 49.561668
_cell_volume 597.463852
_symmetry_space_group_name_H-M "P -1"
_symmetry_group_IT_number 2
_symmetry_cell_setting 'triclinic'
loop_
_space_group_symop_operation_xyz
x,y,z
-x,-y,-z
loop_
_atom_site_type_symbol
_atom_site_label
_atom_site_fract_x
_atom_site_fract_y
_atom_site_fract_z
Si Si1 0.490171 0.613815 0.086410
Si Si2 0.273956 0.170954 0.350954
Si Si3 0.690689 0.613273 0.204381
Si Si4 0.773014 0.184522 0.557592
Si Si5 0.056359 0.174556 0.236915
Si Si6 0.110316 0.379673 0.685036
Si Si7 0.566046 0.182318 0.428001
O O1 0.636181 0.534978 0.164104
O O2 0.352208 0.684978 0.297426
O O3 0.500000 0.500000 0.000000
O O4 0.466564 0.760451 0.839106
O O5 0.131337 0.186250 0.373210
O O6 0.241232 0.249767 0.540790
O O7 0.394989 0.990277 0.418691
O O8 0.305924 0.261087 0.063603
O O9 0.835823 0.539523 0.277070
O O10 0.564306 0.699204 0.411818
O O11 0.699838 0.183860 0.400258
O O12 0.902178 0.205888 0.389292
O O13 0.841809 0.009054 0.752864
O O14 0.055034 0.290682 0.955387
O O15 0.000000 0.500000 0.500000
#
# Coordination Sequence:
#
# PCOD9014412 Si02
#       7
#     2   2   2   2   2   2   2
#     4  11  24  43  63  98 133 173 217 267 331 393
#     4  10  21  41  67  97 129 169 220 270 325 386
#     4  10  23  42  66  94 129 170 218 272 321 384
#     4   9  20  41  68  98 130 170 221 274 323 386
#     4   9  20  41  68  98 130 170 221 274 323 386
#     4  11  24  43  63  98 133 173 217 267 331 393
#     4  10  21  41  67  97 129 169 220 270 325 386
#
# _framework density 23.432379999999998
#
# number of rings (size 3 to 8) (size 9 to 14) (size 15 to 20)
#    0.000    2.000    0.000    2.143    0.000   10.286 
#   15.429    4.286    0.000    0.000    0.000    0.000 
#    0.000    0.000    0.000    0.000    0.000    0.000 
#
# Total GULP energy -78358.742973 kJ/mol
# GULP energy per Si atom -5597.053069 kJ/mol
# Density = 2.337905 g / cm^3
# Si number density = 23.432380 Si / 1000 Ang^3
#
#
#
# Elastic Constant Matrix: (Units=GPa)
#
#
# Indices 1 2 3 4 5 6 
#
# 1 186.8934 39.6007 52.7128 -15.8260 16.9512 -2.1119
# 2 39.6007 80.4135 23.6787 -15.5533 13.0789 4.4540
# 3 52.7128 23.6787 100.4322 -6.7332 7.4628 -1.9386
# 4 -15.8260 -15.5533 -6.7332 19.8689 -2.9294 2.1163
# 5 16.9512 13.0789 7.4628 -2.9294 39.2141 3.2623
# 6 -2.1119 4.4540 -1.9386 2.1163 3.2623 25.7861
#
#
#
# Elastic Compliance Matrix: (Units=1/GPa)
#
#
# Indices 1 2 3 4 5 6 
#
# 1 0.006946 -0.001777 -0.002898 0.002841 -0.001700 0.000640
# 2 -0.001777 0.016787 -0.002119 0.010912 -0.003306 -0.003682
# 3 -0.002898 -0.002119 0.012025 -0.000071 -0.000425 0.001092
# 4 0.002841 0.010912 -0.000071 0.061882 0.000333 -0.006778
# 5 -0.001700 -0.003306 -0.000425 0.000333 0.027705 -0.003132
# 6 0.000640 -0.003682 0.001092 -0.006778 -0.003132 0.040504
#
#
# Mechanical properties :
#
#
# Convention : Reuss Voigt Hill
#
# Bulk Modulus (GPa) = 45.10357 66.63597 55.86977
# Shear Modulus (GPa) = 26.76270 33.75696 30.25983
#
# Velocity S-wave (km/s) = 3.38320 3.79966 3.59746
# Velocity P-wave (km/s) = 5.87806 6.91008 6.41485
#
# Compressibility (1/GPa) = 0.02217119
#
# Stress axis : x y z
#
# Youngs Moduli (GPa) = 143.95775 59.56980 83.15697
#
# Poissons Ratio (x) = 0.10586 0.24098
# Poissons Ratio (y) = 0.25582 0.17621
# Poissons Ratio (z) = 0.41717 0.12623
#
# Static dielectric constant tensor:
#      x y z
#    x 1.913490 0.006380 -0.012990 
#    y 0.006380 1.941510 -0.034130 
#    z -0.012990 -0.034130 1.829680 
# 
# From -- ./inp_files/68938.got.cif
#   From: 2010.05.17/outbox.cif.g08.bks.cpg/sg2_35_cif.got.tgz:68938.got - 2010.06.03 11:33:40.
