data_PCOD9014156
_publ_section_title
;
Structure prediction by ZEFSAII (Michael W. Deem and Ramdas Pophale) SiO2 
 PCOD9014156
Probable space group: P -1
;
_chemical_formula_sum "Si O2"
_cell_formula_units_Z 16
_cell_length_a 8.149439
_cell_length_b 11.429197
_cell_length_c 14.831720
_cell_angle_alpha 84.792653
_cell_angle_beta 62.296003
_cell_angle_gamma 41.779782
_cell_volume 734.214195
_symmetry_space_group_name_H-M "P -1"
_symmetry_group_IT_number 2
_symmetry_cell_setting 'triclinic'
loop_
_space_group_symop_operation_xyz
x,y,z
-x,-y,-z
loop_
_atom_site_type_symbol
_atom_site_label
_atom_site_fract_x
_atom_site_fract_y
_atom_site_fract_z
Si Si1 0.214342 0.199493 0.335233
Si Si2 0.413066 0.006531 0.919576
Si Si3 0.612453 0.457703 0.755390
Si Si4 0.795710 0.587241 0.317137
Si Si5 0.838269 0.457569 0.027221
Si Si6 0.324740 0.629481 0.446747
Si Si7 0.695227 0.907925 0.365735
Si Si8 0.592077 0.662247 0.900200
O O1 0.326294 0.099055 0.215441
O O2 0.988745 0.424214 0.359510
O O3 0.025902 0.200934 0.443127
O O4 0.516123 0.073514 0.325109
O O5 0.374614 0.884993 0.937034
O O6 0.500000 0.000000 0.000000
O O7 0.107614 0.229062 0.953267
O O8 0.349581 0.498404 0.844041
O O9 0.614945 0.484118 0.646710
O O10 0.564628 0.590906 0.826429
O O11 0.952715 0.232715 0.700542
O O12 0.485938 0.670348 0.376768
O O13 0.718429 0.760922 0.339742
O O14 0.062167 0.456954 0.183145
O O15 0.595972 0.591700 0.997792
O O16 0.000000 0.500000 0.000000
O O17 0.500000 0.500000 0.500000
O O18 0.500000 0.000000 0.500000
#
# Coordination Sequence:
#
# PCOD9014156 Si02
#       8
#     2   2   2   2   2   2   2   2
#     4  10  22  41  68  94 133 171 223 273 327 392
#     4  11  23  42  68  97 129 176 226 267 332 401
#     4  11  24  42  71 100 135 178 224 277 345 395
#     4   9  21  40  67  91 135 173 219 269 335 385
#     4  12  24  43  72  95 138 178 221 281 335 394
#     4  10  21  41  66  99 132 174 225 274 334 401
#     4  11  22  44  64  97 137 174 219 270 331 405
#     4  10  22  44  66  99 135 177 221 278 333 397
#
# _framework density 21.792005
#
# number of rings (size 3 to 8) (size 9 to 14) (size 15 to 20)
#    0.000    1.500    2.500    2.625    3.500    1.500 
#    9.000    2.500    0.000    0.000    0.000    0.000 
#    0.000    0.000    0.000    0.000    0.000    0.000 
#
# Total GULP energy -89264.470173 kJ/mol
# GULP energy per Si atom -5579.029386 kJ/mol
# Density = 2.174241 g / cm^3
# Si number density = 21.792005 Si / 1000 Ang^3
#
#
#
# Elastic Constant Matrix: (Units=GPa)
#
#
# Indices 1 2 3 4 5 6 
#
# 1 76.3413 15.5367 32.7138 -5.6257 7.1387 -5.7197
# 2 15.5367 103.0193 14.2479 7.5297 17.2589 2.7038
# 3 32.7138 14.2479 120.9813 -9.2381 13.6567 5.8035
# 4 -5.6257 7.5297 -9.2381 27.1581 -9.2792 2.8376
# 5 7.1387 17.2589 13.6567 -9.2792 42.6836 -8.3399
# 6 -5.7197 2.7038 5.8035 2.8376 -8.3399 15.6481
#
#
#
# Elastic Compliance Matrix: (Units=1/GPa)
#
#
# Indices 1 2 3 4 5 6 
#
# 1 0.016197 -0.002537 -0.004545 0.002276 0.001961 0.008677
# 2 -0.002537 0.011744 -0.000120 -0.005491 -0.006535 -0.005399
# 3 -0.004545 -0.000120 0.010460 0.002245 -0.003581 -0.007836
# 4 0.002276 -0.005491 0.002245 0.043227 0.010238 -0.001434
# 5 0.001961 -0.006535 -0.003581 0.010238 0.032786 0.018791
# 6 0.008677 -0.005399 -0.007836 -0.001434 0.018791 0.081191
#
#
# Mechanical properties :
#
#
# Convention : Reuss Voigt Hill
#
# Bulk Modulus (GPa) = 41.66895 47.25985 44.46440
# Shear Modulus (GPa) = 22.93495 32.95418 27.94456
#
# Velocity S-wave (km/s) = 3.24766 3.89294 3.58485
# Velocity P-wave (km/s) = 5.76418 6.47615 6.13051
#
# Compressibility (1/GPa) = 0.02399868
#
# Stress axis : x y z
#
# Youngs Moduli (GPa) = 61.73838 85.15100 95.59892
#
# Poissons Ratio (x) = 0.21601 0.43449
# Poissons Ratio (y) = 0.15662 0.01145
# Poissons Ratio (z) = 0.28059 0.01020
#
# Static dielectric constant tensor:
#      x y z
#    x 1.860870 -0.028880 -0.014790 
#    y -0.028880 1.729580 -0.073630 
#    z -0.014790 -0.073630 1.800700 
# 
# From -- ./inp_files/313451.got.cif
#   From: 2010.05.17/outbox.cif.g08.bks.cpg/sg2_157_cif.got.tgz:313451.got - 2010.06.03 11:33:40.
