data_PCOD9014562
_publ_section_title
;
Structure prediction by ZEFSAII (Michael W. Deem and Ramdas Pophale) SiO2 
 PCOD9014562
Probable space group: P -1
;
_chemical_formula_sum "Si O2"
_cell_formula_units_Z 16
_cell_length_a 11.475996
_cell_length_b 14.895167
_cell_length_c 7.659126
_cell_angle_alpha 73.971835
_cell_angle_beta 122.695930
_cell_angle_gamma 139.389365
_cell_volume 695.385930
_symmetry_space_group_name_H-M "P -1"
_symmetry_group_IT_number 2
_symmetry_cell_setting 'triclinic'
loop_
_space_group_symop_operation_xyz
x,y,z
-x,-y,-z
loop_
_atom_site_type_symbol
_atom_site_label
_atom_site_fract_x
_atom_site_fract_y
_atom_site_fract_z
Si Si1 0.350006 0.645727 0.178311
Si Si2 0.290251 0.054501 0.531743
Si Si3 0.466894 0.157935 0.239868
Si Si4 0.303517 0.526394 0.711511
Si Si5 0.301323 0.870906 0.793790
Si Si6 0.580922 0.610673 0.200027
Si Si7 0.978320 0.421647 0.260802
Si Si8 0.897134 0.928349 0.146884
O O1 0.513937 0.809477 0.272110
O O2 0.494432 0.628861 0.278483
O O3 0.182473 0.553966 0.246542
O O4 0.206985 0.597899 0.917345
O O5 0.371217 0.075994 0.389177
O O6 0.207175 0.916106 0.614415
O O7 0.100120 0.031286 0.378849
O O8 0.562642 0.309492 0.279190
O O9 0.620250 0.160476 0.277341
O O10 0.283629 0.085523 0.988303
O O11 0.358444 0.464642 0.666550
O O12 0.068690 0.439262 0.514319
O O13 0.377691 0.514414 0.956984
O O14 0.123422 0.722545 0.828728
O O15 0.500000 0.000000 0.000000
O O16 0.769095 0.766436 0.172651
O O17 0.000000 0.000000 0.000000
#
# Coordination Sequence:
#
# PCOD9014562 Si02
#       8
#     2   2   2   2   2   2   2   2
#     4  11  24  42  65  94 138 167 216 265 318 387
#     4  11  22  44  64  96 131 172 212 266 320 390
#     4  10  22  44  67  94 128 171 213 266 325 379
#     4  10  21  41  68  91 129 166 218 263 317 383
#     4  12  25  42  66  96 132 167 217 270 318 388
#     4  10  22  41  65 101 127 168 217 268 318 382
#     4  11  23  44  63  97 132 171 215 263 324 378
#     4   9  20  39  68  93 130 166 215 264 318 381
#
# _framework density 23.008806
#
# number of rings (size 3 to 8) (size 9 to 14) (size 15 to 20)
#    0.000    1.500    2.500    2.625    0.000    3.000 
#    2.250    7.500    0.000    0.000    0.000    0.000 
#    0.000    0.000    0.000    0.000    0.000    0.000 
#
# Total GULP energy -89189.901759 kJ/mol
# GULP energy per Si atom -5574.368860 kJ/mol
# Density = 2.295644 g / cm^3
# Si number density = 23.008806 Si / 1000 Ang^3
#
#
#
# Elastic Constant Matrix: (Units=GPa)
#
#
# Indices 1 2 3 4 5 6 
#
# 1 80.8729 26.3557 22.2662 -2.6505 17.3826 -7.5422
# 2 26.3557 79.6239 14.7836 10.0023 9.5206 1.6154
# 3 22.2662 14.7836 125.1958 18.4646 29.6578 4.5230
# 4 -2.6505 10.0023 18.4646 33.9152 5.8947 6.8783
# 5 17.3826 9.5206 29.6578 5.8947 30.1744 -8.3603
# 6 -7.5422 1.6154 4.5230 6.8783 -8.3603 30.3300
#
#
#
# Elastic Compliance Matrix: (Units=1/GPa)
#
#
# Indices 1 2 3 4 5 6 
#
# 1 0.016060 -0.004821 -0.001373 0.004272 -0.006767 0.001621
# 2 -0.004821 0.014889 0.000183 -0.004267 -0.001687 -0.001517
# 3 -0.001373 0.000183 0.011526 -0.003640 -0.011075 -0.004297
# 4 0.004272 -0.004267 -0.003640 0.035906 -0.006821 -0.008191
# 5 -0.006767 -0.001687 -0.011075 -0.006821 0.054387 0.016597
# 6 0.001621 -0.001517 -0.004297 -0.008191 0.016597 0.040528
#
#
# Mechanical properties :
#
#
# Convention : Reuss Voigt Hill
#
# Bulk Modulus (GPa) = 32.83753 45.83371 39.33562
# Shear Modulus (GPa) = 25.57960 33.70306 29.64133
#
# Velocity S-wave (km/s) = 3.33788 3.83141 3.59313
# Velocity P-wave (km/s) = 5.39981 6.28779 5.86064
#
# Compressibility (1/GPa) = 0.03045296
#
# Stress axis : x y z
#
# Youngs Moduli (GPa) = 62.26728 67.16166 86.76349
#
# Poissons Ratio (x) = 0.32381 0.11909
# Poissons Ratio (y) = 0.30022 -0.01588
# Poissons Ratio (z) = 0.08547 -0.01229
#
# Static dielectric constant tensor:
#      x y z
#    x 1.899190 0.006660 -0.029880 
#    y 0.006660 1.877040 0.000490 
#    z -0.029880 0.000490 1.903010 
# 
# From -- ./inp_files/272708.got.cif
#   From: 2010.05.17/outbox.cif.g08.bks.cpg/sg2_137_cif.got.tgz:272708.got - 2010.06.03 11:33:40.
