data_PCOD9014792
_publ_section_title
;
Structure prediction by ZEFSAII (Michael W. Deem and Ramdas Pophale) SiO2 
 PCOD9014792
Probable space group: P -1
;
_chemical_formula_sum "Si O2"
_cell_formula_units_Z 12
_cell_length_a 8.471326
_cell_length_b 7.354570
_cell_length_c 11.772966
_cell_angle_alpha 89.999706
_cell_angle_beta 134.017486
_cell_angle_gamma 70.725135
_cell_volume 468.617378
_symmetry_space_group_name_H-M "P -1"
_symmetry_group_IT_number 2
_symmetry_cell_setting 'triclinic'
loop_
_space_group_symop_operation_xyz
x,y,z
-x,-y,-z
loop_
_atom_site_type_symbol
_atom_site_label
_atom_site_fract_x
_atom_site_fract_y
_atom_site_fract_z
Si Si1 0.666834 0.479376 0.902818
Si Si2 0.824068 0.045513 0.067982
Si Si3 0.824059 0.545519 0.756080
Si Si4 0.333169 0.020623 0.235990
Si Si5 0.151022 0.867381 0.682766
Si Si6 0.151013 0.367383 0.468252
O O1 0.732243 0.435926 0.801958
O O2 0.416214 0.685642 0.784962
O O3 0.657271 0.288882 0.960027
O O4 0.900376 0.495761 0.072458
O O5 0.818679 0.004833 0.197906
O O6 0.099634 0.004231 0.172092
O O7 0.732257 0.935918 0.930288
O O8 0.657262 0.788888 0.697234
O O9 0.818682 0.504833 0.620773
O O10 0.583794 0.814360 0.368751
O O11 0.000008 0.749996 0.652165
O O12 0.000000 0.000000 0.500000
O O13 0.000000 0.500000 0.500000
#
# Coordination Sequence:
#
# PCOD9014792 Si02
#       6
#     2   2   2   2   2   2
#     4  10  21  41  69  91 129 168 219 258 324 375
#     4  10  22  42  68  94 126 174 215 263 320 380
#     4  10  22  42  68  94 126 174 215 263 320 380
#     4  10  21  41  69  91 129 168 219 258 324 375
#     4  12  25  42  64 100 132 170 210 270 323 376
#     4  12  25  42  64 100 132 170 210 270 323 376
#
# _framework density 25.607244999999999
#
# number of rings (size 3 to 8) (size 9 to 14) (size 15 to 20)
#    0.000    1.333    3.333    3.000    4.667    0.000 
#   12.000    3.333    0.000    0.000    0.000    0.000 
#    0.000    0.000    0.000    0.000    0.000    0.000 
#
# Total GULP energy -67257.320400 kJ/mol
# GULP energy per Si atom -5604.776700 kJ/mol
# Density = 2.554896 g / cm^3
# Si number density = 25.607245 Si / 1000 Ang^3
#
#
#
# Elastic Constant Matrix: (Units=GPa)
#
#
# Indices 1 2 3 4 5 6 
#
# 1 78.2778 24.6873 67.0467 -3.6716 -26.0592 -28.1972
# 2 24.6873 112.5610 58.4532 -23.2515 -14.7491 -29.6025
# 3 67.0467 58.4532 133.3179 -22.8861 -19.2915 -46.4917
# 4 -3.6716 -23.2515 -22.8861 51.7750 -16.2562 -0.1608
# 5 -26.0592 -14.7491 -19.2915 -16.2562 58.8350 7.2380
# 6 -28.1972 -29.6025 -46.4917 -0.1608 7.2380 41.7234
#
#
#
# Elastic Compliance Matrix: (Units=1/GPa)
#
#
# Indices 1 2 3 4 5 6 
#
# 1 0.026262 0.002795 -0.010972 0.000869 0.008227 0.006081
# 2 0.002795 0.013762 -0.003061 0.006479 0.004555 0.007477
# 3 -0.010972 -0.003061 0.020295 0.007321 0.001476 0.012800
# 4 0.000869 0.006479 0.007321 0.029013 0.011006 0.011545
# 5 0.008227 0.004555 0.001476 0.011006 0.024542 0.006220
# 6 0.006081 0.007477 0.012800 0.011545 0.006220 0.046610
#
#
# Mechanical properties :
#
#
# Convention : Reuss Voigt Hill
#
# Bulk Modulus (GPa) = 26.42565 69.39234 47.90899
# Shear Modulus (GPa) = 25.56577 42.06465 33.81521
#
# Velocity S-wave (km/s) = 3.16314 4.05740 3.63786
# Velocity P-wave (km/s) = 4.86648 7.00768 6.03284
#
# Compressibility (1/GPa) = 0.03784203
#
# Stress axis : x y z
#
# Youngs Moduli (GPa) = 38.07837 72.66316 49.27338
#
# Poissons Ratio (x) = -0.20309 0.54065
# Poissons Ratio (y) = -0.10643 0.15082
# Poissons Ratio (z) = 0.41781 0.22241
#
# Static dielectric constant tensor:
#      x y z
#    x 2.031660 0.019140 -0.039700 
#    y 0.019140 2.056660 0.021250 
#    z -0.039700 0.021250 2.008490 
# 
# From -- ./inp_files/145522.got.cif
#   From: 2010.05.17/outbox.cif.g08.bks.cpg/sg2_73_cif.got.tgz:145522.got - 2010.06.03 11:33:40.
