data_PCOD9014032
_publ_section_title
;
Structure prediction by ZEFSAII (Michael W. Deem and Ramdas Pophale) SiO2 
 PCOD9014032
Probable space group: P -1
;
_chemical_formula_sum "Si O2"
_cell_formula_units_Z 16
_cell_length_a 9.016601
_cell_length_b 14.260229
_cell_length_c 10.873804
_cell_angle_alpha 115.725720
_cell_angle_beta 69.448721
_cell_angle_gamma 150.616610
_cell_volume 616.835295
_symmetry_space_group_name_H-M "P -1"
_symmetry_group_IT_number 2
_symmetry_cell_setting 'triclinic'
loop_
_space_group_symop_operation_xyz
x,y,z
-x,-y,-z
loop_
_atom_site_type_symbol
_atom_site_label
_atom_site_fract_x
_atom_site_fract_y
_atom_site_fract_z
Si Si1 0.087894 0.291021 0.774196
Si Si2 0.713609 0.622245 0.888971
Si Si3 0.704167 0.005851 0.949877
Si Si4 0.070464 0.138572 0.472339
Si Si5 0.279532 0.561378 0.520206
Si Si6 0.847476 0.465078 0.720996
Si Si7 0.739543 0.093456 0.383252
Si Si8 0.332759 0.764189 0.124414
O O1 0.453105 0.489991 0.789091
O O2 0.014222 0.206800 0.614123
O O3 0.975452 0.343901 0.862852
O O4 0.885279 0.108072 0.825182
O O5 0.869786 0.598150 0.816620
O O6 0.002780 0.852589 0.965925
O O7 0.500000 0.500000 0.000000
O O8 0.457789 0.797950 0.975692
O O9 0.500000 0.000000 0.000000
O O10 0.424115 0.324749 0.448058
O O11 0.881155 0.061481 0.363766
O O12 0.000000 0.000000 0.500000
O O13 0.340431 0.647189 0.417004
O O14 0.152930 0.577096 0.658318
O O15 0.012090 0.329092 0.439550
O O16 0.709637 0.339403 0.811839
O O17 0.500000 0.000000 0.500000
O O18 0.564907 0.978701 0.240866
#
# Coordination Sequence:
#
# PCOD9014032 Si02
#       8
#     2   2   2   2   2   2   2   2
#     4  10  21  41  66  94 136 173 225 272 338 396
#     4  10  21  42  69  93 126 178 220 274 338 394
#     4   9  21  41  68  92 123 174 223 267 338 389
#     4  12  25  40  66 100 140 176 228 276 331 400
#     4  11  24  40  64  94 136 183 221 271 340 395
#     4  11  22  39  67  94 134 170 226 272 326 400
#     4  12  23  40  66  97 140 179 222 273 345 404
#     4  11  22  41  66  99 132 177 223 278 331 402
#
# _framework density 25.938853999999999
#
# number of rings (size 3 to 8) (size 9 to 14) (size 15 to 20)
#    0.000    1.250    3.750    1.875    1.750    2.000 
#    0.000    8.125    2.750    0.000    0.000    0.000 
#    0.000    0.000    0.000    0.000    0.000    0.000 
#
# Total GULP energy -89364.562687 kJ/mol
# GULP energy per Si atom -5585.285168 kJ/mol
# Density = 2.587982 g / cm^3
# Si number density = 25.938854 Si / 1000 Ang^3
#
#
#
# Elastic Constant Matrix: (Units=GPa)
#
#
# Indices 1 2 3 4 5 6 
#
# 1 108.0906 56.8184 13.8192 -6.0729 15.5600 17.5402
# 2 56.8184 110.6410 19.2861 -13.7648 0.5598 14.7174
# 3 13.8192 19.2861 67.0704 -18.2357 15.1364 9.8831
# 4 -6.0729 -13.7648 -18.2357 35.9567 0.3659 6.1572
# 5 15.5600 0.5598 15.1364 0.3659 35.2655 -9.1890
# 6 17.5402 14.7174 9.8831 6.1572 -9.1890 39.9373
#
#
#
# Elastic Compliance Matrix: (Units=1/GPa)
#
#
# Indices 1 2 3 4 5 6 
#
# 1 0.015391 -0.007002 0.003004 0.002856 -0.009995 -0.007663
# 2 -0.007002 0.013513 -0.002308 0.002948 0.003584 -0.000963
# 3 0.003004 -0.002308 0.023813 0.013888 -0.014754 -0.011897
# 4 0.002856 0.002948 0.013888 0.039053 -0.011433 -0.014429
# 5 -0.009995 0.003584 -0.014754 -0.011433 0.044010 0.018609
# 6 -0.007663 -0.000963 -0.011897 -0.014429 0.018609 0.038210
#
#
# Mechanical properties :
#
#
# Convention : Reuss Voigt Hill
#
# Bulk Modulus (GPa) = 24.93529 51.73880 38.33705
# Shear Modulus (GPa) = 25.00349 35.29045 30.14697
#
# Velocity S-wave (km/s) = 3.10811 3.69253 3.41285
# Velocity P-wave (km/s) = 4.74493 6.17814 5.50835
#
# Compressibility (1/GPa) = 0.04010381
#
# Stress axis : x y z
#
# Youngs Moduli (GPa) = 64.97300 74.00107 41.99307
#
# Poissons Ratio (x) = 0.51818 -0.12614
# Poissons Ratio (y) = 0.45496 0.09694
# Poissons Ratio (z) = -0.19516 0.17083
#
# Static dielectric constant tensor:
#      x y z
#    x 2.049340 -0.016670 0.034320 
#    y -0.016670 2.056720 0.120740 
#    z 0.034320 0.120740 1.991640 
# 
# From -- ./inp_files/399114.got.cif
#   From: 2010.05.17/outbox.cif.g08.bks.cpg/sg2_200_cif.got.tgz:399114.got - 2010.06.03 11:33:40.
