data_PCOD9014703
_publ_section_title
;
Structure prediction by ZEFSAII (Michael W. Deem and Ramdas Pophale) SiO2 
 PCOD9014703
Probable space group: P -1
;
_chemical_formula_sum "Si O2"
_cell_formula_units_Z 12
_cell_length_a 8.290770
_cell_length_b 11.812569
_cell_length_c 18.206585
_cell_angle_alpha 21.740366
_cell_angle_beta 130.678542
_cell_angle_gamma 130.625264
_cell_volume 494.211120
_symmetry_space_group_name_H-M "P -1"
_symmetry_group_IT_number 2
_symmetry_cell_setting 'triclinic'
loop_
_space_group_symop_operation_xyz
x,y,z
-x,-y,-z
loop_
_atom_site_type_symbol
_atom_site_label
_atom_site_fract_x
_atom_site_fract_y
_atom_site_fract_z
Si Si1 0.567316 0.209331 0.150091
Si Si2 0.169272 0.785739 0.203983
Si Si3 0.506814 0.719477 0.225629
Si Si4 0.953185 0.724418 0.415437
Si Si5 0.364400 0.083255 0.509061
Si Si6 0.719670 0.714947 0.785874
O O1 0.355866 0.975497 0.198576
O O2 0.694325 0.041928 0.350572
O O3 0.500000 0.500000 0.000000
O O4 0.696924 0.375941 0.018396
O O5 0.293723 0.684605 0.231812
O O6 0.039823 0.479985 0.387000
O O7 0.000000 0.000000 0.000000
O O8 0.710203 0.780920 0.301535
O O9 0.524189 0.404537 0.377958
O O10 0.500000 0.000000 0.000000
O O11 0.000000 0.500000 0.500000
O O12 0.111544 0.044607 0.264256
O O13 0.220407 0.207134 0.328360
O O14 0.487729 0.825001 0.664708
#
# Coordination Sequence:
#
# PCOD9014703 Si02
#       6
#     2   2   2   2   2   2
#     4  10  21  42  68  97 140 181 227 285 351 412
#     4  12  27  44  73 101 136 188 241 289 352 413
#     4  12  25  45  70 102 143 183 237 290 345 417
#     4  12  23  45  70 105 138 181 231 290 350 415
#     4  10  21  41  68  99 140 186 225 287 345 418
#     4  10  22  40  72 101 139 182 229 280 360 415
#
# _framework density 24.281120999999999
#
# number of rings (size 3 to 8) (size 9 to 14) (size 15 to 20)
#    0.000    1.000    3.333    3.500    7.000    0.000 
#    0.000    5.833    0.000    0.000    0.000    0.000 
#    0.000    0.000    0.000    0.000    0.000    0.000 
#
# Total GULP energy -67062.012872 kJ/mol
# GULP energy per Si atom -5588.501073 kJ/mol
# Density = 2.422586 g / cm^3
# Si number density = 24.281121 Si / 1000 Ang^3
#
#
#
# Elastic Constant Matrix: (Units=GPa)
#
#
# Indices 1 2 3 4 5 6 
#
# 1 79.6014 0.8310 33.3337 11.2329 -9.9958 -4.0940
# 2 0.8310 70.0014 18.4451 -10.0995 -4.2623 -7.6869
# 3 33.3337 18.4451 162.2544 19.1884 -37.1748 -11.0938
# 4 11.2329 -10.0995 19.1884 52.3667 -5.0545 -4.2199
# 5 -9.9958 -4.2623 -37.1748 -5.0545 43.6332 1.0611
# 6 -4.0940 -7.6869 -11.0938 -4.2199 1.0611 28.2630
#
#
#
# Elastic Compliance Matrix: (Units=1/GPa)
#
#
# Indices 1 2 3 4 5 6 
#
# 1 0.014001 0.000350 -0.002418 -0.001890 0.000941 0.000856
# 2 0.000350 0.015877 -0.002007 0.004088 0.000293 0.004180
# 3 -0.002418 -0.002007 0.008761 -0.002303 0.006399 0.001958
# 4 -0.001890 0.004088 -0.002303 0.021424 0.000410 0.003117
# 5 0.000941 0.000293 0.006399 0.000410 0.028621 0.001715
# 6 0.000856 0.004180 0.001958 0.003117 0.001715 0.037813
#
#
# Mechanical properties :
#
#
# Convention : Reuss Voigt Hill
#
# Bulk Modulus (GPa) = 32.80159 46.34186 39.57173
# Shear Modulus (GPa) = 34.52812 42.13574 38.33193
#
# Velocity S-wave (km/s) = 3.77505 4.17025 3.97756
# Velocity P-wave (km/s) = 5.70437 6.50499 6.11779
#
# Compressibility (1/GPa) = 0.03048633
#
# Stress axis : x y z
#
# Youngs Moduli (GPa) = 71.42565 62.98511 114.14716
#
# Poissons Ratio (x) = -0.02203 0.27604
# Poissons Ratio (y) = -0.02498 0.22912
# Poissons Ratio (z) = 0.17273 0.12643
#
# Static dielectric constant tensor:
#      x y z
#    x 1.867130 -0.053860 0.049240 
#    y -0.053860 1.962840 0.053150 
#    z 0.049240 0.053150 1.805090 
# 
# From -- ./inp_files/150593.got.cif
#   From: 2010.05.17/outbox.cif.g08.bks.cpg/sg2_76_cif.got.tgz:150593.got - 2010.06.03 11:33:40.
