data_PCOD9014901
_publ_section_title
;
Structure prediction by ZEFSAII (Michael W. Deem and Ramdas Pophale) SiO2 
 PCOD9014901
Probable space group: P -1
;
_chemical_formula_sum "Si O2"
_cell_formula_units_Z 9
_cell_length_a 7.852244
_cell_length_b 7.724757
_cell_length_c 9.832258
_cell_angle_alpha 134.916362
_cell_angle_beta 82.238525
_cell_angle_gamma 73.085191
_cell_volume 349.326427
_symmetry_space_group_name_H-M "P -1"
_symmetry_group_IT_number 2
_symmetry_cell_setting 'triclinic'
loop_
_space_group_symop_operation_xyz
x,y,z
-x,-y,-z
loop_
_atom_site_type_symbol
_atom_site_label
_atom_site_fract_x
_atom_site_fract_y
_atom_site_fract_z
Si Si1 0.532917 0.570089 0.346556
Si Si2 0.163256 0.306266 0.490912
Si Si3 0.427252 0.952061 0.799296
Si Si4 0.913055 0.434964 0.839588
Si Si5 0.500000 0.500000 0.000000
O O1 0.743662 0.514741 0.356655
O O2 0.374806 0.860985 0.610978
O O3 0.505471 0.314511 0.255885
O O4 0.529479 0.593761 0.202160
O O5 0.375983 0.027310 0.245911
O O6 0.000000 0.500000 0.500000
O O7 0.068203 0.246378 0.597662
O O8 0.234398 0.244010 0.036227
O O9 0.746088 0.369842 0.866153
O O10 0.000000 0.500000 0.000000
#
# Coordination Sequence:
#
# PCOD9014901 Si02
#       5
#     2   2   2   2   1
#     4   9  21  44  67  98 133 171 216 282 331 387
#     4  10  21  41  69  99 131 173 224 267 337 398
#     4   9  22  46  66  96 136 170 230 273 321 408
#     4  12  25  45  67  97 137 181 220 274 335 391
#     4  12  24  42  66 100 138 168 224 276 326 398
#
# _framework density 25.763867999999999
#
# number of rings (size 3 to 8) (size 9 to 14) (size 15 to 20)
#    1.333    0.444    2.222    1.333    0.000    8.000 
#    4.000    2.222    0.000    0.000    0.000    0.000 
#    0.000    0.000    0.000    0.000    0.000    0.000 
#
# Total GULP energy -50103.255635 kJ/mol
# GULP energy per Si atom -5567.028404 kJ/mol
# Density = 2.570523 g / cm^3
# Si number density = 25.763868 Si / 1000 Ang^3
#
#
#
# Elastic Constant Matrix: (Units=GPa)
#
#
# Indices 1 2 3 4 5 6 
#
# 1 166.4249 37.1065 21.5814 -21.7075 -7.0858 -8.6509
# 2 37.1065 80.8490 42.4979 -31.3747 3.2628 -14.4932
# 3 21.5814 42.4979 137.6049 -21.5823 -15.9019 -13.7037
# 4 -21.7075 -31.3747 -21.5823 49.9904 -7.8226 9.9328
# 5 -7.0858 3.2628 -15.9019 -7.8226 51.6069 -19.4327
# 6 -8.6509 -14.4932 -13.7037 9.9328 -19.4327 52.7371
#
#
#
# Elastic Compliance Matrix: (Units=1/GPa)
#
#
# Indices 1 2 3 4 5 6 
#
# 1 0.006878 -0.002603 0.000254 0.001570 0.001735 0.000822
# 2 -0.002603 0.019549 -0.004147 0.008843 -0.000815 0.001902
# 3 0.000254 -0.004147 0.009592 0.001819 0.004557 0.002731
# 4 0.001570 0.008843 0.001819 0.027786 0.004236 -0.000512
# 5 0.001735 -0.000815 0.004557 0.004236 0.025407 0.009809
# 6 0.000822 0.001902 0.002731 -0.000512 0.009809 0.024040
#
#
# Mechanical properties :
#
#
# Convention : Reuss Voigt Hill
#
# Bulk Modulus (GPa) = 43.42900 65.25005 54.33952
# Shear Modulus (GPa) = 37.33610 49.77976 43.55793
#
# Velocity S-wave (km/s) = 3.81092 4.40040 4.11622
# Velocity P-wave (km/s) = 6.02140 7.15536 6.61273
#
# Compressibility (1/GPa) = 0.02302609
#
# Stress axis : x y z
#
# Youngs Moduli (GPa) = 145.39851 51.15394 104.25398
#
# Poissons Ratio (x) = 0.13317 -0.02648
# Poissons Ratio (y) = 0.37851 0.43233
# Poissons Ratio (z) = -0.03693 0.21213
#
# Static dielectric constant tensor:
#      x y z
#    x 2.039530 0.096860 -0.005580 
#    y 0.096860 2.269570 0.149340 
#    z -0.005580 0.149340 2.025520 
# 
# From -- ./inp_files/148457.got.cif
#   From: 2010.05.17/outbox.cif.g08.bks.cpg/sg2_75_cif.got.tgz:148457.got - 2010.06.03 11:33:40.
