data_PCOD9014629
_publ_section_title
;
Structure prediction by ZEFSAII (Michael W. Deem and Ramdas Pophale) SiO2 
 PCOD9014629
Probable space group: P -1
;
_chemical_formula_sum "Si O2"
_cell_formula_units_Z 16
_cell_length_a 21.949562
_cell_length_b 14.705473
_cell_length_c 7.617077
_cell_angle_alpha 128.352609
_cell_angle_beta 124.535702
_cell_angle_gamma 20.224933
_cell_volume 665.482849
_symmetry_space_group_name_H-M "P -1"
_symmetry_group_IT_number 2
_symmetry_cell_setting 'triclinic'
loop_
_space_group_symop_operation_xyz
x,y,z
-x,-y,-z
loop_
_atom_site_type_symbol
_atom_site_label
_atom_site_fract_x
_atom_site_fract_y
_atom_site_fract_z
Si Si1 0.454630 0.314693 0.372705
Si Si2 0.272324 0.889024 0.471066
Si Si3 0.524195 0.382958 0.064384
Si Si4 0.027353 0.590647 0.591778
Si Si5 0.169002 0.927997 0.690396
Si Si6 0.749167 0.680779 0.684219
Si Si7 0.807031 0.502988 0.940247
Si Si8 0.547818 0.762617 0.342265
O O1 0.618412 0.148764 0.352917
O O2 0.302372 0.627702 0.550939
O O3 0.355888 0.354858 0.151221
O O4 0.523598 0.159639 0.482622
O O5 0.422845 0.584477 0.300535
O O6 0.153078 0.993570 0.543386
O O7 0.156939 0.081140 0.341859
O O8 0.730869 0.101190 0.101968
O O9 0.500000 0.500000 0.000000
O O10 0.438478 0.382953 0.889248
O O11 0.099609 0.479044 0.377252
O O12 0.000000 0.500000 0.500000
O O13 0.151035 0.486506 0.802123
O O14 0.983492 0.180011 0.785610
O O15 0.773072 0.637229 0.879156
O O16 0.722013 0.587730 0.457796
O O17 0.575639 0.992243 0.700528
#
# Coordination Sequence:
#
# PCOD9014629 Si02
#       8
#     2   2   2   2   2   2   2   2
#     4  10  21  41  68  95 136 181 218 276 342 405
#     4  11  23  42  63 104 137 174 229 278 335 407
#     4  11  20  36  66  99 130 178 224 269 340 399
#     4  12  27  44  70  97 139 178 231 282 339 404
#     4  11  22  39  65 102 140 172 227 280 336 405
#     4  10  24  46  66 102 135 182 230 280 334 405
#     4  11  25  45  68  99 137 181 222 277 350 394
#     4  10  21  42  70  94 141 177 231 281 332 407
#
# _framework density 24.042691999999999
#
# number of rings (size 3 to 8) (size 9 to 14) (size 15 to 20)
#    0.000    1.250    3.750    3.375    1.750    3.500 
#    0.000   11.250    0.000    0.000    0.000    0.000 
#    0.000    0.000    0.000    0.000    0.000    0.000 
#
# Total GULP energy -89414.610934 kJ/mol
# GULP energy per Si atom -5588.413183 kJ/mol
# Density = 2.398797 g / cm^3
# Si number density = 24.042692 Si / 1000 Ang^3
#
#
#
# Elastic Constant Matrix: (Units=GPa)
#
#
# Indices 1 2 3 4 5 6 
#
# 1 84.3028 12.1025 28.4428 -4.0055 9.6734 9.9050
# 2 12.1025 75.9088 18.6589 -18.8319 -9.8231 17.3058
# 3 28.4428 18.6589 87.6005 -18.9630 12.4765 11.8549
# 4 -4.0055 -18.8319 -18.9630 27.8525 0.3252 -7.3535
# 5 9.6734 -9.8231 12.4765 0.3252 33.2995 -3.4679
# 6 9.9050 17.3058 11.8549 -7.3535 -3.4679 39.8001
#
#
#
# Elastic Compliance Matrix: (Units=1/GPa)
#
#
# Indices 1 2 3 4 5 6 
#
# 1 0.013967 -0.001780 -0.003894 -0.002408 -0.003337 -0.002278
# 2 -0.001780 0.018008 -0.001341 0.009700 0.005748 -0.004695
# 3 -0.003894 -0.001341 0.015963 0.008929 -0.005545 -0.002036
# 4 -0.002408 0.009700 0.008929 0.048924 0.000026 0.002764
# 5 -0.003337 0.005748 -0.005545 0.000026 0.035090 0.003045
# 6 -0.002278 -0.004695 -0.002036 0.002764 0.003045 0.029116
#
#
# Mechanical properties :
#
#
# Convention : Reuss Voigt Hill
#
# Bulk Modulus (GPa) = 29.49065 40.69117 35.09091
# Shear Modulus (GPa) = 26.82390 32.76428 29.79409
#
# Velocity S-wave (km/s) = 3.34380 3.69556 3.52407
# Velocity P-wave (km/s) = 5.21542 5.93050 5.58441
#
# Compressibility (1/GPa) = 0.03390905
#
# Stress axis : x y z
#
# Youngs Moduli (GPa) = 71.59552 55.53187 62.64298
#
# Poissons Ratio (x) = 0.09883 0.24391
# Poissons Ratio (y) = 0.12742 0.08403
# Poissons Ratio (z) = 0.27876 0.07449
#
# Static dielectric constant tensor:
#      x y z
#    x 1.957000 -0.027470 -0.024920 
#    y -0.027470 2.011920 0.019290 
#    z -0.024920 0.019290 1.930560 
# 
# From -- ./inp_files/354590.got.cif
#   From: 2010.05.17/outbox.cif.g08.bks.cpg/sg2_178_cif.got.tgz:354590.got - 2010.06.03 11:33:40.
