data_PCOD9014480
_publ_section_title
;
Structure prediction by ZEFSAII (Michael W. Deem and Ramdas Pophale) SiO2 
 PCOD9014480
Probable space group: P -1
;
_chemical_formula_sum "Si O2"
_cell_formula_units_Z 14
_cell_length_a 9.261782
_cell_length_b 10.457606
_cell_length_c 20.270984
_cell_angle_alpha 137.385193
_cell_angle_beta 32.456670
_cell_angle_gamma 115.241306
_cell_volume 602.540351
_symmetry_space_group_name_H-M "P -1"
_symmetry_group_IT_number 2
_symmetry_cell_setting 'triclinic'
loop_
_space_group_symop_operation_xyz
x,y,z
-x,-y,-z
loop_
_atom_site_type_symbol
_atom_site_label
_atom_site_fract_x
_atom_site_fract_y
_atom_site_fract_z
Si Si1 0.275194 0.019847 0.757961
Si Si2 0.778694 0.029326 0.754849
Si Si3 0.271016 0.553975 0.403946
Si Si4 0.160163 0.197986 0.736556
Si Si5 0.368812 0.922643 0.961936
Si Si6 0.611707 0.555305 0.410496
Si Si7 0.212285 0.327112 0.013108
O O1 0.210108 0.199335 0.795363
O O2 0.580047 0.789578 0.528014
O O3 0.269964 0.122411 0.868335
O O4 0.005955 0.959182 0.841813
O O5 0.915047 0.117300 0.790768
O O6 0.529379 0.968188 0.855257
O O7 0.571408 0.234743 0.863394
O O8 0.093709 0.790705 0.523921
O O9 0.523901 0.337935 0.183231
O O10 0.411598 0.571134 0.427176
O O11 0.000000 0.500000 0.500000
O O12 0.990754 0.439561 0.859756
O O13 0.500000 0.000000 0.500000
O O14 0.500000 0.000000 0.000000
O O15 0.500000 0.500000 0.500000
O O16 0.973996 0.375326 0.183613
#
# Coordination Sequence:
#
# PCOD9014480 Si02
#       7
#     2   2   2   2   2   2   2
#     4  12  24  45  74 103 139 186 236 285 357 415
#     4  11  24  44  70 103 142 181 228 293 355 412
#     4  10  21  41  68 100 142 183 226 284 349 423
#     4  12  24  50  75  94 139 194 240 283 347 419
#     4  11  21  41  73 106 136 182 235 289 353 419
#     4  12  25  44  71 106 143 182 231 292 352 417
#     4  12  27  45  70 106 142 185 236 294 346 421
#
# _framework density 23.234959
#
# number of rings (size 3 to 8) (size 9 to 14) (size 15 to 20)
#    0.000    0.571    5.714    2.571    4.000    1.143 
#    0.000    0.714    0.000    0.000    0.000    0.000 
#    0.000    0.000    0.000    0.000    0.000    0.000 
#
# Total GULP energy -78112.096326 kJ/mol
# GULP energy per Si atom -5579.435452 kJ/mol
# Density = 2.318208 g / cm^3
# Si number density = 23.234959 Si / 1000 Ang^3
#
#
#
# Elastic Constant Matrix: (Units=GPa)
#
#
# Indices 1 2 3 4 5 6 
#
# 1 80.1799 14.6238 75.3770 16.7010 3.7264 -3.1051
# 2 14.6238 61.8043 21.8541 11.2830 -0.7984 -14.4089
# 3 75.3770 21.8541 156.4672 27.9993 8.0765 -11.3216
# 4 16.7010 11.2830 27.9993 39.4901 -0.2613 -5.5543
# 5 3.7264 -0.7984 8.0765 -0.2613 42.3588 3.4216
# 6 -3.1051 -14.4089 -11.3216 -5.5543 3.4216 33.2714
#
#
#
# Elastic Compliance Matrix: (Units=1/GPa)
#
#
# Indices 1 2 3 4 5 6 
#
# 1 0.023271 -0.001952 -0.010781 -0.002018 0.000177 -0.002697
# 2 -0.001952 0.019163 -0.000640 -0.003160 0.000040 0.007368
# 3 -0.010781 -0.000640 0.012639 -0.003872 -0.001703 0.002546
# 4 -0.002018 -0.003160 -0.003872 0.030121 0.000875 0.002064
# 5 0.000177 0.000040 -0.001703 0.000875 0.024156 -0.002884
# 6 -0.002697 0.007368 0.002546 0.002064 -0.002884 0.034502
#
#
# Mechanical properties :
#
#
# Convention : Reuss Voigt Hill
#
# Bulk Modulus (GPa) = 35.30150 58.01793 46.65971
# Shear Modulus (GPa) = 27.77139 35.46382 31.61760
#
# Velocity S-wave (km/s) = 3.46098 3.91104 3.69287
# Velocity P-wave (km/s) = 5.58546 6.73939 6.18938
#
# Compressibility (1/GPa) = 0.02832741
#
# Stress axis : x y z
#
# Youngs Moduli (GPa) = 42.97178 52.18340 79.11802
#
# Poissons Ratio (x) = 0.10187 0.85299
# Poissons Ratio (y) = 0.08389 0.05061
# Poissons Ratio (z) = 0.46329 0.03338
#
# Static dielectric constant tensor:
#      x y z
#    x 1.844550 -0.049760 -0.044030 
#    y -0.049760 1.941330 0.052130 
#    z -0.044030 0.052130 1.925200 
# 
# From -- ./inp_files/215567.got.cif
#   From: 2010.05.17/outbox.cif.g08.bks.cpg/sg2_108_cif.got.tgz:215567.got - 2010.06.03 11:33:40.
