data_PCOD9014128
_publ_section_title
;
Structure prediction by ZEFSAII (Michael W. Deem and Ramdas Pophale) SiO2 
 PCOD9014128
Probable space group: P -1
;
_chemical_formula_sum "Si O2"
_cell_formula_units_Z 16
_cell_length_a 12.644571
_cell_length_b 10.077093
_cell_length_c 14.016558
_cell_angle_alpha 63.674037
_cell_angle_beta 136.184586
_cell_angle_gamma 82.924528
_cell_volume 775.733194
_symmetry_space_group_name_H-M "P -1"
_symmetry_group_IT_number 2
_symmetry_cell_setting 'triclinic'
loop_
_space_group_symop_operation_xyz
x,y,z
-x,-y,-z
loop_
_atom_site_type_symbol
_atom_site_label
_atom_site_fract_x
_atom_site_fract_y
_atom_site_fract_z
Si Si1 0.545212 0.892514 0.927790
Si Si2 0.984131 0.991303 0.878126
Si Si3 0.483225 0.669027 0.486681
Si Si4 0.930879 0.893013 0.442866
Si Si5 0.303396 0.336542 0.541405
Si Si6 0.034018 0.226863 0.705711
Si Si7 0.873364 0.433295 0.956177
Si Si8 0.883310 0.472556 0.166729
O O1 0.334312 0.934812 0.799240
O O2 0.413005 0.131940 0.738755
O O3 0.755114 0.806966 0.153563
O O4 0.679250 0.712168 0.991254
O O5 0.729596 0.186377 0.634872
O O6 0.094543 0.046793 0.872115
O O7 0.000000 0.000000 0.000000
O O8 0.032667 0.789820 0.945762
O O9 0.500000 0.500000 0.500000
O O10 0.509244 0.751303 0.383875
O O11 0.664697 0.588314 0.704683
O O12 0.019740 0.798468 0.425223
O O13 0.038545 0.697984 0.647307
O O14 0.000000 0.000000 0.500000
O O15 0.177103 0.543043 0.459996
O O16 0.099199 0.424423 0.316410
O O17 0.835707 0.442016 0.041739
O O18 0.000000 0.500000 0.000000
#
# Coordination Sequence:
#
# PCOD9014128 Si02
#       8
#     2   2   2   2   2   2   2   2
#     4  10  24  42  71  95 131 175 223 273 341 397
#     4  12  25  42  70 101 139 176 226 283 335 399
#     4  12  23  41  68 102 135 179 226 273 334 399
#     4  11  25  46  67  94 136 171 225 281 337 399
#     4  10  21  41  66  98 135 168 222 276 329 398
#     4  11  23  42  70  97 129 177 225 277 333 399
#     4  12  26  43  67  99 140 180 226 276 339 403
#     4  10  24  45  64  98 135 172 220 276 331 400
#
# _framework density 20.625648999999999
#
# number of rings (size 3 to 8) (size 9 to 14) (size 15 to 20)
#    0.000    1.000    3.750    1.875    3.500    9.500 
#    0.000    0.000    0.000    0.000    0.000    0.000 
#    0.000    0.000    0.000    0.000    0.000    0.000 
#
# Total GULP energy -89093.290417 kJ/mol
# GULP energy per Si atom -5568.330651 kJ/mol
# Density = 2.057870 g / cm^3
# Si number density = 20.625649 Si / 1000 Ang^3
#
#
#
# Elastic Constant Matrix: (Units=GPa)
#
#
# Indices 1 2 3 4 5 6 
#
# 1 76.1428 36.9781 22.5691 14.2025 -9.2990 -1.4951
# 2 36.9781 156.0252 39.6756 16.9081 -12.2569 -14.2210
# 3 22.5691 39.6756 68.5246 7.0485 2.8149 -9.0894
# 4 14.2025 16.9081 7.0485 38.5181 -4.3900 -5.7573
# 5 -9.2990 -12.2569 2.8149 -4.3900 35.0349 12.1576
# 6 -1.4951 -14.2210 -9.0894 -5.7573 12.1576 32.6393
#
#
#
# Elastic Compliance Matrix: (Units=1/GPa)
#
#
# Indices 1 2 3 4 5 6 
#
# 1 0.016974 -0.002388 -0.004500 -0.004445 0.004907 -0.004128
# 2 -0.002388 0.008404 -0.003785 -0.001677 0.001879 0.001503
# 3 -0.004500 -0.003785 0.019286 -0.000038 -0.006076 0.005772
# 4 -0.004445 -0.001677 -0.000038 0.028995 0.000486 0.003989
# 5 0.004907 0.001879 -0.006076 0.000486 0.035885 -0.013930
# 6 -0.004128 0.001503 0.005772 0.003989 -0.013930 0.038603
#
#
# Mechanical properties :
#
#
# Convention : Reuss Voigt Hill
#
# Bulk Modulus (GPa) = 42.88359 55.45978 49.17168
# Shear Modulus (GPa) = 28.20639 34.66980 31.43810
#
# Velocity S-wave (km/s) = 3.70204 4.10433 3.90837
# Velocity P-wave (km/s) = 6.25380 7.02907 6.65274
#
# Compressibility (1/GPa) = 0.02331895
#
# Stress axis : x y z
#
# Youngs Moduli (GPa) = 58.91429 118.99340 51.85141
#
# Poissons Ratio (x) = 0.28411 0.23333
# Poissons Ratio (y) = 0.14066 0.19625
# Poissons Ratio (z) = 0.26511 0.45036
#
# Static dielectric constant tensor:
#      x y z
#    x 2.114300 0.187800 -0.037350 
#    y 0.187800 1.791030 -0.018500 
#    z -0.037350 -0.018500 1.832970 
# 
# From -- ./inp_files/528403.got.cif
#   From: 2010.05.17/outbox.cif.g08.bks.cpg/sg2_265_cif.got.tgz:528403.got - 2010.06.03 11:33:40.
