data_PCOD9014198
_publ_section_title
;
Structure prediction by ZEFSAII (Michael W. Deem and Ramdas Pophale) SiO2 
 PCOD9014198
Probable space group: P -1
;
_chemical_formula_sum "Si O2"
_cell_formula_units_Z 13
_cell_length_a 5.396836
_cell_length_b 11.466205
_cell_length_c 9.203801
_cell_angle_alpha 64.932555
_cell_angle_beta 84.134439
_cell_angle_gamma 105.643757
_cell_volume 481.248997
_symmetry_space_group_name_H-M "P -1"
_symmetry_group_IT_number 2
_symmetry_cell_setting 'triclinic'
loop_
_space_group_symop_operation_xyz
x,y,z
-x,-y,-z
loop_
_atom_site_type_symbol
_atom_site_label
_atom_site_fract_x
_atom_site_fract_y
_atom_site_fract_z
Si Si1 0.524901 0.640001 0.092299
Si Si2 0.246610 0.175441 0.293046
Si Si3 0.317066 0.949614 0.710854
Si Si4 0.000000 0.500000 0.000000
Si Si5 0.333127 0.611155 0.692988
Si Si6 0.643997 0.243081 0.669778
Si Si7 0.189390 0.911065 0.045409
O O1 0.698048 0.542596 0.169252
O O2 0.477132 0.702452 0.214493
O O3 0.678220 0.752292 0.906970
O O4 0.253034 0.553108 0.074341
O O5 0.436612 0.085886 0.344150
O O6 0.364218 0.294698 0.341926
O O7 0.940247 0.087351 0.353228
O O8 0.436977 0.108130 0.675531
O O9 0.207997 0.858976 0.911382
O O10 0.143769 0.636619 0.812849
O O11 0.263265 0.640678 0.520376
O O12 0.866446 0.193406 0.761537
O O13 0.500000 0.000000 0.000000
O O14 0.000000 0.000000 0.000000
#
# Coordination Sequence:
#
# PCOD9014198 Si02
#       7
#     2   2   2   1   2   2   2
#     4  11  25  46  77 106 146 209 254 323 372 464
#     4  11  25  45  80 102 155 204 263 297 385 464
#     4  11  24  45  74 113 145 207 247 317 378 461
#     4  10  24  50  70 102 144 202 272 290 390 442
#     4  11  27  47  73 110 150 208 254 322 379 457
#     4  11  25  47  72 119 154 187 261 321 390 453
#     4  10  21  41  67 102 145 191 237 295 372 446
#
# _framework density 27.013044000000001
#
# number of rings (size 3 to 8) (size 9 to 14) (size 15 to 20)
#    0.000    1.231    1.538    4.154   10.769    1.846 
#   11.077    0.000    0.000    0.000    0.000    0.000 
#    0.000    0.000    0.000    0.000    0.000    0.000 
#
# Total GULP energy -72595.514344 kJ/mol
# GULP energy per Si atom -5584.270334 kJ/mol
# Density = 2.695156 g / cm^3
# Si number density = 27.013044 Si / 1000 Ang^3
#
#
#
# Elastic Constant Matrix: (Units=GPa)
#
#
# Indices 1 2 3 4 5 6 
#
# 1 171.8706 50.9117 51.1787 -15.0928 18.8759 22.8997
# 2 50.9117 88.2261 24.8698 -0.0421 -0.9210 7.5910
# 3 51.1787 24.8698 235.2764 -10.1254 31.9941 -4.4513
# 4 -15.0928 -0.0421 -10.1254 19.2117 -7.1633 -0.9687
# 5 18.8759 -0.9210 31.9941 -7.1633 39.3250 -5.1700
# 6 22.8997 7.5910 -4.4513 -0.9687 -5.1700 54.9247
#
#
#
# Elastic Compliance Matrix: (Units=1/GPa)
#
#
# Indices 1 2 3 4 5 6 
#
# 1 0.008599 -0.004481 -0.000825 0.005001 -0.003076 -0.003234
# 2 -0.004481 0.014238 -0.001038 -0.002996 0.002786 0.000026
# 3 -0.000825 -0.001038 0.005063 0.000728 -0.003539 0.000577
# 4 0.005001 -0.002996 0.000728 0.059256 0.007752 0.000163
# 5 -0.003076 0.002786 -0.003539 0.007752 0.031753 0.003736
# 6 -0.003234 0.000026 0.000577 0.000163 0.003736 0.019953
#
#
# Mechanical properties :
#
#
# Convention : Reuss Voigt Hill
#
# Bulk Modulus (GPa) = 65.73065 83.25484 74.49274
# Shear Modulus (GPa) = 31.92416 47.25315 39.58865
#
# Velocity S-wave (km/s) = 3.44147 4.18697 3.83239
# Velocity P-wave (km/s) = 6.33856 7.36623 6.87164
#
# Compressibility (1/GPa) = 0.01521360
#
# Stress axis : x y z
#
# Youngs Moduli (GPa) = 116.28982 70.23256 197.51638
#
# Poissons Ratio (x) = 0.31473 0.16286
# Poissons Ratio (y) = 0.52113 0.20495
# Poissons Ratio (z) = 0.09588 0.07287
#
# Static dielectric constant tensor:
#      x y z
#    x 1.827340 0.345530 0.231610 
#    y 0.345530 1.782250 -0.252690 
#    z 0.231610 -0.252690 2.019810 
# 
# From -- ./inp_files/132125.got.cif
#   From: 2010.05.17/outbox.cif.g08.bks.cpg/sg2_67_cif.got.tgz:132125.got - 2010.06.03 11:33:40.
