data_PCOD9014008
_publ_section_title
;
Structure prediction by ZEFSAII (Michael W. Deem and Ramdas Pophale) SiO2 
 PCOD9014008
Probable space group: P -1
;
_chemical_formula_sum "Si O2"
_cell_formula_units_Z 16
_cell_length_a 13.124751
_cell_length_b 16.600953
_cell_length_c 25.047571
_cell_angle_alpha 23.893100
_cell_angle_beta 159.931080
_cell_angle_gamma 155.591444
_cell_volume 703.786711
_symmetry_space_group_name_H-M "P -1"
_symmetry_group_IT_number 2
_symmetry_cell_setting 'triclinic'
loop_
_space_group_symop_operation_xyz
x,y,z
-x,-y,-z
loop_
_atom_site_type_symbol
_atom_site_label
_atom_site_fract_x
_atom_site_fract_y
_atom_site_fract_z
Si Si1 0.321281 0.039974 0.599703
Si Si2 0.506046 0.419780 0.807475
Si Si3 0.506043 0.156734 0.456220
Si Si4 0.197476 0.469192 0.006833
Si Si5 0.026600 0.002118 0.162979
Si Si6 0.545376 0.490899 0.657065
Si Si7 0.919583 0.931242 0.372176
Si Si8 0.404395 0.078196 0.093486
O O1 0.465657 0.285204 0.502544
O O2 0.561073 0.990998 0.787582
O O3 0.000000 0.000000 0.500000
O O4 0.163932 0.900340 0.554783
O O5 0.793301 0.488359 0.950580
O O6 0.527321 0.454207 0.733894
O O7 0.295341 0.170927 0.864433
O O8 0.356967 0.597197 0.643730
O O9 0.149062 0.091520 0.344132
O O10 0.500000 0.000000 0.500000
O O11 0.725585 0.113007 0.636021
O O12 0.159860 0.229282 0.120481
O O13 0.506416 0.666177 0.019520
O O14 0.899005 0.498909 0.813222
O O15 0.921454 0.029352 0.034770
O O16 0.286965 0.289851 0.623091
O O17 0.678734 0.025172 0.226274
#
# Coordination Sequence:
#
# PCOD9014008 Si02
#       8
#     2   2   2   2   2   2   2   2
#     4  10  21  41  66  94 125 164 212 275 312 362
#     4  11  24  40  62  92 129 170 211 255 315 381
#     4  12  23  44  63  92 131 173 210 254 310 387
#     4  11  21  39  60  95 133 159 205 262 317 372
#     4  11  24  40  65  93 129 170 207 258 320 379
#     4  12  22  37  66  99 125 167 210 263 318 376
#     4  11  23  39  65  94 126 165 215 257 313 372
#     4  10  22  43  67  96 123 166 214 270 316 364
#
# _framework density 22.734162000000001
#
# number of rings (size 3 to 8) (size 9 to 14) (size 15 to 20)
#    0.000    1.000    6.250    1.500    0.000    4.500 
#    0.000    0.625    0.000    1.500    0.000    0.000 
#    0.000    0.000    0.000    0.000    0.000    0.000 
#
# Total GULP energy -89324.657085 kJ/mol
# GULP energy per Si atom -5582.791068 kJ/mol
# Density = 2.268242 g / cm^3
# Si number density = 22.734162 Si / 1000 Ang^3
#
#
#
# Elastic Constant Matrix: (Units=GPa)
#
#
# Indices 1 2 3 4 5 6 
#
# 1 70.9942 36.9360 23.5183 -2.0847 -21.7772 -7.6782
# 2 36.9360 165.1345 42.0493 -9.1712 -23.7999 -35.8761
# 3 23.5183 42.0493 115.5659 0.6528 -37.4531 -15.5548
# 4 -2.0847 -9.1712 0.6528 39.8101 -6.4151 -2.6392
# 5 -21.7772 -23.7999 -37.4531 -6.4151 36.2170 2.4756
# 6 -7.6782 -35.8761 -15.5548 -2.6392 2.4756 25.5712
#
#
#
# Elastic Compliance Matrix: (Units=1/GPa)
#
#
# Indices 1 2 3 4 5 6 
#
# 1 0.018590 -0.002198 0.000809 0.002345 0.010837 0.002184
# 2 -0.002198 0.010652 0.000373 0.004226 0.005829 0.014383
# 3 0.000809 0.000373 0.014576 0.002986 0.015758 0.008415
# 4 0.002345 0.004226 0.002986 0.028727 0.011661 0.010285
# 5 0.010837 0.005829 0.015758 0.011661 0.055166 0.016881
# 6 0.002184 0.014383 0.008415 0.010285 0.016881 0.064487
#
#
# Mechanical properties :
#
#
# Convention : Reuss Voigt Hill
#
# Bulk Modulus (GPa) = 23.93128 61.85575 42.89351
# Shear Modulus (GPa) = 24.02014 36.93239 30.47626
#
# Velocity S-wave (km/s) = 3.25401 4.03492 3.66532
# Velocity P-wave (km/s) = 4.96664 6.99820 6.06805
#
# Compressibility (1/GPa) = 0.04178632
#
# Stress axis : x y z
#
# Youngs Moduli (GPa) = 53.79174 93.87990 68.60817
#
# Poissons Ratio (x) = 0.20631 -0.05552
# Poissons Ratio (y) = 0.11821 -0.02557
# Poissons Ratio (z) = -0.04353 -0.03499
#
# Static dielectric constant tensor:
#      x y z
#    x 1.911810 0.034100 0.006980 
#    y 0.034100 1.835740 0.025960 
#    z 0.006980 0.025960 1.886430 
# 
# From -- ./inp_files/521504.got.cif
#   From: 2010.05.17/outbox.cif.g08.bks.cpg/sg2_261_cif.got.tgz:521504.got - 2010.06.03 11:33:40.
