data_PCOD9014692
_publ_section_title
;
Structure prediction by ZEFSAII (Michael W. Deem and Ramdas Pophale) SiO2 
 PCOD9014692
Probable space group: P -1
;
_chemical_formula_sum "Si O2"
_cell_formula_units_Z 10
_cell_length_a 16.362587
_cell_length_b 10.549805
_cell_length_c 7.823238
_cell_angle_alpha 143.294888
_cell_angle_beta 45.440418
_cell_angle_gamma 147.955436
_cell_volume 427.226487
_symmetry_space_group_name_H-M "P -1"
_symmetry_group_IT_number 2
_symmetry_cell_setting 'triclinic'
loop_
_space_group_symop_operation_xyz
x,y,z
-x,-y,-z
loop_
_atom_site_type_symbol
_atom_site_label
_atom_site_fract_x
_atom_site_fract_y
_atom_site_fract_z
Si Si1 0.544406 0.803345 0.417500
Si Si2 0.291468 0.787369 0.706159
Si Si3 0.506562 0.760015 0.808974
Si Si4 0.015419 0.341109 0.453164
Si Si5 0.248208 0.300758 0.896761
O O1 0.368602 0.650548 0.468753
O O2 0.550151 0.898665 0.707533
O O3 0.612728 0.651168 0.158114
O O4 0.644703 0.046610 0.389851
O O5 0.107717 0.554082 0.707483
O O6 0.367916 0.022502 0.997354
O O7 0.500000 0.500000 0.500000
O O8 0.332311 0.559012 0.919743
O O9 0.000000 0.500000 0.500000
O O10 0.132749 0.302937 0.175413
O O11 0.855344 0.020857 0.372966
#
# Coordination Sequence:
#
# PCOD9014692 Si02
#       5
#     2   2   2   2   2
#     4  10  21  41  68  99 129 163 226 273 318 387
#     4  11  22  39  72  98 126 183 216 264 338 381
#     4  10  23  41  65 100 133 163 223 284 316 384
#     4  11  23  42  65 100 136 174 219 265 326 402
#     4  10  22  42  67  95 137 171 212 278 325 380
#
# _framework density 23.406789
#
# number of rings (size 3 to 8) (size 9 to 14) (size 15 to 20)
#    0.000    1.600    2.000    3.000    0.000    7.200 
#    0.000    5.000    0.000    0.000    0.000    0.000 
#    0.000    0.000    0.000    0.000    0.000    0.000 
#
# Total GULP energy -55749.872811 kJ/mol
# GULP energy per Si atom -5574.987281 kJ/mol
# Density = 2.335351 g / cm^3
# Si number density = 23.406789 Si / 1000 Ang^3
#
#
#
# Elastic Constant Matrix: (Units=GPa)
#
#
# Indices 1 2 3 4 5 6 
#
# 1 139.1673 63.3643 48.7154 15.7521 6.6316 3.5552
# 2 63.3643 91.7642 45.2873 40.6954 11.4411 0.2165
# 3 48.7154 45.2873 102.3800 20.5867 30.7575 2.7873
# 4 15.7521 40.6954 20.5867 54.4000 5.8342 4.3501
# 5 6.6316 11.4411 30.7575 5.8342 49.0331 -2.6896
# 6 3.5552 0.2165 2.7873 4.3501 -2.6896 46.9794
#
#
#
# Elastic Compliance Matrix: (Units=1/GPa)
#
#
# Indices 1 2 3 4 5 6 
#
# 1 0.011632 -0.008528 -0.003104 0.004064 0.001829 -0.000928
# 2 -0.008528 0.025668 -0.004203 -0.015288 -0.000261 0.002177
# 3 -0.003104 -0.004203 0.015884 -0.000969 -0.008507 -0.001085
# 4 0.004064 -0.015288 -0.000969 0.029241 -0.000012 -0.002888
# 5 0.001829 -0.000261 -0.008507 -0.000012 0.025647 0.001837
# 6 -0.000928 0.002177 -0.001085 -0.002888 0.001837 0.021783
#
#
# Mechanical properties :
#
#
# Convention : Reuss Voigt Hill
#
# Bulk Modulus (GPa) = 46.48301 72.00507 59.24404
# Shear Modulus (GPa) = 29.63943 41.81211 35.72577
#
# Velocity S-wave (km/s) = 3.56234 4.23108 3.91103
# Velocity P-wave (km/s) = 6.06813 7.39585 6.76464
#
# Compressibility (1/GPa) = 0.02151324
#
# Stress axis : x y z
#
# Youngs Moduli (GPa) = 85.97245 38.95949 62.95783
#
# Poissons Ratio (x) = 0.33226 0.19540
# Poissons Ratio (y) = 0.73321 0.26460
# Poissons Ratio (z) = 0.26683 0.16374
#
# Static dielectric constant tensor:
#      x y z
#    x 1.990860 -0.036710 -0.032990 
#    y -0.036710 1.909780 0.013280 
#    z -0.032990 0.013280 2.054800 
# 
# From -- ./inp_files/304294.got.cif
#   From: 2010.05.17/outbox.cif.g08.bks.cpg/sg2_153_cif.got.tgz:304294.got - 2010.06.03 11:33:40.
