data_PCOD9014987
_publ_section_title
;
Structure prediction by ZEFSAII (Michael W. Deem and Ramdas Pophale) SiO2 
 PCOD9014987
Probable space group: P -1
;
_chemical_formula_sum "Si O2"
_cell_formula_units_Z 14
_cell_length_a 5.406252
_cell_length_b 18.715873
_cell_length_c 14.802275
_cell_angle_alpha 28.286657
_cell_angle_beta 96.893814
_cell_angle_gamma 79.526717
_cell_volume 557.770498
_symmetry_space_group_name_H-M "P -1"
_symmetry_group_IT_number 2
_symmetry_cell_setting 'triclinic'
loop_
_space_group_symop_operation_xyz
x,y,z
-x,-y,-z
loop_
_atom_site_type_symbol
_atom_site_label
_atom_site_fract_x
_atom_site_fract_y
_atom_site_fract_z
Si Si1 0.720977 0.370724 0.883204
Si Si2 0.814863 0.819126 0.550180
Si Si3 0.983831 0.608211 0.599827
Si Si4 0.911890 0.113223 0.006073
Si Si5 0.255437 0.877540 0.428810
Si Si6 0.259112 0.555187 0.007717
Si Si7 0.220600 0.273955 0.732786
O O1 0.346289 0.497947 0.712302
O O2 0.849251 0.208350 0.995912
O O3 0.886947 0.468765 0.759374
O O4 0.772076 0.322528 0.045167
O O5 0.439518 0.962912 0.367883
O O6 0.933031 0.706283 0.584786
O O7 0.991341 0.913811 0.444918
O O8 0.934191 0.685508 0.792852
O O9 0.788118 0.741685 0.357873
O O10 0.580340 0.174493 0.888043
O O11 0.066909 0.182762 0.872966
O O12 0.164636 0.901173 0.292032
O O13 0.554929 0.653532 0.706672
O O14 0.500000 0.500000 0.000000
O O15 0.000000 0.500000 0.500000
#
# Coordination Sequence:
#
# PCOD9014987 Si02
#       7
#     2   2   2   2   2   2   2
#     4  12  22  38  67  95 125 162 219 256 310 379
#     4  11  22  42  66  94 124 170 219 257 308 385
#     4  12  22  38  68  95 118 162 232 258 293 372
#     4  12  25  43  62 100 134 163 207 271 327 366
#     4  11  23  40  65  92 136 166 199 270 328 368
#     4  10  21  41  70  94 122 173 217 255 312 383
#     4  12  23  42  67  91 128 176 215 255 314 385
#
# _framework density 25.099930000000001
#
# number of rings (size 3 to 8) (size 9 to 14) (size 15 to 20)
#    0.000    0.571    7.143    2.571    0.000    0.000 
#    0.000    7.857    0.000    0.000    0.000    0.000 
#    0.000    0.000    0.000    0.000    0.000    0.000 
#
# Total GULP energy -78211.662957 kJ/mol
# GULP energy per Si atom -5586.547354 kJ/mol
# Density = 2.504280 g / cm^3
# Si number density = 25.099930 Si / 1000 Ang^3
#
#
#
# Elastic Constant Matrix: (Units=GPa)
#
#
# Indices 1 2 3 4 5 6 
#
# 1 160.6671 -22.5347 38.2578 5.7922 30.2346 5.2928
# 2 -22.5347 80.5427 2.6075 26.1645 10.0194 1.7986
# 3 38.2578 2.6075 124.7072 42.8647 22.9620 8.3793
# 4 5.7922 26.1645 42.8647 43.7259 13.2174 7.7397
# 5 30.2346 10.0194 22.9620 13.2174 58.8632 18.4659
# 6 5.2928 1.7986 8.3793 7.7397 18.4659 28.5796
#
#
#
# Elastic Compliance Matrix: (Units=1/GPa)
#
#
# Indices 1 2 3 4 5 6 
#
# 1 0.007782 0.002687 -0.001813 0.000145 -0.004301 0.001661
# 2 0.002687 0.018387 0.004516 -0.015231 -0.004027 0.003748
# 3 -0.001813 0.004516 0.014335 -0.016110 -0.002356 0.001734
# 4 0.000145 -0.015231 -0.016110 0.049066 0.000225 -0.007778
# 5 -0.004301 -0.004027 -0.002356 0.000225 0.025366 -0.014710
# 6 0.001661 0.003748 0.001734 -0.007778 -0.014710 0.045549
#
#
# Mechanical properties :
#
#
# Convention : Reuss Voigt Hill
#
# Bulk Modulus (GPa) = 19.49917 44.73093 32.11505
# Shear Modulus (GPa) = 29.97617 49.40616 39.69116
#
# Velocity S-wave (km/s) = 3.45957 4.44145 3.98090
# Velocity P-wave (km/s) = 4.87275 6.64544 5.82690
#
# Compressibility (1/GPa) = 0.05128422
#
# Stress axis : x y z
#
# Youngs Moduli (GPa) = 128.50142 54.38758 69.75844
#
# Poissons Ratio (x) = -0.14613 0.12647
# Poissons Ratio (y) = -0.34527 -0.31505
# Poissons Ratio (z) = 0.23297 -0.24563
#
# Static dielectric constant tensor:
#      x y z
#    x 2.111030 0.057080 0.098910 
#    y 0.057080 2.089130 -0.327350 
#    z 0.098910 -0.327350 3.109180 
# 
# From -- ./inp_files/282193.got.cif
#   From: 2010.05.17/outbox.cif.g08.bks.cpg/sg2_142_cif.got.tgz:282193.got - 2010.06.03 11:33:40.
