data_PCOD9014607
_publ_section_title
;
Structure prediction by ZEFSAII (Michael W. Deem and Ramdas Pophale) SiO2 
 PCOD9014607
Probable space group: P -1
;
_chemical_formula_sum "Si O2"
_cell_formula_units_Z 16
_cell_length_a 7.462235
_cell_length_b 8.271905
_cell_length_c 16.920468
_cell_angle_alpha 126.860409
_cell_angle_beta 67.026003
_cell_angle_gamma 82.893711
_cell_volume 672.498039
_symmetry_space_group_name_H-M "P -1"
_symmetry_group_IT_number 2
_symmetry_cell_setting 'triclinic'
loop_
_space_group_symop_operation_xyz
x,y,z
-x,-y,-z
loop_
_atom_site_type_symbol
_atom_site_label
_atom_site_fract_x
_atom_site_fract_y
_atom_site_fract_z
Si Si1 0.519486 0.636133 0.235293
Si Si2 0.806400 0.539792 0.935187
Si Si3 0.910309 0.347724 0.704341
Si Si4 0.190909 0.215315 0.246017
Si Si5 0.696710 0.241339 0.981853
Si Si6 0.676183 0.086206 0.504358
Si Si7 0.731852 0.265099 0.382762
Si Si8 0.364477 0.054972 0.804871
O O1 0.277894 0.719479 0.261007
O O2 0.670999 0.370315 0.106828
O O3 0.449525 0.691784 0.353896
O O4 0.609093 0.794037 0.225942
O O5 0.970338 0.429341 0.800422
O O6 0.555885 0.656699 0.977180
O O7 0.818094 0.338760 0.931111
O O8 0.801574 0.748595 0.047302
O O9 0.804493 0.570441 0.732599
O O10 0.108108 0.135656 0.563718
O O11 0.395954 0.089944 0.234980
O O12 0.946206 0.299888 0.348300
O O13 0.211390 0.028997 0.121254
O O14 0.754397 0.132849 0.421677
O O15 0.500000 0.000000 0.500000
O O16 0.500000 0.500000 0.500000
O O17 0.711405 0.116646 0.270559
#
# Coordination Sequence:
#
# PCOD9014607 Si02
#       8
#     2   2   2   2   2   2   2   2
#     4  10  21  41  68  95 122 171 221 261 317 381
#     4   8  16  36  65  95 122 163 217 263 313 380
#     4  11  23  40  67  98 127 170 217 261 320 388
#     4  11  24  42  67  98 136 169 208 268 327 384
#     4   8  16  36  65  94 126 160 211 266 318 378
#     4  12  24  44  63  91 132 167 218 270 313 383
#     4  12  27  46  65  94 134 170 216 270 321 385
#     4  10  22  44  69  96 128 171 217 264 327 378
#
# _framework density 23.791892000000001
#
# number of rings (size 3 to 8) (size 9 to 14) (size 15 to 20)
#    0.000    1.750    1.250    4.875    1.750    5.000 
#    2.250    2.500    0.000    0.000    0.000    0.000 
#    0.000    0.000    0.000    0.000    0.000    0.000 
#
# Total GULP energy -89446.125795 kJ/mol
# GULP energy per Si atom -5590.382862 kJ/mol
# Density = 2.373774 g / cm^3
# Si number density = 23.791892 Si / 1000 Ang^3
#
#
#
# Elastic Constant Matrix: (Units=GPa)
#
#
# Indices 1 2 3 4 5 6 
#
# 1 79.7716 15.9816 26.5565 0.9269 2.0790 0.5925
# 2 15.9816 61.9387 14.2447 8.9912 3.2760 1.7782
# 3 26.5565 14.2447 103.9444 -3.1487 18.6166 0.4214
# 4 0.9269 8.9912 -3.1487 34.9661 -1.6528 -3.7584
# 5 2.0790 3.2760 18.6166 -1.6528 42.3443 1.0985
# 6 0.5925 1.7782 0.4214 -3.7584 1.0985 19.2977
#
#
#
# Elastic Compliance Matrix: (Units=1/GPa)
#
#
# Indices 1 2 3 4 5 6 
#
# 1 0.014237 -0.002956 -0.003415 0.000110 0.001038 -0.000128
# 2 -0.002956 0.018150 -0.001765 -0.005044 -0.000616 -0.002490
# 3 -0.003415 -0.001765 0.011630 0.001427 -0.004768 0.000563
# 4 0.000110 -0.005044 0.001427 0.030744 0.000792 0.006373
# 5 0.001038 -0.000616 -0.004768 0.000792 0.025770 -0.001184
# 6 -0.000128 -0.002490 0.000563 0.006373 -0.001184 0.053349
#
#
# Mechanical properties :
#
#
# Convention : Reuss Voigt Hill
#
# Bulk Modulus (GPa) = 36.03981 39.91340 37.97661
# Shear Modulus (GPa) = 27.87087 31.91308 29.89197
#
# Velocity S-wave (km/s) = 3.42635 3.66641 3.54841
# Velocity P-wave (km/s) = 5.55284 5.89371 5.72581
#
# Compressibility (1/GPa) = 0.02774709
#
# Stress axis : x y z
#
# Youngs Moduli (GPa) = 70.23833 55.09725 85.98788
#
# Poissons Ratio (x) = 0.16284 0.29361
# Poissons Ratio (y) = 0.20759 0.15174
# Poissons Ratio (z) = 0.23983 0.09723
#
# Static dielectric constant tensor:
#      x y z
#    x 1.907490 -0.019230 -0.013480 
#    y -0.019230 1.853780 0.022930 
#    z -0.013480 0.022930 1.951470 
# 
# From -- ./inp_files/557559.got.cif
#   From: 2010.05.17/outbox.cif.g08.bks.cpg/sg2_279_cif.got.tgz:557559.got - 2010.06.03 11:33:40.
