data_PCOD9014435
_publ_section_title
;
Structure prediction by ZEFSAII (Michael W. Deem and Ramdas Pophale) SiO2 
 PCOD9014435
Probable space group: P -1
;
_chemical_formula_sum "Si O2"
_cell_formula_units_Z 16
_cell_length_a 10.963070
_cell_length_b 8.768396
_cell_length_c 16.178464
_cell_angle_alpha 105.268236
_cell_angle_beta 145.982203
_cell_angle_gamma 57.028781
_cell_volume 668.993074
_symmetry_space_group_name_H-M "P -1"
_symmetry_group_IT_number 2
_symmetry_cell_setting 'triclinic'
loop_
_space_group_symop_operation_xyz
x,y,z
-x,-y,-z
loop_
_atom_site_type_symbol
_atom_site_label
_atom_site_fract_x
_atom_site_fract_y
_atom_site_fract_z
Si Si1 0.662532 0.606572 0.949040
Si Si2 0.213292 0.696630 0.904405
Si Si3 0.454787 0.892005 0.735254
Si Si4 0.316458 0.705124 0.509938
Si Si5 0.107372 0.658235 0.673562
Si Si6 0.874848 0.958944 0.997844
Si Si7 0.927517 0.692865 0.391747
Si Si8 0.085193 0.676408 0.221654
O O1 0.639339 0.678268 0.852829
O O2 0.355984 0.671738 0.797494
O O3 0.838260 0.387340 0.055189
O O4 0.809560 0.695383 0.085308
O O5 0.004197 0.761695 0.720318
O O6 0.235078 0.865329 0.971919
O O7 0.500000 0.500000 0.000000
O O8 0.283705 0.876175 0.569066
O O9 0.260175 0.079665 0.713105
O O10 0.653360 0.944332 0.828245
O O11 0.141162 0.778348 0.338972
O O12 0.639469 0.548636 0.650788
O O13 0.212841 0.602106 0.492730
O O14 0.172175 0.442311 0.694970
O O15 0.950223 0.712496 0.506012
O O16 0.064267 0.764821 0.132772
O O17 0.000000 0.000000 0.000000
#
# Coordination Sequence:
#
# PCOD9014435 Si02
#       8
#     2   2   2   2   2   2   2   2
#     4  10  21  41  67  98 126 176 219 278 330 392
#     4  10  22  40  66  97 138 170 225 272 336 387
#     4  11  24  41  70  99 130 175 225 277 335 401
#     4  11  24  44  68  96 135 181 220 276 339 398
#     4  10  22  40  66 102 132 179 212 279 337 392
#     4  11  27  45  69 101 136 179 225 283 334 409
#     4  11  23  42  68 101 140 173 224 275 341 401
#     4  10  26  44  68  96 134 176 231 273 331 407
#
# _framework density 23.916537999999999
#
# number of rings (size 3 to 8) (size 9 to 14) (size 15 to 20)
#    0.000    1.500    1.250    2.625    5.250    5.000 
#    0.000    7.500    0.000    0.000    0.000    0.000 
#    0.000    0.000    0.000    0.000    0.000    0.000 
#
# Total GULP energy -89113.703197 kJ/mol
# GULP energy per Si atom -5569.606450 kJ/mol
# Density = 2.386210 g / cm^3
# Si number density = 23.916538 Si / 1000 Ang^3
#
#
#
# Elastic Constant Matrix: (Units=GPa)
#
#
# Indices 1 2 3 4 5 6 
#
# 1 68.3286 32.6108 38.1680 14.6957 7.3488 18.2430
# 2 32.6108 95.8028 38.3328 25.0000 8.6462 10.0919
# 3 38.1680 38.3328 128.9941 32.8553 5.6652 16.7114
# 4 14.6957 25.0000 32.8553 31.0737 4.5128 8.2110
# 5 7.3488 8.6462 5.6652 4.5128 30.7080 3.5554
# 6 18.2430 10.0919 16.7114 8.2110 3.5554 30.5066
#
#
#
# Elastic Compliance Matrix: (Units=1/GPa)
#
#
# Indices 1 2 3 4 5 6 
#
# 1 0.021623 -0.004782 -0.003791 0.000347 -0.002124 -0.009118
# 2 -0.004782 0.014714 -0.000776 -0.008769 -0.001679 0.000973
# 3 -0.003791 -0.000776 0.011728 -0.009704 0.000545 -0.001352
# 4 0.000347 -0.008769 -0.009704 0.051166 -0.002713 -0.005446
# 5 -0.002124 -0.001679 0.000545 -0.002713 0.034042 -0.001710
# 6 -0.009118 0.000973 -0.001352 -0.005446 -0.001710 0.040316
#
#
# Mechanical properties :
#
#
# Convention : Reuss Voigt Hill
#
# Bulk Modulus (GPa) = 34.05307 56.81653 45.43480
# Shear Modulus (GPa) = 24.74311 30.72524 27.73418
#
# Velocity S-wave (km/s) = 3.21995 3.58814 3.40902
# Velocity P-wave (km/s) = 5.30031 6.40110 5.87654
#
# Compressibility (1/GPa) = 0.02936593
#
# Stress axis : x y z
#
# Youngs Moduli (GPa) = 46.24659 67.96358 85.26815
#
# Poissons Ratio (x) = 0.32500 0.32324
# Poissons Ratio (y) = 0.22115 0.06621
# Poissons Ratio (z) = 0.17532 0.05277
#
# Static dielectric constant tensor:
#      x y z
#    x 2.014850 -0.031910 -0.018040 
#    y -0.031910 1.919840 -0.050370 
#    z -0.018040 -0.050370 1.971930 
# 
# From -- ./inp_files/566092.got.cif
#   From: 2010.05.17/outbox.cif.g08.bks.cpg/sg2_284_cif.got.tgz:566092.got - 2010.06.03 11:33:40.
