data_PCOD9014727
_publ_section_title
;
Structure prediction by ZEFSAII (Michael W. Deem and Ramdas Pophale) SiO2 
 PCOD9014727
Probable space group: P -1
;
_chemical_formula_sum "Si O2"
_cell_formula_units_Z 10
_cell_length_a 13.780712
_cell_length_b 10.213118
_cell_length_c 18.446358
_cell_angle_alpha 152.638984
_cell_angle_beta 161.996548
_cell_angle_gamma 30.252735
_cell_volume 365.417298
_symmetry_space_group_name_H-M "P -1"
_symmetry_group_IT_number 2
_symmetry_cell_setting 'triclinic'
loop_
_space_group_symop_operation_xyz
x,y,z
-x,-y,-z
loop_
_atom_site_type_symbol
_atom_site_label
_atom_site_fract_x
_atom_site_fract_y
_atom_site_fract_z
Si Si1 0.219378 0.136626 0.163911
Si Si2 0.199741 0.307584 0.856919
Si Si3 0.721407 0.303109 0.711660
Si Si4 0.884282 0.308149 0.472325
Si Si5 0.827233 0.242219 0.188471
O O1 0.521077 0.244645 0.468493
O O2 0.984545 0.406405 0.099382
O O3 0.313523 0.913972 0.057200
O O4 0.000000 0.000000 0.000000
O O5 0.037446 0.311441 0.663383
O O6 0.153649 0.022647 0.727463
O O7 0.567240 0.293746 0.091453
O O8 0.448802 0.485686 0.655859
O O9 0.871881 0.987931 0.690311
O O10 0.000000 0.500000 0.000000
O O11 0.084871 0.459346 0.631540
#
# Coordination Sequence:
#
# PCOD9014727 Si02
#       5
#     2   2   2   2   2
#     4  11  25  45  73 105 135 183 243 277 342 431
#     4  10  22  44  68 104 142 175 233 293 333 417
#     4  11  23  45  69 105 144 177 231 295 338 412
#     4  10  21  41  69 100 141 179 229 286 342 413
#     4  12  23  45  79  94 138 195 222 283 363 391
#
# _framework density 27.365974000000001
#
# number of rings (size 3 to 8) (size 9 to 14) (size 15 to 20)
#    0.000    1.200    6.000    1.200    0.000    0.800 
#    0.000    8.000    0.000    0.000    0.000    0.000 
#    0.000    0.000    0.000    0.000    0.000    0.000 
#
# Total GULP energy -56209.157625 kJ/mol
# GULP energy per Si atom -5620.915763 kJ/mol
# Density = 2.730369 g / cm^3
# Si number density = 27.365974 Si / 1000 Ang^3
#
#
#
# Elastic Constant Matrix: (Units=GPa)
#
#
# Indices 1 2 3 4 5 6 
#
# 1 157.4636 96.2520 51.5000 16.0611 28.4051 8.4415
# 2 96.2520 232.7107 74.7587 -6.3447 33.9856 28.4712
# 3 51.5000 74.7587 147.5040 2.6813 0.0908 -1.4729
# 4 16.0611 -6.3447 2.6813 61.6377 6.3262 0.4906
# 5 28.4051 33.9856 0.0908 6.3262 44.8052 3.9829
# 6 8.4415 28.4712 -1.4729 0.4906 3.9829 60.1476
#
#
#
# Elastic Compliance Matrix: (Units=1/GPa)
#
#
# Indices 1 2 3 4 5 6 
#
# 1 0.009629 -0.002989 -0.001799 -0.002379 -0.003523 0.000272
# 2 -0.002989 0.007376 -0.002759 0.002064 -0.003728 -0.002910
# 3 -0.001799 -0.002759 0.008830 -0.000535 0.003152 0.001571
# 4 -0.002379 0.002064 -0.000535 0.017336 -0.002447 -0.000635
# 5 -0.003523 -0.003728 0.003152 -0.002447 0.027672 0.000524
# 6 0.000272 -0.002910 0.001571 -0.000635 0.000524 0.017974
#
#
# Mechanical properties :
#
#
# Convention : Reuss Voigt Hill
#
# Bulk Modulus (GPa) = 93.09982 109.18885 101.14433
# Shear Modulus (GPa) = 46.51505 54.32927 50.42216
#
# Velocity S-wave (km/s) = 4.12726 4.46049 4.29711
# Velocity P-wave (km/s) = 7.53701 8.15561 7.85241
#
# Compressibility (1/GPa) = 0.01074116
#
# Stress axis : x y z
#
# Youngs Moduli (GPa) = 103.84806 135.56756 113.25435
#
# Poissons Ratio (x) = 0.40515 0.20377
# Poissons Ratio (y) = 0.31035 0.31251
# Poissons Ratio (z) = 0.18685 0.37408
#
# Static dielectric constant tensor:
#      x y z
#    x 2.057860 0.006400 -0.069460 
#    y 0.006400 2.042380 -0.019440 
#    z -0.069460 -0.019440 2.196050 
# 
# From -- ./inp_files/573304.got.cif
#   From: 2010.05.17/outbox.cif.g08.bks.cpg/sg2_287_cif.got.tgz:573304.got - 2010.06.03 11:33:40.
