data_PCOD9014026
_publ_section_title
;
Structure prediction by ZEFSAII (Michael W. Deem and Ramdas Pophale) SiO2 
 PCOD9014026
Probable space group: P -1
;
_chemical_formula_sum "Si O2"
_cell_formula_units_Z 12
_cell_length_a 8.684829
_cell_length_b 14.894669
_cell_length_c 11.385883
_cell_angle_alpha 51.341347
_cell_angle_beta 37.316513
_cell_angle_gamma 79.520825
_cell_volume 520.549185
_symmetry_space_group_name_H-M "P -1"
_symmetry_group_IT_number 2
_symmetry_cell_setting 'triclinic'
loop_
_space_group_symop_operation_xyz
x,y,z
-x,-y,-z
loop_
_atom_site_type_symbol
_atom_site_label
_atom_site_fract_x
_atom_site_fract_y
_atom_site_fract_z
Si Si1 0.254447 0.022198 0.734497
Si Si2 0.800968 0.769600 0.821591
Si Si3 0.372267 0.671769 0.646494
Si Si4 0.712295 0.509202 0.966716
Si Si5 0.409895 0.603025 0.434784
Si Si6 0.634559 0.922067 0.641973
O O1 0.602027 0.196930 0.415838
O O2 0.186485 0.029876 0.633646
O O3 0.313222 0.905545 0.818992
O O4 0.000000 0.000000 0.000000
O O5 0.874648 0.667749 0.804986
O O6 0.602819 0.788894 0.830672
O O7 0.586463 0.688046 0.136919
O O8 0.140357 0.938288 0.516008
O O9 0.524588 0.710257 0.392714
O O10 0.527999 0.631728 0.681118
O O11 0.000000 0.500000 0.000000
O O12 0.009157 0.512773 0.740701
O O13 0.500000 0.500000 0.000000
O O14 0.500000 0.500000 0.500000
#
# Coordination Sequence:
#
# PCOD9014026 Si02
#       6
#     2   2   2   2   2   2
#     4  11  23  43  66  98 132 171 227 269 330 398
#     4  11  23  44  64  94 134 170 226 267 335 396
#     4  10  21  41  66  94 132 175 218 274 335 394
#     4  11  24  41  64  98 135 168 216 291 337 382
#     4  11  23  41  67  96 125 181 223 267 333 408
#     4  10  24  41  67  93 130 181 210 273 329 401
#
# _framework density 23.052576999999999
#
# number of rings (size 3 to 8) (size 9 to 14) (size 15 to 20)
#    0.000    1.333    1.667    4.000    2.333    3.333 
#    3.000    4.167    0.000    0.000    0.000    0.000 
#    0.000    0.000    0.000    0.000    0.000    0.000 
#
# Total GULP energy -67014.767579 kJ/mol
# GULP energy per Si atom -5584.563965 kJ/mol
# Density = 2.300011 g / cm^3
# Si number density = 23.052577 Si / 1000 Ang^3
#
#
#
# Elastic Constant Matrix: (Units=GPa)
#
#
# Indices 1 2 3 4 5 6 
#
# 1 158.8232 30.7771 25.3279 15.8821 24.9953 -34.2530
# 2 30.7771 113.2396 11.2024 11.0302 1.5722 -21.2905
# 3 25.3279 11.2024 65.3091 20.7006 15.3682 -15.8353
# 4 15.8821 11.0302 20.7006 31.9720 7.9694 0.8801
# 5 24.9953 1.5722 15.3682 7.9694 34.3286 -14.4558
# 6 -34.2530 -21.2905 -15.8353 0.8801 -14.4558 53.4226
#
#
#
# Elastic Compliance Matrix: (Units=1/GPa)
#
#
# Indices 1 2 3 4 5 6 
#
# 1 0.008225 -0.001182 -0.000402 -0.002634 -0.003558 0.003764
# 2 -0.001182 0.010282 0.000310 -0.004028 0.003001 0.004310
# 3 -0.000402 0.000310 0.021899 -0.013197 -0.004168 0.005447
# 4 -0.002634 -0.004028 -0.013197 0.044370 -0.006357 -0.009657
# 5 -0.003558 0.003001 -0.004168 -0.006357 0.038363 0.008165
# 6 0.003764 0.004310 0.005447 -0.009657 0.008165 0.026833
#
#
# Mechanical properties :
#
#
# Convention : Reuss Voigt Hill
#
# Bulk Modulus (GPa) = 26.41427 52.44296 39.42862
# Shear Modulus (GPa) = 30.27754 41.94895 36.11324
#
# Velocity S-wave (km/s) = 3.62803 4.27043 3.96227
# Velocity P-wave (km/s) = 5.38826 6.86397 6.17039
#
# Compressibility (1/GPa) = 0.03785832
#
# Stress axis : x y z
#
# Youngs Moduli (GPa) = 121.58735 97.25296 45.66447
#
# Poissons Ratio (x) = 0.11495 0.01836
# Poissons Ratio (y) = 0.14371 -0.01417
# Poissons Ratio (z) = 0.04890 -0.03018
#
# Static dielectric constant tensor:
#      x y z
#    x 1.955040 0.010870 -0.055070 
#    y 0.010870 1.887300 -0.055830 
#    z -0.055070 -0.055830 1.982560 
# 
# From -- ./inp_files/68022.got.cif
#   From: 2010.05.17/outbox.cif.g08.bks.cpg/sg2_35_cif.got.tgz:68022.got - 2010.06.03 11:33:40.
