data_PCOD9014798
_publ_section_title
;
Structure prediction by ZEFSAII (Michael W. Deem and Ramdas Pophale) SiO2 
 PCOD9014798
Probable space group: P -1
;
_chemical_formula_sum "Si O2"
_cell_formula_units_Z 16
_cell_length_a 10.963645
_cell_length_b 8.854087
_cell_length_c 13.084362
_cell_angle_alpha 103.751495
_cell_angle_beta 37.156128
_cell_angle_gamma 91.471596
_cell_volume 715.537665
_symmetry_space_group_name_H-M "P -1"
_symmetry_group_IT_number 2
_symmetry_cell_setting 'triclinic'
loop_
_space_group_symop_operation_xyz
x,y,z
-x,-y,-z
loop_
_atom_site_type_symbol
_atom_site_label
_atom_site_fract_x
_atom_site_fract_y
_atom_site_fract_z
Si Si1 0.274396 0.614588 0.142718
Si Si2 0.324455 0.249731 0.529106
Si Si3 0.796362 0.213324 0.242835
Si Si4 0.134515 0.167821 0.847430
Si Si5 0.963939 0.443127 0.311913
Si Si6 0.664592 0.065616 0.840248
Si Si7 0.549505 0.116687 0.693922
Si Si8 0.933560 0.241050 0.482318
O O1 0.141895 0.680988 0.345031
O O2 0.156355 0.500570 0.147881
O O3 0.291482 0.780265 0.108110
O O4 0.500000 0.500000 0.000000
O O5 0.545896 0.275579 0.418283
O O6 0.179973 0.246821 0.724350
O O7 0.220951 0.390553 0.542011
O O8 0.369592 0.072137 0.421530
O O9 0.900350 0.311686 0.265274
O O10 0.841103 0.024366 0.212902
O O11 0.908762 0.229252 0.062355
O O12 0.324122 0.178929 0.799626
O O13 0.011238 0.362433 0.377817
O O14 0.881679 0.925612 0.657149
O O15 0.554004 0.123314 0.814628
O O16 0.500000 0.000000 0.000000
O O17 0.728322 0.204573 0.561290
#
# Coordination Sequence:
#
# PCOD9014798 Si02
#       8
#     2   2   2   2   2   2   2   2
#     4  11  25  43  63 102 135 171 225 281 334 404
#     4  11  22  43  63  99 132 173 221 278 333 395
#     4  10  23  40  65  95 129 170 228 269 331 406
#     4  10  22  42  66  96 131 168 229 277 319 408
#     4  12  24  40  66  91 136 175 212 272 348 382
#     4  11  24  43  69  99 132 175 231 273 326 411
#     4  10  21  41  69  92 126 173 219 269 338 391
#     4  11  23  42  68  92 134 180 224 271 329 409
#
# _framework density 22.360807999999999
#
# number of rings (size 3 to 8) (size 9 to 14) (size 15 to 20)
#    0.000    1.250    0.000    7.500    5.250    1.500 
#    9.000    0.000    0.000    0.000    0.000    0.000 
#    0.000    0.000    0.000    0.000    0.000    0.000 
#
# Total GULP energy -89451.099814 kJ/mol
# GULP energy per Si atom -5590.693738 kJ/mol
# Density = 2.230991 g / cm^3
# Si number density = 22.360808 Si / 1000 Ang^3
#
#
#
# Elastic Constant Matrix: (Units=GPa)
#
#
# Indices 1 2 3 4 5 6 
#
# 1 48.9153 34.0748 1.4844 -11.0272 -10.5353 19.2789
# 2 34.0748 111.6500 36.4131 -23.3784 -12.4929 15.2793
# 3 1.4844 36.4131 88.3837 -13.7702 -12.6469 0.7629
# 4 -11.0272 -23.3784 -13.7702 31.6825 3.8817 -10.5772
# 5 -10.5353 -12.4929 -12.6469 3.8817 23.8102 -5.4109
# 6 19.2789 15.2793 0.7629 -10.5772 -5.4109 44.9726
#
#
#
# Elastic Compliance Matrix: (Units=1/GPa)
#
#
# Indices 1 2 3 4 5 6 
#
# 1 0.032784 -0.008627 0.004965 0.002860 0.010031 -0.009328
# 2 -0.008627 0.014325 -0.004863 0.005501 0.000274 0.000241
# 3 0.004965 -0.004863 0.014884 0.004100 0.007131 0.001094
# 4 0.002860 0.005501 0.004100 0.040417 0.001215 0.006488
# 5 0.010031 0.000274 0.007131 0.001215 0.050593 0.001859
# 6 -0.009328 0.000241 0.001094 0.006488 0.001859 0.027883
#
#
# Mechanical properties :
#
#
# Convention : Reuss Voigt Hill
#
# Bulk Modulus (GPa) = 22.25021 43.65486 32.95254
# Shear Modulus (GPa) = 23.48336 31.89151 27.68743
#
# Velocity S-wave (km/s) = 3.24420 3.78063 3.52264
# Velocity P-wave (km/s) = 4.89951 6.21473 5.59590
#
# Compressibility (1/GPa) = 0.04494340
#
# Stress axis : x y z
#
# Youngs Moduli (GPa) = 30.50287 69.80844 67.18580
#
# Poissons Ratio (x) = 0.60224 -0.33357
# Poissons Ratio (y) = 0.26315 0.32670
# Poissons Ratio (z) = -0.15145 0.33945
#
# Static dielectric constant tensor:
#      x y z
#    x 1.850500 0.013430 0.002640 
#    y 0.013430 1.835180 -0.011950 
#    z 0.002640 -0.011950 1.841160 
# 
# From -- ./inp_files/515828.got.cif
#   From: 2010.05.17/outbox.cif.g08.bks.cpg/sg2_258_cif.got.tgz:515828.got - 2010.06.03 11:33:40.
