data_PCOD9014832
_publ_section_title
;
Structure prediction by ZEFSAII (Michael W. Deem and Ramdas Pophale) SiO2 
 PCOD9014832
Probable space group: P -1
;
_chemical_formula_sum "Si O2"
_cell_formula_units_Z 12
_cell_length_a 10.282879
_cell_length_b 11.748433
_cell_length_c 9.197963
_cell_angle_alpha 145.408839
_cell_angle_beta 64.105354
_cell_angle_gamma 106.228549
_cell_volume 560.487363
_symmetry_space_group_name_H-M "P -1"
_symmetry_group_IT_number 2
_symmetry_cell_setting 'triclinic'
loop_
_space_group_symop_operation_xyz
x,y,z
-x,-y,-z
loop_
_atom_site_type_symbol
_atom_site_label
_atom_site_fract_x
_atom_site_fract_y
_atom_site_fract_z
Si Si1 0.906925 0.325796 0.331769
Si Si2 0.822890 0.840184 0.149239
Si Si3 0.711800 0.112535 0.722345
Si Si4 0.435041 0.886082 0.611636
Si Si5 0.370308 0.684852 0.720824
Si Si6 0.716833 0.404469 0.770477
O O1 0.763801 0.398052 0.380621
O O2 0.842878 0.282263 0.474228
O O3 0.000000 0.500000 0.500000
O O4 0.022165 0.174177 0.023667
O O5 0.834658 0.947398 0.412747
O O6 0.699265 0.964511 0.236921
O O7 0.760498 0.627516 0.979483
O O8 0.716950 0.311951 0.832542
O O9 0.571875 0.000268 0.641029
O O10 0.694757 0.187207 0.973401
O O11 0.421069 0.837184 0.736861
O O12 0.427878 0.666876 0.307903
O O13 0.500000 0.500000 0.500000
#
# Coordination Sequence:
#
# PCOD9014832 Si02
#       6
#     2   2   2   2   2   2
#     4   9  21  44  69  95 122 177 217 256 324 382
#     4  10  21  41  69  95 127 166 223 267 306 390
#     4  11  24  38  62 102 129 168 214 266 329 370
#     4  10  23  40  64  97 127 175 215 259 321 383
#     4  11  26  44  65  93 137 172 209 268 330 381
#     4   9  20  39  65  96 126 169 211 263 315 379
#
# _framework density 21.409938
#
# number of rings (size 3 to 8) (size 9 to 14) (size 15 to 20)
#    0.000    2.000    0.000    2.500    9.333    8.000 
#    0.000    3.333    0.000    0.000    0.000    0.000 
#    0.000    0.000    0.000    0.000    0.000    0.000 
#
# Total GULP energy -66828.051172 kJ/mol
# GULP energy per Si atom -5569.004264 kJ/mol
# Density = 2.136121 g / cm^3
# Si number density = 21.409938 Si / 1000 Ang^3
#
#
#
# Elastic Constant Matrix: (Units=GPa)
#
#
# Indices 1 2 3 4 5 6 
#
# 1 72.2377 22.5538 18.1030 -1.4780 -12.2675 2.7286
# 2 22.5538 161.9408 43.4057 -5.7768 3.6131 -5.8506
# 3 18.1030 43.4057 120.1254 -9.8687 -0.4187 -24.5321
# 4 -1.4780 -5.7768 -9.8687 44.9553 2.6275 8.3158
# 5 -12.2675 3.6131 -0.4187 2.6275 20.1587 -5.6134
# 6 2.7286 -5.8506 -24.5321 8.3158 -5.6134 28.8177
#
#
#
# Elastic Compliance Matrix: (Units=1/GPa)
#
#
# Indices 1 2 3 4 5 6 
#
# 1 0.016802 -0.002072 -0.002138 -0.000456 0.010130 -0.001727
# 2 -0.002072 0.007180 -0.002493 0.000720 -0.003047 -0.001270
# 3 -0.002138 -0.002493 0.011599 0.000195 0.002126 0.009928
# 4 -0.000456 0.000720 0.000195 0.024125 -0.005695 -0.007716
# 5 0.010130 -0.003047 0.002126 -0.005695 0.060931 0.013744
# 6 -0.001727 -0.001270 0.009928 -0.007716 0.013744 0.047962
#
#
# Mechanical properties :
#
#
# Convention : Reuss Voigt Hill
#
# Bulk Modulus (GPa) = 45.09652 58.04765 51.57209
# Shear Modulus (GPa) = 26.39988 36.80242 31.60115
#
# Velocity S-wave (km/s) = 3.51531 4.15051 3.84605
# Velocity P-wave (km/s) = 6.13071 7.08098 6.62291
#
# Compressibility (1/GPa) = 0.02217466
#
# Stress axis : x y z
#
# Youngs Moduli (GPa) = 59.51648 139.28445 86.21796
#
# Poissons Ratio (x) = 0.28854 0.18437
# Poissons Ratio (y) = 0.12329 0.21492
# Poissons Ratio (z) = 0.12727 0.34721
#
# Static dielectric constant tensor:
#      x y z
#    x 1.790690 0.025710 -0.035820 
#    y 0.025710 1.776450 -0.012830 
#    z -0.035820 -0.012830 1.924750 
# 
# From -- ./inp_files/263686.got.cif
#   From: 2010.05.17/outbox.cif.g08.bks.cpg/sg2_132_cif.got.tgz:263686.got - 2010.06.03 11:33:40.
