data_PCOD9014676
_publ_section_title
;
Structure prediction by ZEFSAII (Michael W. Deem and Ramdas Pophale) SiO2 
 PCOD9014676
Probable space group: P -1
;
_chemical_formula_sum "Si O2"
_cell_formula_units_Z 14
_cell_length_a 14.203657
_cell_length_b 5.278061
_cell_length_c 9.070798
_cell_angle_alpha 99.441260
_cell_angle_beta 74.790961
_cell_angle_gamma 77.130248
_cell_volume 621.570113
_symmetry_space_group_name_H-M "P -1"
_symmetry_group_IT_number 2
_symmetry_cell_setting 'triclinic'
loop_
_space_group_symop_operation_xyz
x,y,z
-x,-y,-z
loop_
_atom_site_type_symbol
_atom_site_label
_atom_site_fract_x
_atom_site_fract_y
_atom_site_fract_z
Si Si1 0.348983 0.820010 0.692197
Si Si2 0.116282 0.969675 0.302486
Si Si3 0.289903 0.011024 0.062266
Si Si4 0.916292 0.351686 0.479592
Si Si5 0.571182 0.705689 0.578393
Si Si6 0.398488 0.485644 0.126252
Si Si7 0.231162 0.180539 0.534215
O O1 0.320610 0.873093 0.878441
O O2 0.456401 0.888755 0.628525
O O3 0.385408 0.513767 0.588733
O O4 0.256712 0.008883 0.654918
O O5 0.165393 0.080393 0.432862
O O6 0.993567 0.082426 0.356032
O O7 0.132335 0.676833 0.342324
O O8 0.169498 0.062012 0.149015
O O9 0.326258 0.773338 0.143326
O O10 0.346041 0.247903 0.080223
O O11 0.831582 0.506388 0.413516
O O12 0.000000 0.500000 0.500000
O O13 0.575269 0.548748 0.715723
O O14 0.656469 0.855082 0.576150
O O15 0.500000 0.500000 0.000000
#
# Coordination Sequence:
#
# PCOD9014676 Si02
#       7
#     2   2   2   2   2   2   2
#     4  11  26  39  62  97 139 181 220 274 338 407
#     4  10  21  41  68  98 127 170 230 282 337 401
#     4  12  26  43  68 101 137 179 226 291 333 395
#     4   9  20  38  68  99 124 166 226 285 337 406
#     4  11  24  43  62  93 135 187 228 269 332 408
#     4  12  25  44  68  95 137 182 237 278 328 392
#     4  11  20  39  66  91 130 173 225 272 337 406
#
# _framework density 22.523603999999999
#
# number of rings (size 3 to 8) (size 9 to 14) (size 15 to 20)
#    0.000    1.143    2.857    3.429    4.000    0.000 
#    0.000    0.714    0.000   12.000    0.000    0.000 
#    0.000    0.000    0.000    0.000    0.000    0.000 
#
# Total GULP energy -77937.878131 kJ/mol
# GULP energy per Si atom -5566.991295 kJ/mol
# Density = 2.247234 g / cm^3
# Si number density = 22.523604 Si / 1000 Ang^3
#
#
#
# Elastic Constant Matrix: (Units=GPa)
#
#
# Indices 1 2 3 4 5 6 
#
# 1 109.2449 30.6146 50.5974 -4.8295 -17.0679 -8.0950
# 2 30.6146 92.4516 40.7111 -8.6881 0.6950 -4.8456
# 3 50.5974 40.7111 135.4085 8.5233 -10.2212 11.5391
# 4 -4.8295 -8.6881 8.5233 22.5889 3.1229 -6.0770
# 5 -17.0679 0.6950 -10.2212 3.1229 39.8706 -16.0367
# 6 -8.0950 -4.8456 11.5391 -6.0770 -16.0367 53.7755
#
#
#
# Elastic Compliance Matrix: (Units=1/GPa)
#
#
# Indices 1 2 3 4 5 6 
#
# 1 0.013416 -0.001683 -0.004768 0.004570 0.006321 0.005292
# 2 -0.001683 0.014185 -0.004448 0.007642 -0.001776 0.002313
# 3 -0.004768 -0.004448 0.011393 -0.008224 -0.000234 -0.004563
# 4 0.004570 0.007642 -0.008224 0.053823 -0.000899 0.008956
# 5 0.006321 -0.001776 -0.000234 -0.000899 0.031959 0.010271
# 6 0.005292 0.002313 -0.004563 0.008956 0.010271 0.024655
#
#
# Mechanical properties :
#
#
# Convention : Reuss Voigt Hill
#
# Bulk Modulus (GPa) = 58.15888 64.55014 61.35451
# Shear Modulus (GPa) = 28.25456 37.59247 32.92351
#
# Velocity S-wave (km/s) = 3.54565 4.08980 3.82741
# Velocity P-wave (km/s) = 6.52990 7.14304 6.84334
#
# Compressibility (1/GPa) = 0.01719428
#
# Stress axis : x y z
#
# Youngs Moduli (GPa) = 74.53932 70.49485 87.77307
#
# Poissons Ratio (x) = 0.11867 0.41854
# Poissons Ratio (y) = 0.12548 0.39043
# Poissons Ratio (z) = 0.35543 0.31357
#
# Static dielectric constant tensor:
#      x y z
#    x 1.981620 -0.064070 -0.098840 
#    y -0.064070 2.292210 0.029910 
#    z -0.098840 0.029910 1.920690 
# 
# From -- ./inp_files/98333.got.cif
#   From: 2010.05.17/outbox.cif.g08.bks.cpg/sg2_50_cif.got.tgz:98333.got - 2010.06.03 11:33:40.
