data_PCOD9014597
_publ_section_title
;
Structure prediction by ZEFSAII (Michael W. Deem and Ramdas Pophale) SiO2 
 PCOD9014597
Probable space group: P -1
;
_chemical_formula_sum "Si O2"
_cell_formula_units_Z 15
_cell_length_a 13.265555
_cell_length_b 8.314081
_cell_length_c 14.101868
_cell_angle_alpha 122.837813
_cell_angle_beta 67.487398
_cell_angle_gamma 65.453146
_cell_volume 719.908053
_symmetry_space_group_name_H-M "P -1"
_symmetry_group_IT_number 2
_symmetry_cell_setting 'triclinic'
loop_
_space_group_symop_operation_xyz
x,y,z
-x,-y,-z
loop_
_atom_site_type_symbol
_atom_site_label
_atom_site_fract_x
_atom_site_fract_y
_atom_site_fract_z
Si Si1 0.663100 0.156793 0.671234
Si Si2 0.208276 0.682519 0.434386
Si Si3 0.688128 0.347469 0.402637
Si Si4 0.707670 0.098463 0.998336
Si Si5 0.314923 0.255153 0.588236
Si Si6 0.500000 0.000000 0.000000
Si Si7 0.046857 0.149313 0.996728
Si Si8 0.103612 0.153410 0.339107
O O1 0.801873 0.111431 0.558239
O O2 0.686362 0.917629 0.540241
O O3 0.710427 0.091607 0.744698
O O4 0.463021 0.519449 0.834569
O O5 0.294453 0.626111 0.485330
O O6 0.339534 0.348711 0.226682
O O7 0.019403 0.844583 0.576989
O O8 0.500000 0.500000 0.500000
O O9 0.690571 0.540816 0.403920
O O10 0.863830 0.984176 0.182047
O O11 0.795426 0.996250 0.036740
O O12 0.857515 0.937670 0.813816
O O13 0.641627 0.978240 0.961861
O O14 0.142402 0.477714 0.792806
O O15 0.500000 0.000000 0.500000
O O16 0.000000 0.000000 0.000000
O O17 0.000000 0.500000 0.500000
#
# Coordination Sequence:
#
# PCOD9014597 Si02
#       8
#     2   2   2   2   2   1   2   2
#     4  11  24  41  61  95 135 170 213 278 331 387
#     4  11  23  41  64  93 131 170 222 272 325 389
#     4  11  22  42  69  94 125 177 225 270 331 393
#     4  11  22  41  66  97 133 171 223 271 333 396
#     4  11  23  41  66  96 134 171 218 276 335 395
#     4  10  22  38  64  92 132 168 216 264 332 386
#     4  10  21  41  68  94 126 173 218 271 333 393
#     4  12  22  40  65  93 127 172 222 261 331 394
#
# _framework density 20.835993999999999
#
# number of rings (size 3 to 8) (size 9 to 14) (size 15 to 20)
#    0.000    1.067    1.333    8.000    0.000    0.000 
#    0.000    4.000    0.000    0.000    0.000    0.000 
#    0.000    0.000    0.000    0.000    0.000    0.000 
#
# Total GULP energy -83599.121476 kJ/mol
# GULP energy per Si atom -5573.274765 kJ/mol
# Density = 2.078857 g / cm^3
# Si number density = 20.835994 Si / 1000 Ang^3
#
#
#
# Elastic Constant Matrix: (Units=GPa)
#
#
# Indices 1 2 3 4 5 6 
#
# 1 116.4937 20.1879 42.9013 4.5096 10.0000 5.0268
# 2 20.1879 38.9885 -6.4710 5.3762 6.4751 -4.1385
# 3 42.9013 -6.4710 80.8248 3.1707 8.8643 4.0443
# 4 4.5096 5.3762 3.1707 22.6646 -1.4955 -11.0105
# 5 10.0000 6.4751 8.8643 -1.4955 36.6986 -1.4452
# 6 5.0268 -4.1385 4.0443 -11.0105 -1.4452 34.3048
#
#
#
# Elastic Compliance Matrix: (Units=1/GPa)
#
#
# Indices 1 2 3 4 5 6 
#
# 1 0.012770 -0.007861 -0.007213 -0.000787 -0.000471 -0.002242
# 2 -0.007861 0.033075 0.007629 -0.006853 -0.005745 0.001801
# 3 -0.007213 0.007629 0.017450 -0.003772 -0.003806 -0.001451
# 4 -0.000787 -0.006853 -0.003772 0.055397 0.005291 0.017737
# 5 -0.000471 -0.005745 -0.003806 0.005291 0.029635 0.002771
# 6 -0.002242 0.001801 -0.001451 0.017737 0.002771 0.035677
#
#
# Mechanical properties :
#
#
# Convention : Reuss Voigt Hill
#
# Bulk Modulus (GPa) = 20.65833 38.83816 29.74824
# Shear Modulus (GPa) = 23.25265 30.71285 26.98275
#
# Velocity S-wave (km/s) = 3.34426 3.84347 3.60252
# Velocity P-wave (km/s) = 4.98481 6.19490 5.62251
#
# Compressibility (1/GPa) = 0.04840663
#
# Stress axis : x y z
#
# Youngs Moduli (GPa) = 78.30607 30.23399 57.30690
#
# Poissons Ratio (x) = 0.23766 0.41336
# Poissons Ratio (y) = 0.61554 -0.43721
# Poissons Ratio (z) = 0.56483 -0.23066
#
# Static dielectric constant tensor:
#      x y z
#    x 1.725690 -0.007730 -0.020390 
#    y -0.007730 1.698380 0.044320 
#    z -0.020390 0.044320 1.734270 
# 
# From -- ./inp_files/184813.got.cif
#   From: 2010.05.17/outbox.cif.g08.bks.cpg/sg2_93_cif.got.tgz:184813.got - 2010.06.03 11:33:40.
