data_PCOD9014914
_publ_section_title
;
Structure prediction by ZEFSAII (Michael W. Deem and Ramdas Pophale) SiO2 
 PCOD9014914
Probable space group: P -1
;
_chemical_formula_sum "Si O2"
_cell_formula_units_Z 16
_cell_length_a 9.659132
_cell_length_b 21.611516
_cell_length_c 9.117576
_cell_angle_alpha 118.560707
_cell_angle_beta 78.246064
_cell_angle_gamma 48.611382
_cell_volume 770.802171
_symmetry_space_group_name_H-M "P -1"
_symmetry_group_IT_number 2
_symmetry_cell_setting 'triclinic'
loop_
_space_group_symop_operation_xyz
x,y,z
-x,-y,-z
loop_
_atom_site_type_symbol
_atom_site_label
_atom_site_fract_x
_atom_site_fract_y
_atom_site_fract_z
Si Si1 0.670383 0.122449 0.664607
Si Si2 0.673472 0.465367 0.799778
Si Si3 0.339043 0.262250 0.194298
Si Si4 0.303801 0.566152 0.760614
Si Si5 0.361670 0.130326 0.607071
Si Si6 0.684562 0.855572 0.721930
Si Si7 0.232073 0.454601 0.532712
Si Si8 0.808986 0.562316 0.970726
O O1 0.597881 0.089326 0.537020
O O2 0.508198 0.259837 0.776820
O O3 0.512885 0.167620 0.901697
O O4 0.000000 0.000000 0.500000
O O5 0.433156 0.570092 0.842179
O O6 0.960864 0.295022 0.491625
O O7 0.500000 0.500000 0.000000
O O8 0.777210 0.493587 0.875344
O O9 0.402204 0.180329 0.219709
O O10 0.426878 0.305383 0.256466
O O11 0.983238 0.415268 0.397081
O O12 0.500000 0.500000 0.500000
O O13 0.367109 0.453680 0.610338
O O14 0.951827 0.718700 0.063526
O O15 0.327484 0.139435 0.447737
O O16 0.500000 0.000000 0.500000
O O17 0.500000 0.000000 0.000000
O O18 0.997818 0.512072 0.741385
O O19 0.000000 0.500000 0.000000
#
# Coordination Sequence:
#
# PCOD9014914 Si02
#       8
#     2   2   2   2   2   2   2   2
#     4  11  26  45  72 105 141 191 248 304 368 442
#     4  12  25  43  70 110 143 182 252 303 362 434
#     4  10  21  42  72  98 134 192 242 290 364 429
#     4  12  26  42  73 110 146 185 245 305 360 439
#     4  12  27  48  71 102 151 195 236 297 380 442
#     4  12  26  46  72 102 148 197 236 303 374 444
#     4  10  21  41  70 100 137 184 240 296 359 431
#     4  11  22  42  76  99 140 188 242 303 368 433
#
# _framework density 20.757594000000001
#
# number of rings (size 3 to 8) (size 9 to 14) (size 15 to 20)
#    0.000    0.750    5.000    3.000    7.000    1.000 
#    0.000    0.625    0.000    0.000    0.000    0.000 
#    0.000    0.000    0.000    0.000    0.000    0.000 
#
# Total GULP energy -89081.019874 kJ/mol
# GULP energy per Si atom -5567.563742 kJ/mol
# Density = 2.071035 g / cm^3
# Si number density = 20.757594 Si / 1000 Ang^3
#
#
#
# Elastic Constant Matrix: (Units=GPa)
#
#
# Indices 1 2 3 4 5 6 
#
# 1 139.9236 31.6316 43.8147 6.7393 4.9941 -4.4576
# 2 31.6316 111.7920 37.9171 -7.8002 4.3262 3.4098
# 3 43.8147 37.9171 75.0535 -4.9625 4.0189 2.3033
# 4 6.7393 -7.8002 -4.9625 32.7758 0.6359 -1.1414
# 5 4.9941 4.3262 4.0189 0.6359 34.8156 2.2248
# 6 -4.4576 3.4098 2.3033 -1.1414 2.2248 39.4981
#
#
#
# Elastic Compliance Matrix: (Units=1/GPa)
#
#
# Indices 1 2 3 4 5 6 
#
# 1 0.009163 -0.001119 -0.004980 -0.002844 -0.000636 0.001375
# 2 -0.001119 0.011065 -0.004738 0.002134 -0.000661 -0.000706
# 3 -0.004980 -0.004738 0.018886 0.002733 -0.000855 -0.001127
# 4 -0.002844 0.002134 0.002733 0.032043 -0.000777 0.000305
# 5 -0.000636 -0.000661 -0.000855 -0.000777 0.029113 -0.001627
# 6 0.001375 -0.000706 -0.001127 0.000305 -0.001627 0.025700
#
#
# Mechanical properties :
#
#
# Convention : Reuss Voigt Hill
#
# Bulk Modulus (GPa) = 57.34388 61.49956 59.42172
# Shear Modulus (GPa) = 32.58248 35.64495 34.11372
#
# Velocity S-wave (km/s) = 3.96620 4.14841 4.05833
# Velocity P-wave (km/s) = 6.97566 7.25517 7.11679
#
# Compressibility (1/GPa) = 0.01743865
#
# Stress axis : x y z
#
# Youngs Moduli (GPa) = 109.13968 90.37398 52.94995
#
# Poissons Ratio (x) = 0.10116 0.26367
# Poissons Ratio (y) = 0.12217 0.25090
# Poissons Ratio (z) = 0.54347 0.42823
#
# Static dielectric constant tensor:
#      x y z
#    x 1.963680 -0.311340 0.212090 
#    y -0.311340 2.427630 -0.272840 
#    z 0.212090 -0.272840 2.039120 
# 
# From -- ./inp_files/223806.got.cif
#   From: 2010.05.17/outbox.cif.g08.bks.cpg/sg2_112_cif.got.tgz:223806.got - 2010.06.03 11:33:40.
