data_PCOD9014009
_publ_section_title
;
Structure prediction by ZEFSAII (Michael W. Deem and Ramdas Pophale) SiO2 
 PCOD9014009
Probable space group: P -1
;
_chemical_formula_sum "Si O2"
_cell_formula_units_Z 14
_cell_length_a 17.130441
_cell_length_b 6.313881
_cell_length_c 7.723941
_cell_angle_alpha 125.299181
_cell_angle_beta 106.614600
_cell_angle_gamma 91.354750
_cell_volume 634.018465
_symmetry_space_group_name_H-M "P -1"
_symmetry_group_IT_number 2
_symmetry_cell_setting 'triclinic'
loop_
_space_group_symop_operation_xyz
x,y,z
-x,-y,-z
loop_
_atom_site_type_symbol
_atom_site_label
_atom_site_fract_x
_atom_site_fract_y
_atom_site_fract_z
Si Si1 0.282363 0.290166 0.044133
Si Si2 0.400923 0.940897 0.899079
Si Si3 0.029722 0.791074 0.037076
Si Si4 0.712481 0.129850 0.536149
Si Si5 0.723543 0.588533 0.307333
Si Si6 0.903416 0.264411 0.616861
Si Si7 0.856167 0.239346 0.211095
O O1 0.272748 0.321969 0.847235
O O2 0.362895 0.169471 0.072433
O O3 0.204626 0.060184 0.958794
O O4 0.291778 0.590068 0.252943
O O5 0.364253 0.935123 0.678441
O O6 0.355774 0.653313 0.814950
O O7 0.500000 0.000000 0.000000
O O8 0.102126 0.711717 0.928248
O O9 0.947932 0.545240 0.865793
O O10 0.062590 0.911110 0.301633
O O11 0.000000 0.000000 0.000000
O O12 0.803835 0.203064 0.538744
O O13 0.715648 0.864902 0.524897
O O14 0.802653 0.458691 0.321201
O O15 0.920622 0.255278 0.420412
#
# Coordination Sequence:
#
# PCOD9014009 Si02
#       7
#     2   2   2   2   2   2   2
#     4  10  22  40  65  99 128 170 227 264 321 403
#     4  10  23  43  65  97 134 168 212 267 332 399
#     4  11  26  39  63  97 133 174 225 282 325 387
#     4  11  22  41  68  93 129 171 223 269 322 402
#     4  10  21  41  66  94 125 174 212 272 329 390
#     4  11  23  43  60  97 130 175 228 268 329 395
#     4  11  22  44  66  93 135 178 222 275 333 386
#
# _framework density 22.081372999999999
#
# number of rings (size 3 to 8) (size 9 to 14) (size 15 to 20)
#    0.000    1.429    4.286    2.143    2.000    8.000 
#    0.000    1.429    0.000    0.000    0.000    0.000 
#    0.000    0.000    0.000    0.000    0.000    0.000 
#
# Total GULP energy -78081.114717 kJ/mol
# GULP energy per Si atom -5577.222480 kJ/mol
# Density = 2.203111 g / cm^3
# Si number density = 22.081373 Si / 1000 Ang^3
#
#
#
# Elastic Constant Matrix: (Units=GPa)
#
#
# Indices 1 2 3 4 5 6 
#
# 1 82.4226 48.8591 41.5684 6.7676 13.8902 -7.9636
# 2 48.8591 127.8524 51.9683 16.1719 1.4409 -10.1892
# 3 41.5684 51.9683 101.6088 9.1743 0.2255 -18.1025
# 4 6.7676 16.1719 9.1743 54.2497 -11.0567 -9.1631
# 5 13.8902 1.4409 0.2255 -11.0567 25.9881 -1.2783
# 6 -7.9636 -10.1892 -18.1025 -9.1631 -1.2783 30.9911
#
#
#
# Elastic Compliance Matrix: (Units=1/GPa)
#
#
# Indices 1 2 3 4 5 6 
#
# 1 0.019922 -0.004997 -0.005511 -0.002564 -0.011462 -0.000974
# 2 -0.004997 0.011439 -0.003667 -0.001948 0.001231 -0.000190
# 3 -0.005511 -0.003667 0.015047 0.001142 0.003832 0.006663
# 4 -0.002564 -0.001948 0.001142 0.022561 0.011387 0.006508
# 5 -0.011462 0.001231 0.003832 0.011387 0.049600 0.005110
# 6 -0.000974 -0.000190 0.006663 0.006508 0.005110 0.037982
#
#
# Mechanical properties :
#
#
# Convention : Reuss Voigt Hill
#
# Bulk Modulus (GPa) = 55.37624 66.29727 60.83675
# Shear Modulus (GPa) = 26.18884 33.54499 29.86692
#
# Velocity S-wave (km/s) = 3.44759 3.90186 3.68174
# Velocity P-wave (km/s) = 6.40161 7.09849 6.75904
#
# Compressibility (1/GPa) = 0.01805829
#
# Stress axis : x y z
#
# Youngs Moduli (GPa) = 50.19467 87.41912 66.45802
#
# Poissons Ratio (x) = 0.43688 0.36624
# Poissons Ratio (y) = 0.25085 0.24369
# Poissons Ratio (z) = 0.27661 0.32056
#
# Static dielectric constant tensor:
#      x y z
#    x 1.977180 0.233610 -0.136610 
#    y 0.233610 2.368910 -0.047920 
#    z -0.136610 -0.047920 1.909690 
# 
# From -- ./inp_files/46893.got.cif
#   From: 2010.05.17/outbox.cif.g08.bks.cpg/sg2_24_cif.got.tgz:46893.got - 2010.06.03 11:33:40.
