data_PCOD9014532
_publ_section_title
;
Structure prediction by ZEFSAII (Michael W. Deem and Ramdas Pophale) SiO2 
 PCOD9014532
Probable space group: P -1
;
_chemical_formula_sum "Si O2"
_cell_formula_units_Z 16
_cell_length_a 11.679694
_cell_length_b 16.448978
_cell_length_c 10.481115
_cell_angle_alpha 34.288622
_cell_angle_beta 141.781678
_cell_angle_gamma 128.067153
_cell_volume 698.741737
_symmetry_space_group_name_H-M "P -1"
_symmetry_group_IT_number 2
_symmetry_cell_setting 'triclinic'
loop_
_space_group_symop_operation_xyz
x,y,z
-x,-y,-z
loop_
_atom_site_type_symbol
_atom_site_label
_atom_site_fract_x
_atom_site_fract_y
_atom_site_fract_z
Si Si1 0.188309 0.126474 0.366960
Si Si2 0.536107 0.973242 0.750941
Si Si3 0.175386 0.055775 0.727714
Si Si4 0.985825 0.355983 0.760534
Si Si5 0.966401 0.664595 0.622280
Si Si6 0.874703 0.871105 0.035918
Si Si7 0.290450 0.571691 0.364218
Si Si8 0.374654 0.672292 0.046478
O O1 0.254495 0.065449 0.642380
O O2 0.359499 0.087925 0.471012
O O3 0.001420 0.040323 0.296671
O O4 0.126247 0.298450 0.073409
O O5 0.677001 0.989083 0.973953
O O6 0.670283 0.953837 0.770703
O O7 0.448993 0.820778 0.879502
O O8 0.098946 0.222540 0.471390
O O9 0.790044 0.372332 0.643227
O O10 0.000000 0.500000 0.500000
O O11 0.042043 0.222421 0.888552
O O12 0.898685 0.752438 0.322804
O O13 0.865236 0.519829 0.718512
O O14 0.186578 0.644651 0.846527
O O15 0.000000 0.000000 0.000000
O O16 0.336624 0.683950 0.150606
O O17 0.471282 0.458578 0.678932
#
# Coordination Sequence:
#
# PCOD9014532 Si02
#       8
#     2   2   2   2   2   2   2   2
#     4  11  24  40  71 101 133 184 217 286 358 400
#     4  11  22  44  69 105 132 171 234 293 337 412
#     4  10  21  41  68 105 141 162 222 292 352 407
#     4  12  24  47  67  94 141 185 230 275 334 408
#     4  11  20  43  66  94 132 178 222 269 341 403
#     4  11  25  47  69  94 138 184 225 283 332 404
#     4  11  24  43  66  98 137 178 215 289 340 403
#     4  11  22  40  70 103 130 171 227 282 351 406
#
# _framework density 22.898302999999999
#
# number of rings (size 3 to 8) (size 9 to 14) (size 15 to 20)
#    0.000    1.000    5.000    3.000    1.750    0.500 
#    4.500    0.625    0.000    0.000    0.000    0.000 
#    0.000    0.000    0.000    0.000    0.000    0.000 
#
# Total GULP energy -89322.582196 kJ/mol
# GULP energy per Si atom -5582.661387 kJ/mol
# Density = 2.284619 g / cm^3
# Si number density = 22.898303 Si / 1000 Ang^3
#
#
#
# Elastic Constant Matrix: (Units=GPa)
#
#
# Indices 1 2 3 4 5 6 
#
# 1 170.6609 14.7114 39.5825 -5.0019 24.6164 -5.6296
# 2 14.7114 63.3721 13.1718 1.2962 16.9313 12.9808
# 3 39.5825 13.1718 92.4387 1.7930 25.8769 2.9856
# 4 -5.0019 1.2962 1.7930 35.3612 10.5255 0.7200
# 5 24.6164 16.9313 25.8769 10.5255 40.1625 3.7410
# 6 -5.6296 12.9808 2.9856 0.7200 3.7410 35.6525
#
#
#
# Elastic Compliance Matrix: (Units=1/GPa)
#
#
# Indices 1 2 3 4 5 6 
#
# 1 0.007009 -0.000717 -0.002049 0.002094 -0.003395 0.001853
# 2 -0.000717 0.019219 -0.000201 0.001518 -0.007339 -0.006354
# 3 -0.002049 -0.000201 0.013942 0.001389 -0.007949 -0.000612
# 4 0.002094 0.001518 0.001389 0.031768 -0.011162 0.000191
# 5 -0.003395 -0.007339 -0.007949 -0.011162 0.038212 -0.000982
# 6 0.001853 -0.006354 -0.000612 0.000191 -0.000982 0.030805
#
#
# Mechanical properties :
#
#
# Convention : Reuss Voigt Hill
#
# Bulk Modulus (GPa) = 29.20887 51.26700 40.23793
# Shear Modulus (GPa) = 31.58504 39.50232 35.54368
#
# Velocity S-wave (km/s) = 3.71800 4.15796 3.94412
# Velocity P-wave (km/s) = 5.58704 6.74456 6.19291
#
# Compressibility (1/GPa) = 0.03423618
#
# Stress axis : x y z
#
# Youngs Moduli (GPa) = 142.67712 52.03060 71.72447
#
# Poissons Ratio (x) = 0.03728 0.14698
# Poissons Ratio (y) = 0.10223 0.01445
# Poissons Ratio (z) = 0.29238 0.01048
#
# Static dielectric constant tensor:
#      x y z
#    x 1.912380 -0.097220 -0.013740 
#    y -0.097220 1.810610 0.082550 
#    z -0.013740 0.082550 1.844700 
# 
# From -- ./inp_files/436459.got.cif
#   From: 2010.05.17/outbox.cif.g08.bks.cpg/sg2_219_cif.got.tgz:436459.got - 2010.06.03 11:33:40.
