data_PCOD9014920
_publ_section_title
;
Structure prediction by ZEFSAII (Michael W. Deem and Ramdas Pophale) SiO2 
 PCOD9014920
Probable space group: P -1
;
_chemical_formula_sum "Si O2"
_cell_formula_units_Z 14
_cell_length_a 14.801234
_cell_length_b 7.942416
_cell_length_c 16.217091
_cell_angle_alpha 40.713077
_cell_angle_beta 30.409831
_cell_angle_gamma 42.829637
_cell_volume 610.845191
_symmetry_space_group_name_H-M "P -1"
_symmetry_group_IT_number 2
_symmetry_cell_setting 'triclinic'
loop_
_space_group_symop_operation_xyz
x,y,z
-x,-y,-z
loop_
_atom_site_type_symbol
_atom_site_label
_atom_site_fract_x
_atom_site_fract_y
_atom_site_fract_z
Si Si1 0.018962 0.199284 0.121320
Si Si2 0.985430 0.658276 0.639322
Si Si3 0.374688 0.910825 0.488686
Si Si4 0.177339 0.930598 0.263185
Si Si5 0.628134 0.398554 0.556191
Si Si6 0.484179 0.459352 0.230015
Si Si7 0.872667 0.162403 0.968459
O O1 0.814807 0.141715 0.305849
O O2 0.106011 0.105709 0.175599
O O3 0.152691 0.043925 0.003385
O O4 0.000000 0.500000 0.000000
O O5 0.036863 0.760742 0.472683
O O6 0.162388 0.642609 0.564437
O O7 0.957018 0.367284 0.773718
O O8 0.821707 0.870991 0.734032
O O9 0.546900 0.686935 0.471842
O O10 0.380155 0.831675 0.416858
O O11 0.391241 0.206397 0.388972
O O12 0.364318 0.710513 0.181728
O O13 0.518680 0.426230 0.717771
O O14 0.688925 0.337341 0.086409
O O15 0.000000 0.000000 0.000000
#
# Coordination Sequence:
#
# PCOD9014920 Si02
#       7
#     2   2   2   2   2   2   2
#     4  12  26  45  70 102 139 175 237 297 348 419
#     4  10  21  45  71  99 138 182 238 276 350 419
#     4  11  23  41  72 103 136 186 232 288 345 421
#     4  10  23  45  69  98 137 187 230 286 350 421
#     4  10  21  41  70 101 134 185 233 286 339 414
#     4  11  25  44  68 105 144 183 233 283 355 411
#     4  12  26  43  71 104 143 186 227 295 346 410
#
# _framework density 22.919063000000001
#
# number of rings (size 3 to 8) (size 9 to 14) (size 15 to 20)
#    0.000    1.143    1.429    4.714    4.000    3.429 
#    0.000    2.857    0.000    0.000    0.000    0.000 
#    0.000    0.000    0.000    0.000    0.000    0.000 
#
# Total GULP energy -78274.821826 kJ/mol
# GULP energy per Si atom -5591.058702 kJ/mol
# Density = 2.286690 g / cm^3
# Si number density = 22.919063 Si / 1000 Ang^3
#
#
#
# Elastic Constant Matrix: (Units=GPa)
#
#
# Indices 1 2 3 4 5 6 
#
# 1 56.4303 34.6076 31.9561 3.3138 22.9959 -16.3198
# 2 34.6076 165.9783 54.2536 8.9928 14.3698 -20.0565
# 3 31.9561 54.2536 82.1946 1.4787 12.0111 -6.1539
# 4 3.3138 8.9928 1.4787 53.4036 1.8587 10.9175
# 5 22.9959 14.3698 12.0111 1.8587 29.1919 4.6451
# 6 -16.3198 -20.0565 -6.1539 10.9175 4.6451 33.4413
#
#
#
# Elastic Compliance Matrix: (Units=1/GPa)
#
#
# Indices 1 2 3 4 5 6 
#
# 1 0.048057 0.000999 -0.011450 -0.007583 -0.037878 0.029682
# 2 0.000999 0.008669 -0.005056 -0.002497 -0.003785 0.006097
# 3 -0.011450 -0.005056 0.018738 0.002218 0.004699 -0.006549
# 4 -0.007583 -0.002497 0.002218 0.021955 0.006948 -0.012922
# 5 -0.037878 -0.003785 0.004699 0.006948 0.068625 -0.031691
# 6 0.029682 0.006097 -0.006549 -0.012922 -0.031691 0.055461
#
#
# Mechanical properties :
#
#
# Convention : Reuss Voigt Hill
#
# Bulk Modulus (GPa) = 22.49653 60.69309 41.59481
# Shear Modulus (GPa) = 18.70317 35.45975 27.08146
#
# Velocity S-wave (km/s) = 2.85976 3.93768 3.44119
# Velocity P-wave (km/s) = 4.55426 6.87115 5.82898
#
# Compressibility (1/GPa) = 0.04445130
#
# Stress axis : x y z
#
# Youngs Moduli (GPa) = 20.80858 115.35374 53.36717
#
# Poissons Ratio (x) = -0.11527 0.61104
# Poissons Ratio (y) = -0.02079 0.26982
# Poissons Ratio (z) = 0.23825 0.58323
#
# Static dielectric constant tensor:
#      x y z
#    x 1.902270 -0.066460 0.039290 
#    y -0.066460 1.971960 -0.089480 
#    z 0.039290 -0.089480 2.019080 
# 
# From -- ./inp_files/529254.got.cif
#   From: 2010.05.17/outbox.cif.g08.bks.cpg/sg2_265_cif.got.tgz:529254.got - 2010.06.03 11:33:40.
