data_PCOD9014717
_publ_section_title
;
Structure prediction by ZEFSAII (Michael W. Deem and Ramdas Pophale) SiO2 
 PCOD9014717
Probable space group: P -1
;
_chemical_formula_sum "Si O2"
_cell_formula_units_Z 16
_cell_length_a 21.197375
_cell_length_b 5.415022
_cell_length_c 9.280950
_cell_angle_alpha 120.061296
_cell_angle_beta 88.979873
_cell_angle_gamma 113.771639
_cell_volume 820.675221
_symmetry_space_group_name_H-M "P -1"
_symmetry_group_IT_number 2
_symmetry_cell_setting 'triclinic'
loop_
_space_group_symop_operation_xyz
x,y,z
-x,-y,-z
loop_
_atom_site_type_symbol
_atom_site_label
_atom_site_fract_x
_atom_site_fract_y
_atom_site_fract_z
Si Si1 0.304869 0.403004 0.026867
Si Si2 0.346501 0.566253 0.392493
Si Si3 0.951701 0.577325 0.129896
Si Si4 0.424826 0.293294 0.518801
Si Si5 0.420432 0.742254 0.894154
Si Si6 0.047790 0.776393 0.684375
Si Si7 0.814267 0.618162 0.148268
Si Si8 0.297912 0.768024 0.725693
O O1 0.313644 0.386942 0.192100
O O2 0.377021 0.653491 0.019498
O O3 0.238749 0.464824 0.007762
O O4 0.288870 0.082490 0.845206
O O5 0.372803 0.356368 0.428991
O O6 0.298650 0.655210 0.530209
O O7 0.404826 0.922494 0.440989
O O8 0.955734 0.408207 0.224850
O O9 0.867929 0.464832 0.074928
O O10 0.981420 0.960867 0.239039
O O11 0.000000 0.500000 0.000000
O O12 0.500000 0.500000 0.500000
O O13 0.422617 0.449824 0.719444
O O14 0.373777 0.843797 0.818373
O O15 0.500000 0.000000 0.000000
O O16 0.000000 0.500000 0.500000
O O17 0.131134 0.007863 0.720905
O O18 0.764092 0.495738 0.253069
#
# Coordination Sequence:
#
# PCOD9014717 Si02
#       8
#     2   2   2   2   2   2   2   2
#     4  11  22  42  66  88 135 173 226 278 333 402
#     4  11  25  41  65  91 124 177 219 276 334 397
#     4  10  21  41  69  98 139 169 216 267 329 394
#     4  11  23  42  60  95 133 163 221 286 335 403
#     4  10  22  38  63  93 124 177 221 279 341 392
#     4  10  21  41  69 100 135 173 217 265 333 395
#     4   9  23  39  70  92 135 176 219 268 339 394
#     4  10  22  44  61  91 136 169 226 281 327 404
#
# _framework density 19.496144000000001
#
# number of rings (size 3 to 8) (size 9 to 14) (size 15 to 20)
#    0.750    1.000    1.250    2.625    5.250    1.500 
#    0.000    5.000    0.000    0.000    0.000    0.000 
#    0.000    0.000    0.000    0.000    0.000    0.000 
#
# Total GULP energy -89108.991807 kJ/mol
# GULP energy per Si atom -5569.311988 kJ/mol
# Density = 1.945177 g / cm^3
# Si number density = 19.496144 Si / 1000 Ang^3
#
#
#
# Elastic Constant Matrix: (Units=GPa)
#
#
# Indices 1 2 3 4 5 6 
#
# 1 108.3122 33.8331 58.4226 -6.7937 1.5430 8.7736
# 2 33.8331 111.3174 13.6472 -4.4853 7.8951 10.3890
# 3 58.4226 13.6472 83.6031 -18.5805 2.8373 11.7897
# 4 -6.7937 -4.4853 -18.5805 30.6891 -4.0717 -4.5936
# 5 1.5430 7.8951 2.8373 -4.0717 20.9511 6.4622
# 6 8.7736 10.3890 11.7897 -4.5936 6.4622 32.4365
#
#
#
# Elastic Compliance Matrix: (Units=1/GPa)
#
#
# Indices 1 2 3 4 5 6 
#
# 1 0.016561 -0.003832 -0.011897 -0.003919 0.000974 0.000323
# 2 -0.003832 0.010404 0.001587 0.000912 -0.003015 -0.002143
# 3 -0.011897 0.001587 0.023034 0.010991 0.000598 -0.004225
# 4 -0.003919 0.000912 0.010991 0.039450 0.005749 0.001214
# 5 0.000974 -0.003015 0.000598 0.005749 0.052667 -0.009194
# 6 0.000323 -0.002143 -0.004225 0.001214 -0.009194 0.034968
#
#
# Mechanical properties :
#
#
# Convention : Reuss Voigt Hill
#
# Bulk Modulus (GPa) = 46.05199 57.22649 51.63924
# Shear Modulus (GPa) = 23.51770 29.97065 26.74418
#
# Velocity S-wave (km/s) = 3.47691 3.92504 3.70776
# Velocity P-wave (km/s) = 6.30801 7.06808 6.69883
#
# Compressibility (1/GPa) = 0.02171459
#
# Stress axis : x y z
#
# Youngs Moduli (GPa) = 60.38343 96.11651 43.41350
#
# Poissons Ratio (x) = 0.36832 0.51649
# Poissons Ratio (y) = 0.23139 -0.06889
# Poissons Ratio (z) = 0.71838 -0.15251
#
# Static dielectric constant tensor:
#      x y z
#    x 1.737310 0.040310 0.008410 
#    y 0.040310 1.786830 0.046890 
#    z 0.008410 0.046890 1.668210 
# 
# From -- ./inp_files/51775.got.cif
#   From: 2010.05.17/outbox.cif.g08.bks.cpg/sg2_26_cif.got.tgz:51775.got - 2010.06.03 11:33:40.
