data_PCOD9014321
_publ_section_title
;
Structure prediction by ZEFSAII (Michael W. Deem and Ramdas Pophale) SiO2 
 PCOD9014321
Probable space group: P -1
;
_chemical_formula_sum "Si O2"
_cell_formula_units_Z 16
_cell_length_a 21.802213
_cell_length_b 21.662661
_cell_length_c 12.287415
_cell_angle_alpha 33.244234
_cell_angle_beta 146.634705
_cell_angle_gamma 167.251228
_cell_volume 692.921019
_symmetry_space_group_name_H-M "P -1"
_symmetry_group_IT_number 2
_symmetry_cell_setting 'triclinic'
loop_
_space_group_symop_operation_xyz
x,y,z
-x,-y,-z
loop_
_atom_site_type_symbol
_atom_site_label
_atom_site_fract_x
_atom_site_fract_y
_atom_site_fract_z
Si Si1 0.379457 0.676504 0.041605
Si Si2 0.447679 0.533677 0.971612
Si Si3 0.237454 0.184805 0.372651
Si Si4 0.945821 0.119939 0.134761
Si Si5 0.748989 0.238204 0.433777
Si Si6 0.595068 0.961753 0.172794
Si Si7 0.204675 0.421852 0.404418
Si Si8 0.085436 0.850156 0.204067
O O1 0.303843 0.712850 0.801788
O O2 0.108973 0.345015 0.134105
O O3 0.471346 0.812927 0.090782
O O4 0.621719 0.828079 0.118081
O O5 0.345506 0.362652 0.172375
O O6 0.500000 0.500000 0.000000
O O7 0.192651 0.382706 0.796942
O O8 0.711751 0.855478 0.916162
O O9 0.084389 0.126402 0.316561
O O10 0.528594 0.395840 0.532006
O O11 0.995424 0.873249 0.433002
O O12 0.978649 0.211218 0.930661
O O13 0.789500 0.152245 0.571139
O O14 0.000000 0.500000 0.500000
O O15 0.500000 0.000000 0.500000
O O16 0.423828 0.711700 0.363478
O O17 0.931220 0.252846 0.235363
O O18 0.500000 0.000000 0.000000
#
# Coordination Sequence:
#
# PCOD9014321 Si02
#       8
#     2   2   2   2   2   2   2   2
#     4  12  23  41  65  97 127 174 213 268 328 393
#     4  11  23  40  62  94 133 172 218 260 321 390
#     4  10  21  41  67  94 128 172 207 269 330 382
#     4  11  21  38  67  95 130 169 209 251 335 397
#     4  12  22  39  63  97 136 165 218 263 318 390
#     4  11  25  47  69  92 129 173 218 274 331 378
#     4  10  22  44  69  91 123 166 219 264 319 385
#     4  11  21  38  62  91 134 177 205 262 321 378
#
# _framework density 23.090655000000002
#
# number of rings (size 3 to 8) (size 9 to 14) (size 15 to 20)
#    0.000    1.000    2.500    6.000    0.000    0.000 
#    6.750   12.500    0.000    0.000    0.000    0.000 
#    0.000    0.000    0.000    0.000    0.000    0.000 
#
# Total GULP energy -89218.458110 kJ/mol
# GULP energy per Si atom -5576.153632 kJ/mol
# Density = 2.303810 g / cm^3
# Si number density = 23.090655 Si / 1000 Ang^3
#
#
#
# Elastic Constant Matrix: (Units=GPa)
#
#
# Indices 1 2 3 4 5 6 
#
# 1 78.0131 1.1298 7.4860 27.5812 17.1719 -11.0245
# 2 1.1298 115.4796 -11.0503 35.1693 -7.9560 -14.8443
# 3 7.4860 -11.0503 49.3667 48.8775 0.6299 -30.9839
# 4 27.5812 35.1693 48.8775 14.0034 28.2005 37.4579
# 5 17.1719 -7.9560 0.6299 28.2005 17.2568 -19.1370
# 6 -11.0245 -14.8443 -30.9839 37.4579 -19.1370 10.0020
#
#
#
# Elastic Compliance Matrix: (Units=1/GPa)
#
#
# Indices 1 2 3 4 5 6 
#
# 1 0.016556 -0.000457 -0.000384 -0.002320 -0.013301 -0.000379
# 2 -0.000457 0.007513 -0.001707 0.001323 -0.002022 -0.003463
# 3 -0.000384 -0.001707 0.012544 0.004063 -0.013760 -0.005643
# 4 -0.002320 0.001323 0.004063 0.004629 0.009554 0.012938
# 5 -0.013301 -0.002022 -0.013760 0.009554 0.045811 -0.008414
# 6 -0.000379 -0.003463 -0.005643 0.012938 -0.008414 0.012392
#
#
# Mechanical properties :
#
#
# Convention : Reuss Voigt Hill
#
# Bulk Modulus (GPa) = 31.72869 26.44338 29.08604
# Shear Modulus (GPa) = 43.46072 24.60536 34.03304
#
# Velocity S-wave (km/s) = 4.34311 3.26789 3.84329
# Velocity P-wave (km/s) = 6.23866 5.07106 5.68492
#
# Compressibility (1/GPa) = 0.03151722
#
# Stress axis : x y z
#
# Youngs Moduli (GPa) = 60.40038 133.09758 79.71988
#
# Poissons Ratio (x) = 0.06086 0.03062
# Poissons Ratio (y) = 0.02762 0.13606
# Poissons Ratio (z) = 0.02320 0.22716
#
# Static dielectric constant tensor:
#      x y z
#    x 1.875590 0.028980 -0.049000 
#    y 0.028980 1.848080 -0.014840 
#    z -0.049000 -0.014840 1.978480 
# 
# From -- ./inp_files/543371.got.cif
#   From: 2010.05.17/outbox.cif.g08.bks.cpg/sg2_272_cif.got.tgz:543371.got - 2010.06.03 11:33:40.
