data_PCOD9014132
_publ_section_title
;
Structure prediction by ZEFSAII (Michael W. Deem and Ramdas Pophale) SiO2 
 PCOD9014132
Probable space group: P -1
;
_chemical_formula_sum "Si O2"
_cell_formula_units_Z 15
_cell_length_a 20.120488
_cell_length_b 9.115050
_cell_length_c 8.066107
_cell_angle_alpha 90.313665
_cell_angle_beta 130.285897
_cell_angle_gamma 130.490256
_cell_volume 583.654467
_symmetry_space_group_name_H-M "P -1"
_symmetry_group_IT_number 2
_symmetry_cell_setting 'triclinic'
loop_
_space_group_symop_operation_xyz
x,y,z
-x,-y,-z
loop_
_atom_site_type_symbol
_atom_site_label
_atom_site_fract_x
_atom_site_fract_y
_atom_site_fract_z
Si Si1 0.593155 0.921377 0.854229
Si Si2 0.382110 0.745818 0.940271
Si Si3 0.996173 0.906158 0.668657
Si Si4 0.625377 0.883300 0.526897
Si Si5 0.000000 0.500000 0.000000
Si Si6 0.002881 0.191255 0.864152
Si Si7 0.085368 0.777192 0.603980
Si Si8 0.382582 0.405121 0.670736
O O1 0.429587 0.635810 0.689517
O O2 0.643770 0.160795 0.967844
O O3 0.593656 0.890979 0.661127
O O4 0.730631 0.007842 0.153301
O O5 0.492223 0.775279 0.195426
O O6 0.195616 0.416413 0.600355
O O7 0.500000 0.000000 0.000000
O O8 0.089584 0.890486 0.768763
O O9 0.070044 0.123763 0.927882
O O10 0.000000 0.000000 0.500000
O O11 0.597350 0.670585 0.456730
O O12 0.812669 0.189941 0.765443
O O13 0.949991 0.611197 0.931305
O O14 0.012304 0.290743 0.704904
O O15 0.805983 0.878034 0.571940
O O16 0.000000 0.500000 0.500000
O O17 0.500000 0.500000 0.000000
#
# Coordination Sequence:
#
# PCOD9014132 Si02
#       8
#     2   2   2   2   1   2   2   2
#     4  12  24  42  67 104 139 183 233 292 352 415
#     4  12  26  44  72 103 138 187 237 291 353 422
#     4  10  23  41  68 105 135 177 234 291 342 409
#     4  11  26  44  68 100 143 180 234 291 356 420
#     4  10  24  42  70  96 138 184 224 286 356 410
#     4  10  21  41  66  98 135 182 229 283 348 415
#     4  11  21  38  68 100 133 178 235 282 341 417
#     4  11  21  42  68  96 134 181 234 283 346 419
#
# _framework density 25.700136000000001
#
# number of rings (size 3 to 8) (size 9 to 14) (size 15 to 20)
#    0.000    1.067    2.667    4.000    5.600    1.067 
#    0.000    0.000    0.000    8.000    0.000    0.000 
#    0.000    0.000    0.000    0.000    0.000    0.000 
#
# Total GULP energy -83669.415351 kJ/mol
# GULP energy per Si atom -5577.961023 kJ/mol
# Density = 2.564164 g / cm^3
# Si number density = 25.700136 Si / 1000 Ang^3
#
#
#
# Elastic Constant Matrix: (Units=GPa)
#
#
# Indices 1 2 3 4 5 6 
#
# 1 142.2813 39.2246 4.1551 7.6195 -16.0885 -36.8235
# 2 39.2246 121.5109 40.8300 29.2452 -2.9427 -11.6007
# 3 4.1551 40.8300 40.1489 5.0583 -3.5687 3.5490
# 4 7.6195 29.2452 5.0583 39.7440 -0.0351 -3.3572
# 5 -16.0885 -2.9427 -3.5687 -0.0351 35.7310 14.3059
# 6 -36.8235 -11.6007 3.5490 -3.3572 14.3059 61.4945
#
#
#
# Elastic Compliance Matrix: (Units=1/GPa)
#
#
# Indices 1 2 3 4 5 6 
#
# 1 0.009252 -0.003532 0.002366 0.000883 0.002422 0.004222
# 2 -0.003532 0.017472 -0.016596 -0.009881 -0.002712 0.002230
# 3 0.002366 -0.016596 0.041770 0.006010 0.005950 -0.005181
# 4 0.000883 -0.009881 0.006010 0.031497 0.000221 -0.000014
# 5 0.002422 -0.002712 0.005950 0.000221 0.032205 -0.006885
# 6 0.004222 0.002230 -0.005181 -0.000014 -0.006885 0.021111
#
#
# Mechanical properties :
#
#
# Convention : Reuss Voigt Hill
#
# Bulk Modulus (GPa) = 30.33223 52.48450 41.40836
# Shear Modulus (GPa) = 25.02226 42.04265 33.53245
#
# Velocity S-wave (km/s) = 3.12368 4.04900 3.61606
# Velocity P-wave (km/s) = 4.98375 6.50580 5.79497
#
# Compressibility (1/GPa) = 0.03296824
#
# Stress axis : x y z
#
# Youngs Moduli (GPa) = 108.08004 57.23432 23.94079
#
# Poissons Ratio (x) = 0.20218 -0.05663
# Poissons Ratio (y) = 0.38178 0.39732
# Poissons Ratio (z) = -0.25566 0.94986
#
# Static dielectric constant tensor:
#      x y z
#    x 2.096890 0.014910 -0.020480 
#    y 0.014910 1.988120 0.004500 
#    z -0.020480 0.004500 2.110170 
# 
# From -- ./inp_files/221828.got.cif
#   From: 2010.05.17/outbox.cif.g08.bks.cpg/sg2_111_cif.got.tgz:221828.got - 2010.06.03 11:33:40.
