data_PCOD9014970
_publ_section_title
;
Structure prediction by ZEFSAII (Michael W. Deem and Ramdas Pophale) SiO2 
 PCOD9014970
Probable space group: P -1
;
_chemical_formula_sum "Si O2"
_cell_formula_units_Z 14
_cell_length_a 14.249065
_cell_length_b 22.697929
_cell_length_c 14.226596
_cell_angle_alpha 18.683623
_cell_angle_beta 148.442573
_cell_angle_gamma 157.266110
_cell_volume 560.888007
_symmetry_space_group_name_H-M "P -1"
_symmetry_group_IT_number 2
_symmetry_cell_setting 'triclinic'
loop_
_space_group_symop_operation_xyz
x,y,z
-x,-y,-z
loop_
_atom_site_type_symbol
_atom_site_label
_atom_site_fract_x
_atom_site_fract_y
_atom_site_fract_z
Si Si1 0.831742 0.635504 0.319733
Si Si2 0.252779 0.893880 0.520538
Si Si3 0.524560 0.004350 0.860953
Si Si4 0.886861 0.235151 0.988922
Si Si5 0.335088 0.949239 0.282795
Si Si6 0.542438 0.461646 0.987468
Si Si7 0.289833 0.449950 0.451718
O O1 0.895316 0.464456 0.646197
O O2 0.616109 0.505195 0.258902
O O3 0.743053 0.654496 0.313518
O O4 0.101059 0.905200 0.115952
O O5 0.261958 0.867292 0.455854
O O6 0.971140 0.728090 0.552766
O O7 0.378768 0.813581 0.804544
O O8 0.411656 0.181724 0.257486
O O9 0.743912 0.099284 0.974739
O O10 0.633648 0.155785 0.627025
O O11 0.307398 0.955225 0.806963
O O12 0.388448 0.723202 0.140328
O O13 0.161983 0.350097 0.060557
O O14 0.500000 0.500000 0.000000
O O15 0.500000 0.500000 0.500000
#
# Coordination Sequence:
#
# PCOD9014970 Si02
#       7
#     2   2   2   2   2   2   2
#     4  10  23  43  68  97 128 175 213 268 326 373
#     4  10  24  42  63  99 131 164 224 267 313 392
#     4  10  23  41  70  91 130 182 205 264 340 366
#     4  10  23  47  64  98 136 163 222 267 312 403
#     4  10  21  41  70  92 129 172 216 267 323 380
#     4  12  26  40  71  99 127 172 219 268 323 383
#     4  10  24  41  63  96 135 168 216 269 320 390
#
# _framework density 24.960419999999999
#
# number of rings (size 3 to 8) (size 9 to 14) (size 15 to 20)
#    0.000    1.714    1.429    0.857   10.000    4.000 
#    0.000    6.429    0.000    0.000    0.000    0.000 
#    0.000    0.000    0.000    0.000    0.000    0.000 
#
# Total GULP energy -78002.729272 kJ/mol
# GULP energy per Si atom -5571.623519 kJ/mol
# Density = 2.490361 g / cm^3
# Si number density = 24.960420 Si / 1000 Ang^3
#
#
#
# Elastic Constant Matrix: (Units=GPa)
#
#
# Indices 1 2 3 4 5 6 
#
# 1 196.5711 114.9554 35.1137 8.4155 -18.9729 13.4370
# 2 114.9554 301.4606 39.9170 16.0291 -12.8510 29.5846
# 3 35.1137 39.9170 48.3121 -8.1644 8.8148 -0.4089
# 4 8.4155 16.0291 -8.1644 32.3134 -1.0062 5.3824
# 5 -18.9729 -12.8510 8.8148 -1.0062 24.1329 0.5326
# 6 13.4370 29.5846 -0.4089 5.3824 0.5326 46.3069
#
#
#
# Elastic Compliance Matrix: (Units=1/GPa)
#
#
# Indices 1 2 3 4 5 6 
#
# 1 0.008143 -0.001690 -0.006361 -0.002458 0.007748 -0.001143
# 2 -0.001690 0.004946 -0.003779 -0.002479 0.002636 -0.002445
# 3 -0.006361 -0.003779 0.033776 0.010890 -0.018974 0.003511
# 4 -0.002458 -0.002479 0.010890 0.035672 -0.005706 -0.001687
# 5 0.007748 0.002636 -0.018974 -0.005706 0.055715 -0.004078
# 6 -0.001143 -0.002445 0.003511 -0.001687 -0.004078 0.023763
#
#
# Mechanical properties :
#
#
# Convention : Reuss Voigt Hill
#
# Bulk Modulus (GPa) = 43.09309 102.92399 73.00854
# Shear Modulus (GPa) = 25.85186 44.30782 35.07984
#
# Velocity S-wave (km/s) = 3.22174 4.21779 3.75296
# Velocity P-wave (km/s) = 5.58046 8.06499 6.93490
#
# Compressibility (1/GPa) = 0.02320558
#
# Stress axis : x y z
#
# Youngs Moduli (GPa) = 122.80782 202.18058 29.60651
#
# Poissons Ratio (x) = 0.34162 0.18833
# Poissons Ratio (y) = 0.20750 0.11189
# Poissons Ratio (z) = 0.78118 0.76408
#
# Static dielectric constant tensor:
#      x y z
#    x 2.048410 0.076810 -0.052620 
#    y 0.076810 1.996280 -0.049180 
#    z -0.052620 -0.049180 2.431430 
# 
# From -- ./inp_files/184321.got.cif
#   From: 2010.05.17/outbox.cif.g08.bks.cpg/sg2_93_cif.got.tgz:184321.got - 2010.06.03 11:33:40.
