data_PCOD9014668
_publ_section_title
;
Structure prediction by ZEFSAII (Michael W. Deem and Ramdas Pophale) SiO2 
 PCOD9014668
Probable space group: P -1
;
_chemical_formula_sum "Si O2"
_cell_formula_units_Z 16
_cell_length_a 9.590946
_cell_length_b 5.246367
_cell_length_c 19.534264
_cell_angle_alpha 52.254451
_cell_angle_beta 58.491272
_cell_angle_gamma 80.762625
_cell_volume 643.844885
_symmetry_space_group_name_H-M "P -1"
_symmetry_group_IT_number 2
_symmetry_cell_setting 'triclinic'
loop_
_space_group_symop_operation_xyz
x,y,z
-x,-y,-z
loop_
_atom_site_type_symbol
_atom_site_label
_atom_site_fract_x
_atom_site_fract_y
_atom_site_fract_z
Si Si1 0.556741 0.018633 0.688250
Si Si2 0.193770 0.144827 0.437576
Si Si3 0.745132 0.753498 0.305246
Si Si4 0.343996 0.849070 0.218191
Si Si5 0.979770 0.465495 0.092238
Si Si6 0.325966 0.308198 0.879374
Si Si7 0.316355 0.347415 0.040103
Si Si8 0.308890 0.996190 0.571000
O O1 0.432546 0.263862 0.685949
O O2 0.657325 0.971076 0.738694
O O3 0.687706 0.086836 0.582269
O O4 0.423287 0.673343 0.769667
O O5 0.254695 0.477190 0.322931
O O6 0.230614 0.185001 0.501489
O O7 0.000000 0.000000 0.500000
O O8 0.785581 0.397075 0.341670
O O9 0.885361 0.080858 0.193495
O O10 0.704185 0.834146 0.380831
O O11 0.544239 0.900117 0.144083
O O12 0.265662 0.996476 0.150578
O O13 0.857724 0.708650 0.102048
O O14 0.167419 0.534070 0.063204
O O15 0.000000 0.500000 0.000000
O O16 0.323827 0.305814 0.963181
O O17 0.500000 0.500000 0.000000
O O18 0.500000 0.000000 0.500000
#
# Coordination Sequence:
#
# PCOD9014668 Si02
#       8
#     2   2   2   2   2   2   2   2
#     4  10  21  41  68  97 133 176 227 284 354 415
#     4  11  27  43  64  98 137 181 231 290 352 418
#     4  11  25  44  76 103 142 182 245 295 356 422
#     4  11  23  40  72  93 136 183 228 285 359 424
#     4   9  22  44  68 101 142 178 232 292 358 422
#     4   9  20  42  64  96 132 174 228 277 345 422
#     4  11  21  41  68  99 137 178 227 285 356 433
#     4  12  25  47  72 104 138 190 241 297 350 422
#
# _framework density 24.850708999999998
#
# number of rings (size 3 to 8) (size 9 to 14) (size 15 to 20)
#    0.000    1.500    2.500    1.500    7.000    1.500 
#    0.000    3.750    0.000    0.000    0.000    0.000 
#    0.000    0.000    0.000    0.000    0.000    0.000 
#
# Total GULP energy -89471.921180 kJ/mol
# GULP energy per Si atom -5591.995074 kJ/mol
# Density = 2.479415 g / cm^3
# Si number density = 24.850709 Si / 1000 Ang^3
#
#
#
# Elastic Constant Matrix: (Units=GPa)
#
#
# Indices 1 2 3 4 5 6 
#
# 1 158.3749 22.8718 65.5131 4.0941 -0.7462 -11.1882
# 2 22.8718 68.0511 24.2768 1.1359 11.8651 4.5238
# 3 65.5131 24.2768 132.8910 -5.3084 0.6927 -1.6652
# 4 4.0941 1.1359 -5.3084 40.3433 7.9111 8.3157
# 5 -0.7462 11.8651 0.6927 7.9111 44.9245 -4.0333
# 6 -11.1882 4.5238 -1.6652 8.3157 -4.0333 29.7484
#
#
#
# Elastic Compliance Matrix: (Units=1/GPa)
#
#
# Indices 1 2 3 4 5 6 
#
# 1 0.008599 -0.001998 -0.003930 -0.002510 0.001553 0.004230
# 2 -0.001998 0.017332 -0.002155 0.001409 -0.005240 -0.004612
# 3 -0.003930 -0.002155 0.009923 0.002030 -0.000112 -0.001177
# 4 -0.002510 0.001409 0.002030 0.028555 -0.006362 -0.009889
# 5 0.001553 -0.005240 -0.000112 -0.006362 0.025383 0.006594
# 6 0.004230 -0.004612 -0.001177 -0.009889 0.006594 0.039500
#
#
# Mechanical properties :
#
#
# Convention : Reuss Voigt Hill
#
# Bulk Modulus (GPa) = 50.79324 64.96003 57.87663
# Shear Modulus (GPa) = 32.88998 39.44693 36.16845
#
# Velocity S-wave (km/s) = 3.64194 3.98849 3.81915
# Velocity P-wave (km/s) = 6.17809 6.88531 6.54126
#
# Compressibility (1/GPa) = 0.01968766
#
# Stress axis : x y z
#
# Youngs Moduli (GPa) = 116.28882 57.69655 100.77787
#
# Poissons Ratio (x) = 0.11530 0.39601
# Poissons Ratio (y) = 0.23240 0.21720
# Poissons Ratio (z) = 0.45697 0.12435
#
# Static dielectric constant tensor:
#      x y z
#    x 1.984590 0.010390 0.014310 
#    y 0.010390 2.174990 -0.047920 
#    z 0.014310 -0.047920 2.027640 
# 
# From -- ./inp_files/585475.got.cif
#   From: 2010.05.17/outbox.cif.g08.bks.cpg/sg2_293_cif.got.tgz:585475.got - 2010.06.03 11:33:40.
