data_PCOD9014662
_publ_section_title
;
Structure prediction by ZEFSAII (Michael W. Deem and Ramdas Pophale) SiO2 
 PCOD9014662
Probable space group: P -1
;
_chemical_formula_sum "Si O2"
_cell_formula_units_Z 16
_cell_length_a 6.909620
_cell_length_b 12.296629
_cell_length_c 11.118336
_cell_angle_alpha 110.083979
_cell_angle_beta 62.693732
_cell_angle_gamma 126.909765
_cell_volume 668.099855
_symmetry_space_group_name_H-M "P -1"
_symmetry_group_IT_number 2
_symmetry_cell_setting 'triclinic'
loop_
_space_group_symop_operation_xyz
x,y,z
-x,-y,-z
loop_
_atom_site_type_symbol
_atom_site_label
_atom_site_fract_x
_atom_site_fract_y
_atom_site_fract_z
Si Si1 0.850790 0.894941 0.179024
Si Si2 0.338870 0.617334 0.188790
Si Si3 0.104879 0.705299 0.466507
Si Si4 0.898347 0.082630 0.633522
Si Si5 0.024105 0.176367 0.130876
Si Si6 0.416434 0.562864 0.901049
Si Si7 0.410153 0.810877 0.654310
Si Si8 0.443855 0.393565 0.372438
O O1 0.551726 0.780030 0.200299
O O2 0.948689 0.871440 0.267846
O O3 0.920435 0.050246 0.205805
O O4 0.998283 0.878572 0.018404
O O5 0.137899 0.595079 0.341286
O O6 0.502147 0.546864 0.139592
O O7 0.247516 0.568600 0.059128
O O8 0.084426 0.798863 0.407075
O O9 0.337594 0.786882 0.524924
O O10 0.845228 0.649718 0.596171
O O11 0.600445 0.968046 0.694427
O O12 0.000000 0.000000 0.500000
O O13 0.851640 0.240728 0.218898
O O14 0.321811 0.287251 0.108880
O O15 0.357153 0.546615 0.771270
O O16 0.542266 0.729860 0.624366
O O17 0.500000 0.500000 0.500000
#
# Coordination Sequence:
#
# PCOD9014662 Si02
#       8
#     2   2   2   2   2   2   2   2
#     4  10  22  41  67  98 134 168 223 271 325 388
#     4  10  23  42  71  95 132 178 211 273 329 386
#     4  12  25  43  67  98 132 172 218 267 330 387
#     4  12  23  39  63  95 132 169 216 273 321 387
#     4  10  21  41  68  97 129 176 215 271 328 389
#     4  10  22  45  67  97 133 170 221 266 328 391
#     4  12  24  42  67  95 129 176 216 269 330 386
#     4  12  27  42  67  98 132 170 222 270 316 396
#
# _framework density 23.948515
#
# number of rings (size 3 to 8) (size 9 to 14) (size 15 to 20)
#    0.000    1.000    2.500    4.125    3.500    2.500 
#    0.000    0.625    0.000    0.000    0.000    0.000 
#    0.000    0.000    0.000    0.000    0.000    0.000 
#
# Total GULP energy -89487.135235 kJ/mol
# GULP energy per Si atom -5592.945952 kJ/mol
# Density = 2.389401 g / cm^3
# Si number density = 23.948515 Si / 1000 Ang^3
#
#
#
# Elastic Constant Matrix: (Units=GPa)
#
#
# Indices 1 2 3 4 5 6 
#
# 1 62.2448 -2.4873 42.6125 -1.5138 -6.1767 -3.1485
# 2 -2.4873 61.9101 -4.2751 7.9103 -3.6228 -18.1864
# 3 42.6125 -4.2751 150.8265 6.3659 6.4850 -12.8851
# 4 -1.5138 7.9103 6.3659 32.2203 -3.9155 1.4709
# 5 -6.1767 -3.6228 6.4850 -3.9155 40.6266 1.6074
# 6 -3.1485 -18.1864 -12.8851 1.4709 1.6074 28.3053
#
#
#
# Elastic Compliance Matrix: (Units=1/GPa)
#
#
# Indices 1 2 3 4 5 6 
#
# 1 0.020826 0.000041 -0.006271 0.002793 0.004476 -0.000911
# 2 0.000041 0.021594 0.002149 -0.006371 0.000375 0.015167
# 3 -0.006271 0.002149 0.009157 -0.003200 -0.002737 0.005173
# 4 0.002793 -0.006371 -0.003200 0.034174 0.003947 -0.007239
# 5 0.004476 0.000375 -0.002737 0.003947 0.026233 -0.002202
# 6 -0.000911 0.015167 0.005173 -0.007239 -0.002202 0.047829
#
#
# Mechanical properties :
#
#
# Convention : Reuss Voigt Hill
#
# Bulk Modulus (GPa) = 23.03312 38.52016 30.77664
# Shear Modulus (GPa) = 27.40522 36.17252 31.78887
#
# Velocity S-wave (km/s) = 3.38648 3.89064 3.64728
# Velocity P-wave (km/s) = 4.99296 6.02514 5.53317
#
# Compressibility (1/GPa) = 0.04341574
#
# Stress axis : x y z
#
# Youngs Moduli (GPa) = 48.01602 46.30976 109.20043
#
# Poissons Ratio (x) = -0.00191 0.68480
# Poissons Ratio (y) = -0.00198 -0.23466
# Poissons Ratio (z) = 0.30111 -0.09951
#
# Static dielectric constant tensor:
#      x y z
#    x 1.962100 0.066970 0.019210 
#    y 0.066970 1.970530 -0.028770 
#    z 0.019210 -0.028770 1.956510 
# 
# From -- ./inp_files/364983.got.cif
#   From: 2010.05.17/outbox.cif.g08.bks.cpg/sg2_183_cif.got.tgz:364983.got - 2010.06.03 11:33:40.
