data_PCOD9014146
_publ_section_title
;
Structure prediction by ZEFSAII (Michael W. Deem and Ramdas Pophale) SiO2 
 PCOD9014146
Probable space group: P -1
;
_chemical_formula_sum "Si O2"
_cell_formula_units_Z 16
_cell_length_a 19.436483
_cell_length_b 5.176182
_cell_length_c 7.498715
_cell_angle_alpha 65.779296
_cell_angle_beta 115.873882
_cell_angle_gamma 119.664338
_cell_volume 571.332976
_symmetry_space_group_name_H-M "P -1"
_symmetry_group_IT_number 2
_symmetry_cell_setting 'triclinic'
loop_
_space_group_symop_operation_xyz
x,y,z
-x,-y,-z
loop_
_atom_site_type_symbol
_atom_site_label
_atom_site_fract_x
_atom_site_fract_y
_atom_site_fract_z
Si Si1 0.172769 0.374905 0.004339
Si Si2 0.061533 0.828594 0.148554
Si Si3 0.392735 0.521623 0.892764
Si Si4 0.431243 0.525551 0.546025
Si Si5 0.866489 0.588170 0.653264
Si Si6 0.635645 0.181589 0.889007
Si Si7 0.129134 0.852098 0.619634
Si Si8 0.280669 0.877829 0.565627
O O1 0.130505 0.015269 0.015280
O O2 0.270941 0.564559 0.049428
O O3 0.121525 0.568204 0.815112
O O4 0.157013 0.309717 0.215845
O O5 0.074404 0.790191 0.393287
O O6 0.052754 0.480570 0.202127
O O7 0.000000 0.000000 0.000000
O O8 0.450263 0.587369 0.761048
O O9 0.416975 0.727433 0.042011
O O10 0.319001 0.624410 0.716353
O O11 0.367158 0.161267 0.002327
O O12 0.500000 0.500000 0.500000
O O13 0.355229 0.197958 0.533529
O O14 0.399174 0.772008 0.354334
O O15 0.873673 0.817407 0.433002
O O16 0.788042 0.274766 0.616691
O O17 0.223909 0.931519 0.639630
#
# Coordination Sequence:
#
# PCOD9014146 Si02
#       8
#     2   2   2   2   2   2   2   2
#     4  11  22  40  68 102 128 179 238 291 361 423
#     4  10  24  42  60  95 144 187 230 284 353 431
#     4  12  26  49  73 109 147 184 246 315 360 434
#     4  12  29  50  72 106 152 199 242 297 374 449
#     4  10  22  38  69  93 136 176 236 296 359 417
#     4  12  27  46  79 108 143 191 249 309 370 429
#     4  10  21  41  66  99 130 174 233 296 350 412
#     4  11  21  47  68 101 140 178 234 307 358 424
#
# _framework density 28.004683
#
# number of rings (size 3 to 8) (size 9 to 14) (size 15 to 20)
#    0.000    1.000    2.500    4.500    5.250    6.000 
#    0.000    1.250    0.000    0.000    0.000    0.000 
#    0.000    0.000    0.000    0.000    0.000    0.000 
#
# Total GULP energy -89284.240488 kJ/mol
# GULP energy per Si atom -5580.265031 kJ/mol
# Density = 2.794094 g / cm^3
# Si number density = 28.004683 Si / 1000 Ang^3
#
#
#
# Elastic Constant Matrix: (Units=GPa)
#
#
# Indices 1 2 3 4 5 6 
#
# 1 40.7130 8.4860 54.6797 -26.6099 18.7320 6.9452
# 2 8.4860 95.6078 53.4906 -36.6126 1.4599 -3.8895
# 3 54.6797 53.4906 169.9053 -42.7995 1.4043 -25.2495
# 4 -26.6099 -36.6126 -42.7995 58.0037 -13.6777 15.3043
# 5 18.7320 1.4599 1.4043 -13.6777 46.4851 -4.4490
# 6 6.9452 -3.8895 -25.2495 15.3043 -4.4490 34.5387
#
#
#
# Elastic Compliance Matrix: (Units=1/GPa)
#
#
# Indices 1 2 3 4 5 6 
#
# 1 -0.539425 -0.152896 0.215571 -0.242460 0.180645 0.379551
# 2 -0.152896 -0.027807 0.057800 -0.059765 0.053029 0.103182
# 3 0.215571 0.057800 -0.077757 0.100105 -0.070966 -0.147182
# 4 -0.242460 -0.059765 0.100105 -0.079680 0.088609 0.161927
# 5 0.180645 0.053029 -0.070966 0.088609 -0.036813 -0.126239
# 6 0.379551 0.103182 -0.147182 0.161927 -0.126239 -0.231359
#
#
# Mechanical properties :
#
#
# Convention : Reuss Voigt Hill
#
# Bulk Modulus (GPa) = -2.47502 59.94873 28.73685
# Shear Modulus (GPa) = -3.65371 40.44348 18.39489
#
# Velocity S-wave (km/s) = -1.14346 3.80434 2.56569
# Velocity P-wave (km/s) = 1.62144 6.38361 4.36586
#
# Compressibility (1/GPa) = -0.40403666
#
# Stress axis : x y z
#
# Youngs Moduli (GPa) = -1.85383 -35.96227 -12.86059
#
# Poissons Ratio (x) = -5.49848 2.77237
# Poissons Ratio (y) = -0.28344 0.74335
# Poissons Ratio (z) = 0.39963 2.07863
#
# Static dielectric constant tensor:
#      x y z
#    x 2.293010 0.108090 0.027740 
#    y 0.108090 3.547430 0.208660 
#    z 0.027740 0.208660 2.208590 
# 
# From -- ./inp_files/340060.got.cif
#   From: 2010.05.17/outbox.cif.g08.bks.cpg/sg2_171_cif.got.tgz:340060.got - 2010.06.03 11:33:40.
