data_PCOD9014695
_publ_section_title
;
Structure prediction by ZEFSAII (Michael W. Deem and Ramdas Pophale) SiO2 
 PCOD9014695
Probable space group: P -1
;
_chemical_formula_sum "Si O2"
_cell_formula_units_Z 16
_cell_length_a 13.514926
_cell_length_b 10.320426
_cell_length_c 9.479987
_cell_angle_alpha 114.445559
_cell_angle_beta 114.970335
_cell_angle_gamma 33.787791
_cell_volume 661.380407
_symmetry_space_group_name_H-M "P -1"
_symmetry_group_IT_number 2
_symmetry_cell_setting 'triclinic'
loop_
_space_group_symop_operation_xyz
x,y,z
-x,-y,-z
loop_
_atom_site_type_symbol
_atom_site_label
_atom_site_fract_x
_atom_site_fract_y
_atom_site_fract_z
Si Si1 0.761746 0.459522 0.310864
Si Si2 0.462944 0.609842 0.368163
Si Si3 0.175613 0.405087 0.808003
Si Si4 0.655688 0.766782 0.893668
Si Si5 0.830558 0.604689 0.648597
Si Si6 0.036856 0.107488 0.658640
Si Si7 0.074884 0.939332 0.175485
Si Si8 0.374181 0.904729 0.661423
O O1 0.632592 0.474955 0.310260
O O2 0.729770 0.552420 0.176381
O O3 0.751103 0.616720 0.466158
O O4 0.962676 0.185603 0.292457
O O5 0.500000 0.500000 0.500000
O O6 0.397846 0.831104 0.484391
O O7 0.289099 0.732281 0.235070
O O8 0.978212 0.574284 0.705488
O O9 0.287568 0.149221 0.720162
O O10 0.176829 0.410614 0.980696
O O11 0.701072 0.788147 0.779930
O O12 0.564961 0.713228 0.768654
O O13 0.500000 0.000000 0.000000
O O14 0.925782 0.360650 0.655738
O O15 0.241009 0.940623 0.680978
O O16 0.000000 0.000000 0.500000
O O17 0.989326 0.125949 0.798348
O O18 0.000000 0.000000 0.000000
#
# Coordination Sequence:
#
# PCOD9014695 Si02
#       8
#     2   2   2   2   2   2   2   2
#     4  12  25  45  70 101 140 184 234 286 356 426
#     4  12  25  45  77 102 134 192 242 284 349 426
#     4  10  24  41  64  99 142 175 226 287 361 402
#     4  10  22  41  61 100 133 176 234 284 338 415
#     4  11  21  41  70  93 131 185 230 278 336 421
#     4  11  20  41  71  92 131 177 234 279 339 428
#     4  12  28  46  66 109 145 175 234 303 358 409
#     4  10  21  41  68  99 132 175 237 286 332 421
#
# _framework density 24.191828000000001
#
# number of rings (size 3 to 8) (size 9 to 14) (size 15 to 20)
#    0.000    1.000    3.750    3.000    1.750    2.000 
#    4.500    0.000    0.000    0.000    0.000    0.000 
#    0.000    0.000    0.000    0.000    0.000    0.000 
#
# Total GULP energy -89259.320047 kJ/mol
# GULP energy per Si atom -5578.707503 kJ/mol
# Density = 2.413677 g / cm^3
# Si number density = 24.191828 Si / 1000 Ang^3
#
#
#
# Elastic Constant Matrix: (Units=GPa)
#
#
# Indices 1 2 3 4 5 6 
#
# 1 142.9277 46.7713 23.5637 -13.8270 -16.7244 -19.5366
# 2 46.7713 57.4462 20.3186 5.1969 1.9259 -16.6989
# 3 23.5637 20.3186 97.2316 -10.8810 -14.7921 -10.6210
# 4 -13.8270 5.1969 -10.8810 37.2895 -5.5595 4.6165
# 5 -16.7244 1.9259 -14.7921 -5.5595 29.4459 -0.8201
# 6 -19.5366 -16.6989 -10.6210 4.6165 -0.8201 45.0121
#
#
#
# Elastic Compliance Matrix: (Units=1/GPa)
#
#
# Indices 1 2 3 4 5 6 
#
# 1 0.012789 -0.012022 0.002099 0.008519 0.010738 0.000908
# 2 -0.012022 0.033524 -0.007279 -0.014349 -0.015200 0.006696
# 3 0.002099 -0.007279 0.013707 0.007163 0.009931 0.000891
# 4 0.008519 -0.014349 0.007163 0.036912 0.016249 -0.003426
# 5 0.010738 -0.015200 0.009931 0.016249 0.049127 0.000594
# 6 0.000908 0.006696 0.000891 -0.003426 0.000594 0.025667
#
#
# Mechanical properties :
#
#
# Convention : Reuss Voigt Hill
#
# Bulk Modulus (GPa) = 39.03661 53.21254 46.12458
# Shear Modulus (GPa) = 23.29168 36.14629 29.71898
#
# Velocity S-wave (km/s) = 3.10625 3.86962 3.50876
# Velocity P-wave (km/s) = 5.38854 6.48144 5.96010
#
# Compressibility (1/GPa) = 0.02561698
#
# Stress axis : x y z
#
# Youngs Moduli (GPa) = 78.19077 29.82926 72.95619
#
# Poissons Ratio (x) = 0.35860 -0.15313
# Poissons Ratio (y) = 0.93999 0.53104
# Poissons Ratio (z) = -0.16412 0.21712
#
# Static dielectric constant tensor:
#      x y z
#    x 1.897690 0.031610 0.032590 
#    y 0.031610 2.068160 -0.006290 
#    z 0.032590 -0.006290 2.035230 
# 
# From -- ./inp_files/308103.got.cif
#   From: 2010.05.17/outbox.cif.g08.bks.cpg/sg2_155_cif.got.tgz:308103.got - 2010.06.03 11:33:40.
