data_PCOD9014191
_publ_section_title
;
Structure prediction by ZEFSAII (Michael W. Deem and Ramdas Pophale) SiO2 
 PCOD9014191
Probable space group: P -1
;
_chemical_formula_sum "Si O2"
_cell_formula_units_Z 11
_cell_length_a 13.168953
_cell_length_b 7.353337
_cell_length_c 7.307782
_cell_angle_alpha 99.791830
_cell_angle_beta 103.818957
_cell_angle_gamma 34.435333
_cell_volume 388.111322
_symmetry_space_group_name_H-M "P -1"
_symmetry_group_IT_number 2
_symmetry_cell_setting 'triclinic'
loop_
_space_group_symop_operation_xyz
x,y,z
-x,-y,-z
loop_
_atom_site_type_symbol
_atom_site_label
_atom_site_fract_x
_atom_site_fract_y
_atom_site_fract_z
Si Si1 0.000000 0.000000 0.500000
Si Si2 0.791940 0.417939 0.860678
Si Si3 0.212555 0.037185 0.641829
Si Si4 0.498442 0.376888 0.796679
Si Si5 0.583955 0.900711 0.319059
Si Si6 0.131709 0.096902 0.043348
O O1 0.120416 0.743822 0.330377
O O2 0.068255 0.112660 0.497411
O O3 0.582950 0.780584 0.819504
O O4 0.815773 0.190316 0.935713
O O5 0.913290 0.398158 0.012330
O O6 0.399301 0.645668 0.651818
O O7 0.259224 0.174557 0.626993
O O8 0.162903 0.104635 0.847079
O O9 0.712116 0.019679 0.796973
O O10 0.376851 0.368295 0.761505
O O11 0.500000 0.500000 0.000000
O O12 0.500000 0.000000 0.500000
#
# Coordination Sequence:
#
# PCOD9014191 Si02
#       6
#     1   2   2   2   2   2
#     4  10  22  40  72  88 140 190 216 286 352 404
#     4  10  21  41  67 102 133 180 233 283 345 410
#     4  10  22  44  66 101 137 180 233 285 347 413
#     4  10  22  42  69  99 136 184 221 287 348 403
#     4  12  26  40  70 108 141 181 235 282 347 424
#     4   9  20  41  69  95 132 182 221 286 348 397
#
# _framework density 28.342388
#
# number of rings (size 3 to 8) (size 9 to 14) (size 15 to 20)
#    0.000    1.818    1.818    1.091    2.545    5.091 
#    0.000    8.182    4.000    0.000    0.000    0.000 
#    0.000    0.000    0.000    0.000    0.000    0.000 
#
# Total GULP energy -61311.127495 kJ/mol
# GULP energy per Si atom -5573.738863 kJ/mol
# Density = 2.827788 g / cm^3
# Si number density = 28.342388 Si / 1000 Ang^3
#
#
#
# Elastic Constant Matrix: (Units=GPa)
#
#
# Indices 1 2 3 4 5 6 
#
# 1 228.0168 18.0298 49.7460 24.1605 30.1708 36.2618
# 2 18.0298 102.2584 44.6476 6.9553 7.0448 25.5799
# 3 49.7460 44.6476 78.4950 23.7503 0.9805 13.2868
# 4 24.1605 6.9553 23.7503 44.0246 -4.2657 9.0543
# 5 30.1708 7.0448 0.9805 -4.2657 58.8135 1.3768
# 6 36.2618 25.5799 13.2868 9.0543 1.3768 35.1063
#
#
#
# Elastic Compliance Matrix: (Units=1/GPa)
#
#
# Indices 1 2 3 4 5 6 
#
# 1 0.006821 0.002825 -0.004482 -0.000666 -0.003645 -0.007093
# 2 0.002825 0.016744 -0.010329 0.003584 -0.002741 -0.012026
# 3 -0.004482 -0.010329 0.023319 -0.009429 0.002331 0.005670
# 4 -0.000666 0.003584 -0.009429 0.029046 0.002315 -0.005937
# 5 -0.003645 -0.002741 0.002331 0.002315 0.019248 0.003528
# 6 -0.007093 -0.012026 0.005670 -0.005937 0.003528 0.043821
#
#
# Mechanical properties :
#
#
# Convention : Reuss Voigt Hill
#
# Bulk Modulus (GPa) = 43.64438 70.40189 57.02313
# Shear Modulus (GPa) = 29.30703 47.34533 38.32618
#
# Velocity S-wave (km/s) = 3.21913 4.09158 3.68129
# Velocity P-wave (km/s) = 5.40828 6.87132 6.18323
#
# Compressibility (1/GPa) = 0.02291246
#
# Stress axis : x y z
#
# Youngs Moduli (GPa) = 146.60777 59.72218 42.88334
#
# Poissons Ratio (x) = -0.16871 0.19220
# Poissons Ratio (y) = -0.41415 0.44294
# Poissons Ratio (z) = 0.65707 0.61686
#
# Static dielectric constant tensor:
#      x y z
#    x 2.248630 -0.147240 0.052880 
#    y -0.147240 2.318300 -0.037310 
#    z 0.052880 -0.037310 2.297430 
# 
# From -- ./inp_files/17720.got.cif
#   From: 2010.05.17/outbox.cif.g08.bks.cpg/sg2_9_cif.got.tgz:17720.got - 2010.06.03 11:33:40.
