data_PCOD9014096
_publ_section_title
;
Structure prediction by ZEFSAII (Michael W. Deem and Ramdas Pophale) SiO2 
 PCOD9014096
Probable space group: P -1
;
_chemical_formula_sum "Si O2"
_cell_formula_units_Z 14
_cell_length_a 17.584216
_cell_length_b 7.694141
_cell_length_c 4.867168
_cell_angle_alpha 90.722929
_cell_angle_beta 72.576779
_cell_angle_gamma 55.128154
_cell_volume 501.059238
_symmetry_space_group_name_H-M "P -1"
_symmetry_group_IT_number 2
_symmetry_cell_setting 'triclinic'
loop_
_space_group_symop_operation_xyz
x,y,z
-x,-y,-z
loop_
_atom_site_type_symbol
_atom_site_label
_atom_site_fract_x
_atom_site_fract_y
_atom_site_fract_z
Si Si1 0.500000 0.500000 0.500000
Si Si2 0.384092 0.928393 0.263385
Si Si3 0.429291 0.236515 0.288451
Si Si4 0.853159 0.293099 0.200634
Si Si5 0.655299 0.453557 0.117973
Si Si6 0.836910 0.689892 0.488190
Si Si7 0.000000 0.000000 0.500000
Si Si8 0.988195 0.323408 0.692180
O O1 0.426836 0.710449 0.373243
O O2 0.595394 0.357575 0.140864
O O3 0.395799 0.095613 0.436340
O O4 0.266385 0.080666 0.340261
O O5 0.459589 0.900308 0.948600
O O6 0.420833 0.391067 0.541361
O O7 0.358258 0.400140 0.120612
O O8 0.761748 0.326235 0.140652
O O9 0.824933 0.526126 0.330466
O O10 0.892689 0.144171 0.420010
O O11 0.940492 0.208098 0.872328
O O12 0.922289 0.698495 0.261708
O O13 0.896051 0.559851 0.700517
O O14 0.975911 0.826094 0.620683
#
# Coordination Sequence:
#
# PCOD9014096 Si02
#       8
#     1   2   2   2   2   2   1   2
#     4  10  26  42  64 104 146 174 232 294 344 414
#     4  10  21  42  65  97 135 179 230 284 349 401
#     4  10  23  44  72  96 135 181 242 281 338 426
#     4  11  22  41  68  95 136 180 228 280 347 416
#     4  11  24  45  71 101 138 187 231 288 348 417
#     4  10  21  41  66  97 128 176 232 282 338 408
#     4  10  24  40  62  98 138 172 226 280 354 410
#     4  10  22  41  66  97 133 170 228 287 338 419
#
# _framework density 27.940807
#
# number of rings (size 3 to 8) (size 9 to 14) (size 15 to 20)
#    0.000    1.714    1.429    1.714    4.000    7.429 
#    5.143    1.429    0.000    0.000    0.000    0.000 
#    0.000    0.000    0.000    0.000    0.000    0.000 
#
# Total GULP energy -77996.962399 kJ/mol
# GULP energy per Si atom -5571.211600 kJ/mol
# Density = 2.787721 g / cm^3
# Si number density = 27.940807 Si / 1000 Ang^3
#
#
#
# Elastic Constant Matrix: (Units=GPa)
#
#
# Indices 1 2 3 4 5 6 
#
# 1 137.7086 65.1584 26.5417 -9.9436 -17.0024 -38.1429
# 2 65.1584 142.0500 51.6848 -11.9302 -8.8342 -54.4622
# 3 26.5417 51.6848 116.7499 -20.0212 2.4972 -26.3823
# 4 -9.9436 -11.9302 -20.0212 51.9783 -10.1817 -12.7838
# 5 -17.0024 -8.8342 2.4972 -10.1817 43.9381 -3.0130
# 6 -38.1429 -54.4622 -26.3823 -12.7838 -3.0130 55.1510
#
#
#
# Elastic Compliance Matrix: (Units=1/GPa)
#
#
# Indices 1 2 3 4 5 6 
#
# 1 0.011152 -0.001469 0.000719 0.005196 0.005741 0.008125
# 2 -0.001469 0.015004 -0.001839 0.007132 0.005224 0.014859
# 3 0.000719 -0.001839 0.011407 0.005647 0.000946 0.005498
# 4 0.005196 0.007132 0.005647 0.031622 0.011913 0.021319
# 5 0.005741 0.005224 0.000946 0.011913 0.029696 0.013966
# 6 0.008125 0.014859 0.005498 0.021319 0.013966 0.046760
#
#
# Mechanical properties :
#
#
# Convention : Reuss Voigt Hill
#
# Bulk Modulus (GPa) = 30.87825 75.91980 53.39902
# Shear Modulus (GPa) = 30.93822 47.08840 39.01331
#
# Velocity S-wave (km/s) = 3.33119 4.10968 3.74074
# Velocity P-wave (km/s) = 5.08636 7.05337 6.14903
#
# Compressibility (1/GPa) = 0.03238525
#
# Stress axis : x y z
#
# Youngs Moduli (GPa) = 89.66608 66.65013 87.66918
#
# Poissons Ratio (x) = 0.09790 -0.06304
# Poissons Ratio (y) = 0.13171 0.16122
# Poissons Ratio (z) = -0.06448 0.12257
#
# Static dielectric constant tensor:
#      x y z
#    x 2.623740 0.220460 0.060420 
#    y 0.220460 2.267110 0.252150 
#    z 0.060420 0.252150 2.582570 
# 
# From -- ./inp_files/31389.got.cif
#   From: 2010.05.17/outbox.cif.g08.bks.cpg/sg2_16_cif.got.tgz:31389.got - 2010.06.03 11:33:40.
