data_PCOD9014187
_publ_section_title
;
Structure prediction by ZEFSAII (Michael W. Deem and Ramdas Pophale) SiO2 
 PCOD9014187
Probable space group: P -1
;
_chemical_formula_sum "Si O2"
_cell_formula_units_Z 16
_cell_length_a 6.070383
_cell_length_b 5.006974
_cell_length_c 24.716214
_cell_angle_alpha 67.283870
_cell_angle_beta 86.331165
_cell_angle_gamma 81.381305
_cell_volume 685.116751
_symmetry_space_group_name_H-M "P -1"
_symmetry_group_IT_number 2
_symmetry_cell_setting 'triclinic'
loop_
_space_group_symop_operation_xyz
x,y,z
-x,-y,-z
loop_
_atom_site_type_symbol
_atom_site_label
_atom_site_fract_x
_atom_site_fract_y
_atom_site_fract_z
Si Si1 0.101428 0.874939 0.424209
Si Si2 0.765528 0.357954 0.194552
Si Si3 0.782683 0.742170 0.986271
Si Si4 0.867881 0.891412 0.713598
Si Si5 0.881902 0.236981 0.876126
Si Si6 0.665497 0.301196 0.768797
Si Si7 0.527509 0.393918 0.094504
Si Si8 0.281711 0.238729 0.484016
O O1 0.285071 0.585824 0.451382
O O2 0.869694 0.795441 0.458172
O O3 0.090777 0.969078 0.355173
O O4 0.155210 0.138903 0.440756
O O5 0.567794 0.534587 0.218980
O O6 0.685841 0.220109 0.150403
O O7 0.917246 0.138689 0.248339
O O8 0.910308 0.601860 0.151820
O O9 0.584614 0.739232 0.944721
O O10 0.891359 0.024655 0.943886
O O11 0.653774 0.656006 0.048276
O O12 0.000000 0.500000 0.000000
O O13 0.805946 0.566018 0.732651
O O14 0.671978 0.089282 0.734177
O O15 0.792604 0.118505 0.830807
O O16 0.681053 0.480174 0.876557
O O17 0.500000 0.000000 0.500000
#
# Coordination Sequence:
#
# PCOD9014187 Si02
#       8
#     2   2   2   2   2   2   2   2
#     4  10  22  39  67 100 141 174 229 276 321 395
#     4  10  24  45  67  91 129 178 219 279 343 405
#     4  11  24  38  65  92 121 159 210 278 343 413
#     4  11  24  45  65 102 134 180 227 280 331 394
#     4  10  23  42  61  86 123 164 212 274 339 407
#     4  10  25  42  67  93 134 175 229 277 335 401
#     4  10  23  42  60  92 122 161 212 274 339 417
#     4  10  21  41  67 101 139 184 219 272 333 381
#
# _framework density 23.353684999999999
#
# number of rings (size 3 to 8) (size 9 to 14) (size 15 to 20)
#    0.000    1.750    0.000    2.250    7.000   10.000 
#    2.250    0.000    0.000    0.000    0.000    0.000 
#    0.000    0.000    0.000    0.000    0.000    0.000 
#
# Total GULP energy -89392.005963 kJ/mol
# GULP energy per Si atom -5587.000373 kJ/mol
# Density = 2.330053 g / cm^3
# Si number density = 23.353685 Si / 1000 Ang^3
#
#
#
# Elastic Constant Matrix: (Units=GPa)
#
#
# Indices 1 2 3 4 5 6 
#
# 1 81.8106 10.9021 51.4553 -2.8704 0.3538 -22.8873
# 2 10.9021 89.5654 34.7787 -4.1728 -6.2403 -8.0199
# 3 51.4553 34.7787 182.7313 7.2291 -7.6399 -4.9390
# 4 -2.8704 -4.1728 7.2291 31.7739 -4.9588 -0.9022
# 5 0.3538 -6.2403 -7.6399 -4.9588 18.5494 -0.2339
# 6 -22.8873 -8.0199 -4.9390 -0.9022 -0.2339 28.3986
#
#
#
# Elastic Compliance Matrix: (Units=1/GPa)
#
#
# Indices 1 2 3 4 5 6 
#
# 1 0.020150 0.001241 -0.005674 0.003539 -0.001160 0.015706
# 2 0.001241 0.012856 -0.002633 0.003164 0.004117 0.004307
# 3 -0.005674 -0.002633 0.007628 -0.002450 0.001658 -0.004054
# 4 0.003539 0.003164 -0.002450 0.034332 0.009222 0.004487
# 5 -0.001160 0.004117 0.001658 0.009222 0.058482 0.001291
# 6 0.015706 0.004307 -0.004054 0.004487 0.001291 0.048535
#
#
# Mechanical properties :
#
#
# Convention : Reuss Voigt Hill
#
# Bulk Modulus (GPa) = 37.73288 60.93107 49.33197
# Shear Modulus (GPa) = 24.39624 32.87581 28.63602
#
# Velocity S-wave (km/s) = 3.23560 3.75605 3.50550
# Velocity P-wave (km/s) = 5.49099 6.70505 6.12816
#
# Compressibility (1/GPa) = 0.02650209
#
# Stress axis : x y z
#
# Youngs Moduli (GPa) = 49.62813 77.78254 131.09380
#
# Poissons Ratio (x) = -0.09653 0.74385
# Poissons Ratio (y) = -0.06159 0.34517
# Poissons Ratio (z) = 0.28160 0.20480
#
# Static dielectric constant tensor:
#      x y z
#    x 1.936610 0.044350 0.056170 
#    y 0.044350 1.921420 -0.011020 
#    z 0.056170 -0.011020 1.923270 
# 
# From -- ./inp_files/11042.got.cif
#   From: 2010.05.17/outbox.cif.g08.bks.cpg/sg2_6_cif.got.tgz:11042.got - 2010.06.03 11:33:40.
