data_PCOD9014234
_publ_section_title
;
Structure prediction by ZEFSAII (Michael W. Deem and Ramdas Pophale) SiO2 
 PCOD9014234
Probable space group: P -1
;
_chemical_formula_sum "Si O2"
_cell_formula_units_Z 14
_cell_length_a 8.589550
_cell_length_b 16.894161
_cell_length_c 16.817598
_cell_angle_alpha 21.825105
_cell_angle_beta 132.602391
_cell_angle_gamma 138.864617
_cell_volume 594.379614
_symmetry_space_group_name_H-M "P -1"
_symmetry_group_IT_number 2
_symmetry_cell_setting 'triclinic'
loop_
_space_group_symop_operation_xyz
x,y,z
-x,-y,-z
loop_
_atom_site_type_symbol
_atom_site_label
_atom_site_fract_x
_atom_site_fract_y
_atom_site_fract_z
Si Si1 0.767127 0.702206 0.038272
Si Si2 0.574758 0.183032 0.283098
Si Si3 0.691284 0.899508 0.159470
Si Si4 0.613296 0.870914 0.330631
Si Si5 0.717814 0.893697 0.004511
Si Si6 0.049123 0.363913 0.070639
Si Si7 0.576365 0.761943 0.593590
O O1 0.634238 0.750578 0.873787
O O2 0.647916 0.758684 0.022716
O O3 0.812681 0.431201 0.138041
O O4 0.043859 0.879152 0.962457
O O5 0.679186 0.423641 0.285585
O O6 0.500000 0.000000 0.500000
O O7 0.608687 0.027262 0.369645
O O8 0.662785 0.782363 0.345659
O O9 0.648763 0.761864 0.189109
O O10 0.500000 0.000000 0.000000
O O11 0.374647 0.905801 0.213076
O O12 0.824056 0.141518 0.163652
O O13 0.606683 0.732662 0.537839
O O14 0.000000 0.000000 0.000000
O O15 0.228173 0.271215 0.256026
O O16 0.000000 0.500000 0.000000
#
# Coordination Sequence:
#
# PCOD9014234 Si02
#       7
#     2   2   2   2   2   2   2
#     4  10  21  41  67  88 125 166 202 255 311 367
#     4  11  25  39  61  94 127 163 209 246 302 381
#     4   9  21  37  66  90 117 161 207 265 309 350
#     4  11  20  38  63  93 126 162 203 254 313 358
#     4   9  18  41  63  85 120 163 204 257 308 361
#     4  11  23  39  61  93 129 165 200 250 310 372
#     4  11  23  39  63  94 125 168 206 242 310 386
#
# _framework density 23.553971000000001
#
# number of rings (size 3 to 8) (size 9 to 14) (size 15 to 20)
#    0.000    1.714    2.857    1.286    4.000    1.143 
#    0.000    7.143    0.000    0.000    0.000    0.000 
#    0.000    0.000    0.000    0.000    0.000    0.000 
#
# Total GULP energy -78185.799354 kJ/mol
# GULP energy per Si atom -5584.699954 kJ/mol
# Density = 2.350036 g / cm^3
# Si number density = 23.553971 Si / 1000 Ang^3
#
#
#
# Elastic Constant Matrix: (Units=GPa)
#
#
# Indices 1 2 3 4 5 6 
#
# 1 117.9973 32.3343 40.6761 10.9078 -24.8483 -8.7077
# 2 32.3343 54.0111 28.1919 16.2500 -12.3722 -8.8023
# 3 40.6761 28.1919 95.3340 5.4667 -40.0012 8.2716
# 4 10.9078 16.2500 5.4667 28.6083 -9.9518 -7.2097
# 5 -24.8483 -12.3722 -40.0012 -9.9518 43.7604 8.1779
# 6 -8.7077 -8.8023 8.2716 -7.2097 8.1779 54.5818
#
#
#
# Elastic Compliance Matrix: (Units=1/GPa)
#
#
# Indices 1 2 3 4 5 6 
#
# 1 0.011216 -0.004730 -0.002328 0.000052 0.002733 0.000977
# 2 -0.004730 0.029692 -0.009197 -0.014546 -0.006853 0.004533
# 3 -0.002328 -0.009197 0.022765 0.006794 0.019811 -0.007375
# 4 0.000052 -0.014546 0.006794 0.046484 0.012531 0.000895
# 5 0.002733 -0.006853 0.019811 0.012531 0.045063 -0.008768
# 6 0.000977 0.004533 -0.007375 0.000895 -0.008768 0.021758
#
#
# Mechanical properties :
#
#
# Convention : Reuss Voigt Hill
#
# Bulk Modulus (GPa) = 32.08866 52.19413 42.14140
# Shear Modulus (GPa) = 22.74000 36.46610 29.60305
#
# Velocity S-wave (km/s) = 3.11053 3.93898 3.54901
# Velocity P-wave (km/s) = 5.15301 6.54942 5.89273
#
# Compressibility (1/GPa) = 0.03116365
#
# Stress axis : x y z
#
# Youngs Moduli (GPa) = 89.15692 33.67867 43.92678
#
# Poissons Ratio (x) = 0.15930 0.10226
# Poissons Ratio (y) = 0.42171 0.40400
# Poissons Ratio (z) = 0.20755 0.30975
#
# Static dielectric constant tensor:
#      x y z
#    x 1.954840 -0.088970 -0.021310 
#    y -0.088970 1.977750 -0.004080 
#    z -0.021310 -0.004080 1.864140 
# 
# From -- ./inp_files/255482.got.cif
#   From: 2010.05.17/outbox.cif.g08.bks.cpg/sg2_128_cif.got.tgz:255482.got - 2010.06.03 11:33:40.
