data_PCOD9014011
_publ_section_title
;
Structure prediction by ZEFSAII (Michael W. Deem and Ramdas Pophale) SiO2 
 PCOD9014011
Probable space group: P -1
;
_chemical_formula_sum "Si O2"
_cell_formula_units_Z 14
_cell_length_a 14.503496
_cell_length_b 15.417205
_cell_length_c 6.850093
_cell_angle_alpha 85.005456
_cell_angle_beta 107.792156
_cell_angle_gamma 151.658225
_cell_volume 633.849574
_symmetry_space_group_name_H-M "P -1"
_symmetry_group_IT_number 2
_symmetry_cell_setting 'triclinic'
loop_
_space_group_symop_operation_xyz
x,y,z
-x,-y,-z
loop_
_atom_site_type_symbol
_atom_site_label
_atom_site_fract_x
_atom_site_fract_y
_atom_site_fract_z
Si Si1 0.904194 0.503456 0.058749
Si Si2 0.815104 0.040600 0.957338
Si Si3 0.267904 0.468375 0.221593
Si Si4 0.673617 0.060115 0.570381
Si Si5 0.344342 0.262994 0.885483
Si Si6 0.452302 0.061872 0.922976
Si Si7 0.620884 0.558517 0.372121
O O1 0.091839 0.704043 0.268022
O O2 0.809124 0.495427 0.845196
O O3 0.685137 0.297441 0.075455
O O4 0.000000 0.500000 0.000000
O O5 0.748485 0.061757 0.062084
O O6 0.774701 0.916592 0.062425
O O7 0.073826 0.254947 0.034908
O O8 0.672107 0.965710 0.702599
O O9 0.275872 0.441140 0.454420
O O10 0.478547 0.627987 0.183327
O O11 0.500000 0.000000 0.500000
O O12 0.623608 0.990857 0.335264
O O13 0.456275 0.395424 0.125668
O O14 0.232991 0.250386 0.685188
O O15 0.500000 0.000000 0.000000
O O16 0.500000 0.500000 0.500000
#
# Coordination Sequence:
#
# PCOD9014011 Si02
#       7
#     2   2   2   2   2   2   2
#     4  11  22  39  64  93 132 174 220 270 320 380
#     4  11  24  40  63  94 127 170 220 266 317 393
#     4  10  22  41  61  93 130 165 216 266 318 386
#     4  11  23  40  59  90 128 169 222 272 319 378
#     4  10  21  41  66  94 126 166 213 261 331 388
#     4  12  23  42  62  92 133 172 224 270 319 387
#     4   9  21  41  67  95 127 163 208 270 326 389
#
# _framework density 22.087257999999999
#
# number of rings (size 3 to 8) (size 9 to 14) (size 15 to 20)
#    0.000    1.429    4.286    0.857    2.000    3.429 
#    0.000    6.429    0.000    0.000    0.000    0.000 
#    0.000    0.000    0.000    0.000    0.000    0.000 
#
# Total GULP energy -77940.734921 kJ/mol
# GULP energy per Si atom -5567.195351 kJ/mol
# Density = 2.203699 g / cm^3
# Si number density = 22.087258 Si / 1000 Ang^3
#
#
#
# Elastic Constant Matrix: (Units=GPa)
#
#
# Indices 1 2 3 4 5 6 
#
# 1 30.0629 -0.0834 0.7798 -4.9268 12.7455 -16.9578
# 2 -0.0834 99.6079 3.5884 -9.4596 25.1676 -21.7628
# 3 0.7798 3.5884 119.8646 -24.6004 15.9627 -11.0046
# 4 -4.9268 -9.4596 -24.6004 34.7115 -14.0190 14.4723
# 5 12.7455 25.1676 15.9627 -14.0190 39.8777 -14.3626
# 6 -16.9578 -21.7628 -11.0046 14.4723 -14.3626 33.7891
#
#
#
# Elastic Compliance Matrix: (Units=1/GPa)
#
#
# Indices 1 2 3 4 5 6 
#
# 1 0.057813 0.010765 0.003114 -0.007283 -0.017290 0.032733
# 2 0.010765 0.014959 0.001412 -0.002551 -0.009881 0.012389
# 3 0.003114 0.001412 0.010088 0.005913 -0.003170 0.001878
# 4 -0.007283 -0.002551 0.005913 0.042637 0.010353 -0.017234
# 5 -0.017290 -0.009881 -0.003170 0.010353 0.040572 -0.003262
# 6 0.032733 0.012389 0.001878 -0.017234 -0.003262 0.060609
#
#
# Mechanical properties :
#
#
# Convention : Reuss Voigt Hill
#
# Bulk Modulus (GPa) = 8.81509 28.67834 18.74671
# Shear Modulus (GPa) = 21.37564 38.02570 29.70067
#
# Velocity S-wave (km/s) = 3.11429 4.15373 3.67099
# Velocity P-wave (km/s) = 4.11479 6.00141 5.14531
#
# Compressibility (1/GPa) = 0.11344183
#
# Stress axis : x y z
#
# Youngs Moduli (GPa) = 17.29721 66.85047 99.12389
#
# Poissons Ratio (x) = -0.71962 -0.30872
# Poissons Ratio (y) = -0.18620 -0.13995
# Poissons Ratio (z) = -0.05387 -0.09439
#
# Static dielectric constant tensor:
#      x y z
#    x 1.862870 -0.027630 0.096700 
#    y -0.027630 1.902540 -0.014290 
#    z 0.096700 -0.014290 1.879380 
# 
# From -- ./inp_files/97993.got.cif
#   From: 2010.05.17/outbox.cif.g08.bks.cpg/sg2_49_cif.got.tgz:97993.got - 2010.06.03 11:33:40.
