data_PCOD9014517
_publ_section_title
;
Structure prediction by ZEFSAII (Michael W. Deem and Ramdas Pophale) SiO2 
 PCOD9014517
Probable space group: P -1
;
_chemical_formula_sum "Si O2"
_cell_formula_units_Z 14
_cell_length_a 9.512323
_cell_length_b 15.558720
_cell_length_c 10.137840
_cell_angle_alpha 36.782253
_cell_angle_beta 128.600668
_cell_angle_gamma 143.330116
_cell_volume 535.808062
_symmetry_space_group_name_H-M "P -1"
_symmetry_group_IT_number 2
_symmetry_cell_setting 'triclinic'
loop_
_space_group_symop_operation_xyz
x,y,z
-x,-y,-z
loop_
_atom_site_type_symbol
_atom_site_label
_atom_site_fract_x
_atom_site_fract_y
_atom_site_fract_z
Si Si1 0.654569 0.058593 0.305133
Si Si2 0.994908 0.562501 0.601429
Si Si3 0.898886 0.828783 0.551219
Si Si4 0.722396 0.188572 0.788489
Si Si5 0.412038 0.425717 0.739569
Si Si6 0.826139 0.915434 0.127840
Si Si7 0.461648 0.767323 0.779076
O O1 0.514021 0.115139 0.223992
O O2 0.932874 0.220249 0.264144
O O3 0.552792 0.962954 0.220413
O O4 0.597968 0.901906 0.568350
O O5 0.830531 0.337306 0.784527
O O6 0.812846 0.597637 0.414230
O O7 0.173337 0.669871 0.450054
O O8 0.184281 0.644546 0.729281
O O9 0.626700 0.644230 0.621524
O O10 0.935768 0.893810 0.342913
O O11 0.000000 0.000000 0.500000
O O12 0.801911 0.066586 0.971725
O O13 0.408075 0.299390 0.779782
O O14 0.434990 0.334392 0.994958
O O15 0.000000 0.000000 0.000000
#
# Coordination Sequence:
#
# PCOD9014517 Si02
#       7
#     2   2   2   2   2   2   2
#     4  10  21  44  67 104 143 186 243 304 345 437
#     4  10  22  40  67 108 144 178 239 307 358 423
#     4  12  29  46  68 110 156 189 236 303 374 440
#     4  10  21  41  68 103 140 180 243 308 352 409
#     4  12  24  46  73 107 146 195 237 297 374 438
#     4  12  24  47  78 104 137 196 255 294 356 438
#     4  10  22  41  78 105 137 186 254 300 352 422
#
# _framework density 26.128761000000001
#
# number of rings (size 3 to 8) (size 9 to 14) (size 15 to 20)
#    0.000    1.143    2.857    3.000    4.000    0.571 
#    2.571    5.000    0.000    0.000    0.000    0.000 
#    0.000    0.000    0.000    0.000    0.000    0.000 
#
# Total GULP energy -78128.535644 kJ/mol
# GULP energy per Si atom -5580.609689 kJ/mol
# Density = 2.606929 g / cm^3
# Si number density = 26.128761 Si / 1000 Ang^3
#
#
#
# Elastic Constant Matrix: (Units=GPa)
#
#
# Indices 1 2 3 4 5 6 
#
# 1 62.3909 18.8957 20.6909 1.1272 0.0789 -3.7989
# 2 18.8957 182.5415 52.4596 6.8513 11.4540 5.0395
# 3 20.6909 52.4596 126.9243 8.4384 15.6444 2.8860
# 4 1.1272 6.8513 8.4384 46.2920 1.8547 9.7296
# 5 0.0789 11.4540 15.6444 1.8547 31.5415 3.5860
# 6 -3.7989 5.0395 2.8860 9.7296 3.5860 25.8608
#
#
#
# Elastic Compliance Matrix: (Units=1/GPa)
#
#
# Indices 1 2 3 4 5 6 
#
# 1 0.017436 -0.001226 -0.002539 -0.000481 0.001339 0.003079
# 2 -0.001226 0.006356 -0.002257 -0.000263 -0.001065 -0.000920
# 3 -0.002539 -0.002257 0.009795 -0.001228 -0.003958 -0.000015
# 4 -0.000481 -0.000263 -0.001228 0.023724 0.000317 -0.008852
# 5 0.001339 -0.001065 -0.003958 0.000317 0.034494 -0.004056
# 6 0.003079 -0.000920 -0.000015 -0.008852 -0.004056 0.043195
#
#
# Mechanical properties :
#
#
# Convention : Reuss Voigt Hill
#
# Bulk Modulus (GPa) = 46.41942 61.77213 54.09577
# Shear Modulus (GPa) = 32.42009 39.39287 35.90648
#
# Velocity S-wave (km/s) = 3.52629 3.88705 3.71106
# Velocity P-wave (km/s) = 5.86378 6.62105 6.25389
#
# Compressibility (1/GPa) = 0.02154271
#
# Stress axis : x y z
#
# Youngs Moduli (GPa) = 57.35354 157.33137 102.08826
#
# Poissons Ratio (x) = 0.19293 0.25916
# Poissons Ratio (y) = 0.07033 0.23045
# Poissons Ratio (z) = 0.14560 0.35516
#
# Static dielectric constant tensor:
#      x y z
#    x 2.103510 0.034030 0.037920 
#    y 0.034030 2.135340 0.000930 
#    z 0.037920 0.000930 2.131700 
# 
# From -- ./inp_files/295046.got.cif
#   From: 2010.05.17/outbox.cif.g08.bks.cpg/sg2_148_cif.got.tgz:295046.got - 2010.06.03 11:33:40.
