data_PCOD9014383
_publ_section_title
;
Structure prediction by ZEFSAII (Michael W. Deem and Ramdas Pophale) SiO2 
 PCOD9014383
Probable space group: P -1
;
_chemical_formula_sum "Si O2"
_cell_formula_units_Z 16
_cell_length_a 18.217802
_cell_length_b 24.752587
_cell_length_c 14.241957
_cell_angle_alpha 160.742836
_cell_angle_beta 29.471392
_cell_angle_gamma 159.717233
_cell_volume 727.980249
_symmetry_space_group_name_H-M "P -1"
_symmetry_group_IT_number 2
_symmetry_cell_setting 'triclinic'
loop_
_space_group_symop_operation_xyz
x,y,z
-x,-y,-z
loop_
_atom_site_type_symbol
_atom_site_label
_atom_site_fract_x
_atom_site_fract_y
_atom_site_fract_z
Si Si1 0.353949 0.806260 0.762976
Si Si2 0.508238 0.687863 0.841907
Si Si3 0.001856 0.638353 0.340286
Si Si4 0.269751 0.383926 0.097317
Si Si5 0.293479 0.723675 0.290289
Si Si6 0.932483 0.583084 0.787002
Si Si7 0.060618 0.062693 0.143859
Si Si8 0.353081 0.849064 0.154630
O O1 0.293427 0.565461 0.435283
O O2 0.146253 0.758605 0.900538
O O3 0.500000 0.000000 0.000000
O O4 0.494414 0.923763 0.704530
O O5 0.500000 0.500000 0.500000
O O6 0.734135 0.876121 0.951915
O O7 0.487316 0.804031 0.973448
O O8 0.329513 0.601614 0.976113
O O9 0.085113 0.665003 0.395095
O O10 0.882817 0.700998 0.533153
O O11 0.845217 0.369077 0.045334
O O12 0.228672 0.828254 0.345893
O O13 0.144114 0.331375 0.054647
O O14 0.500000 0.500000 0.000000
O O15 0.133776 0.144508 0.914018
O O16 0.252479 0.623747 0.275909
O O17 0.500000 0.000000 0.500000
O O18 0.000000 0.500000 0.500000
O O19 0.000000 0.000000 0.000000
#
# Coordination Sequence:
#
# PCOD9014383 Si02
#       8
#     2   2   2   2   2   2   2   2
#     4  11  24  43  72  95 138 178 232 275 345 410
#     4  11  24  43  68 103 137 175 224 291 343 394
#     4  10  22  39  68  99 131 169 231 276 330 402
#     4  11  27  46  68  99 140 184 223 279 355 407
#     4  11  25  41  73 101 134 181 239 277 338 408
#     4  10  25  45  69  98 140 181 230 278 342 420
#     4  12  26  41  70 100 139 174 226 285 346 402
#     4  10  21  41  67  96 129 177 221 280 333 402
#
# _framework density 21.978617
#
# number of rings (size 3 to 8) (size 9 to 14) (size 15 to 20)
#    0.000    1.250    1.250    3.000   19.250    0.000 
#    2.250    0.625    0.000    0.000    0.000    0.000 
#    0.000    0.000    0.000    0.000    0.000    0.000 
#
# Total GULP energy -89288.926404 kJ/mol
# GULP energy per Si atom -5580.557900 kJ/mol
# Density = 2.192859 g / cm^3
# Si number density = 21.978617 Si / 1000 Ang^3
#
#
#
# Elastic Constant Matrix: (Units=GPa)
#
#
# Indices 1 2 3 4 5 6 
#
# 1 138.6788 35.7041 17.1580 4.7979 0.1011 16.4906
# 2 35.7041 109.1796 3.9429 -2.1825 -4.8227 -7.1344
# 3 17.1580 3.9429 51.9676 -10.1361 6.5866 -6.2025
# 4 4.7979 -2.1825 -10.1361 27.4347 4.0859 -8.7943
# 5 0.1011 -4.8227 6.5866 4.0859 29.9683 3.7532
# 6 16.4906 -7.1344 -6.2025 -8.7943 3.7532 56.5074
#
#
#
# Elastic Compliance Matrix: (Units=1/GPa)
#
#
# Indices 1 2 3 4 5 6 
#
# 1 0.009346 -0.003217 -0.004659 -0.005350 0.001780 -0.004596
# 2 -0.003217 0.010437 0.000980 0.002502 0.000796 0.002701
# 3 -0.004659 0.000980 0.025215 0.013629 -0.008092 0.006910
# 4 -0.005350 0.002502 0.013629 0.047886 -0.010547 0.011526
# 5 0.001780 0.000796 -0.008092 -0.010547 0.037388 -0.005432
# 6 -0.004596 0.002701 0.006910 0.011526 -0.005432 0.022292
#
#
# Mechanical properties :
#
#
# Convention : Reuss Voigt Hill
#
# Bulk Modulus (GPa) = 32.04515 45.93732 38.99123
# Shear Modulus (GPa) = 28.28714 38.98347 33.63531
#
# Velocity S-wave (km/s) = 3.59141 4.21610 3.91623
# Velocity P-wave (km/s) = 5.63999 6.68184 6.18290
#
# Compressibility (1/GPa) = 0.03120597
#
# Stress axis : x y z
#
# Youngs Moduli (GPa) = 106.99964 95.80924 39.65827
#
# Poissons Ratio (x) = 0.30819 0.18478
# Poissons Ratio (y) = 0.34418 -0.03885
# Poissons Ratio (z) = 0.49854 -0.09385
#
# Static dielectric constant tensor:
#      x y z
#    x 1.870370 0.007730 0.025220 
#    y 0.007730 1.808560 -0.029200 
#    z 0.025220 -0.029200 1.726820 
# 
# From -- ./inp_files/318205.got.cif
#   From: 2010.05.17/outbox.cif.g08.bks.cpg/sg2_160_cif.got.tgz:318205.got - 2010.06.03 11:33:40.
