data_PCOD9014604
_publ_section_title
;
Structure prediction by ZEFSAII (Michael W. Deem and Ramdas Pophale) SiO2 
 PCOD9014604
Probable space group: P -1
;
_chemical_formula_sum "Si O2"
_cell_formula_units_Z 13
_cell_length_a 14.361328
_cell_length_b 8.538762
_cell_length_c 7.699752
_cell_angle_alpha 76.111824
_cell_angle_beta 40.721310
_cell_angle_gamma 52.261867
_cell_volume 438.888495
_symmetry_space_group_name_H-M "P -1"
_symmetry_group_IT_number 2
_symmetry_cell_setting 'triclinic'
loop_
_space_group_symop_operation_xyz
x,y,z
-x,-y,-z
loop_
_atom_site_type_symbol
_atom_site_label
_atom_site_fract_x
_atom_site_fract_y
_atom_site_fract_z
Si Si1 0.197261 0.316436 0.872602
Si Si2 0.250479 0.087311 0.531209
Si Si3 0.000000 0.500000 0.500000
Si Si4 0.927835 0.064829 0.308656
Si Si5 0.365592 0.393308 0.884869
Si Si6 0.234920 0.996265 0.109164
Si Si7 0.559460 0.538757 0.722929
O O1 0.296879 0.122662 0.646464
O O2 0.310229 0.381957 0.770439
O O3 0.000000 0.500000 0.000000
O O4 0.168002 0.234233 0.116479
O O5 0.141708 0.298461 0.506792
O O6 0.107457 0.040105 0.763191
O O7 0.458090 0.858343 0.235994
O O8 0.830507 0.486304 0.764518
O O9 0.842368 0.021769 0.601304
O O10 0.785285 0.328344 0.435202
O O11 0.129530 0.975366 0.114721
O O12 0.446767 0.509506 0.756277
O O13 0.462724 0.787553 0.819186
O O14 0.500000 0.500000 0.000000
#
# Coordination Sequence:
#
# PCOD9014604 Si02
#       7
#     2   2   1   2   2   2   2
#     4  12  26  46  63 101 144 189 226 274 346 413
#     4  11  24  43  66  97 140 180 233 279 341 407
#     4  12  22  40  70 100 132 180 228 280 338 398
#     4   9  20  41  68  99 124 172 232 284 331 395
#     4  11  24  45  68 100 138 176 228 286 340 408
#     4  10  21  41  68  94 134 172 226 283 336 397
#     4   9  20  41  67  99 127 165 225 279 339 398
#
# _framework density 29.620279
#
# number of rings (size 3 to 8) (size 9 to 14) (size 15 to 20)
#    0.000    1.538    1.538    2.769    0.000    5.538 
#    5.538    1.538    0.000    0.000    0.000    0.000 
#    0.000    0.000    0.000    0.000    0.000    0.000 
#
# Total GULP energy -72723.851521 kJ/mol
# GULP energy per Si atom -5594.142425 kJ/mol
# Density = 2.955286 g / cm^3
# Si number density = 29.620279 Si / 1000 Ang^3
#
#
#
# Elastic Constant Matrix: (Units=GPa)
#
#
# Indices 1 2 3 4 5 6 
#
# 1 180.3090 3.7400 -5.5682 -10.6440 -3.3924 -2.9404
# 2 3.7400 192.7889 24.6149 24.9606 -10.9148 -29.3156
# 3 -5.5682 24.6149 69.9358 8.7216 -14.5903 -3.7254
# 4 -10.6440 24.9606 8.7216 65.2334 -9.9278 -2.7634
# 5 -3.3924 -10.9148 -14.5903 -9.9278 40.1973 -4.5155
# 6 -2.9404 -29.3156 -3.7254 -2.7634 -4.5155 46.7048
#
#
#
# Elastic Compliance Matrix: (Units=1/GPa)
#
#
# Indices 1 2 3 4 5 6 
#
# 1 0.005658 -0.000209 0.000612 0.001086 0.000959 0.000431
# 2 -0.000209 0.006274 -0.001561 -0.001902 0.001076 0.003792
# 3 0.000612 -0.001561 0.016150 -0.000599 0.005436 0.000837
# 4 0.001086 -0.001902 -0.000599 0.016860 0.003541 0.000167
# 5 0.000959 0.001076 0.005436 0.003541 0.028563 0.004140
# 6 0.000431 0.003792 0.000837 0.000167 0.004140 0.024295
#
#
# Mechanical properties :
#
#
# Convention : Reuss Voigt Hill
#
# Bulk Modulus (GPa) = 38.81002 54.28967 46.54984
# Shear Modulus (GPa) = 45.99536 58.44357 52.21946
#
# Velocity S-wave (km/s) = 3.94488 4.44677 4.20332
# Velocity P-wave (km/s) = 5.82068 6.68830 6.26952
#
# Compressibility (1/GPa) = 0.02576654
#
# Stress axis : x y z
#
# Youngs Moduli (GPa) = 176.72793 159.38486 61.91793
#
# Poissons Ratio (x) = 0.03324 -0.03787
# Poissons Ratio (y) = 0.03685 0.09667
# Poissons Ratio (z) = -0.10810 0.24885
#
# Static dielectric constant tensor:
#      x y z
#    x 2.276910 -0.099200 0.104590 
#    y -0.099200 2.287280 -0.274330 
#    z 0.104590 -0.274330 2.208770 
# 
# From -- ./inp_files/294641.got.cif
#   From: 2010.05.17/outbox.cif.g08.bks.cpg/sg2_148_cif.got.tgz:294641.got - 2010.06.03 11:33:40.
