data_PCOD9014384
_publ_section_title
;
Structure prediction by ZEFSAII (Michael W. Deem and Ramdas Pophale) SiO2 
 PCOD9014384
Probable space group: P -1
;
_chemical_formula_sum "Si O2"
_cell_formula_units_Z 12
_cell_length_a 15.593847
_cell_length_b 7.769017
_cell_length_c 6.842882
_cell_angle_alpha 58.589087
_cell_angle_beta 129.053218
_cell_angle_gamma 137.215183
_cell_volume 434.558649
_symmetry_space_group_name_H-M "P -1"
_symmetry_group_IT_number 2
_symmetry_cell_setting 'triclinic'
loop_
_space_group_symop_operation_xyz
x,y,z
-x,-y,-z
loop_
_atom_site_type_symbol
_atom_site_label
_atom_site_fract_x
_atom_site_fract_y
_atom_site_fract_z
Si Si1 0.158746 0.438994 0.660836
Si Si2 0.640999 0.762940 0.465971
Si Si3 0.375636 0.632397 0.539050
Si Si4 0.908767 0.397118 0.150081
Si Si5 0.382604 0.021280 0.071429
Si Si6 0.895072 0.026406 0.961050
O O1 0.278463 0.624458 0.568185
O O2 0.169256 0.564317 0.809432
O O3 0.159891 0.200708 0.831849
O O4 0.011195 0.351774 0.421113
O O5 0.500000 0.500000 0.500000
O O6 0.701899 0.646765 0.492049
O O7 0.763726 0.949426 0.684044
O O8 0.600756 0.891859 0.178716
O O9 0.517389 0.734830 0.793306
O O10 0.414167 0.829745 0.304293
O O11 0.002375 0.672627 0.018286
O O12 0.780053 0.145108 0.011883
O O13 0.000000 0.000000 0.000000
#
# Coordination Sequence:
#
# PCOD9014384 Si02
#       6
#     2   2   2   2   2   2
#     4  10  21  41  67  96 130 166 212 263 313 378
#     4  12  26  45  69  92 125 172 217 265 318 377
#     4  11  26  43  64  97 130 168 214 264 318 372
#     4  10  22  42  66  97 130 170 211 253 321 381
#     4  11  25  44  66  96 132 168 211 265 318 381
#     4  10  21  41  69  96 126 169 215 260 313 380
#
# _framework density 27.614224
#
# number of rings (size 3 to 8) (size 9 to 14) (size 15 to 20)
#    0.000    1.333    0.000    6.500    0.000    8.667 
#    0.000   13.333    0.000    0.000    0.000    0.000 
#    0.000    0.000    0.000    0.000    0.000    0.000 
#
# Total GULP energy -67278.092906 kJ/mol
# GULP energy per Si atom -5606.507742 kJ/mol
# Density = 2.755137 g / cm^3
# Si number density = 27.614224 Si / 1000 Ang^3
#
#
#
# Elastic Constant Matrix: (Units=GPa)
#
#
# Indices 1 2 3 4 5 6 
#
# 1 111.6009 37.0018 26.7152 -6.8630 -8.1319 25.9964
# 2 37.0018 165.6287 95.9014 0.2709 -5.3951 5.8056
# 3 26.7152 95.9014 184.7593 -17.7358 -15.0652 5.5515
# 4 -6.8630 0.2709 -17.7358 66.3298 11.1859 -0.3144
# 5 -8.1319 -5.3951 -15.0652 11.1859 32.8591 -11.3455
# 6 25.9964 5.8056 5.5515 -0.3144 -11.3455 56.9877
#
#
#
# Elastic Compliance Matrix: (Units=1/GPa)
#
#
# Indices 1 2 3 4 5 6 
#
# 1 0.010890 -0.002146 -0.000200 0.001010 0.000297 -0.004665
# 2 -0.002146 0.009177 -0.004644 -0.001408 -0.000543 0.000381
# 3 -0.000200 -0.004644 0.008214 0.001785 0.002436 0.000259
# 4 0.001010 -0.001408 0.001785 0.016551 -0.005299 -0.001455
# 5 0.000297 -0.000543 0.002436 -0.005299 0.035670 0.006755
# 6 -0.004665 0.000381 0.000259 -0.001455 0.006755 0.020949
#
#
# Mechanical properties :
#
#
# Convention : Reuss Voigt Hill
#
# Bulk Modulus (GPa) = 69.91759 86.80284 78.36021
# Shear Modulus (GPa) = 41.59824 51.39334 46.49579
#
# Velocity S-wave (km/s) = 3.88546 4.31875 4.10782
# Velocity P-wave (km/s) = 6.74562 7.50807 7.13703
#
# Compressibility (1/GPa) = 0.01430255
#
# Stress axis : x y z
#
# Youngs Moduli (GPa) = 91.82602 108.96454 121.74200
#
# Poissons Ratio (x) = 0.23382 0.02429
# Poissons Ratio (y) = 0.19704 0.56539
# Poissons Ratio (z) = 0.01832 0.50605
#
# Static dielectric constant tensor:
#      x y z
#    x 2.299950 -0.062990 -0.001910 
#    y -0.062990 2.151140 -0.012830 
#    z -0.001910 -0.012830 2.093370 
# 
# From -- ./inp_files/327243.got.cif
#   From: 2010.05.17/outbox.cif.g08.bks.cpg/sg2_164_cif.got.tgz:327243.got - 2010.06.03 11:33:40.
