data_PCOD9014683
_publ_section_title
;
Structure prediction by ZEFSAII (Michael W. Deem and Ramdas Pophale) SiO2 
 PCOD9014683
Probable space group: P -1
;
_chemical_formula_sum "Si O2"
_cell_formula_units_Z 16
_cell_length_a 7.352818
_cell_length_b 16.196743
_cell_length_c 11.451958
_cell_angle_alpha 32.492374
_cell_angle_beta 112.322787
_cell_angle_gamma 119.485279
_cell_volume 635.922100
_symmetry_space_group_name_H-M "P -1"
_symmetry_group_IT_number 2
_symmetry_cell_setting 'triclinic'
loop_
_space_group_symop_operation_xyz
x,y,z
-x,-y,-z
loop_
_atom_site_type_symbol
_atom_site_label
_atom_site_fract_x
_atom_site_fract_y
_atom_site_fract_z
Si Si1 0.641679 0.543842 0.280083
Si Si2 0.344279 0.801020 0.657010
Si Si3 0.029439 0.373459 0.532000
Si Si4 0.221154 0.965085 0.068496
Si Si5 0.146822 0.474120 0.870914
Si Si6 0.576452 0.886384 0.829660
Si Si7 0.261854 0.225565 0.591741
Si Si8 0.193135 0.165945 0.372483
O O1 0.818089 0.565666 0.394840
O O2 0.662019 0.486403 0.221607
O O3 0.444777 0.398584 0.451940
O O4 0.642587 0.727305 0.043715
O O5 0.192602 0.624758 0.790641
O O6 0.366345 0.821389 0.777681
O O7 0.578993 0.821134 0.641206
O O8 0.293710 0.951414 0.406809
O O9 0.084803 0.263683 0.577392
O O10 0.826942 0.230009 0.708218
O O11 0.022116 0.523588 0.270933
O O12 0.392740 0.046127 0.112960
O O13 0.294257 0.067729 0.845989
O O14 0.000000 0.000000 0.000000
O O15 0.131707 0.311242 0.126323
O O16 0.219075 0.194067 0.483339
O O17 0.000000 0.000000 0.500000
#
# Coordination Sequence:
#
# PCOD9014683 Si02
#       8
#     2   2   2   2   2   2   2   2
#     4  12  23  45  72 102 138 179 228 282 341 398
#     4  11  24  44  69 101 130 180 233 275 338 407
#     4  11  25  42  73 101 134 184 230 275 336 411
#     4  10  21  41  68  98 133 175 228 275 330 399
#     4  12  25  48  70 101 140 179 228 282 344 402
#     4  11  22  39  76  94 128 179 230 271 332 405
#     4  11  25  43  71 100 142 180 225 281 341 401
#     4  12  28  44  68 100 142 178 223 290 346 397
#
# _framework density 25.160312000000001
#
# number of rings (size 3 to 8) (size 9 to 14) (size 15 to 20)
#    0.000    0.750    6.250    1.875    5.250    1.500 
#    0.000    1.250    0.000    0.000    0.000    0.000 
#    0.000    0.000    0.000    0.000    0.000    0.000 
#
# Total GULP energy -89365.317473 kJ/mol
# GULP energy per Si atom -5585.332342 kJ/mol
# Density = 2.510305 g / cm^3
# Si number density = 25.160312 Si / 1000 Ang^3
#
#
#
# Elastic Constant Matrix: (Units=GPa)
#
#
# Indices 1 2 3 4 5 6 
#
# 1 45.7404 9.4521 17.2290 4.7036 -0.9877 0.9932
# 2 9.4521 184.2833 81.0124 20.3273 -1.2366 2.4292
# 3 17.2290 81.0124 223.6647 34.7616 17.3002 11.6306
# 4 4.7036 20.3273 34.7616 49.3109 -6.2480 -4.6049
# 5 -0.9877 -1.2366 17.3002 -6.2480 21.5754 -1.1067
# 6 0.9932 2.4292 11.6306 -4.6049 -1.1067 22.7547
#
#
#
# Elastic Compliance Matrix: (Units=1/GPa)
#
#
# Indices 1 2 3 4 5 6 
#
# 1 0.022682 -0.000336 -0.001708 -0.000546 0.002227 -0.000083
# 2 -0.000336 0.006605 -0.002468 -0.000622 0.002190 0.000552
# 3 -0.001708 -0.002468 0.007168 -0.005300 -0.007747 -0.004775
# 4 -0.000546 -0.000622 -0.005300 0.026715 0.012377 0.008808
# 5 0.002227 0.002190 -0.007747 0.012377 0.056829 0.008897
# 6 -0.000083 0.000552 -0.004775 0.008808 0.008897 0.048547
#
#
# Mechanical properties :
#
#
# Convention : Reuss Voigt Hill
#
# Bulk Modulus (GPa) = 36.45741 74.34172 55.39957
# Shear Modulus (GPa) = 26.77912 41.79453 34.28682
#
# Velocity S-wave (km/s) = 3.26596 4.08012 3.69553
# Velocity P-wave (km/s) = 5.36130 7.19777 6.34631
#
# Compressibility (1/GPa) = 0.02742926
#
# Stress axis : x y z
#
# Youngs Moduli (GPa) = 44.08869 151.41147 139.51611
#
# Poissons Ratio (x) = 0.05088 0.23836
# Poissons Ratio (y) = 0.01481 0.34429
# Poissons Ratio (z) = 0.07532 0.37364
#
# Static dielectric constant tensor:
#      x y z
#    x 2.179780 0.015930 0.065100 
#    y 0.015930 1.907240 -0.003930 
#    z 0.065100 -0.003930 1.992820 
# 
# From -- ./inp_files/392125.got.cif
#   From: 2010.05.17/outbox.cif.g08.bks.cpg/sg2_197_cif.got.tgz:392125.got - 2010.06.03 11:33:40.
