data_PCOD9014369
_publ_section_title
;
Structure prediction by ZEFSAII (Michael W. Deem and Ramdas Pophale) SiO2 
 PCOD9014369
Probable space group: P -1
;
_chemical_formula_sum "Si O2"
_cell_formula_units_Z 16
_cell_length_a 8.295807
_cell_length_b 7.968496
_cell_length_c 11.747110
_cell_angle_alpha 71.752142
_cell_angle_beta 74.595303
_cell_angle_gamma 69.550084
_cell_volume 680.280465
_symmetry_space_group_name_H-M "P -1"
_symmetry_group_IT_number 2
_symmetry_cell_setting 'triclinic'
loop_
_space_group_symop_operation_xyz
x,y,z
-x,-y,-z
loop_
_atom_site_type_symbol
_atom_site_label
_atom_site_fract_x
_atom_site_fract_y
_atom_site_fract_z
Si Si1 0.036621 0.588716 0.854780
Si Si2 0.304592 0.057608 0.572580
Si Si3 0.805540 0.938074 0.157362
Si Si4 0.725594 0.542078 0.546392
Si Si5 0.136463 0.644563 0.217260
Si Si6 0.270305 0.148021 0.055508
Si Si7 0.604021 0.235094 0.977475
Si Si8 0.309621 0.656080 0.636922
O O1 0.960949 0.490295 0.790611
O O2 0.225064 0.596150 0.778191
O O3 0.903349 0.792466 0.851554
O O4 0.000000 0.500000 0.000000
O O5 0.300248 0.073339 0.707330
O O6 0.220711 0.267502 0.502195
O O7 0.500000 0.000000 0.500000
O O8 0.238920 0.880181 0.593247
O O9 0.007805 0.848318 0.169224
O O10 0.733008 0.144014 0.076712
O O11 0.770714 0.825004 0.077881
O O12 0.168348 0.602292 0.351428
O O13 0.520194 0.598230 0.608923
O O14 0.739810 0.449280 0.439685
O O15 0.321212 0.616056 0.125835
O O16 0.405171 0.259583 0.041293
O O17 0.363877 0.929512 0.088859
#
# Coordination Sequence:
#
# PCOD9014369 Si02
#       8
#     2   2   2   2   2   2   2   2
#     4  12  25  40  66 108 139 177 229 289 355 417
#     4  10  23  43  73 100 129 184 243 289 339 421
#     4  10  21  41  67  95 137 181 222 292 353 413
#     4  10  25  50  70 104 138 190 240 284 358 406
#     4  12  25  40  70  98 143 178 230 293 348 423
#     4   9  22  42  64  97 136 177 227 274 354 424
#     4   9  22  42  65  97 126 192 222 276 355 419
#     4  10  25  48  74  99 144 188 233 297 346 419
#
# _framework density 23.519711000000001
#
# number of rings (size 3 to 8) (size 9 to 14) (size 15 to 20)
#    0.750    1.000    1.250    1.125    5.250    6.500 
#    2.250    1.250    0.000    0.000    0.000    0.000 
#    0.000    0.000    0.000    0.000    0.000    0.000 
#
# Total GULP energy -89289.951408 kJ/mol
# GULP energy per Si atom -5580.621963 kJ/mol
# Density = 2.346618 g / cm^3
# Si number density = 23.519711 Si / 1000 Ang^3
#
#
#
# Elastic Constant Matrix: (Units=GPa)
#
#
# Indices 1 2 3 4 5 6 
#
# 1 75.8685 33.1799 36.0920 3.1621 5.9660 -4.3644
# 2 33.1799 91.2006 24.6110 0.4679 -8.3554 20.2513
# 3 36.0920 24.6110 138.3868 6.2394 -14.1744 5.1264
# 4 3.1621 0.4679 6.2394 36.8986 -2.6000 0.1680
# 5 5.9660 -8.3554 -14.1744 -2.6000 30.9231 -8.6343
# 6 -4.3644 20.2513 5.1264 0.1680 -8.6343 17.4015
#
#
#
# Elastic Compliance Matrix: (Units=1/GPa)
#
#
# Indices 1 2 3 4 5 6 
#
# 1 0.021539 -0.010756 -0.004747 -0.001307 -0.004585 0.017055
# 2 -0.010756 0.020834 0.000091 0.000787 0.000325 -0.026817
# 3 -0.004747 0.000091 0.009011 -0.000791 0.004531 -0.001695
# 4 -0.001307 0.000787 -0.000791 0.027506 0.002390 -0.000091
# 5 -0.004585 0.000325 0.004531 0.002390 0.040377 0.017149
# 6 0.017055 -0.026817 -0.001695 -0.000091 0.017149 0.101962
#
#
# Mechanical properties :
#
#
# Convention : Reuss Voigt Hill
#
# Bulk Modulus (GPa) = 48.63831 54.80243 51.72037
# Shear Modulus (GPa) = 19.31218 31.14949 25.23084
#
# Velocity S-wave (km/s) = 2.86860 3.64318 3.27884
# Velocity P-wave (km/s) = 5.62997 6.40689 6.03095
#
# Compressibility (1/GPa) = 0.02055992
#
# Stress axis : x y z
#
# Youngs Moduli (GPa) = 46.42747 47.99931 110.98103
#
# Poissons Ratio (x) = 0.51626 0.52685
# Poissons Ratio (y) = 0.49935 -0.01012
# Poissons Ratio (z) = 0.22040 -0.00438
#
# Static dielectric constant tensor:
#      x y z
#    x 1.907900 -0.054220 -0.058520 
#    y -0.054220 2.012970 -0.021510 
#    z -0.058520 -0.021510 1.902990 
# 
# From -- ./inp_files/555255.got.cif
#   From: 2010.05.17/outbox.cif.g08.bks.cpg/sg2_278_cif.got.tgz:555255.got - 2010.06.03 11:33:40.
