data_PCOD9014519
_publ_section_title
;
Structure prediction by ZEFSAII (Michael W. Deem and Ramdas Pophale) SiO2 
 PCOD9014519
Probable space group: P -1
;
_chemical_formula_sum "Si O2"
_cell_formula_units_Z 16
_cell_length_a 20.721674
_cell_length_b 17.872722
_cell_length_c 5.464502
_cell_angle_alpha 111.809719
_cell_angle_beta 111.612463
_cell_angle_gamma 18.842724
_cell_volume 605.899462
_symmetry_space_group_name_H-M "P -1"
_symmetry_group_IT_number 2
_symmetry_cell_setting 'triclinic'
loop_
_space_group_symop_operation_xyz
x,y,z
-x,-y,-z
loop_
_atom_site_type_symbol
_atom_site_label
_atom_site_fract_x
_atom_site_fract_y
_atom_site_fract_z
Si Si1 0.375384 0.652176 0.257180
Si Si2 0.564813 0.014401 0.506776
Si Si3 0.913111 0.157773 0.756334
Si Si4 0.425667 0.918962 0.892670
Si Si5 0.008645 0.372388 0.394623
Si Si6 0.946867 0.415449 0.864055
Si Si7 0.079225 0.103798 0.233008
Si Si8 0.261461 0.525627 0.426002
O O1 0.500000 0.500000 0.500000
O O2 0.202128 0.773091 0.133616
O O3 0.256891 0.867912 0.350629
O O4 0.500000 0.500000 0.000000
O O5 0.516788 0.076122 0.223840
O O6 0.500000 0.000000 0.500000
O O7 0.800129 0.779685 0.539835
O O8 0.497590 0.149184 0.803867
O O9 0.754887 0.380660 0.652780
O O10 0.000000 0.000000 0.500000
O O11 0.072030 0.052144 0.929019
O O12 0.517744 0.745979 0.650008
O O13 0.188288 0.162286 0.881536
O O14 0.883659 0.520429 0.645535
O O15 0.080646 0.198543 0.298438
O O16 0.885579 0.520699 0.158506
O O17 0.873306 0.404145 0.762779
O O18 0.855683 0.330892 0.311308
#
# Coordination Sequence:
#
# PCOD9014519 Si02
#       8
#     2   2   2   2   2   2   2   2
#     4  12  29  45  66  97 136 178 236 297 360 423
#     4  10  21  41  68 103 143 175 214 281 348 408
#     4  12  25  46  69  97 137 189 234 295 375 412
#     4  10  23  39  69 102 132 180 234 268 339 423
#     4   9  19  36  67  89 124 173 219 257 337 402
#     4   9  19  39  58  96 130 168 217 278 332 387
#     4  11  24  45  69  92 138 182 233 292 359 411
#     4  11  24  40  72  96 137 176 239 286 344 416
#
# _framework density 26.407022000000001
#
# number of rings (size 3 to 8) (size 9 to 14) (size 15 to 20)
#    0.000    1.500    2.500    1.500    3.500    5.000 
#    0.000    0.000    0.000   28.500    0.000    0.000 
#    0.000    0.000    0.000    0.000    0.000    0.000 
#
# Total GULP energy -89289.913594 kJ/mol
# GULP energy per Si atom -5580.619600 kJ/mol
# Density = 2.634692 g / cm^3
# Si number density = 26.407022 Si / 1000 Ang^3
#
#
#
# Elastic Constant Matrix: (Units=GPa)
#
#
# Indices 1 2 3 4 5 6 
#
# 1 164.9767 31.3758 25.9031 4.1428 1.0615 -7.5895
# 2 31.3758 98.5822 28.6459 10.3193 -5.9702 -0.3750
# 3 25.9031 28.6459 153.2170 -6.1399 -22.4436 0.0756
# 4 4.1428 10.3193 -6.1399 29.2218 -4.1518 -12.5265
# 5 1.0615 -5.9702 -22.4436 -4.1518 47.1434 9.3816
# 6 -7.5895 -0.3750 0.0756 -12.5265 9.3816 43.8086
#
#
#
# Elastic Compliance Matrix: (Units=1/GPa)
#
#
# Indices 1 2 3 4 5 6 
#
# 1 0.006640 -0.001900 -0.000932 -0.000040 -0.001108 0.001362
# 2 -0.001900 0.011890 -0.002031 -0.005046 0.000490 -0.001772
# 3 -0.000932 -0.002031 0.007729 0.002939 0.003732 -0.000151
# 4 -0.000040 -0.005046 0.002939 0.041840 0.002168 0.011444
# 5 -0.001108 0.000490 0.003732 0.002168 0.024214 -0.004760
# 6 0.001362 -0.001772 -0.000151 0.011444 -0.004760 0.027339
#
#
# Mechanical properties :
#
#
# Convention : Reuss Voigt Hill
#
# Bulk Modulus (GPa) = 60.49072 65.40283 62.94677
# Shear Modulus (GPa) = 37.06759 46.09150 41.57954
#
# Velocity S-wave (km/s) = 3.75067 4.18236 3.97238
# Velocity P-wave (km/s) = 6.45859 6.93858 6.70288
#
# Compressibility (1/GPa) = 0.01653146
#
# Stress axis : x y z
#
# Youngs Moduli (GPa) = 150.60350 84.10429 129.39072
#
# Poissons Ratio (x) = 0.15982 0.12058
# Poissons Ratio (y) = 0.28619 0.26284
# Poissons Ratio (z) = 0.14035 0.17084
#
# Static dielectric constant tensor:
#      x y z
#    x 1.975310 -0.024900 -0.045960 
#    y -0.024900 1.794070 -0.113330 
#    z -0.045960 -0.113330 2.235000 
# 
# From -- ./inp_files/120133.got.cif
#   From: 2010.05.17/outbox.cif.g08.bks.cpg/sg2_61_cif.got.tgz:120133.got - 2010.06.03 11:33:40.
