data_PCOD9014221
_publ_section_title
;
Structure prediction by ZEFSAII (Michael W. Deem and Ramdas Pophale) SiO2 
 PCOD9014221
Probable space group: P -1
;
_chemical_formula_sum "Si O2"
_cell_formula_units_Z 14
_cell_length_a 17.596834
_cell_length_b 9.199715
_cell_length_c 5.037534
_cell_angle_alpha 78.232695
_cell_angle_beta 78.118001
_cell_angle_gamma 131.894501
_cell_volume 524.739926
_symmetry_space_group_name_H-M "P -1"
_symmetry_group_IT_number 2
_symmetry_cell_setting 'triclinic'
loop_
_space_group_symop_operation_xyz
x,y,z
-x,-y,-z
loop_
_atom_site_type_symbol
_atom_site_label
_atom_site_fract_x
_atom_site_fract_y
_atom_site_fract_z
Si Si1 0.676059 0.672316 0.202123
Si Si2 0.051542 0.163613 0.657374
Si Si3 0.717827 0.347455 0.540797
Si Si4 0.861442 0.290331 0.180325
Si Si5 0.870868 0.131558 0.735739
Si Si6 0.510516 0.659402 0.113482
Si Si7 0.403344 0.728315 0.849436
O O1 0.618003 0.754774 0.172563
O O2 0.601018 0.500771 0.558508
O O3 0.664058 0.525439 0.047095
O O4 0.806967 0.903613 0.005022
O O5 0.002055 0.260928 0.608034
O O6 0.185847 0.387168 0.557576
O O7 0.000000 0.000000 0.500000
O O8 0.000000 0.000000 0.000000
O O9 0.792366 0.328242 0.342918
O O10 0.656104 0.247474 0.907141
O O11 0.613381 0.230675 0.446499
O O12 0.835224 0.116203 0.466412
O O13 0.840741 0.225958 0.911678
O O14 0.000000 0.500000 0.000000
O O15 0.516459 0.814589 0.873527
O O16 0.500000 0.500000 0.000000
#
# Coordination Sequence:
#
# PCOD9014221 Si02
#       7
#     2   2   2   2   2   2   2
#     4  10  21  41  67 108 130 168 209 272 343 398
#     4  12  25  39  62  98 130 165 202 280 336 382
#     4  12  24  41  64  89 133 172 228 262 319 393
#     4  12  27  47  64  89 127 193 230 263 310 370
#     4  12  26  42  69  91 135 169 229 269 311 397
#     4   9  20  38  69 102 138 164 204 261 355 409
#     4  11  22  39  67  98 131 167 206 274 332 398
#
# _framework density 26.679881000000002
#
# number of rings (size 3 to 8) (size 9 to 14) (size 15 to 20)
#    0.000    0.857    2.857    4.714    6.000    0.000 
#    0.000    0.000    0.000    5.143    0.000    0.000 
#    0.000    0.000    0.000    0.000    0.000    0.000 
#
# Total GULP energy -78070.183352 kJ/mol
# GULP energy per Si atom -5576.441668 kJ/mol
# Density = 2.661916 g / cm^3
# Si number density = 26.679881 Si / 1000 Ang^3
#
#
#
# Elastic Constant Matrix: (Units=GPa)
#
#
# Indices 1 2 3 4 5 6 
#
# 1 99.7456 -0.4132 38.0487 2.4663 13.1194 -26.6307
# 2 -0.4132 81.2115 35.0207 14.9048 1.5830 -14.3661
# 3 38.0487 35.0207 138.4472 38.4296 13.0075 -10.3507
# 4 2.4663 14.9048 38.4296 46.0338 -7.5805 -5.6004
# 5 13.1194 1.5830 13.0075 -7.5805 45.0652 13.6455
# 6 -26.6307 -14.3661 -10.3507 -5.6004 13.6455 37.8282
#
#
#
# Elastic Compliance Matrix: (Units=1/GPa)
#
#
# Indices 1 2 3 4 5 6 
#
# 1 0.016962 0.004586 -0.004362 0.001796 -0.008308 0.015752
# 2 0.004586 0.016032 -0.003722 -0.001836 -0.004000 0.009470
# 3 -0.004362 -0.003722 0.012195 -0.009450 -0.003298 -0.001357
# 4 0.001796 -0.001836 -0.009450 0.031344 0.007575 -0.000110
# 5 -0.008308 -0.004000 -0.003298 0.007575 0.032713 -0.018949
# 6 0.015752 0.009470 -0.001357 -0.000110 -0.018949 0.047569
#
#
# Mechanical properties :
#
#
# Convention : Reuss Voigt Hill
#
# Bulk Modulus (GPa) = 26.18323 51.63521 38.90922
# Shear Modulus (GPa) = 28.32185 42.23531 35.27858
#
# Velocity S-wave (km/s) = 3.26167 3.98306 3.64028
# Velocity P-wave (km/s) = 4.90100 6.36778 5.68192
#
# Compressibility (1/GPa) = 0.03819238
#
# Stress axis : x y z
#
# Youngs Moduli (GPa) = 58.95389 62.37472 82.00274
#
# Poissons Ratio (x) = -0.28606 0.35771
# Poissons Ratio (y) = -0.27037 0.30525
# Poissons Ratio (z) = 0.25717 0.23219
#
# Static dielectric constant tensor:
#      x y z
#    x 3.451340 0.881970 -0.525450 
#    y 0.881970 2.786720 -0.472330 
#    z -0.525450 -0.472330 2.422160 
# 
# From -- ./inp_files/103820.got.cif
#   From: 2010.05.17/outbox.cif.g08.bks.cpg/sg2_52_cif.got.tgz:103820.got - 2010.06.03 11:33:40.
