data_PCOD9014626
_publ_section_title
;
Structure prediction by ZEFSAII (Michael W. Deem and Ramdas Pophale) SiO2 
 PCOD9014626
Probable space group: P -1
;
_chemical_formula_sum "Si O2"
_cell_formula_units_Z 16
_cell_length_a 11.155334
_cell_length_b 10.006615
_cell_length_c 9.227173
_cell_angle_alpha 91.943605
_cell_angle_beta 90.818437
_cell_angle_gamma 38.764515
_cell_volume 644.413702
_symmetry_space_group_name_H-M "P -1"
_symmetry_group_IT_number 2
_symmetry_cell_setting 'triclinic'
loop_
_space_group_symop_operation_xyz
x,y,z
-x,-y,-z
loop_
_atom_site_type_symbol
_atom_site_label
_atom_site_fract_x
_atom_site_fract_y
_atom_site_fract_z
Si Si1 0.398873 0.328678 0.185225
Si Si2 0.220869 0.746794 0.102787
Si Si3 0.267195 0.208516 0.001324
Si Si4 0.107712 0.324716 0.681369
Si Si5 0.700982 0.788144 0.605381
Si Si6 0.232718 0.863428 0.830687
Si Si7 0.113855 0.033780 0.541155
Si Si8 0.241439 0.023437 0.229574
O O1 0.326966 0.541699 0.186123
O O2 0.256236 0.363957 0.085291
O O3 0.398065 0.257937 0.337952
O O4 0.616312 0.152082 0.126078
O O5 0.993229 0.924447 0.130323
O O6 0.279319 0.843975 0.160514
O O7 0.273553 0.701280 0.930545
O O8 0.171399 0.175957 0.098662
O O9 0.500000 0.000000 0.000000
O O10 0.180461 0.282396 0.843001
O O11 0.049927 0.221541 0.637519
O O12 0.924237 0.575157 0.650949
O O13 0.258140 0.842571 0.656727
O O14 0.724978 0.789779 0.436680
O O15 0.618289 0.986764 0.699181
O O16 0.143061 0.069722 0.382673
O O17 0.000000 0.000000 0.500000
#
# Coordination Sequence:
#
# PCOD9014626 Si02
#       8
#     2   2   2   2   2   2   2   2
#     4  11  24  43  67 103 135 170 229 274 329 404
#     4  11  23  43  68  97 137 175 224 277 333 395
#     4  11  24  43  67  97 135 176 222 275 334 396
#     4  10  21  41  68  95 135 176 223 274 335 396
#     4   9  22  41  66  98 134 172 224 274 336 401
#     4  11  24  41  67  96 137 179 214 278 339 387
#     4  11  21  40  64  97 130 175 221 272 331 397
#     4  10  22  40  64  95 129 174 220 270 333 396
#
# _framework density 24.828771
#
# number of rings (size 3 to 8) (size 9 to 14) (size 15 to 20)
#    0.000    1.500    1.250    3.375    0.000    6.000 
#    2.250    4.375    0.000    1.500    0.000    0.000 
#    0.000    0.000    0.000    0.000    0.000    0.000 
#
# Total GULP energy -89098.220983 kJ/mol
# GULP energy per Si atom -5568.638811 kJ/mol
# Density = 2.477226 g / cm^3
# Si number density = 24.828771 Si / 1000 Ang^3
#
#
#
# Elastic Constant Matrix: (Units=GPa)
#
#
# Indices 1 2 3 4 5 6 
#
# 1 148.5004 59.4439 79.4268 -16.8097 -5.6450 26.9839
# 2 59.4439 85.2479 33.1139 -19.4751 8.0819 26.3034
# 3 79.4268 33.1139 215.4952 -25.7123 -11.2842 19.9294
# 4 -16.8097 -19.4751 -25.7123 37.5302 9.3785 -5.5640
# 5 -5.6450 8.0819 -11.2842 9.3785 58.7021 -5.1796
# 6 26.9839 26.3034 19.9294 -5.5640 -5.1796 44.3226
#
#
#
# Elastic Compliance Matrix: (Units=1/GPa)
#
#
# Indices 1 2 3 4 5 6 
#
# 1 0.011176 -0.006512 -0.003024 -0.001028 0.001418 -0.001543
# 2 -0.006512 0.021103 0.000677 0.008629 -0.005524 -0.008426
# 3 -0.003024 0.000677 0.006103 0.002986 0.000232 -0.000903
# 4 -0.001028 0.008629 0.002986 0.033949 -0.006341 -0.002317
# 5 0.001418 -0.005524 0.000232 -0.006341 0.019323 0.003772
# 6 -0.001543 -0.008426 -0.000903 -0.002317 0.003772 0.029058
#
#
# Mechanical properties :
#
#
# Convention : Reuss Voigt Hill
#
# Bulk Modulus (GPa) = 48.39340 88.13475 68.26407
# Shear Modulus (GPa) = 34.40736 46.59492 40.50114
#
# Velocity S-wave (km/s) = 3.72665 4.33673 4.04322
# Velocity P-wave (km/s) = 6.16850 7.78784 7.02499
#
# Compressibility (1/GPa) = 0.02066398
#
# Stress axis : x y z
#
# Youngs Moduli (GPa) = 89.47703 47.38676 163.85053
#
# Poissons Ratio (x) = 0.30856 0.49555
# Poissons Ratio (y) = 0.58263 -0.11090
# Poissons Ratio (z) = 0.27061 -0.03207
#
# Static dielectric constant tensor:
#      x y z
#    x 2.014860 -0.019070 -0.024170 
#    y -0.019070 2.081800 0.024950 
#    z -0.024170 0.024950 2.088240 
# 
# From -- ./inp_files/267347.got.cif
#   From: 2010.05.17/outbox.cif.g08.bks.cpg/sg2_134_cif.got.tgz:267347.got - 2010.06.03 11:33:40.
