data_PCOD9014171
_publ_section_title
;
Structure prediction by ZEFSAII (Michael W. Deem and Ramdas Pophale) SiO2 
 PCOD9014171
Probable space group: P -1
;
_chemical_formula_sum "Si O2"
_cell_formula_units_Z 16
_cell_length_a 26.607721
_cell_length_b 9.463463
_cell_length_c 11.783492
_cell_angle_alpha 141.147530
_cell_angle_beta 29.227183
_cell_angle_gamma 150.418917
_cell_volume 712.762853
_symmetry_space_group_name_H-M "P -1"
_symmetry_group_IT_number 2
_symmetry_cell_setting 'triclinic'
loop_
_space_group_symop_operation_xyz
x,y,z
-x,-y,-z
loop_
_atom_site_type_symbol
_atom_site_label
_atom_site_fract_x
_atom_site_fract_y
_atom_site_fract_z
Si Si1 0.362748 0.234402 0.859692
Si Si2 0.588370 0.701563 0.558872
Si Si3 0.319050 0.834456 0.505058
Si Si4 0.450328 0.177037 0.878006
Si Si5 0.869313 0.876017 0.103395
Si Si6 0.145003 0.289155 0.392891
Si Si7 0.067338 0.597260 0.612640
Si Si8 0.178654 0.688790 0.217498
O O1 0.489073 0.547415 0.763023
O O2 0.405976 0.116710 0.796708
O O3 0.302753 0.022170 0.738016
O O4 0.254292 0.252056 0.134187
O O5 0.500000 0.500000 0.500000
O O6 0.716310 0.719142 0.341687
O O7 0.638072 0.008987 0.605246
O O8 0.436761 0.844550 0.328081
O O9 0.193358 0.503522 0.537459
O O10 0.500000 0.500000 0.000000
O O11 0.326056 0.945843 0.055792
O O12 0.909939 0.193028 0.199670
O O13 0.850392 0.620516 0.909800
O O14 0.000000 0.000000 0.000000
O O15 0.135685 0.457493 0.416983
O O16 0.000000 0.000000 0.500000
O O17 0.132902 0.757402 0.463508
O O18 0.915262 0.363517 0.734326
#
# Coordination Sequence:
#
# PCOD9014171 Si02
#       8
#     2   2   2   2   2   2   2   2
#     4  11  26  46  71  99 140 185 223 288 357 402
#     4  10  22  42  72 104 134 173 236 283 333 413
#     4  11  25  45  71 101 135 180 233 281 343 419
#     4  12  25  44  69 100 142 178 226 282 350 414
#     4  10  21  41  67 100 134 174 225 286 338 402
#     4  12  26  44  68 101 141 182 231 287 340 417
#     4  10  23  40  69  96 131 174 234 276 344 398
#     4  10  23  43  65  98 133 177 221 286 334 414
#
# _framework density 22.447859000000001
#
# number of rings (size 3 to 8) (size 9 to 14) (size 15 to 20)
#    0.000    1.250    2.500    2.625    7.000    1.000 
#    0.000    2.500    0.000    0.000    0.000    0.000 
#    0.000    0.000    0.000    0.000    0.000    0.000 
#
# Total GULP energy -89161.081840 kJ/mol
# GULP energy per Si atom -5572.567615 kJ/mol
# Density = 2.239677 g / cm^3
# Si number density = 22.447859 Si / 1000 Ang^3
#
#
#
# Elastic Constant Matrix: (Units=GPa)
#
#
# Indices 1 2 3 4 5 6 
#
# 1 72.1704 34.3310 35.4908 -5.0023 -20.3742 7.7690
# 2 34.3310 112.1669 33.2594 4.4436 3.8806 28.1497
# 3 35.4908 33.2594 60.8162 9.6942 -14.4145 4.3932
# 4 -5.0023 4.4436 9.6942 32.3142 6.7325 -7.9067
# 5 -20.3742 3.8806 -14.4145 6.7325 37.2844 2.9773
# 6 7.7690 28.1497 4.3932 -7.9067 2.9773 38.6503
#
#
#
# Elastic Compliance Matrix: (Units=1/GPa)
#
#
# Indices 1 2 3 4 5 6 
#
# 1 0.024028 -0.004970 -0.010220 0.005790 0.008613 0.000472
# 2 -0.004970 0.014535 -0.005224 -0.002362 -0.005096 -0.009084
# 3 -0.010220 -0.005224 0.029082 -0.011420 0.008298 -0.000422
# 4 0.005790 -0.002362 -0.011420 0.040125 -0.009110 0.010765
# 5 0.008613 -0.005096 0.008298 -0.009110 0.037206 -0.003693
# 6 0.000472 -0.009084 -0.000422 0.010765 -0.003693 0.034929
#
#
# Mechanical properties :
#
#
# Convention : Reuss Voigt Hill
#
# Bulk Modulus (GPa) = 37.28922 50.14620 43.71771
# Shear Modulus (GPa) = 21.77029 31.12125 26.44577
#
# Velocity S-wave (km/s) = 3.11757 3.72745 3.43607
# Velocity P-wave (km/s) = 5.44119 6.39630 5.93798
#
# Compressibility (1/GPa) = 0.02681740
#
# Stress axis : x y z
#
# Youngs Moduli (GPa) = 41.61820 68.79940 34.38603
#
# Poissons Ratio (x) = 0.34192 0.35142
# Poissons Ratio (y) = 0.20684 0.17963
# Poissons Ratio (z) = 0.42533 0.35941
#
# Static dielectric constant tensor:
#      x y z
#    x 1.920450 -0.047390 0.041830 
#    y -0.047390 2.024600 -0.056940 
#    z 0.041830 -0.056940 1.848530 
# 
# From -- ./inp_files/476409.got.cif
#   From: 2010.05.17/outbox.cif.g08.bks.cpg/sg2_239_cif.got.tgz:476409.got - 2010.06.03 11:33:40.
