data_PCOD9014213
_publ_section_title
;
Structure prediction by ZEFSAII (Michael W. Deem and Ramdas Pophale) SiO2 
 PCOD9014213
Probable space group: P -1
;
_chemical_formula_sum "Si O2"
_cell_formula_units_Z 16
_cell_length_a 16.054040
_cell_length_b 9.676256
_cell_length_c 7.633956
_cell_angle_alpha 97.506541
_cell_angle_beta 31.251652
_cell_angle_gamma 97.168937
_cell_volume 609.762106
_symmetry_space_group_name_H-M "P -1"
_symmetry_group_IT_number 2
_symmetry_cell_setting 'triclinic'
loop_
_space_group_symop_operation_xyz
x,y,z
-x,-y,-z
loop_
_atom_site_type_symbol
_atom_site_label
_atom_site_fract_x
_atom_site_fract_y
_atom_site_fract_z
Si Si1 0.196663 0.347137 0.233036
Si Si2 0.270732 0.804205 0.670605
Si Si3 0.079187 0.112908 0.568334
Si Si4 0.214730 0.819602 0.353030
Si Si5 0.012546 0.426196 0.254107
Si Si6 0.534966 0.947073 0.726775
Si Si7 0.542004 0.461346 0.618268
Si Si8 0.744094 0.715407 0.427228
O O1 0.143147 0.184814 0.287036
O O2 0.156842 0.419059 0.131275
O O3 0.067469 0.426836 0.599046
O O4 0.375386 0.390692 0.973368
O O5 0.247522 0.803105 0.499934
O O6 0.415009 0.919114 0.453692
O O7 0.324766 0.655774 0.618231
O O8 0.104488 0.853172 0.059830
O O9 0.207236 0.200501 0.473145
O O10 0.108322 0.953562 0.531427
O O11 0.126460 0.676928 0.438599
O O12 0.375277 0.855925 0.961931
O O13 0.091692 0.355330 0.935318
O O14 0.681341 0.841705 0.442182
O O15 0.500000 0.000000 0.000000
O O16 0.500000 0.500000 0.500000
O O17 0.605470 0.595692 0.637289
#
# Coordination Sequence:
#
# PCOD9014213 Si02
#       8
#     2   2   2   2   2   2   2   2
#     4  11  27  46  67  99 141 186 227 282 339 406
#     4  11  23  41  70 101 135 177 227 280 341 397
#     4  12  24  42  74 104 138 173 233 289 333 407
#     4  11  22  43  72 103 138 175 226 287 339 406
#     4  11  24  45  71  96 142 185 230 275 343 404
#     4  10  21  41  67 105 140 171 217 283 345 399
#     4  12  27  46  68  97 143 182 229 280 341 411
#     4  12  23  43  74 101 135 182 228 283 341 404
#
# _framework density 26.239743000000001
#
# number of rings (size 3 to 8) (size 9 to 14) (size 15 to 20)
#    0.000    0.750    5.000    3.375    5.250    2.000 
#    0.000    0.625    0.000    0.000    0.000    0.000 
#    0.000    0.000    0.000    0.000    0.000    0.000 
#
# Total GULP energy -89545.859060 kJ/mol
# GULP energy per Si atom -5596.616191 kJ/mol
# Density = 2.618002 g / cm^3
# Si number density = 26.239743 Si / 1000 Ang^3
#
#
#
# Elastic Constant Matrix: (Units=GPa)
#
#
# Indices 1 2 3 4 5 6 
#
# 1 82.8158 52.1706 30.4860 -7.0568 -12.9537 4.6216
# 2 52.1706 123.2517 4.0433 -11.8858 -2.9121 -30.2469
# 3 30.4860 4.0433 83.4455 -15.3959 -16.3643 -8.8506
# 4 -7.0568 -11.8858 -15.3959 50.8025 3.2207 -24.2917
# 5 -12.9537 -2.9121 -16.3643 3.2207 35.5983 -3.2342
# 6 4.6216 -30.2469 -8.8506 -24.2917 -3.2342 45.2283
#
#
#
# Elastic Compliance Matrix: (Units=1/GPa)
#
#
# Indices 1 2 3 4 5 6 
#
# 1 0.038814 -0.029222 -0.022807 -0.029239 -0.000074 -0.043681
# 2 -0.029222 0.035141 0.021041 0.033741 0.003309 0.048963
# 3 -0.022807 0.021041 0.030283 0.028752 0.008227 0.038359
# 4 -0.029239 0.033741 0.028752 0.063209 0.005572 0.065527
# 5 -0.000074 0.003309 0.008227 0.005572 0.032443 0.009143
# 6 -0.043681 0.048963 0.038359 0.065527 0.009143 0.102672
#
#
# Mechanical properties :
#
#
# Convention : Reuss Voigt Hill
#
# Bulk Modulus (GPa) = 23.66200 51.43475 37.54837
# Shear Modulus (GPa) = 13.20563 39.84669 26.52616
#
# Velocity S-wave (km/s) = 2.24580 3.90110 3.18294
# Velocity P-wave (km/s) = 3.97014 6.31948 5.27721
#
# Compressibility (1/GPa) = 0.04226186
#
# Stress axis : x y z
#
# Youngs Moduli (GPa) = 25.76379 28.45713 33.02145
#
# Poissons Ratio (x) = 0.83159 0.75311
# Poissons Ratio (y) = 0.75288 -0.69480
# Poissons Ratio (z) = 0.58759 -0.59877
#
# Static dielectric constant tensor:
#      x y z
#    x 2.209470 -0.025130 0.053690 
#    y -0.025130 2.073940 -0.009180 
#    z 0.053690 -0.009180 2.075370 
# 
# From -- ./inp_files/184360.got.cif
#   From: 2010.05.17/outbox.cif.g08.bks.cpg/sg2_93_cif.got.tgz:184360.got - 2010.06.03 11:33:40.
