data_PCOD9014840
_publ_section_title
;
Structure prediction by ZEFSAII (Michael W. Deem and Ramdas Pophale) SiO2 
 PCOD9014840
Probable space group: P -1
;
_chemical_formula_sum "Si O2"
_cell_formula_units_Z 16
_cell_length_a 8.239614
_cell_length_b 16.529058
_cell_length_c 18.088279
_cell_angle_alpha 158.198607
_cell_angle_beta 126.790651
_cell_angle_gamma 54.558595
_cell_volume 730.342198
_symmetry_space_group_name_H-M "P -1"
_symmetry_group_IT_number 2
_symmetry_cell_setting 'triclinic'
loop_
_space_group_symop_operation_xyz
x,y,z
-x,-y,-z
loop_
_atom_site_type_symbol
_atom_site_label
_atom_site_fract_x
_atom_site_fract_y
_atom_site_fract_z
Si Si1 0.720020 0.495639 0.879669
Si Si2 0.626418 0.621344 0.536954
Si Si3 0.076609 0.469734 0.337621
Si Si4 0.813688 0.319231 0.590128
Si Si5 0.642638 0.110204 0.074016
Si Si6 0.070191 0.135484 0.273257
Si Si7 0.683874 0.231346 0.026929
Si Si8 0.992278 0.119238 0.678892
O O1 0.781063 0.415675 0.745426
O O2 0.487182 0.586775 0.890361
O O3 0.785807 0.280193 0.763554
O O4 0.840985 0.702649 0.113830
O O5 0.714862 0.625275 0.647428
O O6 0.404802 0.724520 0.541776
O O7 0.612402 0.368595 0.299408
O O8 0.808949 0.704793 0.609382
O O9 0.099880 0.493103 0.276773
O O10 0.025934 0.718383 0.563305
O O11 0.883019 0.346623 0.202883
O O12 0.953575 0.091210 0.433829
O O13 0.613988 0.097932 0.966850
O O14 0.878106 0.047334 0.104346
O O15 0.500000 0.000000 0.000000
O O16 0.238974 0.934327 0.157679
O O17 0.000000 0.000000 0.500000
#
# Coordination Sequence:
#
# PCOD9014840 Si02
#       8
#     2   2   2   2   2   2   2   2
#     4  10  21  41  69  96 122 163 216 273 337 388
#     4  11  21  42  61  90 139 179 221 262 314 380
#     4  11  24  40  58  95 139 178 214 269 311 389
#     4  11  22  38  67  97 129 169 221 273 317 384
#     4  11  23  38  59  90 128 172 222 266 305 379
#     4  11  23  40  60  85 134 182 217 259 319 373
#     4  12  23  40  64  89 133 173 215 266 330 383
#     4   9  21  42  68  96 123 156 213 281 336 391
#
# _framework density 21.907540000000001
#
# number of rings (size 3 to 8) (size 9 to 14) (size 15 to 20)
#    0.000    1.250    3.750    2.250    1.750    6.000 
#    0.000    0.625    0.000    7.500    0.000    0.000 
#    0.000    0.000    0.000    0.000    0.000    0.000 
#
# Total GULP energy -89319.236851 kJ/mol
# GULP energy per Si atom -5582.452303 kJ/mol
# Density = 2.185768 g / cm^3
# Si number density = 21.907540 Si / 1000 Ang^3
#
#
#
# Elastic Constant Matrix: (Units=GPa)
#
#
# Indices 1 2 3 4 5 6 
#
# 1 79.5856 43.3900 22.0447 7.1495 9.0679 -12.7994
# 2 43.3900 120.4750 29.8400 21.9536 -3.1303 -18.0246
# 3 22.0447 29.8400 97.4527 -6.0909 -2.1215 -7.4387
# 4 7.1495 21.9536 -6.0909 30.2136 -6.5383 -5.5687
# 5 9.0679 -3.1303 -2.1215 -6.5383 38.6412 9.8663
# 6 -12.7994 -18.0246 -7.4387 -5.5687 9.8663 27.1477
#
#
#
# Elastic Compliance Matrix: (Units=1/GPa)
#
#
# Indices 1 2 3 4 5 6 
#
# 1 0.017740 -0.004733 -0.002284 -0.001415 -0.006625 0.006713
# 2 -0.004733 0.012837 -0.003082 -0.008195 -0.000404 0.003913
# 3 -0.002284 -0.003082 0.012177 0.005751 0.001733 0.000763
# 4 -0.001415 -0.008195 0.005751 0.042313 0.006707 0.001709
# 5 -0.006625 -0.000404 0.001733 0.006707 0.031994 -0.013169
# 6 0.006713 0.003913 0.000763 0.001709 -0.013169 0.047944
#
#
# Mechanical properties :
#
#
# Convention : Reuss Voigt Hill
#
# Bulk Modulus (GPa) = 44.33592 54.22918 49.28255
# Shear Modulus (GPa) = 25.94405 32.68307 29.31356
#
# Velocity S-wave (km/s) = 3.44503 3.86666 3.66192
# Velocity P-wave (km/s) = 6.00883 6.68895 6.35799
#
# Compressibility (1/GPa) = 0.02255508
#
# Stress axis : x y z
#
# Youngs Moduli (GPa) = 56.36968 77.90027 82.12061
#
# Poissons Ratio (x) = 0.36873 0.18755
# Poissons Ratio (y) = 0.26682 0.25312
# Poissons Ratio (z) = 0.12874 0.24011
#
# Static dielectric constant tensor:
#      x y z
#    x 1.774950 -0.013080 -0.028240 
#    y -0.013080 1.832490 0.016030 
#    z -0.028240 0.016030 1.890020 
# 
# From -- ./inp_files/591264.got.cif
#   From: 2010.05.17/outbox.cif.g08.bks.cpg/sg2_296_cif.got.tgz:591264.got - 2010.06.03 11:33:40.
