data_PCOD9014150
_publ_section_title
;
Structure prediction by ZEFSAII (Michael W. Deem and Ramdas Pophale) SiO2 
 PCOD9014150
Probable space group: P -1
;
_chemical_formula_sum "Si O2"
_cell_formula_units_Z 16
_cell_length_a 22.239181
_cell_length_b 6.908829
_cell_length_c 13.915141
_cell_angle_alpha 108.569026
_cell_angle_beta 160.287874
_cell_angle_gamma 71.415870
_cell_volume 682.402021
_symmetry_space_group_name_H-M "P -1"
_symmetry_group_IT_number 2
_symmetry_cell_setting 'triclinic'
loop_
_space_group_symop_operation_xyz
x,y,z
-x,-y,-z
loop_
_atom_site_type_symbol
_atom_site_label
_atom_site_fract_x
_atom_site_fract_y
_atom_site_fract_z
Si Si1 0.470164 0.725173 0.251975
Si Si2 0.780868 0.160401 0.636796
Si Si3 0.815297 0.951500 0.840338
Si Si4 0.609948 0.446092 0.273640
Si Si5 0.905242 0.795472 0.469592
Si Si6 0.193802 0.075615 0.950900
Si Si7 0.659418 0.792815 0.279731
Si Si8 0.223084 0.454387 0.938230
O O1 0.671148 0.787772 0.574449
O O2 0.455435 0.603524 0.110177
O O3 0.346810 0.933233 0.106793
O O4 0.398362 0.577485 0.202880
O O5 0.705292 0.355139 0.496315
O O6 0.770927 0.146427 0.734706
O O7 0.667399 0.976163 0.395478
O O8 0.985197 0.120497 0.903249
O O9 0.800937 0.978183 0.936590
O O10 0.725648 0.585856 0.402960
O O11 0.525388 0.270988 0.055789
O O12 0.784051 0.840328 0.386295
O O13 0.796507 0.703813 0.204615
O O14 0.057969 0.621619 0.703072
O O15 0.004502 0.995944 0.620743
O O16 0.214829 0.311894 0.996184
#
# Coordination Sequence:
#
# PCOD9014150 Si02
#       8
#     2   2   2   2   2   2   2   2
#     4  11  24  44  61  98 132 169 221 270 314 393
#     4  11  25  47  67  96 135 175 217 273 327 381
#     4  11  25  46  66  95 134 177 225 264 314 401
#     4  11  25  43  70 100 129 173 217 275 336 382
#     4  10  21  41  66  99 132 163 224 273 325 396
#     4  11  24  44  67  95 132 177 217 269 329 383
#     4  11  22  44  69 101 132 165 221 277 325 397
#     4  10  23  41  66  98 131 173 213 277 333 380
#
# _framework density 23.446588999999999
#
# number of rings (size 3 to 8) (size 9 to 14) (size 15 to 20)
#    0.000    1.250    3.750    1.125    3.500    1.000 
#    9.000    0.000    0.000    0.000    0.000    0.000 
#    0.000    0.000    0.000    0.000    0.000    0.000 
#
# Total GULP energy -89451.539411 kJ/mol
# GULP energy per Si atom -5590.721213 kJ/mol
# Density = 2.339322 g / cm^3
# Si number density = 23.446589 Si / 1000 Ang^3
#
#
#
# Elastic Constant Matrix: (Units=GPa)
#
#
# Indices 1 2 3 4 5 6 
#
# 1 98.8339 16.4422 14.9477 -16.2292 -13.0850 20.6793
# 2 16.4422 81.9400 33.6124 1.9083 6.8380 33.7647
# 3 14.9477 33.6124 44.5048 2.7701 -4.8745 14.1804
# 4 -16.2292 1.9083 2.7701 28.7260 8.0547 -6.4433
# 5 -13.0850 6.8380 -4.8745 8.0547 19.6670 -6.7452
# 6 20.6793 33.7647 14.1804 -6.4433 -6.7452 34.9487
#
#
#
# Elastic Compliance Matrix: (Units=1/GPa)
#
#
# Indices 1 2 3 4 5 6 
#
# 1 0.012952 0.000046 -0.002734 0.005353 0.004076 -0.004825
# 2 0.000046 0.036184 -0.020248 0.000416 -0.028801 -0.032252
# 3 -0.002734 -0.020248 0.038941 -0.008031 0.020881 0.007929
# 4 0.005353 0.000416 -0.008031 0.043847 -0.014849 0.004907
# 5 0.004076 -0.028801 0.020881 -0.014849 0.085350 0.030676
# 6 -0.004825 -0.032252 0.007929 0.004907 0.030676 0.066236
#
#
# Mechanical properties :
#
#
# Convention : Reuss Voigt Hill
#
# Bulk Modulus (GPa) = 23.69379 39.47593 31.58486
# Shear Modulus (GPa) = 14.55815 27.35344 20.95580
#
# Velocity S-wave (km/s) = 2.49450 3.41930 2.99284
# Velocity P-wave (km/s) = 4.29233 5.69753 5.04411
#
# Compressibility (1/GPa) = 0.04220514
#
# Stress axis : x y z
#
# Youngs Moduli (GPa) = 77.20751 27.63619 25.68017
#
# Poissons Ratio (x) = -0.00127 0.07022
# Poissons Ratio (y) = -0.00356 0.51997
# Poissons Ratio (z) = 0.21110 0.55957
#
# Static dielectric constant tensor:
#      x y z
#    x 1.894400 0.008340 -0.031370 
#    y 0.008340 1.904320 -0.011530 
#    z -0.031370 -0.011530 1.915150 
# 
# From -- ./inp_files/124179.got.cif
#   From: 2010.05.17/outbox.cif.g08.bks.cpg/sg2_63_cif.got.tgz:124179.got - 2010.06.03 11:33:40.
