data_PCOD9014033
_publ_section_title
;
Structure prediction by ZEFSAII (Michael W. Deem and Ramdas Pophale) SiO2 
 PCOD9014033
Probable space group: P -1
;
_chemical_formula_sum "Si O2"
_cell_formula_units_Z 13
_cell_length_a 20.390419
_cell_length_b 8.849329
_cell_length_c 7.050370
_cell_angle_alpha 101.281248
_cell_angle_beta 123.894079
_cell_angle_gamma 35.454634
_cell_volume 516.670817
_symmetry_space_group_name_H-M "P -1"
_symmetry_group_IT_number 2
_symmetry_cell_setting 'triclinic'
loop_
_space_group_symop_operation_xyz
x,y,z
-x,-y,-z
loop_
_atom_site_type_symbol
_atom_site_label
_atom_site_fract_x
_atom_site_fract_y
_atom_site_fract_z
Si Si1 0.500000 0.500000 0.500000
Si Si2 0.177052 0.261476 0.280734
Si Si3 0.117320 0.184012 0.507213
Si Si4 0.246846 0.751097 0.936773
Si Si5 0.598098 0.813777 0.920487
Si Si6 0.444257 0.864768 0.357033
Si Si7 0.003819 0.818744 0.025570
O O1 0.566040 0.521174 0.440748
O O2 0.583435 0.469197 0.786797
O O3 0.215910 0.131418 0.516083
O O4 0.314336 0.974750 0.287211
O O5 0.000000 0.500000 0.000000
O O6 0.162258 0.470242 0.280212
O O7 0.028099 0.223373 0.226013
O O8 0.000000 0.500000 0.500000
O O9 0.194440 0.939700 0.720535
O O10 0.260304 0.542781 0.886817
O O11 0.122976 0.988252 0.964970
O O12 0.506394 0.878439 0.618344
O O13 0.625234 0.930761 0.885499
O O14 0.500000 0.000000 0.000000
O O15 0.000000 0.000000 0.000000
#
# Coordination Sequence:
#
# PCOD9014033 Si02
#       7
#     1   2   2   2   2   2   2
#     4  10  22  40  70  92 130 184 224 282 336 400
#     4  10  21  41  66  94 136 181 217 277 351 403
#     4  11  24  43  69 104 142 182 237 286 341 424
#     4  11  24  45  69 100 140 180 238 284 348 423
#     4  10  24  44  66  95 133 177 225 285 338 402
#     4  10  22  42  65  94 130 175 225 273 342 409
#     4  11  24  43  68  99 144 187 224 287 360 415
#
# _framework density 25.161087999999999
#
# number of rings (size 3 to 8) (size 9 to 14) (size 15 to 20)
#    0.000    1.538    1.538    2.769    2.154    8.000 
#    2.769    5.385    0.000    0.000    0.000    0.000 
#    0.000    0.000    0.000    0.000    0.000    0.000 
#
# Total GULP energy -72400.721291 kJ/mol
# GULP energy per Si atom -5569.286253 kJ/mol
# Density = 2.510382 g / cm^3
# Si number density = 25.161088 Si / 1000 Ang^3
#
#
#
# Elastic Constant Matrix: (Units=GPa)
#
#
# Indices 1 2 3 4 5 6 
#
# 1 138.7043 40.8245 64.9386 -13.5114 -67.4046 40.3522
# 2 40.8245 128.9121 42.9733 -1.4132 -42.6565 32.6978
# 3 64.9386 42.9733 95.3666 -11.0177 -50.0814 25.5920
# 4 -13.5114 -1.4132 -11.0177 45.4648 13.5706 -10.7572
# 5 -67.4046 -42.6565 -50.0814 13.5706 56.9712 -15.4875
# 6 40.3522 32.6978 25.5920 -10.7572 -15.4875 61.7598
#
#
#
# Elastic Compliance Matrix: (Units=1/GPa)
#
#
# Indices 1 2 3 4 5 6 
#
# 1 0.021940 0.004883 -0.000403 -0.004100 0.027353 -0.010608
# 2 0.004883 0.012698 -0.000192 -0.004090 0.014190 -0.006987
# 3 -0.000403 -0.000192 0.020537 -0.001079 0.016553 -0.004182
# 4 -0.004100 -0.004090 -0.001079 0.025879 -0.013267 0.006472
# 5 0.027353 0.014190 0.016553 -0.013267 0.073895 -0.016024
# 6 -0.010608 -0.006987 -0.004182 0.006472 -0.016024 0.025664
#
#
# Mechanical properties :
#
#
# Convention : Reuss Voigt Hill
#
# Bulk Modulus (GPa) = 15.68599 73.38399 44.53499
# Shear Modulus (GPa) = 25.86805 47.12226 36.49516
#
# Velocity S-wave (km/s) = 3.20987 4.33231 3.81262
# Velocity P-wave (km/s) = 4.47051 7.36574 6.09260
#
# Compressibility (1/GPa) = 0.06375116
#
# Stress axis : x y z
#
# Youngs Moduli (GPa) = 45.57833 78.75328 48.69205
#
# Poissons Ratio (x) = -0.38455 0.01961
# Poissons Ratio (y) = -0.22255 0.00936
# Poissons Ratio (z) = 0.01836 0.01514
#
# Static dielectric constant tensor:
#      x y z
#    x 2.154090 0.069840 -0.004730 
#    y 0.069840 1.400170 0.108900 
#    z -0.004730 0.108900 2.036880 
# 
# From -- ./inp_files/116307.got.cif
#   From: 2010.05.17/outbox.cif.g08.bks.cpg/sg2_59_cif.got.tgz:116307.got - 2010.06.03 11:33:40.
