data_PCOD9014331
_publ_section_title
;
Structure prediction by ZEFSAII (Michael W. Deem and Ramdas Pophale) SiO2 
 PCOD9014331
Probable space group: P -1
;
_chemical_formula_sum "Si O2"
_cell_formula_units_Z 16
_cell_length_a 8.663789
_cell_length_b 15.429339
_cell_length_c 27.192933
_cell_angle_alpha 18.576057
_cell_angle_beta 43.575044
_cell_angle_gamma 50.061579
_cell_volume 781.449056
_symmetry_space_group_name_H-M "P -1"
_symmetry_group_IT_number 2
_symmetry_cell_setting 'triclinic'
loop_
_space_group_symop_operation_xyz
x,y,z
-x,-y,-z
loop_
_atom_site_type_symbol
_atom_site_label
_atom_site_fract_x
_atom_site_fract_y
_atom_site_fract_z
Si Si1 0.773005 0.064835 0.398108
Si Si2 0.167993 0.730020 0.475735
Si Si3 0.169920 0.791052 0.805890
Si Si4 0.534428 0.895473 0.992305
Si Si5 0.036689 0.856014 0.119869
Si Si6 0.931558 0.664440 0.064141
Si Si7 0.852825 0.218650 0.664938
Si Si8 0.434557 0.776910 0.843470
O O1 0.791082 0.138114 0.297394
O O2 0.883185 0.333031 0.261783
O O3 0.500000 0.000000 0.500000
O O4 0.937588 0.841155 0.484206
O O5 0.196793 0.745034 0.401242
O O6 0.137933 0.415209 0.672950
O O7 0.383184 0.951279 0.328566
O O8 0.392009 0.776751 0.794756
O O9 0.024766 0.008017 0.742506
O O10 0.000000 0.500000 0.000000
O O11 0.641653 0.116189 0.806460
O O12 0.278634 0.761487 0.108912
O O13 0.717215 0.702035 0.059899
O O14 0.500000 0.000000 0.000000
O O15 0.063909 0.115635 0.011510
O O16 0.000000 0.000000 0.000000
O O17 0.178052 0.759268 0.931816
O O18 0.000000 0.500000 0.500000
O O19 0.500000 0.500000 0.000000
#
# Coordination Sequence:
#
# PCOD9014331 Si02
#       8
#     2   2   2   2   2   2   2   2
#     4  11  23  44  70 101 133 179 240 288 338 418
#     4  11  26  43  68 104 139 182 235 293 348 414
#     4  11  22  42  67  96 131 181 231 275 342 414
#     4  10  21  41  67  94 134 179 227 278 335 410
#     4  11  27  47  65 100 146 181 227 287 365 419
#     4  11  22  44  70  97 135 189 224 282 349 406
#     4  11  22  40  69 101 130 177 242 282 334 413
#     4  12  23  43  70 104 146 173 230 294 345 408
#
# _framework density 20.474782000000001
#
# number of rings (size 3 to 8) (size 9 to 14) (size 15 to 20)
#    0.000    1.000    3.750    3.000    1.750    5.500 
#    2.250    1.250    0.000    0.000    0.000    0.000 
#    0.000    0.000    0.000    0.000    0.000    0.000 
#
# Total GULP energy -89165.616197 kJ/mol
# GULP energy per Si atom -5572.851012 kJ/mol
# Density = 2.042818 g / cm^3
# Si number density = 20.474782 Si / 1000 Ang^3
#
#
#
# Elastic Constant Matrix: (Units=GPa)
#
#
# Indices 1 2 3 4 5 6 
#
# 1 117.7087 17.1905 51.2380 -17.1106 1.5466 0.2880
# 2 17.1905 90.1248 51.0523 -6.6954 -0.9248 -8.2127
# 3 51.2380 51.0523 149.5682 -8.7186 -5.2723 15.1615
# 4 -17.1106 -6.6954 -8.7186 39.0306 -0.1981 -14.1075
# 5 1.5466 -0.9248 -5.2723 -0.1981 39.4665 1.8068
# 6 0.2880 -8.2127 15.1615 -14.1075 1.8068 21.7165
#
#
#
# Elastic Compliance Matrix: (Units=1/GPa)
#
#
# Indices 1 2 3 4 5 6 
#
# 1 0.011595 0.002212 -0.005295 0.007711 -0.001507 0.009515
# 2 0.002212 0.017551 -0.008127 0.008682 -0.001544 0.018050
# 3 -0.005295 -0.008127 0.012630 -0.006832 0.002424 -0.016460
# 4 0.007711 0.008682 -0.006832 0.041687 -0.002415 0.035232
# 5 -0.001507 -0.001544 0.002424 -0.002415 0.025946 -0.005983
# 6 0.009515 0.018050 -0.016460 0.035232 -0.005983 0.087625
#
#
# Mechanical properties :
#
#
# Convention : Reuss Voigt Hill
#
# Bulk Modulus (GPa) = 51.66267 66.26258 58.96263
# Shear Modulus (GPa) = 22.13307 35.90410 29.01859
#
# Velocity S-wave (km/s) = 3.29141 4.19212 3.76877
# Velocity P-wave (km/s) = 6.30330 7.47429 6.91363
#
# Compressibility (1/GPa) = 0.01935633
#
# Stress axis : x y z
#
# Youngs Moduli (GPa) = 86.24456 56.97623 79.17880
#
# Poissons Ratio (x) = -0.12606 0.41928
# Poissons Ratio (y) = -0.19081 0.64347
# Poissons Ratio (z) = 0.45670 0.46303
#
# Static dielectric constant tensor:
#      x y z
#    x 1.452000 -0.581720 -0.259780 
#    y -0.581720 0.649910 -0.526430 
#    z -0.259780 -0.526430 1.461510 
# 
# From -- ./inp_files/184093.got.cif
#   From: 2010.05.17/outbox.cif.g08.bks.cpg/sg2_93_cif.got.tgz:184093.got - 2010.06.03 11:33:40.
