data_PCOD9014516
_publ_section_title
;
Structure prediction by ZEFSAII (Michael W. Deem and Ramdas Pophale) SiO2 
 PCOD9014516
Probable space group: P -1
;
_chemical_formula_sum "Si O2"
_cell_formula_units_Z 16
_cell_length_a 7.451023
_cell_length_b 18.380440
_cell_length_c 15.469986
_cell_angle_alpha 158.833053
_cell_angle_beta 62.027950
_cell_angle_gamma 125.070022
_cell_volume 609.941273
_symmetry_space_group_name_H-M "P -1"
_symmetry_group_IT_number 2
_symmetry_cell_setting 'triclinic'
loop_
_space_group_symop_operation_xyz
x,y,z
-x,-y,-z
loop_
_atom_site_type_symbol
_atom_site_label
_atom_site_fract_x
_atom_site_fract_y
_atom_site_fract_z
Si Si1 0.267658 0.391090 0.385329
Si Si2 0.921770 0.221693 0.796955
Si Si3 0.595941 0.955044 0.292912
Si Si4 0.955713 0.728594 0.358008
Si Si5 0.761485 0.157445 0.120788
Si Si6 0.449805 0.576975 0.800402
Si Si7 0.074445 0.701305 0.932616
Si Si8 0.134004 0.780609 0.631696
O O1 0.500000 0.500000 0.500000
O O2 0.183300 0.581805 0.614394
O O3 0.333113 0.371791 0.251379
O O4 0.109248 0.212733 0.293331
O O5 0.062347 0.208713 0.668024
O O6 0.657122 0.067880 0.664201
O O7 0.956010 0.481944 0.080557
O O8 0.984163 0.198795 0.856853
O O9 0.683482 0.046056 0.278373
O O10 0.801358 0.105738 0.474244
O O11 0.543523 0.696949 0.004111
O O12 0.735256 0.669873 0.403100
O O13 0.875728 0.138279 0.983646
O O14 0.806440 0.158662 0.213972
O O15 0.500000 0.000000 0.000000
O O16 0.297792 0.671184 0.882249
O O17 0.903744 0.451818 0.664491
#
# Coordination Sequence:
#
# PCOD9014516 Si02
#       8
#     2   2   2   2   2   2   2   2
#     4  11  20  36  54  76 110 150 178 220 276 316
#     4   9  17  26  50  73 106 140 171 224 282 310
#     4  10  17  30  48  76 109 139 180 220 266 319
#     4   9  16  31  45  75 109 136 175 225 277 310
#     4  11  22  36  53  78 110 144 188 222 260 326
#     4  10  19  32  50  75 109 140 174 223 266 318
#     4   9  16  33  48  74 107 135 177 221 268 305
#     4  11  20  33  54  76 111 146 177 222 265 324
#
# _framework density 26.232032
#
# number of rings (size 3 to 8) (size 9 to 14) (size 15 to 20)
#    0.000    2.250    5.000    3.375    0.000    0.500 
#    2.250    0.000    0.000    0.000    0.000    7.000 
#    0.000    0.000    0.000    0.000    0.000    0.000 
#
# Total GULP energy -89094.909770 kJ/mol
# GULP energy per Si atom -5568.431861 kJ/mol
# Density = 2.617233 g / cm^3
# Si number density = 26.232032 Si / 1000 Ang^3
#
#
#
# Elastic Constant Matrix: (Units=GPa)
#
#
# Indices 1 2 3 4 5 6 
#
# 1 39.5825 31.8205 25.1499 8.5182 18.0604 -7.5794
# 2 31.8205 198.8376 48.5714 -23.6694 13.4992 -11.8432
# 3 25.1499 48.5714 145.2614 -5.7588 35.7573 5.5329
# 4 8.5182 -23.6694 -5.7588 38.4847 12.7052 8.6287
# 5 18.0604 13.4992 35.7573 12.7052 39.0395 -10.5109
# 6 -7.5794 -11.8432 5.5329 8.6287 -10.5109 36.1216
#
#
#
# Elastic Compliance Matrix: (Units=1/GPa)
#
#
# Indices 1 2 3 4 5 6 
#
# 1 0.039975 -0.006002 -0.004303 -0.013136 -0.005915 0.008496
# 2 -0.006002 0.006917 -0.000773 0.005922 -0.000989 -0.000576
# 3 -0.004303 -0.000773 0.012143 0.009138 -0.014363 -0.009379
# 4 -0.013136 0.005922 0.009138 0.046861 -0.025174 -0.020734
# 5 -0.005915 -0.000989 -0.014363 -0.025174 0.056238 0.023013
# 6 0.008496 -0.000576 -0.009379 -0.020734 0.023013 0.042364
#
#
# Mechanical properties :
#
#
# Convention : Reuss Voigt Hill
#
# Bulk Modulus (GPa) = 27.11651 66.08503 46.60077
# Shear Modulus (GPa) = 20.92518 41.27181 31.09850
#
# Velocity S-wave (km/s) = 2.82741 3.97083 3.44687
# Velocity P-wave (km/s) = 4.58461 6.80225 5.80040
#
# Compressibility (1/GPa) = 0.03687790
#
# Stress axis : x y z
#
# Youngs Moduli (GPa) = 25.01558 144.58069 82.35341
#
# Poissons Ratio (x) = 0.86783 0.35433
# Poissons Ratio (y) = 0.15015 0.06369
# Poissons Ratio (z) = 0.10763 0.11181
#
# Static dielectric constant tensor:
#      x y z
#    x 2.295440 0.087610 -0.040700 
#    y 0.087610 2.168630 -0.019810 
#    z -0.040700 -0.019810 2.166100 
# 
# From -- ./inp_files/507340.got.cif
#   From: 2010.05.17/outbox.cif.g08.bks.cpg/sg2_254_cif.got.tgz:507340.got - 2010.06.03 11:33:40.
