data_PCOD9014121
_publ_section_title
;
Structure prediction by ZEFSAII (Michael W. Deem and Ramdas Pophale) SiO2 
 PCOD9014121
Probable space group: P -1
;
_chemical_formula_sum "Si O2"
_cell_formula_units_Z 16
_cell_length_a 15.446393
_cell_length_b 9.430386
_cell_length_c 8.298767
_cell_angle_alpha 73.084668
_cell_angle_beta 78.723495
_cell_angle_gamma 132.154259
_cell_volume 715.492276
_symmetry_space_group_name_H-M "P -1"
_symmetry_group_IT_number 2
_symmetry_cell_setting 'triclinic'
loop_
_space_group_symop_operation_xyz
x,y,z
-x,-y,-z
loop_
_atom_site_type_symbol
_atom_site_label
_atom_site_fract_x
_atom_site_fract_y
_atom_site_fract_z
Si Si1 0.228845 0.251529 0.405542
Si Si2 0.954898 0.435186 0.276318
Si Si3 0.171161 0.560975 0.959239
Si Si4 0.924725 0.845938 0.797479
Si Si5 0.163552 0.978978 0.053689
Si Si6 0.453661 0.808423 0.698627
Si Si7 0.632957 0.571278 0.384906
Si Si8 0.291118 0.024194 0.294830
O O1 0.197068 0.311384 0.242558
O O2 0.315121 0.428422 0.464249
O O3 0.293488 0.179878 0.346121
O O4 0.073846 0.017121 0.606555
O O5 0.853710 0.339911 0.191774
O O6 0.853141 0.248742 0.515235
O O7 0.048360 0.702908 0.167025
O O8 0.072531 0.468834 0.176299
O O9 0.331116 0.729762 0.868955
O O10 0.106565 0.320083 0.005339
O O11 0.912612 0.989547 0.832923
O O12 0.281100 0.061574 0.101672
O O13 0.244810 0.160577 0.816045
O O14 0.399784 0.598647 0.678636
O O15 0.500000 0.000000 0.500000
O O16 0.578931 0.907752 0.727285
O O17 0.500000 0.500000 0.500000
#
# Coordination Sequence:
#
# PCOD9014121 Si02
#       8
#     2   2   2   2   2   2   2   2
#     4  10  22  40  67  97 132 169 217 271 331 384
#     4  11  24  42  70  96 138 174 219 275 337 387
#     4  11  23  41  66  97 129 176 216 271 330 390
#     4  10  21  41  66  98 129 167 219 277 322 384
#     4  11  26  41  70 101 129 171 228 277 325 390
#     4  12  26  44  66  95 136 176 219 267 335 396
#     4  12  26  43  68  96 133 176 222 269 327 403
#     4  11  23  46  67  97 138 178 213 274 339 390
#
# _framework density 22.362226
#
# number of rings (size 3 to 8) (size 9 to 14) (size 15 to 20)
#    0.000    1.000    5.000    1.125    5.250    2.500 
#    2.250    0.625    0.000    0.000    0.000    0.000 
#    0.000    0.000    0.000    0.000    0.000    0.000 
#
# Total GULP energy -89358.852427 kJ/mol
# GULP energy per Si atom -5584.928277 kJ/mol
# Density = 2.231133 g / cm^3
# Si number density = 22.362226 Si / 1000 Ang^3
#
#
#
# Elastic Constant Matrix: (Units=GPa)
#
#
# Indices 1 2 3 4 5 6 
#
# 1 154.4762 15.6633 30.0904 9.2897 -13.7406 9.5135
# 2 15.6633 61.3278 7.4652 0.3675 7.6590 4.8052
# 3 30.0904 7.4652 62.7723 -5.8242 -6.4650 -1.5921
# 4 9.2897 0.3675 -5.8242 24.2081 -1.4925 10.4740
# 5 -13.7406 7.6590 -6.4650 -1.4925 34.3595 -5.3162
# 6 9.5135 4.8052 -1.5921 10.4740 -5.3162 24.0019
#
#
#
# Elastic Compliance Matrix: (Units=1/GPa)
#
#
# Indices 1 2 3 4 5 6 
#
# 1 0.007843 -0.001785 -0.003612 -0.003261 0.002558 -0.001002
# 2 -0.001785 0.018104 -0.001857 0.001821 -0.005812 -0.005122
# 3 -0.003612 -0.001857 0.018732 0.005551 0.002932 0.001273
# 4 -0.003261 0.001821 0.005551 0.053463 -0.001815 -0.022436
# 5 0.002558 -0.005812 0.002932 -0.001815 0.033209 0.008492
# 6 -0.001002 -0.005122 0.001273 -0.022436 0.008492 0.054842
#
#
# Mechanical properties :
#
#
# Convention : Reuss Voigt Hill
#
# Bulk Modulus (GPa) = 33.14354 42.77935 37.96144
# Shear Modulus (GPa) = 23.72374 31.53771 27.63073
#
# Velocity S-wave (km/s) = 3.26066 3.75949 3.51892
# Velocity P-wave (km/s) = 5.38788 6.16577 5.78990
#
# Compressibility (1/GPa) = 0.03017180
#
# Stress axis : x y z
#
# Youngs Moduli (GPa) = 127.49598 55.23631 53.38413
#
# Poissons Ratio (x) = 0.09860 0.19282
# Poissons Ratio (y) = 0.22759 0.09913
# Poissons Ratio (z) = 0.46051 0.10257
#
# Static dielectric constant tensor:
#      x y z
#    x 1.838640 0.021120 0.006900 
#    y 0.021120 1.858150 0.000420 
#    z 0.006900 0.000420 1.818630 
# 
# From -- ./inp_files/297884.got.cif
#   From: 2010.05.17/outbox.cif.g08.bks.cpg/sg2_149_cif.got.tgz:297884.got - 2010.06.03 11:33:40.
