data_PCOD9014196
_publ_section_title
;
Structure prediction by ZEFSAII (Michael W. Deem and Ramdas Pophale) SiO2 
 PCOD9014196
Probable space group: P -1
;
_chemical_formula_sum "Si O2"
_cell_formula_units_Z 14
_cell_length_a 14.236593
_cell_length_b 9.586241
_cell_length_c 12.592504
_cell_angle_alpha 30.935938
_cell_angle_beta 48.755692
_cell_angle_gamma 60.366797
_cell_volume 652.978223
_symmetry_space_group_name_H-M "P -1"
_symmetry_group_IT_number 2
_symmetry_cell_setting 'triclinic'
loop_
_space_group_symop_operation_xyz
x,y,z
-x,-y,-z
loop_
_atom_site_type_symbol
_atom_site_label
_atom_site_fract_x
_atom_site_fract_y
_atom_site_fract_z
Si Si1 0.703847 0.212999 0.999178
Si Si2 0.574960 0.311600 0.232531
Si Si3 0.064976 0.149247 0.118469
Si Si4 0.582337 0.240290 0.852209
Si Si5 0.033011 0.469173 0.354920
Si Si6 0.803665 0.685787 0.308552
Si Si7 0.853383 0.472525 0.001435
O O1 0.638588 0.129642 0.990039
O O2 0.838788 0.414297 0.753783
O O3 0.616062 0.353446 0.051069
O O4 0.739915 0.950335 0.205741
O O5 0.498762 0.535057 0.191173
O O6 0.707583 0.345811 0.174287
O O7 0.500000 0.000000 0.500000
O O8 0.932219 0.256454 0.134310
O O9 0.150365 0.270349 0.875895
O O10 0.130550 0.272324 0.097132
O O11 0.034870 0.822716 0.360580
O O12 0.700426 0.412142 0.585907
O O13 0.500000 0.000000 0.000000
O O14 0.930509 0.670234 0.291069
O O15 0.081679 0.438670 0.218086
#
# Coordination Sequence:
#
# PCOD9014196 Si02
#       7
#     2   2   2   2   2   2   2
#     4  11  25  46  70 101 134 182 229 283 344 401
#     4  11  24  47  72  96 140 183 231 282 333 408
#     4  10  21  41  67 102 137 179 218 288 347 396
#     4  12  29  47  70 101 138 185 233 278 338 413
#     4  10  22  40  71 100 134 175 228 285 341 409
#     4  11  24  42  68 100 139 170 229 280 346 394
#     4   9  22  40  65 100 138 178 227 277 345 402
#
# _framework density 21.440224000000001
#
# number of rings (size 3 to 8) (size 9 to 14) (size 15 to 20)
#    0.000    1.429    1.429    2.143    6.000    5.143 
#    5.143    0.000    0.000    0.000    0.000    0.000 
#    0.000    0.000    0.000    0.000    0.000    0.000 
#
# Total GULP energy -78310.709260 kJ/mol
# GULP energy per Si atom -5593.622090 kJ/mol
# Density = 2.139142 g / cm^3
# Si number density = 21.440224 Si / 1000 Ang^3
#
#
#
# Elastic Constant Matrix: (Units=GPa)
#
#
# Indices 1 2 3 4 5 6 
#
# 1 133.7330 57.5828 53.7662 10.1928 -20.3072 12.4438
# 2 57.5828 105.0121 47.7596 -0.8296 -9.1452 1.4708
# 3 53.7662 47.7596 112.7982 0.3580 -19.1848 -0.7075
# 4 10.1928 -0.8296 0.3580 24.2298 -1.8289 -0.5573
# 5 -20.3072 -9.1452 -19.1848 -1.8289 27.0014 1.2049
# 6 12.4438 1.4708 -0.7075 -0.5573 1.2049 39.5493
#
#
#
# Elastic Compliance Matrix: (Units=1/GPa)
#
#
# Indices 1 2 3 4 5 6 
#
# 1 0.012347 -0.004980 -0.002867 -0.005006 0.005401 -0.003986
# 2 -0.004980 0.013826 -0.003755 0.002527 -0.001607 0.001070
# 3 -0.002867 -0.003755 0.012795 0.001345 0.005704 0.001116
# 4 -0.005006 0.002527 0.001345 0.043561 0.000903 0.002092
# 5 0.005401 -0.001607 0.005704 0.000903 0.044796 -0.002890
# 6 -0.003986 0.001070 0.001116 0.002092 -0.002890 0.026637
#
#
# Mechanical properties :
#
#
# Convention : Reuss Voigt Hill
#
# Bulk Modulus (GPa) = 63.43668 74.41782 68.92725
# Shear Modulus (GPa) = 27.40920 30.98506 29.19713
#
# Velocity S-wave (km/s) = 3.57935 3.80568 3.69425
# Velocity P-wave (km/s) = 6.83625 7.35498 7.10035
#
# Compressibility (1/GPa) = 0.01576375
#
# Stress axis : x y z
#
# Youngs Moduli (GPa) = 80.99005 72.32652 78.15564
#
# Poissons Ratio (x) = 0.36017 0.22411
# Poissons Ratio (y) = 0.40331 0.29348
# Poissons Ratio (z) = 0.23223 0.27159
#
# Static dielectric constant tensor:
#      x y z
#    x 1.767560 -0.015000 0.013800 
#    y -0.015000 1.829510 0.013950 
#    z 0.013800 0.013950 1.752020 
# 
# From -- ./inp_files/429185.got.cif
#   From: 2010.05.17/outbox.cif.g08.bks.cpg/sg2_215_cif.got.tgz:429185.got - 2010.06.03 11:33:40.
