data_PCOD9014678
_publ_section_title
;
Structure prediction by ZEFSAII (Michael W. Deem and Ramdas Pophale) SiO2 
 PCOD9014678
Probable space group: P -1
;
_chemical_formula_sum "Si O2"
_cell_formula_units_Z 14
_cell_length_a 9.071346
_cell_length_b 15.821175
_cell_length_c 17.021425
_cell_angle_alpha 24.597352
_cell_angle_beta 146.421923
_cell_angle_gamma 144.987586
_cell_volume 541.944338
_symmetry_space_group_name_H-M "P -1"
_symmetry_group_IT_number 2
_symmetry_cell_setting 'triclinic'
loop_
_space_group_symop_operation_xyz
x,y,z
-x,-y,-z
loop_
_atom_site_type_symbol
_atom_site_label
_atom_site_fract_x
_atom_site_fract_y
_atom_site_fract_z
Si Si1 0.368765 0.497579 0.616903
Si Si2 0.650003 0.911680 0.772694
Si Si3 0.779455 0.829743 0.596316
Si Si4 0.916500 0.670292 0.204970
Si Si5 0.037645 0.843366 0.866218
Si Si6 0.682396 0.734870 0.360629
Si Si7 0.871279 0.420422 0.239438
O O1 0.674546 0.625053 0.668390
O O2 0.236876 0.410803 0.714465
O O3 0.303903 0.301765 0.695103
O O4 0.227706 0.663782 0.369810
O O5 0.832442 0.934027 0.755644
O O6 0.401452 0.699852 0.825784
O O7 0.490257 0.086943 0.572276
O O8 0.839378 0.870367 0.963538
O O9 0.909090 0.783584 0.774470
O O10 0.000000 0.000000 0.500000
O O11 0.819965 0.496865 0.239543
O O12 0.041180 0.632869 0.092460
O O13 0.324909 0.025756 0.831935
O O14 0.500000 0.500000 0.500000
O O15 0.948370 0.739869 0.528509
#
# Coordination Sequence:
#
# PCOD9014678 Si02
#       7
#     2   2   2   2   2   2   2
#     4  10  22  39  62  90 136 164 210 273 330 375
#     4  11  22  40  71  99 129 166 232 268 317 393
#     4  12  25  41  63  96 135 174 213 269 330 386
#     4   9  20  39  63  94 126 160 211 280 322 365
#     4  11  23  43  73  94 123 178 225 264 328 380
#     4  11  24  43  63  94 135 175 216 262 328 396
#     4  10  21  41  68  98 128 165 223 278 307 393
#
# _framework density 25.832909999999998
#
# number of rings (size 3 to 8) (size 9 to 14) (size 15 to 20)
#    0.000    1.429    1.429    4.714    6.000    1.143 
#    7.714    1.429    0.000    0.000    0.000    0.000 
#    0.000    0.000    0.000    0.000    0.000    0.000 
#
# Total GULP energy -78274.696917 kJ/mol
# GULP energy per Si atom -5591.049780 kJ/mol
# Density = 2.577411 g / cm^3
# Si number density = 25.832910 Si / 1000 Ang^3
#
#
#
# Elastic Constant Matrix: (Units=GPa)
#
#
# Indices 1 2 3 4 5 6 
#
# 1 89.3677 9.6574 38.1334 4.7198 -22.6251 -15.4089
# 2 9.6574 151.7377 41.0669 5.4068 -22.7774 -11.5172
# 3 38.1334 41.0669 135.8099 18.1731 -27.2049 -5.5887
# 4 4.7198 5.4068 18.1731 48.3946 -2.8210 -14.2066
# 5 -22.6251 -22.7774 -27.2049 -2.8210 42.8534 -1.8184
# 6 -15.4089 -11.5172 -5.5887 -14.2066 -1.8184 42.3682
#
#
#
# Elastic Compliance Matrix: (Units=1/GPa)
#
#
# Indices 1 2 3 4 5 6 
#
# 1 0.015243 0.001403 -0.003266 0.001886 0.007117 0.006432
# 2 0.001403 0.007790 -0.001979 0.000776 0.003795 0.002790
# 3 -0.003266 -0.001979 0.009926 -0.003417 0.003240 -0.001423
# 4 0.001886 0.000776 -0.003417 0.024282 0.001204 0.008640
# 5 0.007117 0.003795 0.003240 0.001204 0.031493 0.005803
# 6 0.006432 0.002790 -0.001423 0.008640 0.005803 0.029659
#
#
# Mechanical properties :
#
#
# Convention : Reuss Voigt Hill
#
# Bulk Modulus (GPa) = 39.56245 61.62564 50.59404
# Shear Modulus (GPa) = 37.17398 45.92708 41.55053
#
# Velocity S-wave (km/s) = 3.79755 4.22103 4.01488
# Velocity P-wave (km/s) = 5.88018 6.90387 6.41249
#
# Compressibility (1/GPa) = 0.02527650
#
# Stress axis : x y z
#
# Youngs Moduli (GPa) = 65.60315 128.36525 100.74174
#
# Poissons Ratio (x) = -0.18013 0.32906
# Poissons Ratio (y) = -0.09206 0.19932
# Poissons Ratio (z) = 0.21429 0.25397
#
# Static dielectric constant tensor:
#      x y z
#    x 2.136220 0.067250 0.052620 
#    y 0.067250 2.025610 -0.038660 
#    z 0.052620 -0.038660 2.000870 
# 
# From -- ./inp_files/451056.got.cif
#   From: 2010.05.17/outbox.cif.g08.bks.cpg/sg2_226_cif.got.tgz:451056.got - 2010.06.03 11:33:40.
