data_PCOD9014820
_publ_section_title
;
Structure prediction by ZEFSAII (Michael W. Deem and Ramdas Pophale) SiO2 
 PCOD9014820
Probable space group: P -1
;
_chemical_formula_sum "Si O2"
_cell_formula_units_Z 16
_cell_length_a 12.241384
_cell_length_b 12.356320
_cell_length_c 20.316287
_cell_angle_alpha 149.703790
_cell_angle_beta 26.322194
_cell_angle_gamma 145.925024
_cell_volume 666.768308
_symmetry_space_group_name_H-M "P -1"
_symmetry_group_IT_number 2
_symmetry_cell_setting 'triclinic'
loop_
_space_group_symop_operation_xyz
x,y,z
-x,-y,-z
loop_
_atom_site_type_symbol
_atom_site_label
_atom_site_fract_x
_atom_site_fract_y
_atom_site_fract_z
Si Si1 0.685732 0.146179 0.219063
Si Si2 0.423160 0.796567 0.502005
Si Si3 0.382744 0.521621 0.677399
Si Si4 0.679655 0.561701 0.734133
Si Si5 0.144634 0.045112 0.513084
Si Si6 0.052251 0.201679 0.168608
Si Si7 0.010300 0.903754 0.642590
Si Si8 0.759268 0.292144 0.018683
O O1 0.596744 0.332887 0.322988
O O2 0.434752 0.030352 0.335559
O O3 0.921019 0.242690 0.192220
O O4 0.783924 0.973847 0.029461
O O5 0.428262 0.603253 0.452141
O O6 0.405873 0.676180 0.377963
O O7 0.187666 0.891818 0.701876
O O8 0.304299 0.034846 0.556976
O O9 0.163782 0.296861 0.660879
O O10 0.346801 0.691959 0.842732
O O11 0.777751 0.598735 0.775145
O O12 0.901776 0.691844 0.633640
O O13 0.441505 0.668361 0.905791
O O14 0.000000 0.000000 0.500000
O O15 0.990314 0.873320 0.559159
O O16 0.847434 0.073303 0.842232
O O17 0.000000 0.500000 0.000000
#
# Coordination Sequence:
#
# PCOD9014820 Si02
#       8
#     2   2   2   2   2   2   2   2
#     4  11  24  43  67  92 136 183 216 269 333 392
#     4  10  22  44  67 101 129 171 220 284 328 385
#     4  10  21  41  69  94 121 172 225 271 332 374
#     4  11  24  38  72  98 129 180 219 270 345 396
#     4  11  24  37  65  99 134 167 222 284 319 389
#     4  11  24  43  64  96 140 178 219 264 337 408
#     4  11  22  42  65 102 135 163 228 280 333 383
#     4  11  20  40  68 100 132 161 218 294 332 371
#
# _framework density 23.996341999999999
#
# number of rings (size 3 to 8) (size 9 to 14) (size 15 to 20)
#    0.000    1.250    6.250    1.875    5.250    0.500 
#    0.000    0.000    2.750    3.000    0.000    0.000 
#    0.000    0.000    0.000    0.000    0.000    0.000 
#
# Total GULP energy -89370.875329 kJ/mol
# GULP energy per Si atom -5585.679708 kJ/mol
# Density = 2.394173 g / cm^3
# Si number density = 23.996342 Si / 1000 Ang^3
#
#
#
# Elastic Constant Matrix: (Units=GPa)
#
#
# Indices 1 2 3 4 5 6 
#
# 1 155.8408 13.7515 33.9058 11.8508 11.4820 15.3495
# 2 13.7515 54.6548 16.9434 -3.3012 -8.7136 -14.7219
# 3 33.9058 16.9434 143.9900 -6.2043 6.0216 -18.1023
# 4 11.8508 -3.3012 -6.2043 26.5913 2.4791 -9.0335
# 5 11.4820 -8.7136 6.0216 2.4791 38.5510 1.3141
# 6 15.3495 -14.7219 -18.1023 -9.0335 1.3141 38.3215
#
#
#
# Elastic Compliance Matrix: (Units=1/GPa)
#
#
# Indices 1 2 3 4 5 6 
#
# 1 0.009089 -0.004567 -0.002920 -0.007979 -0.002478 -0.008570
# 2 -0.004567 0.024467 -0.000009 0.008988 0.005866 0.013142
# 3 -0.002920 -0.000009 0.008768 0.005723 -0.001098 0.006695
# 4 -0.007979 0.008988 0.005723 0.050920 -0.000489 0.021373
# 5 -0.002478 0.005866 -0.001098 -0.000489 0.028150 0.001647
# 6 -0.008570 0.013142 0.006695 0.021373 0.001647 0.042721
#
#
# Mechanical properties :
#
#
# Convention : Reuss Voigt Hill
#
# Bulk Modulus (GPa) = 36.59050 53.74300 45.16675
# Shear Modulus (GPa) = 26.56502 40.01841 33.29172
#
# Velocity S-wave (km/s) = 3.33084 4.08816 3.72878
# Velocity P-wave (km/s) = 5.48399 6.68798 6.11568
#
# Compressibility (1/GPa) = 0.02732949
#
# Stress axis : x y z
#
# Youngs Moduli (GPa) = 110.02694 40.87196 114.05286
#
# Poissons Ratio (x) = 0.18666 0.33308
# Poissons Ratio (y) = 0.50249 0.00108
# Poissons Ratio (z) = 0.32133 0.00039
#
# Static dielectric constant tensor:
#      x y z
#    x 2.043540 -0.021410 -0.038760 
#    y -0.021410 1.933250 -0.013850 
#    z -0.038760 -0.013850 1.963600 
# 
# From -- ./inp_files/595146.got.cif
#   From: 2010.05.17/outbox.cif.g08.bks.cpg/sg2_298_cif.got.tgz:595146.got - 2010.06.03 11:33:40.
