data_PCOD9014857
_publ_section_title
;
Structure prediction by ZEFSAII (Michael W. Deem and Ramdas Pophale) SiO2 
 PCOD9014857
Probable space group: P -1
;
_chemical_formula_sum "Si O2"
_cell_formula_units_Z 13
_cell_length_a 8.674502
_cell_length_b 14.880939
_cell_length_c 9.311015
_cell_angle_alpha 73.453079
_cell_angle_beta 124.577202
_cell_angle_gamma 140.503860
_cell_volume 601.904823
_symmetry_space_group_name_H-M "P -1"
_symmetry_group_IT_number 2
_symmetry_cell_setting 'triclinic'
loop_
_space_group_symop_operation_xyz
x,y,z
-x,-y,-z
loop_
_atom_site_type_symbol
_atom_site_label
_atom_site_fract_x
_atom_site_fract_y
_atom_site_fract_z
Si Si1 0.239842 0.585143 0.215917
Si Si2 0.500000 0.500000 0.500000
Si Si3 0.235005 0.093019 0.206705
Si Si4 0.074791 0.114955 0.591220
Si Si5 0.264810 0.848298 0.535534
Si Si6 0.361809 0.356000 0.179586
Si Si7 0.938776 0.628986 0.200983
O O1 0.259640 0.491900 0.342480
O O2 0.577819 0.733838 0.277275
O O3 0.161752 0.635449 0.265907
O O4 0.000000 0.500000 0.000000
O O5 0.445250 0.436703 0.335885
O O6 0.539896 0.160039 0.293400
O O7 0.283990 0.218017 0.225873
O O8 0.078512 0.974465 0.303060
O O9 0.000000 0.000000 0.000000
O O10 0.923239 0.157271 0.455454
O O11 0.000000 0.000000 0.500000
O O12 0.049038 0.724117 0.357486
O O13 0.500000 0.000000 0.500000
O O14 0.631121 0.463254 0.159349
O O15 0.110865 0.317654 0.979977
#
# Coordination Sequence:
#
# PCOD9014857 Si02
#       7
#     2   1   2   2   2   2   2
#     4  12  26  45  70 106 149 185 236 299 362 424
#     4  12  24  44  70 108 138 184 238 296 358 428
#     4  11  25  44  70 102 137 181 246 295 352 436
#     4  11  24  46  70  99 141 188 232 296 366 424
#     4  10  21  41  69  96 134 183 227 285 357 422
#     4  11  24  43  71 105 139 183 244 295 357 430
#     4  11  24  44  71 100 143 190 230 298 362 421
#
# _framework density 21.598098
#
# number of rings (size 3 to 8) (size 9 to 14) (size 15 to 20)
#    0.000    0.923    1.538    6.462    4.308    3.692 
#    0.000    1.538    0.000    0.000    0.000    0.000 
#    0.000    0.000    0.000    0.000    0.000    0.000 
#
# Total GULP energy -72430.734616 kJ/mol
# GULP energy per Si atom -5571.594970 kJ/mol
# Density = 2.154894 g / cm^3
# Si number density = 21.598098 Si / 1000 Ang^3
#
#
#
# Elastic Constant Matrix: (Units=GPa)
#
#
# Indices 1 2 3 4 5 6 
#
# 1 169.5463 26.8247 56.7970 1.7242 26.9920 -22.5371
# 2 26.8247 46.3840 2.8870 7.8741 13.8171 -1.4961
# 3 56.7970 2.8870 147.6253 5.8274 18.3154 -15.7018
# 4 1.7242 7.8741 5.8274 28.7905 -6.2586 5.1127
# 5 26.9920 13.8171 18.3154 -6.2586 39.2253 1.5197
# 6 -22.5371 -1.4961 -15.7018 5.1127 1.5197 31.9848
#
#
#
# Elastic Compliance Matrix: (Units=1/GPa)
#
#
# Indices 1 2 3 4 5 6 
#
# 1 0.008446 -0.003211 -0.002099 -0.000994 -0.004058 0.005123
# 2 -0.003211 0.028471 0.002763 -0.011020 -0.010973 0.002708
# 3 -0.002099 0.002763 0.008618 -0.003977 -0.004331 0.003722
# 4 -0.000994 -0.011020 -0.003977 0.043523 0.013785 -0.010781
# 5 -0.004058 -0.010973 -0.004331 0.013785 0.036739 -0.009448
# 6 0.005123 0.002708 0.003722 -0.010781 -0.009448 0.039000
#
#
# Mechanical properties :
#
#
# Convention : Reuss Voigt Hill
#
# Bulk Modulus (GPa) = 24.72777 59.61920 42.17349
# Shear Modulus (GPa) = 27.26682 38.46990 32.86836
#
# Velocity S-wave (km/s) = 3.55697 4.22497 3.90528
# Velocity P-wave (km/s) = 5.32384 7.17387 6.31695
#
# Compressibility (1/GPa) = 0.04044037
#
# Stress axis : x y z
#
# Youngs Moduli (GPa) = 118.39245 35.12350 116.03874
#
# Poissons Ratio (x) = 0.11279 0.24360
# Poissons Ratio (y) = 0.38019 -0.32063
# Poissons Ratio (z) = 0.24854 -0.09705
#
# Static dielectric constant tensor:
#      x y z
#    x 1.801250 0.006210 0.050880 
#    y 0.006210 1.879590 -0.028880 
#    z 0.050880 -0.028880 1.802470 
# 
# From -- ./inp_files/159035.got.cif
#   From: 2010.05.17/outbox.cif.g08.bks.cpg/sg2_80_cif.got.tgz:159035.got - 2010.06.03 11:33:40.
