data_PCOD9014568
_publ_section_title
;
Structure prediction by ZEFSAII (Michael W. Deem and Ramdas Pophale) SiO2 
 PCOD9014568
Probable space group: P -1
;
_chemical_formula_sum "Si O2"
_cell_formula_units_Z 16
_cell_length_a 19.426091
_cell_length_b 8.547626
_cell_length_c 18.600940
_cell_angle_alpha 58.540349
_cell_angle_beta 158.518568
_cell_angle_gamma 135.734347
_cell_volume 651.262159
_symmetry_space_group_name_H-M "P -1"
_symmetry_group_IT_number 2
_symmetry_cell_setting 'triclinic'
loop_
_space_group_symop_operation_xyz
x,y,z
-x,-y,-z
loop_
_atom_site_type_symbol
_atom_site_label
_atom_site_fract_x
_atom_site_fract_y
_atom_site_fract_z
Si Si1 0.138440 0.774992 0.529339
Si Si2 0.829786 0.895626 0.967125
Si Si3 0.116026 0.390312 0.020025
Si Si4 0.016306 0.323463 0.233193
Si Si5 0.384393 0.980591 0.968233
Si Si6 0.550594 0.237123 0.258630
Si Si7 0.347845 0.294208 0.468915
Si Si8 0.799850 0.773758 0.296481
O O1 0.215769 0.751188 0.532007
O O2 0.000000 0.500000 0.500000
O O3 0.967258 0.828817 0.374538
O O4 0.429594 0.999901 0.800486
O O5 0.812311 0.698509 0.952348
O O6 0.547601 0.769068 0.757432
O O7 0.950070 0.147077 0.974537
O O8 0.059463 0.016358 0.222808
O O9 0.411684 0.662032 0.276836
O O10 0.951953 0.448055 0.819795
O O11 0.928840 0.264077 0.246590
O O12 0.262690 0.377099 0.428439
O O13 0.737406 0.039192 0.992046
O O14 0.414035 0.221918 0.934961
O O15 0.500000 0.000000 0.000000
O O16 0.655436 0.493633 0.257782
O O17 0.500000 0.500000 0.500000
O O18 0.000000 0.000000 0.500000
#
# Coordination Sequence:
#
# PCOD9014568 Si02
#       8
#     2   2   2   2   2   2   2   2
#     4   9  20  39  57  86 120 156 207 255 311 375
#     4   9  20  40  65  99 127 168 219 260 325 391
#     4  10  21  41  68  91 134 171 206 275 323 378
#     4  10  23  40  61  95 127 164 220 263 320 390
#     4  11  23  39  60  89 120 161 210 262 309 374
#     4   9  21  37  60  90 126 162 212 258 318 387
#     4   9  20  41  64  93 128 168 212 261 327 387
#     4  11  22  39  64  87 126 167 208 269 320 372
#
# _framework density 24.567678999999998
#
# number of rings (size 3 to 8) (size 9 to 14) (size 15 to 20)
#    0.000    2.250    1.250    0.000    1.750   12.000 
#    0.000   14.375    0.000    0.000    0.000    0.000 
#    0.000    0.000    0.000    0.000    0.000    0.000 
#
# Total GULP energy -89352.202234 kJ/mol
# GULP energy per Si atom -5584.512640 kJ/mol
# Density = 2.451176 g / cm^3
# Si number density = 24.567679 Si / 1000 Ang^3
#
#
#
# Elastic Constant Matrix: (Units=GPa)
#
#
# Indices 1 2 3 4 5 6 
#
# 1 147.7174 17.2041 37.6393 -3.2297 41.2667 5.5201
# 2 17.2041 89.5224 10.7561 -10.6268 0.7297 -5.7987
# 3 37.6393 10.7561 68.9551 -2.3630 19.0155 -5.1427
# 4 -3.2297 -10.6268 -2.3630 31.6053 -3.9897 -3.8398
# 5 41.2667 0.7297 19.0155 -3.9897 47.9340 -3.7641
# 6 5.5201 -5.7987 -5.1427 -3.8398 -3.7641 15.8003
#
#
#
# Elastic Compliance Matrix: (Units=1/GPa)
#
#
# Indices 1 2 3 4 5 6 
#
# 1 0.010626 -0.002296 -0.003808 -0.002042 -0.008424 -0.008298
# 2 -0.002296 0.012787 -0.000887 0.005274 0.003141 0.007236
# 3 -0.003808 -0.000887 0.018145 0.001024 -0.003321 0.006368
# 4 -0.002042 0.005274 0.001024 0.035505 0.005237 0.012858
# 5 -0.008424 0.003141 -0.003321 0.005237 0.030732 0.011609
# 6 -0.008298 0.007236 0.006368 0.012858 0.011609 0.076808
#
#
# Mechanical properties :
#
#
# Convention : Reuss Voigt Hill
#
# Bulk Modulus (GPa) = 36.26261 48.59932 42.43096
# Shear Modulus (GPa) = 24.06428 35.10761 29.58595
#
# Velocity S-wave (km/s) = 3.13311 3.78433 3.47401
# Velocity P-wave (km/s) = 5.28023 6.23856 5.77929
#
# Compressibility (1/GPa) = 0.02757661
#
# Stress axis : x y z
#
# Youngs Moduli (GPa) = 94.10725 78.20195 55.11152
#
# Poissons Ratio (x) = 0.17954 0.20986
# Poissons Ratio (y) = 0.21605 0.04890
# Poissons Ratio (z) = 0.35835 0.06938
#
# Static dielectric constant tensor:
#      x y z
#    x 2.071900 -0.031690 -0.058420 
#    y -0.031690 1.948060 0.093190 
#    z -0.058420 0.093190 2.060730 
# 
# From -- ./inp_files/601159.got.cif
#   From: 2010.05.17/outbox.cif.g08.bks.cpg/sg2_301_cif.got.tgz:601159.got - 2010.06.03 11:33:40.
