data_PCOD9014908
_publ_section_title
;
Structure prediction by ZEFSAII (Michael W. Deem and Ramdas Pophale) SiO2 
 PCOD9014908
Probable space group: P -1
;
_chemical_formula_sum "Si O2"
_cell_formula_units_Z 14
_cell_length_a 9.775595
_cell_length_b 6.935901
_cell_length_c 12.787429
_cell_angle_alpha 92.103091
_cell_angle_beta 142.499460
_cell_angle_gamma 84.117157
_cell_volume 523.608379
_symmetry_space_group_name_H-M "P -1"
_symmetry_group_IT_number 2
_symmetry_cell_setting 'triclinic'
loop_
_space_group_symop_operation_xyz
x,y,z
-x,-y,-z
loop_
_atom_site_type_symbol
_atom_site_label
_atom_site_fract_x
_atom_site_fract_y
_atom_site_fract_z
Si Si1 0.727167 0.404013 0.550004
Si Si2 0.523666 0.265660 0.107570
Si Si3 0.068106 0.857246 0.970883
Si Si4 0.550260 0.809544 0.171841
Si Si5 0.058199 0.368565 0.951861
Si Si6 0.966106 0.233342 0.486889
Si Si7 0.348001 0.202224 0.404080
O O1 0.875289 0.303774 0.546321
O O2 0.489531 0.312317 0.406197
O O3 0.671826 0.636377 0.515451
O O4 0.868087 0.370567 0.743890
O O5 0.521578 0.705106 0.041924
O O6 0.772164 0.315648 0.290580
O O7 0.552005 0.034533 0.144900
O O8 0.308975 0.350562 0.049656
O O9 0.032206 0.616207 0.973978
O O10 0.897455 0.857461 0.769982
O O11 0.054693 0.115491 0.982862
O O12 0.333442 0.814881 0.112567
O O13 0.778450 0.722320 0.364618
O O14 0.000000 0.000000 0.500000
O O15 0.500000 0.000000 0.500000
#
# Coordination Sequence:
#
# PCOD9014908 Si02
#       7
#     2   2   2   2   2   2   2
#     4  11  24  47  73 110 150 199 255 310 378 452
#     4  10  21  41  69  99 143 198 249 297 384 444
#     4  12  24  43  69 109 145 186 252 316 381 447
#     4  10  22  41  67 102 143 192 247 312 370 449
#     4  12  23  43  71 104 144 196 244 308 376 448
#     4  10  22  41  73 102 146 202 252 303 376 450
#     4  11  26  44  71 108 149 193 245 318 378 442
#
# _framework density 26.737541
#
# number of rings (size 3 to 8) (size 9 to 14) (size 15 to 20)
#    0.000    1.143    4.286    1.714    4.000    0.000 
#    2.571    2.857    0.000    4.286    0.000    0.000 
#    0.000    0.000    0.000    0.000    0.000    0.000 
#
# Total GULP energy -78313.741668 kJ/mol
# GULP energy per Si atom -5593.838691 kJ/mol
# Density = 2.667669 g / cm^3
# Si number density = 26.737541 Si / 1000 Ang^3
#
#
#
# Elastic Constant Matrix: (Units=GPa)
#
#
# Indices 1 2 3 4 5 6 
#
# 1 135.3273 44.8450 75.4984 -12.4679 13.7294 -37.4444
# 2 44.8450 213.6786 26.7870 11.6163 3.8410 -38.2966
# 3 75.4984 26.7870 200.0212 -9.9252 35.2148 -14.4466
# 4 -12.4679 11.6163 -9.9252 42.9330 -1.5906 2.8649
# 5 13.7294 3.8410 35.2148 -1.5906 44.4483 -9.8786
# 6 -37.4444 -38.2966 -14.4466 2.8649 -9.8786 47.2553
#
#
#
# Elastic Compliance Matrix: (Units=1/GPa)
#
#
# Indices 1 2 3 4 5 6 
#
# 1 0.012170 -0.000780 -0.004040 0.002333 0.001352 0.007918
# 2 -0.000780 0.005759 -0.000446 -0.002135 0.000963 0.004244
# 3 -0.004040 -0.000446 0.007326 0.000616 -0.005032 -0.002412
# 4 0.002333 -0.002135 0.000616 0.024760 -0.000423 -0.001283
# 5 0.001352 0.000963 -0.005032 -0.000423 0.027313 0.006049
# 6 0.007918 0.004244 -0.002412 -0.001283 0.006049 0.031480
#
#
# Mechanical properties :
#
#
# Convention : Reuss Voigt Hill
#
# Bulk Modulus (GPa) = 67.91407 93.69868 80.80638
# Shear Modulus (GPa) = 40.24261 53.72041 46.98151
#
# Velocity S-wave (km/s) = 3.88377 4.48725 4.19637
# Velocity P-wave (km/s) = 6.75033 7.87192 7.33260
#
# Compressibility (1/GPa) = 0.01472449
#
# Stress axis : x y z
#
# Youngs Moduli (GPa) = 82.16810 173.64685 136.49632
#
# Poissons Ratio (x) = 0.13542 0.55139
# Poissons Ratio (y) = 0.06408 0.06086
# Poissons Ratio (z) = 0.33193 0.07743
#
# Static dielectric constant tensor:
#      x y z
#    x 2.118480 -0.147400 -0.036560 
#    y -0.147400 2.804390 0.110420 
#    z -0.036560 0.110420 2.013080 
# 
# From -- ./inp_files/67352.got.cif
#   From: 2010.05.17/outbox.cif.g08.bks.cpg/sg2_34_cif.got.tgz:67352.got - 2010.06.03 11:33:40.
