data_PCOD9014284
_publ_section_title
;
Structure prediction by ZEFSAII (Michael W. Deem and Ramdas Pophale) SiO2 
 PCOD9014284
Probable space group: P -1
;
_chemical_formula_sum "Si O2"
_cell_formula_units_Z 14
_cell_length_a 8.547344
_cell_length_b 9.383954
_cell_length_c 13.046766
_cell_angle_alpha 130.523101
_cell_angle_beta 65.964947
_cell_angle_gamma 126.741129
_cell_volume 637.137729
_symmetry_space_group_name_H-M "P -1"
_symmetry_group_IT_number 2
_symmetry_cell_setting 'triclinic'
loop_
_space_group_symop_operation_xyz
x,y,z
-x,-y,-z
loop_
_atom_site_type_symbol
_atom_site_label
_atom_site_fract_x
_atom_site_fract_y
_atom_site_fract_z
Si Si1 0.057855 0.765511 0.066567
Si Si2 0.207950 0.933328 0.333730
Si Si3 0.940210 0.720716 0.491445
Si Si4 0.594293 0.246210 0.118791
Si Si5 0.861108 0.031121 0.246095
Si Si6 0.620484 0.558240 0.098808
Si Si7 0.363948 0.762459 0.670662
O O1 0.834532 0.580995 0.036079
O O2 0.148773 0.828305 0.186562
O O3 0.181043 0.693811 0.929460
O O4 0.026481 0.968726 0.137316
O O5 0.439897 0.059890 0.353262
O O6 0.150835 0.123338 0.435726
O O7 0.082382 0.762295 0.375048
O O8 0.062576 0.811376 0.604800
O O9 0.773845 0.478511 0.441875
O O10 0.528733 0.381499 0.127885
O O11 0.557446 0.268463 0.256071
O O12 0.500000 0.000000 0.000000
O O13 0.774491 0.127557 0.231934
O O14 0.686190 0.802238 0.224747
O O15 0.500000 0.500000 0.000000
#
# Coordination Sequence:
#
# PCOD9014284 Si02
#       7
#     2   2   2   2   2   2   2
#     4   9  21  41  62  88 130 167 207 262 315 380
#     4  10  21  41  67  92 130 167 215 269 316 381
#     4  10  22  42  66  93 126 173 215 261 327 374
#     4  12  23  39  65  97 128 165 220 257 321 389
#     4   9  23  43  62  92 136 160 215 270 316 376
#     4  10  22  42  64  91 127 173 207 264 324 380
#     4  12  23  40  68  99 125 171 218 264 316 389
#
# _framework density 21.973272000000001
#
# number of rings (size 3 to 8) (size 9 to 14) (size 15 to 20)
#    0.857    0.857    1.429    3.000    2.000    1.143 
#    0.000    0.000    0.000    0.000    0.000    0.000 
#    0.000    0.000    0.000    0.000    0.000    0.000 
#
# Total GULP energy -78012.188150 kJ/mol
# GULP energy per Si atom -5572.299154 kJ/mol
# Density = 2.192326 g / cm^3
# Si number density = 21.973272 Si / 1000 Ang^3
#
#
#
# Elastic Constant Matrix: (Units=GPa)
#
#
# Indices 1 2 3 4 5 6 
#
# 1 62.7856 51.5175 14.6814 4.4549 16.5979 -2.3323
# 2 51.5175 72.7674 20.4881 21.6702 13.7777 1.6859
# 3 14.6814 20.4881 46.0584 13.8024 12.2048 8.0766
# 4 4.4549 21.6702 13.8024 37.2029 8.6303 2.5002
# 5 16.5979 13.7777 12.2048 8.6303 31.1419 4.1480
# 6 -2.3323 1.6859 8.0766 2.5002 4.1480 44.7256
#
#
#
# Elastic Compliance Matrix: (Units=1/GPa)
#
#
# Indices 1 2 3 4 5 6 
#
# 1 0.051257 -0.039054 -0.001825 0.020602 -0.015671 0.004776
# 2 -0.039054 0.047972 -0.003421 -0.023637 0.007833 -0.002632
# 3 -0.001825 -0.003421 0.028126 -0.006513 -0.006185 -0.004108
# 4 0.020602 -0.023637 -0.006513 0.042818 -0.010060 0.001681
# 5 -0.015671 0.007833 -0.006185 -0.010060 0.042661 -0.003390
# 6 0.004776 -0.002632 -0.004108 0.001681 -0.003390 0.023669
#
#
# Mechanical properties :
#
#
# Convention : Reuss Voigt Hill
#
# Bulk Modulus (GPa) = 25.80324 39.44282 32.62303
# Shear Modulus (GPa) = 14.79195 28.94239 21.86717
#
# Velocity S-wave (km/s) = 2.59738 3.63321 3.15806
# Velocity P-wave (km/s) = 4.55672 5.96570 5.30817
#
# Compressibility (1/GPa) = 0.03875483
#
# Stress axis : x y z
#
# Youngs Moduli (GPa) = 19.50946 20.84555 35.55434
#
# Poissons Ratio (x) = 0.81410 0.06488
# Poissons Ratio (y) = 0.76192 0.12165
# Poissons Ratio (z) = 0.03560 0.07132
#
# Static dielectric constant tensor:
#      x y z
#    x 1.715260 -0.065060 0.058320 
#    y -0.065060 1.892600 0.049150 
#    z 0.058320 0.049150 1.736920 
# 
# From -- ./inp_files/383193.got.cif
#   From: 2010.05.17/outbox.cif.g08.bks.cpg/sg2_192_cif.got.tgz:383193.got - 2010.06.03 11:33:40.
