data_PCOD9014315
_publ_section_title
;
Structure prediction by ZEFSAII (Michael W. Deem and Ramdas Pophale) SiO2 
 PCOD9014315
Probable space group: P -1
;
_chemical_formula_sum "Si O2"
_cell_formula_units_Z 16
_cell_length_a 17.289237
_cell_length_b 8.980115
_cell_length_c 8.752641
_cell_angle_alpha 127.783453
_cell_angle_beta 100.978339
_cell_angle_gamma 57.217605
_cell_volume 882.299746
_symmetry_space_group_name_H-M "P -1"
_symmetry_group_IT_number 2
_symmetry_cell_setting 'triclinic'
loop_
_space_group_symop_operation_xyz
x,y,z
-x,-y,-z
loop_
_atom_site_type_symbol
_atom_site_label
_atom_site_fract_x
_atom_site_fract_y
_atom_site_fract_z
Si Si1 0.744308 0.432810 0.660843
Si Si2 0.075062 0.775736 0.983117
Si Si3 0.953711 0.257943 0.689226
Si Si4 0.070021 0.378824 0.592638
Si Si5 0.779128 0.129878 0.775235
Si Si6 0.417297 0.494878 0.555058
Si Si7 0.573977 0.897545 0.827949
Si Si8 0.409692 0.699863 0.007366
O O1 0.848866 0.381354 0.654046
O O2 0.751100 0.289690 0.718752
O O3 0.687480 0.380033 0.482157
O O4 0.672894 0.701281 0.815054
O O5 0.098748 0.550492 0.764426
O O6 0.047601 0.746360 0.128353
O O7 0.160439 0.807939 0.058691
O O8 0.000000 0.000000 0.000000
O O9 0.013425 0.345291 0.686543
O O10 0.000000 0.000000 0.500000
O O11 0.000000 0.500000 0.500000
O O12 0.155332 0.130961 0.416260
O O13 0.685256 0.198667 0.869891
O O14 0.500000 0.500000 0.500000
O O15 0.448347 0.235784 0.387868
O O16 0.406032 0.598055 0.780508
O O17 0.500000 0.000000 0.000000
O O18 0.577818 0.095909 0.884104
O O19 0.500000 0.500000 0.000000
#
# Coordination Sequence:
#
# PCOD9014315 Si02
#       8
#     2   2   2   2   2   2   2   2
#     4   9  22  42  64  92 129 168 220 270 317 393
#     4  11  23  43  66  97 135 175 222 273 328 394
#     4  11  21  43  68  93 133 176 220 272 328 387
#     4  12  24  42  67  94 137 178 221 275 328 393
#     4  11  24  45  61  95 135 170 216 279 325 381
#     4  10  21  42  68  94 124 169 215 267 330 385
#     4  10  21  41  67  94 126 163 219 264 326 389
#     4  12  25  43  68  96 133 170 214 271 332 390
#
# _framework density 18.134426999999999
#
# number of rings (size 3 to 8) (size 9 to 14) (size 15 to 20)
#    0.750    0.500    5.000    1.875    1.750    3.500 
#    4.500    0.000    0.000    0.000    0.000    0.000 
#    0.000    0.000    0.000    0.000    0.000    0.000 
#
# Total GULP energy -89128.126470 kJ/mol
# GULP energy per Si atom -5570.507904 kJ/mol
# Density = 1.809315 g / cm^3
# Si number density = 18.134427 Si / 1000 Ang^3
#
#
#
# Elastic Constant Matrix: (Units=GPa)
#
#
# Indices 1 2 3 4 5 6 
#
# 1 143.5576 69.1192 73.0127 15.9285 -3.2668 -0.3867
# 2 69.1192 139.6407 56.2549 21.8550 7.6834 -8.8906
# 3 73.0127 56.2549 125.8757 22.8983 18.2458 -0.4564
# 4 15.9285 21.8550 22.8983 38.9211 -0.7504 7.0660
# 5 -3.2668 7.6834 18.2458 -0.7504 39.2089 4.2777
# 6 -0.3867 -8.8906 -0.4564 7.0660 4.2777 33.5212
#
#
#
# Elastic Compliance Matrix: (Units=1/GPa)
#
#
# Indices 1 2 3 4 5 6 
#
# 1 0.011984 -0.004092 -0.006096 0.001429 0.004878 -0.001954
# 2 -0.004092 0.010780 -0.001284 -0.004400 -0.002379 0.004025
# 3 -0.006096 -0.001284 0.014106 -0.005558 -0.007130 0.001863
# 4 0.001429 -0.004400 -0.005558 0.032535 0.005144 -0.008741
# 5 0.004878 -0.002379 -0.007130 0.005144 0.030408 -0.005637
# 6 -0.001954 0.004025 0.001863 -0.008741 -0.005637 0.033464
#
#
# Mechanical properties :
#
#
# Convention : Reuss Voigt Hill
#
# Bulk Modulus (GPa) = 71.81814 89.53861 80.67838
# Shear Modulus (GPa) = 31.08225 36.37606 33.72916
#
# Velocity S-wave (km/s) = 4.14453 4.48360 4.31739
# Velocity P-wave (km/s) = 7.91151 8.73417 8.33300
#
# Compressibility (1/GPa) = 0.01392406
#
# Stress axis : x y z
#
# Youngs Moduli (GPa) = 83.44526 92.76513 70.89315
#
# Poissons Ratio (x) = 0.37962 0.43219
# Poissons Ratio (y) = 0.34148 0.09104
# Poissons Ratio (z) = 0.50871 0.11913
#
# Static dielectric constant tensor:
#      x y z
#    x 1.701970 -0.029450 0.001780 
#    y -0.029450 1.613020 -0.018530 
#    z 0.001780 -0.018530 1.619980 
# 
# From -- ./inp_files/328067.got.cif
#   From: 2010.05.17/outbox.cif.g08.bks.cpg/sg2_165_cif.got.tgz:328067.got - 2010.06.03 11:33:40.
