data_PCOD9014261
_publ_section_title
;
Structure prediction by ZEFSAII (Michael W. Deem and Ramdas Pophale) SiO2 
 PCOD9014261
Probable space group: P -1
;
_chemical_formula_sum "Si O2"
_cell_formula_units_Z 14
_cell_length_a 9.675131
_cell_length_b 12.207394
_cell_length_c 11.412730
_cell_angle_alpha 55.805215
_cell_angle_beta 58.819426
_cell_angle_gamma 34.830158
_cell_volume 632.225688
_symmetry_space_group_name_H-M "P -1"
_symmetry_group_IT_number 2
_symmetry_cell_setting 'triclinic'
loop_
_space_group_symop_operation_xyz
x,y,z
-x,-y,-z
loop_
_atom_site_type_symbol
_atom_site_label
_atom_site_fract_x
_atom_site_fract_y
_atom_site_fract_z
Si Si1 0.489837 0.147480 0.326983
Si Si2 0.528087 0.204699 0.890103
Si Si3 0.682721 0.667193 0.454976
Si Si4 0.195617 0.219438 0.876797
Si Si5 0.378398 0.446568 0.030066
Si Si6 0.907998 0.800709 0.509163
Si Si7 0.309256 0.739199 0.438493
O O1 0.347341 0.282817 0.425613
O O2 0.496040 0.254801 0.165053
O O3 0.311015 0.140987 0.363356
O O4 0.757930 0.947728 0.375407
O O5 0.306350 0.262069 0.890877
O O6 0.677506 0.184714 0.733164
O O7 0.435153 0.377577 0.912247
O O8 0.676252 0.998772 0.017119
O O9 0.750723 0.750065 0.292620
O O10 0.424230 0.764642 0.469520
O O11 0.887416 0.430313 0.482005
O O12 0.909390 0.378637 0.926000
O O13 0.500000 0.500000 0.000000
O O14 0.049877 0.825660 0.504609
O O15 0.500000 0.500000 0.500000
#
# Coordination Sequence:
#
# PCOD9014261 Si02
#       7
#     2   2   2   2   2   2   2
#     4  11  25  39  61  96 125 169 205 251 318 378
#     4  10  24  45  67  93 127 166 218 260 314 379
#     4  10  21  41  67  91 123 161 215 258 310 368
#     4  10  23  45  69  92 123 175 212 262 314 367
#     4  12  28  41  62  97 135 168 206 259 323 380
#     4  10  22  40  63  90 126 162 211 256 309 367
#     4   9  21  41  68  90 116 166 210 265 308 354
#
# _framework density 22.143989999999999
#
# number of rings (size 3 to 8) (size 9 to 14) (size 15 to 20)
#    0.000    1.714    1.429    0.857   10.000    1.143 
#    0.000    0.000    0.000    0.000    0.000    0.000 
#    0.000    0.000    0.000    0.000    0.000    0.000 
#
# Total GULP energy -78235.286077 kJ/mol
# GULP energy per Si atom -5588.234720 kJ/mol
# Density = 2.209359 g / cm^3
# Si number density = 22.143990 Si / 1000 Ang^3
#
#
#
# Elastic Constant Matrix: (Units=GPa)
#
#
# Indices 1 2 3 4 5 6 
#
# 1 135.7555 27.0409 15.0086 0.6786 -21.0326 -5.6897
# 2 27.0409 94.9864 1.6500 -4.1624 0.8223 -20.2671
# 3 15.0086 1.6500 47.9554 -17.7242 -2.8474 -2.1034
# 4 0.6786 -4.1624 -17.7242 23.5761 7.8559 11.4581
# 5 -21.0326 0.8223 -2.8474 7.8559 29.8755 3.6207
# 6 -5.6897 -20.2671 -2.1034 11.4581 3.6207 36.5916
#
#
#
# Elastic Compliance Matrix: (Units=1/GPa)
#
#
# Indices 1 2 3 4 5 6 
#
# 1 0.010021 -0.002893 -0.005662 -0.008676 0.008696 0.001487
# 2 -0.002893 0.012850 0.000864 0.000814 -0.003345 0.006793
# 3 -0.005662 0.000864 0.033633 0.032114 -0.008315 -0.007702
# 4 -0.008676 0.000814 0.032114 0.086106 -0.022833 -0.023756
# 5 0.008696 -0.003345 -0.008315 -0.022833 0.044686 0.001749
# 6 0.001487 0.006793 -0.007702 -0.023756 0.001749 0.038145
#
#
# Mechanical properties :
#
#
# Convention : Reuss Voigt Hill
#
# Bulk Modulus (GPa) = 24.31778 40.67735 32.49756
# Shear Modulus (GPa) = 19.64391 33.67515 26.65953
#
# Velocity S-wave (km/s) = 2.98165 3.90389 3.47352
# Velocity P-wave (km/s) = 4.78113 6.22333 5.54928
#
# Compressibility (1/GPa) = 0.04112218
#
# Stress axis : x y z
#
# Youngs Moduli (GPa) = 99.78679 77.81803 29.73290
#
# Poissons Ratio (x) = 0.22511 0.16835
# Poissons Ratio (y) = 0.28866 -0.02567
# Poissons Ratio (z) = 0.56499 -0.06720
#
# Static dielectric constant tensor:
#      x y z
#    x 1.848640 0.056810 -0.003730 
#    y 0.056810 1.865990 -0.008580 
#    z -0.003730 -0.008580 1.783260 
# 
# From -- ./inp_files/389302.got.cif
#   From: 2010.05.17/outbox.cif.g08.bks.cpg/sg2_195_cif.got.tgz:389302.got - 2010.06.03 11:33:40.
