data_PCOD9014587
_publ_section_title
;
Structure prediction by ZEFSAII (Michael W. Deem and Ramdas Pophale) SiO2 
 PCOD9014587
Probable space group: P -1
;
_chemical_formula_sum "Si O2"
_cell_formula_units_Z 16
_cell_length_a 12.276165
_cell_length_b 11.083844
_cell_length_c 8.436265
_cell_angle_alpha 51.554263
_cell_angle_beta 95.133521
_cell_angle_gamma 129.240537
_cell_volume 602.645332
_symmetry_space_group_name_H-M "P -1"
_symmetry_group_IT_number 2
_symmetry_cell_setting 'triclinic'
loop_
_space_group_symop_operation_xyz
x,y,z
-x,-y,-z
loop_
_atom_site_type_symbol
_atom_site_label
_atom_site_fract_x
_atom_site_fract_y
_atom_site_fract_z
Si Si1 0.806659 0.969894 0.224803
Si Si2 0.256280 0.523694 0.146441
Si Si3 0.705728 0.306073 0.449687
Si Si4 0.165406 0.817966 0.243837
Si Si5 0.316795 0.897844 0.712528
Si Si6 0.534678 0.663880 0.198982
Si Si7 0.677242 0.575554 0.066527
Si Si8 0.972969 0.087855 0.616819
O O1 0.763705 0.021811 0.332062
O O2 0.636741 0.739114 0.310370
O O3 0.919748 0.941563 0.278716
O O4 0.878296 0.170314 0.947098
O O5 0.360916 0.563217 0.271009
O O6 0.078892 0.263257 0.342027
O O7 0.250893 0.699705 0.986905
O O8 0.358543 0.571528 0.967006
O O9 0.806212 0.327667 0.583328
O O10 0.723027 0.210939 0.376656
O O11 0.756493 0.533625 0.230408
O O12 0.509297 0.110505 0.600468
O O13 0.052855 0.795428 0.366564
O O14 0.347643 0.080388 0.068395
O O15 0.546354 0.532389 0.186958
O O16 0.796429 0.826552 0.802564
#
# Coordination Sequence:
#
# PCOD9014587 Si02
#       8
#     2   2   2   2   2   2   2   2
#     4  10  23  43  66  94 133 168 215 264 320 382
#     4  11  22  40  65  99 127 167 216 267 319 375
#     4  10  21  41  68  93 130 166 216 265 322 372
#     4   9  21  43  65  89 131 170 210 255 321 382
#     4  10  22  41  64 101 127 164 214 273 316 377
#     4   9  21  40  64  91 129 164 216 264 310 377
#     4  10  23  40  65  94 132 169 211 265 321 381
#     4  11  24  42  63  94 134 172 213 260 320 386
#
# _framework density 26.549610999999999
#
# number of rings (size 3 to 8) (size 9 to 14) (size 15 to 20)
#    0.750    1.250    1.250    1.125    1.750    6.500 
#    2.250    3.750    0.000    0.000    0.000    0.000 
#    0.000    0.000    0.000    0.000    0.000    0.000 
#
# Total GULP energy -89463.249961 kJ/mol
# GULP energy per Si atom -5591.453123 kJ/mol
# Density = 2.648918 g / cm^3
# Si number density = 26.549611 Si / 1000 Ang^3
#
#
#
# Elastic Constant Matrix: (Units=GPa)
#
#
# Indices 1 2 3 4 5 6 
#
# 1 143.5377 23.8949 29.4130 0.4028 12.6680 5.8982
# 2 23.8949 50.8810 9.6222 -15.4196 -1.4259 1.8991
# 3 29.4130 9.6222 105.9004 -11.2629 12.0945 -2.9084
# 4 0.4028 -15.4196 -11.2629 25.2066 -6.5315 2.9476
# 5 12.6680 -1.4259 12.0945 -6.5315 33.3950 6.9562
# 6 5.8982 1.8991 -2.9084 2.9476 6.9562 33.0227
#
#
#
# Elastic Compliance Matrix: (Units=1/GPa)
#
#
# Indices 1 2 3 4 5 6 
#
# 1 0.008634 -0.005374 -0.002047 -0.005300 -0.003770 -0.000146
# 2 -0.005374 0.028691 -0.000003 0.020224 0.008095 -0.004201
# 3 -0.002047 -0.000003 0.010781 0.003979 -0.002667 0.001522
# 4 -0.005300 0.020224 0.003979 0.058648 0.014607 -0.008178
# 5 -0.003770 0.008095 -0.002667 0.014607 0.037464 -0.009223
# 6 -0.000146 -0.004201 0.001522 -0.008178 -0.009223 0.033357
#
#
# Mechanical properties :
#
#
# Convention : Reuss Voigt Hill
#
# Bulk Modulus (GPa) = 30.06816 47.35327 38.71072
# Shear Modulus (GPa) = 24.56887 34.15081 29.35984
#
# Velocity S-wave (km/s) = 3.04533 3.59040 3.32904
# Velocity P-wave (km/s) = 4.86983 5.92135 5.42115
#
# Compressibility (1/GPa) = 0.03325777
#
# Stress axis : x y z
#
# Youngs Moduli (GPa) = 115.81472 34.85435 92.75372
#
# Poissons Ratio (x) = 0.18731 0.18987
# Poissons Ratio (y) = 0.62240 0.00030
# Poissons Ratio (z) = 0.23708 0.00011
#
# Static dielectric constant tensor:
#      x y z
#    x 2.016740 0.044320 0.015540 
#    y 0.044320 2.102890 0.037760 
#    z 0.015540 0.037760 2.170710 
# 
# From -- ./inp_files/261638.got.cif
#   From: 2010.05.17/outbox.cif.g08.bks.cpg/sg2_131_cif.got.tgz:261638.got - 2010.06.03 11:33:40.
