data_PCOD9014016
_publ_section_title
;
Structure prediction by ZEFSAII (Michael W. Deem and Ramdas Pophale) SiO2 
 PCOD9014016
Probable space group: P -1
;
_chemical_formula_sum "Si O2"
_cell_formula_units_Z 14
_cell_length_a 11.704920
_cell_length_b 9.711752
_cell_length_c 9.635239
_cell_angle_alpha 59.298230
_cell_angle_beta 99.170838
_cell_angle_gamma 131.294718
_cell_volume 680.322307
_symmetry_space_group_name_H-M "P -1"
_symmetry_group_IT_number 2
_symmetry_cell_setting 'triclinic'
loop_
_space_group_symop_operation_xyz
x,y,z
-x,-y,-z
loop_
_atom_site_type_symbol
_atom_site_label
_atom_site_fract_x
_atom_site_fract_y
_atom_site_fract_z
Si Si1 0.842281 0.455263 0.998029
Si Si2 0.614552 0.935833 0.897625
Si Si3 0.138640 0.063123 0.089415
Si Si4 0.637763 0.437634 0.176115
Si Si5 0.427056 0.052848 0.814683
Si Si6 0.865541 0.823355 0.671925
Si Si7 0.559953 0.676873 0.540125
O O1 0.858463 0.630675 0.817538
O O2 0.780054 0.457283 0.137127
O O3 0.000000 0.500000 0.000000
O O4 0.705437 0.206232 0.051111
O O5 0.795134 0.050469 0.866813
O O6 0.507447 0.748458 0.856713
O O7 0.581666 0.093491 0.790550
O O8 0.557278 0.839928 0.092338
O O9 0.094198 0.042390 0.249928
O O10 0.291089 0.320418 0.962199
O O11 0.000000 0.000000 0.000000
O O12 0.572978 0.382748 0.348338
O O13 0.378193 0.115300 0.645053
O O14 0.697259 0.721998 0.631697
O O15 0.000000 0.000000 0.500000
O O16 0.500000 0.500000 0.500000
#
# Coordination Sequence:
#
# PCOD9014016 Si02
#       7
#     2   2   2   2   2   2   2
#     4  10  23  43  69  96 135 180 220 273 339 401
#     4  10  21  41  66  94 127 174 226 272 321 402
#     4  11  24  40  68  94 131 179 223 270 333 404
#     4  10  23  42  67  95 132 176 227 272 335 392
#     4  10  24  39  71  97 131 174 226 270 339 396
#     4  11  26  45  66  98 137 173 221 280 334 391
#     4  12  26  42  69 101 135 174 226 284 331 394
#
# _framework density 20.578482000000001
#
# number of rings (size 3 to 8) (size 9 to 14) (size 15 to 20)
#    0.000    1.429    1.429    2.143   20.000    2.286 
#    2.571    0.000    0.000    2.571    0.000    0.000 
#    0.000    0.000    0.000    0.000    0.000    0.000 
#
# Total GULP energy -78113.875103 kJ/mol
# GULP energy per Si atom -5579.562507 kJ/mol
# Density = 2.053164 g / cm^3
# Si number density = 20.578482 Si / 1000 Ang^3
#
#
#
# Elastic Constant Matrix: (Units=GPa)
#
#
# Indices 1 2 3 4 5 6 
#
# 1 179.5363 44.4253 65.2199 18.9114 14.7148 -1.6378
# 2 44.4253 65.7641 37.0008 23.7363 -11.4280 -14.2868
# 3 65.2199 37.0008 131.3380 15.7016 -7.9773 -9.0429
# 4 18.9114 23.7363 15.7016 39.2912 -1.5827 0.5403
# 5 14.7148 -11.4280 -7.9773 -1.5827 38.3988 4.8985
# 6 -1.6378 -14.2868 -9.0429 0.5403 4.8985 21.2775
#
#
#
# Elastic Compliance Matrix: (Units=1/GPa)
#
#
# Indices 1 2 3 4 5 6 
#
# 1 0.008501 -0.005759 -0.003208 0.000508 -0.005184 -0.003396
# 2 -0.005759 0.031184 -0.002399 -0.015030 0.008074 0.017999
# 3 -0.003208 -0.002399 0.010289 -0.001051 0.002355 0.002000
# 4 0.000508 -0.015030 -0.001051 0.034774 -0.002061 -0.010908
# 5 -0.005184 0.008074 0.002355 -0.002061 0.030971 -0.001055
# 6 -0.003396 0.017999 0.002000 -0.010908 -0.001055 0.060192
#
#
# Mechanical properties :
#
#
# Convention : Reuss Voigt Hill
#
# Bulk Modulus (GPa) = 36.70848 74.43669 55.57259
# Shear Modulus (GPa) = 24.07051 35.12633 29.59842
#
# Velocity S-wave (km/s) = 3.42379 4.13600 3.79663
# Velocity P-wave (km/s) = 5.78850 7.68500 6.80316
#
# Compressibility (1/GPa) = 0.02724166
#
# Stress axis : x y z
#
# Youngs Moduli (GPa) = 117.63478 32.06780 97.18883
#
# Poissons Ratio (x) = 0.18469 0.31180
# Poissons Ratio (y) = 0.67749 0.23313
# Poissons Ratio (z) = 0.37740 0.07692
#
# Static dielectric constant tensor:
#      x y z
#    x 1.815560 -0.026120 -0.014930 
#    y -0.026120 1.775970 -0.004190 
#    z -0.014930 -0.004190 1.739810 
# 
# From -- ./inp_files/242601.got.cif
#   From: 2010.05.17/outbox.cif.g08.bks.cpg/sg2_122_cif.got.tgz:242601.got - 2010.06.03 11:33:40.
