data_PCOD9014848
_publ_section_title
;
Structure prediction by ZEFSAII (Michael W. Deem and Ramdas Pophale) SiO2 
 PCOD9014848
Probable space group: P -1
;
_chemical_formula_sum "Si O2"
_cell_formula_units_Z 16
_cell_length_a 8.361540
_cell_length_b 13.779909
_cell_length_c 12.471928
_cell_angle_alpha 41.360080
_cell_angle_beta 101.750203
_cell_angle_gamma 122.986219
_cell_volume 740.027422
_symmetry_space_group_name_H-M "P -1"
_symmetry_group_IT_number 2
_symmetry_cell_setting 'triclinic'
loop_
_space_group_symop_operation_xyz
x,y,z
-x,-y,-z
loop_
_atom_site_type_symbol
_atom_site_label
_atom_site_fract_x
_atom_site_fract_y
_atom_site_fract_z
Si Si1 0.316665 0.492060 0.535781
Si Si2 0.860368 0.108885 0.107501
Si Si3 0.919292 0.984517 0.619638
Si Si4 0.480954 0.165269 0.849785
Si Si5 0.088365 0.776143 0.418068
Si Si6 0.540172 0.349474 0.145136
Si Si7 0.811903 0.496666 0.269136
Si Si8 0.474055 0.843296 0.902243
O O1 0.500000 0.500000 0.500000
O O2 0.349786 0.670747 0.338992
O O3 0.326762 0.508942 0.651014
O O4 0.093304 0.314452 0.617921
O O5 0.690076 0.114900 0.140174
O O6 0.997276 0.093727 0.222222
O O7 0.736028 0.932808 0.157611
O O8 0.998577 0.293395 0.903671
O O9 0.675117 0.842084 0.696501
O O10 0.977464 0.169545 0.529810
O O11 0.000000 0.000000 0.500000
O O12 0.503625 0.229891 0.920985
O O13 0.500000 0.000000 0.000000
O O14 0.121884 0.625527 0.577318
O O15 0.301938 0.965913 0.251028
O O16 0.695856 0.413412 0.210292
O O17 0.599585 0.304338 0.079282
O O18 0.500000 0.500000 0.000000
#
# Coordination Sequence:
#
# PCOD9014848 Si02
#       8
#     2   2   2   2   2   2   2   2
#     4  12  27  44  72 105 135 178 225 289 342 400
#     4  11  23  45  70 103 133 184 224 284 341 398
#     4  11  27  43  69  96 142 178 230 280 335 407
#     4  10  21  41  69  96 130 171 219 275 330 398
#     4  11  25  45  69 104 134 181 226 281 341 402
#     4  11  26  46  65 100 139 184 226 281 338 405
#     4  12  26  45  71 100 142 178 231 279 340 412
#     4  10  24  43  72  98 139 179 231 274 343 407
#
# _framework density 21.620820999999999
#
# number of rings (size 3 to 8) (size 9 to 14) (size 15 to 20)
#    0.000    1.000    1.250    4.875    8.750    2.500 
#    0.000    3.125    0.000    0.000    0.000    0.000 
#    0.000    0.000    0.000    0.000    0.000    0.000 
#
# Total GULP energy -89498.691773 kJ/mol
# GULP energy per Si atom -5593.668236 kJ/mol
# Density = 2.157161 g / cm^3
# Si number density = 21.620821 Si / 1000 Ang^3
#
#
#
# Elastic Constant Matrix: (Units=GPa)
#
#
# Indices 1 2 3 4 5 6 
#
# 1 85.4836 30.8979 19.4202 7.2567 -4.4875 -16.9872
# 2 30.8979 137.3807 24.4014 14.5073 -17.7278 -8.3194
# 3 19.4202 24.4014 79.4093 2.4098 -12.6634 -10.9332
# 4 7.2567 14.5073 2.4098 34.3470 -6.1500 -7.8403
# 5 -4.4875 -17.7278 -12.6634 -6.1500 33.9417 3.1903
# 6 -16.9872 -8.3194 -10.9332 -7.8403 3.1903 39.2973
#
#
#
# Elastic Compliance Matrix: (Units=1/GPa)
#
#
# Indices 1 2 3 4 5 6 
#
# 1 0.014081 -0.002522 -0.002108 -0.000800 -0.000845 0.004875
# 2 -0.002522 0.008787 -0.001547 -0.002589 0.003251 -0.000441
# 3 -0.002108 -0.001547 0.014618 0.001489 0.004377 0.002770
# 4 -0.000800 -0.002589 0.001489 0.032348 0.004431 0.005614
# 5 -0.000845 0.003251 0.004377 0.004431 0.033512 -0.000296
# 6 0.004875 -0.000441 0.002770 0.005614 -0.000296 0.029376
#
#
# Mechanical properties :
#
#
# Convention : Reuss Voigt Hill
#
# Bulk Modulus (GPa) = 39.78907 50.19030 44.98968
# Shear Modulus (GPa) = 32.58319 36.68748 34.63534
#
# Velocity S-wave (km/s) = 3.88626 4.12376 4.00677
# Velocity P-wave (km/s) = 6.21131 6.77777 6.50071
#
# Compressibility (1/GPa) = 0.02513253
#
# Stress axis : x y z
#
# Youngs Moduli (GPa) = 71.01795 113.80146 68.40868
#
# Poissons Ratio (x) = 0.28698 0.14420
# Poissons Ratio (y) = 0.17909 0.10583
# Poissons Ratio (z) = 0.14970 0.17606
#
# Static dielectric constant tensor:
#      x y z
#    x 1.816870 -0.026650 0.015710 
#    y -0.026650 1.800450 -0.001900 
#    z 0.015710 -0.001900 1.770330 
# 
# From -- ./inp_files/398439.got.cif
#   From: 2010.05.17/outbox.cif.g08.bks.cpg/sg2_200_cif.got.tgz:398439.got - 2010.06.03 11:33:40.
