data_PCOD9014339
_publ_section_title
;
Structure prediction by ZEFSAII (Michael W. Deem and Ramdas Pophale) SiO2 
 PCOD9014339
Probable space group: P -1
;
_chemical_formula_sum "Si O2"
_cell_formula_units_Z 14
_cell_length_a 5.378987
_cell_length_b 8.357468
_cell_length_c 18.651487
_cell_angle_alpha 42.354348
_cell_angle_beta 111.539938
_cell_angle_gamma 105.809733
_cell_volume 525.438573
_symmetry_space_group_name_H-M "P -1"
_symmetry_group_IT_number 2
_symmetry_cell_setting 'triclinic'
loop_
_space_group_symop_operation_xyz
x,y,z
-x,-y,-z
loop_
_atom_site_type_symbol
_atom_site_label
_atom_site_fract_x
_atom_site_fract_y
_atom_site_fract_z
Si Si1 0.195120 0.285850 0.612550
Si Si2 0.374786 0.064464 0.553090
Si Si3 0.326374 0.745479 0.228298
Si Si4 0.669046 0.716368 0.981646
Si Si5 0.702851 0.391438 0.895280
Si Si6 0.880993 0.871627 0.723782
Si Si7 0.033417 0.642417 0.676315
O O1 0.284077 0.166328 0.586707
O O2 0.453221 0.360586 0.659730
O O3 0.000000 0.500000 0.500000
O O4 0.060463 0.067983 0.714849
O O5 0.224599 0.223868 0.427580
O O6 0.688550 0.041006 0.600776
O O7 0.272770 0.793912 0.619295
O O8 0.361801 0.668438 0.174483
O O9 0.035689 0.629941 0.253766
O O10 0.351891 0.027216 0.142326
O O11 0.521143 0.727472 0.039537
O O12 0.989891 0.678216 0.031783
O O13 0.500000 0.500000 0.000000
O O14 0.709909 0.679055 0.812286
O O15 0.041939 0.705014 0.740727
#
# Coordination Sequence:
#
# PCOD9014339 Si02
#       7
#     2   2   2   2   2   2   2
#     4  11  25  44  63 107 146 190 248 300 368 441
#     4  10  21  41  67  94 140 187 239 300 358 442
#     4  11  25  46  73 104 150 191 244 310 376 437
#     4  12  27  52  78 113 148 194 248 314 376 447
#     4  11  27  49  78 111 149 193 254 307 372 449
#     4  10  22  40  69  94 141 185 242 294 376 431
#     4   9  21  40  65 100 131 187 238 300 362 439
#
# _framework density 26.644411000000002
#
# number of rings (size 3 to 8) (size 9 to 14) (size 15 to 20)
#    0.000    1.429    0.000    3.429    8.000    8.000 
#    7.714    0.000    0.000    0.000    0.000    0.000 
#    0.000    0.000    0.000    0.000    0.000    0.000 
#
# Total GULP energy -78334.050381 kJ/mol
# GULP energy per Si atom -5595.289313 kJ/mol
# Density = 2.658377 g / cm^3
# Si number density = 26.644411 Si / 1000 Ang^3
#
#
#
# Elastic Constant Matrix: (Units=GPa)
#
#
# Indices 1 2 3 4 5 6 
#
# 1 94.1335 47.3794 30.1596 7.2106 15.1119 11.0568
# 2 47.3794 171.5693 43.7571 -22.8073 3.0729 9.7228
# 3 30.1596 43.7571 100.6145 -13.5140 17.7107 7.6048
# 4 7.2106 -22.8073 -13.5140 46.9444 14.8799 -9.4177
# 5 15.1119 3.0729 17.7107 14.8799 46.1519 7.5150
# 6 11.0568 9.7228 7.6048 -9.4177 7.5150 50.6287
#
#
#
# Elastic Compliance Matrix: (Units=1/GPa)
#
#
# Indices 1 2 3 4 5 6 
#
# 1 0.014325 -0.003695 -0.002926 -0.004979 -0.001274 -0.002716
# 2 -0.003695 0.007806 -0.001805 0.003870 0.000088 0.000286
# 3 -0.002926 -0.001805 0.013313 0.005464 -0.005936 0.000883
# 4 -0.004979 0.003870 0.005464 0.030636 -0.011736 0.006964
# 5 -0.001274 0.000088 -0.005936 -0.011736 0.029009 -0.005336
# 6 -0.002716 0.000286 0.000883 0.006964 -0.005336 0.022245
#
#
# Mechanical properties :
#
#
# Convention : Reuss Voigt Hill
#
# Bulk Modulus (GPa) = 53.78507 67.65660 60.72084
# Shear Modulus (GPa) = 35.61665 45.07977 40.34821
#
# Velocity S-wave (km/s) = 3.66011 4.11774 3.89565
# Velocity P-wave (km/s) = 6.17187 6.93219 6.56305
#
# Compressibility (1/GPa) = 0.01859252
#
# Stress axis : x y z
#
# Youngs Moduli (GPa) = 69.80572 128.11081 75.11501
#
# Poissons Ratio (x) = 0.47334 0.21982
# Poissons Ratio (y) = 0.25792 0.13555
# Poissons Ratio (z) = 0.20428 0.23119
#
# Static dielectric constant tensor:
#      x y z
#    x 2.077370 -0.038490 -0.039570 
#    y -0.038490 2.032690 -0.003580 
#    z -0.039570 -0.003580 2.121790 
# 
# From -- ./inp_files/287705.got.cif
#   From: 2010.05.17/outbox.cif.g08.bks.cpg/sg2_144_cif.got.tgz:287705.got - 2010.06.03 11:33:40.
