data_PCOD9014693
_publ_section_title
;
Structure prediction by ZEFSAII (Michael W. Deem and Ramdas Pophale) SiO2 
 PCOD9014693
Probable space group: P -1
;
_chemical_formula_sum "Si O2"
_cell_formula_units_Z 16
_cell_length_a 12.234554
_cell_length_b 11.846510
_cell_length_c 5.817628
_cell_angle_alpha 66.637734
_cell_angle_beta 122.660597
_cell_angle_gamma 89.096949
_cell_volume 622.204868
_symmetry_space_group_name_H-M "P -1"
_symmetry_group_IT_number 2
_symmetry_cell_setting 'triclinic'
loop_
_space_group_symop_operation_xyz
x,y,z
-x,-y,-z
loop_
_atom_site_type_symbol
_atom_site_label
_atom_site_fract_x
_atom_site_fract_y
_atom_site_fract_z
Si Si1 0.578401 0.406598 0.363733
Si Si2 0.616829 0.214917 0.195258
Si Si3 0.937955 0.696114 0.231190
Si Si4 0.122743 0.804221 0.713159
Si Si5 0.171342 0.476639 0.438752
Si Si6 0.374299 0.318932 0.504962
Si Si7 0.944351 0.925826 0.802257
Si Si8 0.572017 0.961825 0.365434
O O1 0.629246 0.266148 0.420341
O O2 0.710344 0.454303 0.502770
O O3 0.461201 0.400620 0.413784
O O4 0.500000 0.500000 0.000000
O O5 0.718546 0.261663 0.105588
O O6 0.659260 0.061538 0.381075
O O7 0.464306 0.269887 0.878841
O O8 0.834813 0.631968 0.292522
O O9 0.035152 0.736987 0.503801
O O10 0.035034 0.587342 0.263553
O O11 0.871587 0.832006 0.919783
O O12 0.062660 0.818641 0.886625
O O13 0.110007 0.954400 0.526414
O O14 0.217832 0.392420 0.327529
O O15 0.384887 0.191267 0.477987
O O16 0.000000 0.000000 0.000000
O O17 0.500000 0.000000 0.500000
O O18 0.500000 0.000000 0.000000
#
# Coordination Sequence:
#
# PCOD9014693 Si02
#       8
#     2   2   2   2   2   2   2   2
#     4  12  24  43  68  98 135 180 230 276 350 425
#     4  11  23  41  69 101 134 179 227 289 355 431
#     4  10  23  45  65  95 136 177 227 289 348 409
#     4  10  21  41  68  99 129 175 230 279 351 424
#     4  11  24  44  66  98 136 180 230 282 345 423
#     4  11  25  43  69  99 141 179 228 295 353 423
#     4   9  21  41  66  94 129 171 227 286 340 406
#     4  10  22  44  67 103 143 184 234 291 362 429
#
# _framework density 25.715005000000001
#
# number of rings (size 3 to 8) (size 9 to 14) (size 15 to 20)
#    0.000    1.500    3.750    0.375    1.750    3.000 
#    9.000    1.250    0.000    0.000    0.000    0.000 
#    0.000    0.000    0.000    0.000    0.000    0.000 
#
# Total GULP energy -89163.105313 kJ/mol
# GULP energy per Si atom -5572.694082 kJ/mol
# Density = 2.565648 g / cm^3
# Si number density = 25.715005 Si / 1000 Ang^3
#
#
#
# Elastic Constant Matrix: (Units=GPa)
#
#
# Indices 1 2 3 4 5 6 
#
# 1 186.5448 67.5752 42.8582 10.2608 -29.8943 7.3834
# 2 67.5752 187.6602 32.9540 -11.0392 -14.9789 -3.5638
# 3 42.8582 32.9540 62.3686 -19.9333 -16.1092 5.8447
# 4 10.2608 -11.0392 -19.9333 40.3055 9.8244 -22.1883
# 5 -29.8943 -14.9789 -16.1092 9.8244 36.5575 -6.4654
# 6 7.3834 -3.5638 5.8447 -22.1883 -6.4654 52.0148
#
#
#
# Elastic Compliance Matrix: (Units=1/GPa)
#
#
# Indices 1 2 3 4 5 6 
#
# 1 0.009385 -0.002458 -0.006473 -0.010060 0.005749 -0.004350
# 2 -0.002458 0.006612 -0.001045 0.003223 -0.000227 0.002266
# 3 -0.006473 -0.001045 0.026534 0.016846 0.002390 0.005349
# 4 -0.010060 0.003223 0.016846 0.049781 -0.009354 0.019828
# 5 0.005749 -0.000227 0.002390 -0.009354 0.035407 -0.000689
# 6 -0.004350 0.002266 0.005349 0.019828 -0.000689 0.027770
#
#
# Mechanical properties :
#
#
# Convention : Reuss Voigt Hill
#
# Bulk Modulus (GPa) = 44.29061 80.37206 62.33133
# Shear Modulus (GPa) = 27.32715 45.32130 36.32422
#
# Velocity S-wave (km/s) = 3.26343 4.20270 3.76249
# Velocity P-wave (km/s) = 5.60901 7.40764 6.57016
#
# Compressibility (1/GPa) = 0.02257815
#
# Stress axis : x y z
#
# Youngs Moduli (GPa) = 106.55211 151.23870 37.68739
#
# Poissons Ratio (x) = 0.37180 0.24394
# Poissons Ratio (y) = 0.26194 0.03940
# Poissons Ratio (z) = 0.68969 0.15810
#
# Static dielectric constant tensor:
#      x y z
#    x 2.408530 -0.001130 -0.432820 
#    y -0.001130 2.147140 -0.191730 
#    z -0.432820 -0.191730 2.673040 
# 
# From -- ./inp_files/69328.got.cif
#   From: 2010.05.17/outbox.cif.g08.bks.cpg/sg2_35_cif.got.tgz:69328.got - 2010.06.03 11:33:40.
