data_PCOD9014909
_publ_section_title
;
Structure prediction by ZEFSAII (Michael W. Deem and Ramdas Pophale) SiO2 
 PCOD9014909
Probable space group: P -1
;
_chemical_formula_sum "Si O2"
_cell_formula_units_Z 10
_cell_length_a 9.885843
_cell_length_b 10.533864
_cell_length_c 7.166455
_cell_angle_alpha 71.818442
_cell_angle_beta 84.508325
_cell_angle_gamma 136.698817
_cell_volume 422.415871
_symmetry_space_group_name_H-M "P -1"
_symmetry_group_IT_number 2
_symmetry_cell_setting 'triclinic'
loop_
_space_group_symop_operation_xyz
x,y,z
-x,-y,-z
loop_
_atom_site_type_symbol
_atom_site_label
_atom_site_fract_x
_atom_site_fract_y
_atom_site_fract_z
Si Si1 0.518672 0.598840 0.645924
Si Si2 0.968149 0.817115 0.107576
Si Si3 0.446127 0.111298 0.981456
Si Si4 0.842959 0.635776 0.629852
Si Si5 0.347636 0.010567 0.474040
O O1 0.500000 0.500000 0.500000
O O2 0.717451 0.674558 0.690424
O O3 0.581189 0.800496 0.512537
O O4 0.269314 0.401971 0.861472
O O5 0.919578 0.725635 0.365632
O O6 0.213913 0.952109 0.971714
O O7 0.000000 0.000000 0.000000
O O8 0.654047 0.371490 0.783013
O O9 0.397282 0.092196 0.215903
O O10 0.500000 0.000000 0.000000
O O11 0.075972 0.778074 0.635594
O O12 0.500000 0.000000 0.500000
#
# Coordination Sequence:
#
# PCOD9014909 Si02
#       5
#     2   2   2   2   2
#     4  10  22  44  71  96 133 174 219 278 333 394
#     4  10  21  41  70 100 126 172 228 271 328 404
#     4  11  26  43  67 100 138 177 220 277 337 392
#     4  10  23  44  68  97 136 175 222 277 335 394
#     4  11  27  44  67 100 136 177 229 273 331 400
#
# _framework density 23.673351
#
# number of rings (size 3 to 8) (size 9 to 14) (size 15 to 20)
#    0.000    1.600    2.000    0.600    8.400    3.200 
#    7.200    0.000    0.000    0.000    0.000    0.000 
#    0.000    0.000    0.000    0.000    0.000    0.000 
#
# Total GULP energy -55874.739924 kJ/mol
# GULP energy per Si atom -5587.473992 kJ/mol
# Density = 2.361947 g / cm^3
# Si number density = 23.673351 Si / 1000 Ang^3
#
#
#
# Elastic Constant Matrix: (Units=GPa)
#
#
# Indices 1 2 3 4 5 6 
#
# 1 256.0340 73.5202 59.8323 -55.1930 -26.9091 6.4177
# 2 73.5202 90.5150 57.6564 -26.7791 -19.0891 -1.1674
# 3 59.8323 57.6564 153.7262 -38.4294 -2.4183 12.2508
# 4 -55.1930 -26.7791 -38.4294 61.3398 15.2339 0.5492
# 5 -26.9091 -19.0891 -2.4183 15.2339 33.4910 -15.2776
# 6 6.4177 -1.1674 12.2508 0.5492 -15.2776 48.5223
#
#
#
# Elastic Compliance Matrix: (Units=1/GPa)
#
#
# Indices 1 2 3 4 5 6 
#
# 1 0.005753 -0.003497 0.000004 0.003470 0.000755 -0.000647
# 2 -0.003497 0.020575 -0.007119 -0.001714 0.012201 0.006616
# 3 0.000004 -0.007119 0.010984 0.005958 -0.008578 -0.005713
# 4 0.003470 -0.001714 0.005958 0.025478 -0.012137 -0.006114
# 5 0.000755 0.012201 -0.008578 -0.012137 0.050749 0.018475
# 6 -0.000647 0.006616 -0.005713 -0.006114 0.018475 0.028183
#
#
# Mechanical properties :
#
#
# Convention : Reuss Voigt Hill
#
# Bulk Modulus (GPa) = 62.17063 98.03259 80.10161
# Shear Modulus (GPa) = 29.70729 49.28838 39.49784
#
# Velocity S-wave (km/s) = 3.54628 4.56787 4.08910
# Velocity P-wave (km/s) = 6.56407 8.32592 7.49693
#
# Compressibility (1/GPa) = 0.01608477
#
# Stress axis : x y z
#
# Youngs Moduli (GPa) = 173.82855 48.60323 91.04487
#
# Poissons Ratio (x) = 0.16999 -0.00032
# Poissons Ratio (y) = 0.60795 0.64818
# Poissons Ratio (z) = -0.00062 0.34602
#
# Static dielectric constant tensor:
#      x y z
#    x 1.932400 0.072030 -0.024470 
#    y 0.072030 1.992360 0.129820 
#    z -0.024470 0.129820 2.011880 
# 
# From -- ./inp_files/57395.got.cif
#   From: 2010.05.17/outbox.cif.g08.bks.cpg/sg2_29_cif.got.tgz:57395.got - 2010.06.03 11:33:40.
