data_PCOD9014041
_publ_section_title
;
Structure prediction by ZEFSAII (Michael W. Deem and Ramdas Pophale) SiO2 
 PCOD9014041
Probable space group: P -1
;
_chemical_formula_sum "Si O2"
_cell_formula_units_Z 16
_cell_length_a 14.160476
_cell_length_b 16.761065
_cell_length_c 6.205988
_cell_angle_alpha 119.384147
_cell_angle_beta 120.659122
_cell_angle_gamma 32.078055
_cell_volume 667.347722
_symmetry_space_group_name_H-M "P -1"
_symmetry_group_IT_number 2
_symmetry_cell_setting 'triclinic'
loop_
_space_group_symop_operation_xyz
x,y,z
-x,-y,-z
loop_
_atom_site_type_symbol
_atom_site_label
_atom_site_fract_x
_atom_site_fract_y
_atom_site_fract_z
Si Si1 0.613590 0.660130 0.040597
Si Si2 0.874230 0.408332 0.705997
Si Si3 0.273764 0.853924 0.592348
Si Si4 0.365726 0.917572 0.402814
Si Si5 0.675772 0.448060 0.135122
Si Si6 0.733011 0.830815 0.145243
Si Si7 0.083585 0.799863 0.231024
Si Si8 0.394824 0.014580 0.212723
O O1 0.789600 0.542923 0.938024
O O2 0.444851 0.764853 0.819350
O O3 0.559557 0.763301 0.312845
O O4 0.633345 0.550335 0.038836
O O5 0.733306 0.465436 0.438905
O O6 0.921970 0.285895 0.738907
O O7 0.068405 0.314426 0.721933
O O8 0.299749 0.874238 0.404173
O O9 0.238945 0.768913 0.443297
O O10 0.098641 0.021630 0.707357
O O11 0.278928 0.018181 0.216112
O O12 0.334173 0.022490 0.667993
O O13 0.500000 0.500000 0.000000
O O14 0.851412 0.274168 0.028104
O O15 0.574629 0.867993 0.088546
O O16 0.726960 0.843022 0.896008
O O17 0.500000 0.000000 0.500000
#
# Coordination Sequence:
#
# PCOD9014041 Si02
#       8
#     2   2   2   2   2   2   2   2
#     4  11  24  37  61  88 131 167 210 258 319 372
#     4  11  23  41  63  93 127 171 212 264 312 378
#     4  11  22  39  58  92 128 167 214 269 312 368
#     4  11  21  37  64  92 124 166 202 260 313 379
#     4  11  23  41  61  88 127 180 218 258 312 373
#     4  10  21  41  66  95 125 161 210 263 317 382
#     4  10  23  37  60  90 123 169 219 265 309 372
#     4   9  21  39  68  97 123 158 208 260 325 382
#
# _framework density 23.975505999999999
#
# number of rings (size 3 to 8) (size 9 to 14) (size 15 to 20)
#    0.000    1.500    1.250    3.750    1.750    5.000 
#    0.000    3.750    0.000    9.750    0.000    0.000 
#    0.000    0.000    0.000    0.000    0.000    0.000 
#
# Total GULP energy -89185.299071 kJ/mol
# GULP energy per Si atom -5574.081192 kJ/mol
# Density = 2.392094 g / cm^3
# Si number density = 23.975506 Si / 1000 Ang^3
#
#
#
# Elastic Constant Matrix: (Units=GPa)
#
#
# Indices 1 2 3 4 5 6 
#
# 1 74.5058 16.0337 21.1609 -7.1565 0.7844 -20.5968
# 2 16.0337 99.7449 25.9486 24.9262 3.2062 -25.2796
# 3 21.1609 25.9486 93.8356 11.9608 0.0502 -17.5136
# 4 -7.1565 24.9262 11.9608 45.3505 -1.2727 3.2115
# 5 0.7844 3.2062 0.0502 -1.2727 32.3827 2.2455
# 6 -20.5968 -25.2796 -17.5136 3.2115 2.2455 32.0079
#
#
#
# Elastic Compliance Matrix: (Units=1/GPa)
#
#
# Indices 1 2 3 4 5 6 
#
# 1 0.016985 -0.000552 -0.002383 0.002954 -0.000858 0.008954
# 2 -0.000552 0.016198 -0.000617 -0.009850 -0.002898 0.013292
# 3 -0.002383 -0.000617 0.012867 -0.003827 -0.000428 0.005434
# 4 0.002954 -0.009850 -0.003827 0.029811 0.002855 -0.011164
# 5 -0.000858 -0.002898 -0.000428 0.002855 0.031689 -0.005585
# 6 0.008954 0.013292 0.005434 -0.011164 -0.005585 0.051988
#
#
# Mechanical properties :
#
#
# Convention : Reuss Voigt Hill
#
# Bulk Modulus (GPa) = 25.67499 43.81917 34.74708
# Shear Modulus (GPa) = 27.83604 35.61110 31.72357
#
# Velocity S-wave (km/s) = 3.41107 3.85816 3.64148
# Velocity P-wave (km/s) = 5.12308 6.17766 5.67492
#
# Compressibility (1/GPa) = 0.03894841
#
# Stress axis : x y z
#
# Youngs Moduli (GPa) = 58.87431 61.73490 77.71724
#
# Poissons Ratio (x) = 0.03406 0.18517
# Poissons Ratio (y) = 0.03248 0.04795
# Poissons Ratio (z) = 0.14027 0.03809
#
# Static dielectric constant tensor:
#      x y z
#    x 1.995110 0.016940 -0.025530 
#    y 0.016940 1.973220 0.053390 
#    z -0.025530 0.053390 1.953810 
# 
# From -- ./inp_files/99921.got.cif
#   From: 2010.05.17/outbox.cif.g08.bks.cpg/sg2_50_cif.got.tgz:99921.got - 2010.06.03 11:33:40.
