data_PCOD9014659
_publ_section_title
;
Structure prediction by ZEFSAII (Michael W. Deem and Ramdas Pophale) SiO2 
 PCOD9014659
Probable space group: P -1
;
_chemical_formula_sum "Si O2"
_cell_formula_units_Z 12
_cell_length_a 9.094693
_cell_length_b 8.975684
_cell_length_c 9.945133
_cell_angle_alpha 116.562385
_cell_angle_beta 79.658888
_cell_angle_gamma 113.101117
_cell_volume 667.906934
_symmetry_space_group_name_H-M "P -1"
_symmetry_group_IT_number 2
_symmetry_cell_setting 'triclinic'
loop_
_space_group_symop_operation_xyz
x,y,z
-x,-y,-z
loop_
_atom_site_type_symbol
_atom_site_label
_atom_site_fract_x
_atom_site_fract_y
_atom_site_fract_z
Si Si1 0.611446 0.502391 0.856358
Si Si2 0.181333 0.718508 0.167718
Si Si3 0.133631 0.599016 0.825848
Si Si4 0.860798 0.927345 0.602901
Si Si5 0.381073 0.435702 0.615965
Si Si6 0.929062 0.822008 0.848532
O O1 0.699567 0.363395 0.815021
O O2 0.490692 0.445480 0.730004
O O3 0.754864 0.691320 0.878783
O O4 0.500000 0.500000 0.000000
O O5 0.002490 0.589234 0.186425
O O6 0.205549 0.916488 0.287662
O O7 0.193692 0.700342 0.997680
O O8 0.273251 0.556174 0.710297
O O9 0.046874 0.710409 0.802013
O O10 0.733774 0.759523 0.484451
O O11 0.914649 0.870580 0.714821
O O12 0.000000 0.000000 0.500000
O O13 0.500000 0.500000 0.500000
O O14 0.000000 0.000000 0.000000
#
# Coordination Sequence:
#
# PCOD9014659 Si02
#       6
#     2   2   2   2   2   2
#     4  11  24  43  69  95 133 175 216 266 332 388
#     4  10  21  41  68  97 123 177 222 260 318 401
#     4  10  21  41  70  91 130 175 220 258 326 396
#     4  12  25  42  67  99 136 166 220 276 323 382
#     4  12  25  44  63  99 138 169 209 279 333 374
#     4  11  24  43  69  98 127 175 227 261 317 402
#
# _framework density 17.966574999999999
#
# number of rings (size 3 to 8) (size 9 to 14) (size 15 to 20)
#    0.000    1.000    6.667    0.000    2.333    2.667 
#    3.000    2.500    0.000    0.000    0.000    0.000 
#    0.000    0.000    0.000    0.000    0.000    0.000 
#
# Total GULP energy -67016.644313 kJ/mol
# GULP energy per Si atom -5584.720359 kJ/mol
# Density = 1.792568 g / cm^3
# Si number density = 17.966575 Si / 1000 Ang^3
#
#
#
# Elastic Constant Matrix: (Units=GPa)
#
#
# Indices 1 2 3 4 5 6 
#
# 1 139.2409 75.0463 97.4477 -2.6889 -1.5349 3.7823
# 2 75.0463 127.6657 87.6092 -0.8403 2.1522 4.7923
# 3 97.4477 87.6092 166.2204 -5.0290 3.2899 4.8832
# 4 -2.6889 -0.8403 -5.0290 43.4636 1.3225 0.4543
# 5 -1.5349 2.1522 3.2899 1.3225 47.5057 -1.4506
# 6 3.7823 4.7923 4.8832 0.4543 -1.4506 32.8306
#
#
#
# Elastic Compliance Matrix: (Units=1/GPa)
#
#
# Indices 1 2 3 4 5 6 
#
# 1 0.013341 -0.003882 -0.005792 0.000050 0.001005 -0.000065
# 2 -0.003882 0.013435 -0.004789 -0.000513 -0.000413 -0.000813
# 3 -0.005792 -0.004789 0.011995 0.000968 -0.000842 -0.000469
# 4 0.000050 -0.000513 0.000968 0.023139 -0.000699 -0.000426
# 5 0.001005 -0.000413 -0.000842 -0.000699 0.021210 0.001017
# 6 -0.000065 -0.000813 -0.000469 -0.000426 0.001017 0.030706
#
#
# Mechanical properties :
#
#
# Convention : Reuss Voigt Hill
#
# Bulk Modulus (GPa) = 101.55889 105.92594 103.74241
# Shear Modulus (GPa) = 34.23847 36.29489 35.26668
#
# Velocity S-wave (km/s) = 4.37014 4.49947 4.43527
# Velocity P-wave (km/s) = 9.06165 9.27787 9.17039
#
# Compressibility (1/GPa) = 0.00984650
#
# Stress axis : x y z
#
# Youngs Moduli (GPa) = 74.95525 74.42998 83.36574
#
# Poissons Ratio (x) = 0.28895 0.48283
# Poissons Ratio (y) = 0.29099 0.39923
# Poissons Ratio (z) = 0.43412 0.35644
#
# Static dielectric constant tensor:
#      x y z
#    x 1.587680 -0.003870 -0.004180 
#    y -0.003870 1.585080 0.000890 
#    z -0.004180 0.000890 1.582360 
# 
# From -- ./inp_files/144375.got.cif
#   From: 2010.05.17/outbox.cif.g08.bks.cpg/sg2_73_cif.got.tgz:144375.got - 2010.06.03 11:33:40.
