data_PCOD9014677
_publ_section_title
;
Structure prediction by ZEFSAII (Michael W. Deem and Ramdas Pophale) SiO2 
 PCOD9014677
Probable space group: P -1
;
_chemical_formula_sum "Si O2"
_cell_formula_units_Z 14
_cell_length_a 8.605912
_cell_length_b 12.780592
_cell_length_c 27.969916
_cell_angle_alpha 19.197249
_cell_angle_beta 37.567472
_cell_angle_gamma 38.759562
_cell_volume 609.229149
_symmetry_space_group_name_H-M "P -1"
_symmetry_group_IT_number 2
_symmetry_cell_setting 'triclinic'
loop_
_space_group_symop_operation_xyz
x,y,z
-x,-y,-z
loop_
_atom_site_type_symbol
_atom_site_label
_atom_site_fract_x
_atom_site_fract_y
_atom_site_fract_z
Si Si1 0.818924 0.271770 0.186258
Si Si2 0.936238 0.271088 0.795590
Si Si3 0.443281 0.124972 0.512723
Si Si4 0.497914 0.910704 0.963106
Si Si5 0.871300 0.573029 0.218802
Si Si6 0.811987 0.449310 0.947372
Si Si7 0.919418 0.348508 0.665168
O O1 0.699781 0.582547 0.049922
O O2 0.039950 0.358884 0.131669
O O3 0.589571 0.167479 0.319079
O O4 0.902721 0.954920 0.270431
O O5 0.664511 0.155972 0.922599
O O6 0.988008 0.456663 0.654677
O O7 0.984425 0.437841 0.761560
O O8 0.116929 0.927301 0.895131
O O9 0.665156 0.332228 0.380512
O O10 0.166993 0.358622 0.475646
O O11 0.500000 0.000000 0.500000
O O12 0.289532 0.064398 0.907755
O O13 0.661330 0.197368 0.804322
O O14 0.051125 0.495600 0.161227
O O15 0.500000 0.500000 0.000000
#
# Coordination Sequence:
#
# PCOD9014677 Si02
#       7
#     2   2   2   2   2   2   2
#     4  12  24  41  70 102 133 172 220 276 330 388
#     4  11  23  40  66  98 134 172 219 273 326 386
#     4  11  23  46  69  93 128 183 229 260 321 401
#     4  10  21  41  68  98 127 174 227 270 315 386
#     4  10  24  43  70  96 133 177 220 272 325 390
#     4  11  24  38  66 105 135 168 215 279 339 380
#     4  11  24  39  65 100 134 169 221 271 327 390
#
# _framework density 22.979859999999999
#
# number of rings (size 3 to 8) (size 9 to 14) (size 15 to 20)
#    0.000    1.143    2.857    3.857    8.000    0.000 
#    0.000    3.571    0.000    0.000    0.000    0.000 
#    0.000    0.000    0.000    0.000    0.000    0.000 
#
# Total GULP energy -78140.811773 kJ/mol
# GULP energy per Si atom -5581.486555 kJ/mol
# Density = 2.292756 g / cm^3
# Si number density = 22.979860 Si / 1000 Ang^3
#
#
#
# Elastic Constant Matrix: (Units=GPa)
#
#
# Indices 1 2 3 4 5 6 
#
# 1 103.9682 47.8917 33.6981 11.9463 -5.9867 16.2623
# 2 47.8917 91.3798 2.8113 1.4569 4.5687 -1.5225
# 3 33.6981 2.8113 88.5384 8.6497 6.4816 -1.4992
# 4 11.9463 1.4569 8.6497 35.9422 -3.2215 10.8004
# 5 -5.9867 4.5687 6.4816 -3.2215 26.7727 -0.8733
# 6 16.2623 -1.5225 -1.4992 10.8004 -0.8733 42.0479
#
#
#
# Elastic Compliance Matrix: (Units=1/GPa)
#
#
# Indices 1 2 3 4 5 6 
#
# 1 0.018021 -0.009679 -0.007078 -0.001119 0.007027 -0.007139
# 2 -0.009679 0.016264 0.003675 -0.000155 -0.005705 0.004385
# 3 -0.007078 0.003675 0.014682 -0.003089 -0.006003 0.004062
# 4 -0.001119 -0.000155 -0.003089 0.031630 0.004078 -0.007723
# 5 0.007027 -0.005705 -0.006003 0.004078 0.041732 -0.003319
# 6 -0.007139 0.004385 0.004062 -0.007723 -0.003319 0.028762
#
#
# Mechanical properties :
#
#
# Convention : Reuss Voigt Hill
#
# Bulk Modulus (GPa) = 43.85573 50.29873 47.07723
# Shear Modulus (GPa) = 27.04810 34.25156 30.64983
#
# Velocity S-wave (km/s) = 3.43452 3.86489 3.65604
# Velocity P-wave (km/s) = 5.90370 6.46933 6.19298
#
# Compressibility (1/GPa) = 0.02280204
#
# Stress axis : x y z
#
# Youngs Moduli (GPa) = 55.49120 61.48555 68.11259
#
# Poissons Ratio (x) = 0.59514 0.48207
# Poissons Ratio (y) = 0.53712 -0.25029
# Poissons Ratio (z) = 0.39274 -0.22594
#
# Static dielectric constant tensor:
#      x y z
#    x 2.113880 -0.075320 -0.052530 
#    y -0.075320 1.929110 -0.012930 
#    z -0.052530 -0.012930 1.856120 
# 
# From -- ./inp_files/183283.got.cif
#   From: 2010.05.17/outbox.cif.g08.bks.cpg/sg2_92_cif.got.tgz:183283.got - 2010.06.03 11:33:40.
