data_PCOD9014747
_publ_section_title
;
Structure prediction by ZEFSAII (Michael W. Deem and Ramdas Pophale) SiO2 
 PCOD9014747
Probable space group: P -1
;
_chemical_formula_sum "Si O2"
_cell_formula_units_Z 16
_cell_length_a 12.967550
_cell_length_b 10.398561
_cell_length_c 9.887442
_cell_angle_alpha 122.034030
_cell_angle_beta 72.057376
_cell_angle_gamma 143.414648
_cell_volume 655.070722
_symmetry_space_group_name_H-M "P -1"
_symmetry_group_IT_number 2
_symmetry_cell_setting 'triclinic'
loop_
_space_group_symop_operation_xyz
x,y,z
-x,-y,-z
loop_
_atom_site_type_symbol
_atom_site_label
_atom_site_fract_x
_atom_site_fract_y
_atom_site_fract_z
Si Si1 0.021402 0.202939 0.103000
Si Si2 0.980730 0.551448 0.184094
Si Si3 0.527167 0.424227 0.575026
Si Si4 0.914988 0.784671 0.210010
Si Si5 0.292405 0.922902 0.789940
Si Si6 0.216805 0.860844 0.487586
Si Si7 0.479722 0.577574 0.915577
Si Si8 0.129641 0.334381 0.409249
O O1 0.161883 0.394687 0.269019
O O2 0.055919 0.273416 0.974096
O O3 0.840618 0.079506 0.155308
O O4 0.000000 0.000000 0.000000
O O5 0.960640 0.711543 0.263686
O O6 0.152620 0.699726 0.290321
O O7 0.805160 0.297993 0.191460
O O8 0.000000 0.500000 0.000000
O O9 0.500000 0.500000 0.500000
O O10 0.588647 0.606775 0.772880
O O11 0.675354 0.464344 0.497637
O O12 0.356299 0.142707 0.540454
O O13 0.715142 0.624676 0.185287
O O14 0.040330 0.070677 0.326100
O O15 0.293262 0.875713 0.605265
O O16 0.465245 0.191298 0.934329
O O17 0.022546 0.714983 0.521426
O O18 0.500000 0.500000 0.000000
#
# Coordination Sequence:
#
# PCOD9014747 Si02
#       8
#     2   2   2   2   2   2   2   2
#     4   9  17  34  64  97 124 173 221 276 336 394
#     4  12  27  45  68  96 140 195 229 280 345 422
#     4  12  25  38  68 111 141 169 219 299 361 399
#     4  11  21  39  68 102 144 178 227 282 350 407
#     4  11  23  44  68  95 139 186 230 279 339 420
#     4  11  25  47  71 100 136 185 238 279 351 411
#     4  12  22  42  72 107 140 174 230 288 352 414
#     4  10  21  41  69 102 139 172 226 293 349 401
#
# _framework density 24.424844
#
# number of rings (size 3 to 8) (size 9 to 14) (size 15 to 20)
#    0.000    1.000    3.750    4.875    3.500    1.500 
#    0.000    1.250    0.000    3.000    0.000    0.000 
#    0.000    0.000    0.000    0.000    0.000    0.000 
#
# Total GULP energy -89391.362807 kJ/mol
# GULP energy per Si atom -5586.960175 kJ/mol
# Density = 2.436925 g / cm^3
# Si number density = 24.424844 Si / 1000 Ang^3
#
#
#
# Elastic Constant Matrix: (Units=GPa)
#
#
# Indices 1 2 3 4 5 6 
#
# 1 53.6359 3.6107 4.9301 -5.1550 11.3534 -7.4748
# 2 3.6107 91.8665 34.1645 2.3411 11.0084 -15.7355
# 3 4.9301 34.1645 125.3794 -10.8687 -1.4444 -13.7100
# 4 -5.1550 2.3411 -10.8687 34.3716 -9.9181 7.7698
# 5 11.3534 11.0084 -1.4444 -9.9181 32.0874 -4.5133
# 6 -7.4748 -15.7355 -13.7100 7.7698 -4.5133 51.9524
#
#
#
# Elastic Compliance Matrix: (Units=1/GPa)
#
#
# Indices 1 2 3 4 5 6 
#
# 1 0.020529 0.000753 -0.000827 0.000171 -0.007181 0.002314
# 2 0.000753 0.013719 -0.003862 -0.004566 -0.006080 0.003399
# 3 -0.000827 -0.003862 0.009542 0.003923 0.003392 0.000937
# 4 0.000171 -0.004566 0.003923 0.035133 0.011903 -0.004543
# 5 -0.007181 -0.006080 0.003392 0.011903 0.039578 -0.000322
# 6 0.002314 0.003399 0.000937 -0.004543 -0.000322 0.021510
#
#
# Mechanical properties :
#
#
# Convention : Reuss Voigt Hill
#
# Bulk Modulus (GPa) = 27.84129 39.58804 33.71466
# Shear Modulus (GPa) = 31.27824 38.89404 35.08614
#
# Velocity S-wave (km/s) = 3.58242 3.99481 3.79422
# Velocity P-wave (km/s) = 5.34183 6.12547 5.74702
#
# Compressibility (1/GPa) = 0.03591788
#
# Stress axis : x y z
#
# Youngs Moduli (GPa) = 48.71274 72.89054 104.79583
#
# Poissons Ratio (x) = -0.05492 0.08671
# Poissons Ratio (y) = -0.03670 0.40473
# Poissons Ratio (z) = 0.04030 0.28151
#
# Static dielectric constant tensor:
#      x y z
#    x 2.095500 0.011200 -0.079160 
#    y 0.011200 1.952000 -0.014870 
#    z -0.079160 -0.014870 2.084350 
# 
# From -- ./inp_files/308028.got.cif
#   From: 2010.05.17/outbox.cif.g08.bks.cpg/sg2_155_cif.got.tgz:308028.got - 2010.06.03 11:33:40.
