data_PCOD9014858
_publ_section_title
;
Structure prediction by ZEFSAII (Michael W. Deem and Ramdas Pophale) SiO2 
 PCOD9014858
Probable space group: P -1
;
_chemical_formula_sum "Si O2"
_cell_formula_units_Z 16
_cell_length_a 18.383701
_cell_length_b 8.498678
_cell_length_c 11.782915
_cell_angle_alpha 142.108815
_cell_angle_beta 43.198101
_cell_angle_gamma 138.704978
_cell_volume 702.844144
_symmetry_space_group_name_H-M "P -1"
_symmetry_group_IT_number 2
_symmetry_cell_setting 'triclinic'
loop_
_space_group_symop_operation_xyz
x,y,z
-x,-y,-z
loop_
_atom_site_type_symbol
_atom_site_label
_atom_site_fract_x
_atom_site_fract_y
_atom_site_fract_z
Si Si1 0.089787 0.859793 0.854154
Si Si2 0.861679 0.346972 0.543462
Si Si3 0.401990 0.941716 0.483669
Si Si4 0.387295 0.892072 0.222690
Si Si5 0.952735 0.724131 0.318293
Si Si6 0.721953 0.648076 0.622225
Si Si7 0.842780 0.927956 0.861873
Si Si8 0.525746 0.423641 0.234284
O O1 0.148868 0.855071 0.664743
O O2 0.034843 0.532365 0.774690
O O3 0.173216 0.011853 0.953770
O O4 0.000000 0.000000 0.000000
O O5 0.844913 0.626160 0.692265
O O6 0.000000 0.500000 0.500000
O O7 0.751209 0.174030 0.652737
O O8 0.422331 0.838480 0.278345
O O9 0.402259 0.246419 0.636928
O O10 0.500000 0.000000 0.500000
O O11 0.298443 0.663589 0.490374
O O12 0.479788 0.208349 0.268370
O O13 0.405180 0.690707 0.994949
O O14 0.819383 0.688541 0.438207
O O15 0.000000 0.000000 0.500000
O O16 0.032801 0.821886 0.171929
O O17 0.762913 0.876385 0.809764
O O18 0.598493 0.624976 0.707780
#
# Coordination Sequence:
#
# PCOD9014858 Si02
#       8
#     2   2   2   2   2   2   2   2
#     4  12  24  41  67 101 137 190 238 277 354 419
#     4  12  25  44  70 103 143 183 226 294 357 421
#     4  10  21  43  69  98 134 180 234 285 344 411
#     4  11  24  47  69 102 141 178 233 295 353 412
#     4  10  21  41  69  96 146 182 226 291 347 417
#     4  10  21  43  69 101 134 186 228 289 355 410
#     4  11  23  43  67  98 145 183 231 291 341 431
#     4  10  25  44  72  99 135 184 236 289 351 418
#
# _framework density 22.76465
#
# number of rings (size 3 to 8) (size 9 to 14) (size 15 to 20)
#    0.000    1.250    5.000    0.750    1.750    4.000 
#    6.750    0.000    5.500    0.000    0.000    0.000 
#    0.000    0.000    0.000    0.000    0.000    0.000 
#
# Total GULP energy -89071.873238 kJ/mol
# GULP energy per Si atom -5566.992077 kJ/mol
# Density = 2.271284 g / cm^3
# Si number density = 22.764650 Si / 1000 Ang^3
#
#
#
# Elastic Constant Matrix: (Units=GPa)
#
#
# Indices 1 2 3 4 5 6 
#
# 1 61.2999 0.4621 13.1873 -9.7193 6.3244 18.8497
# 2 0.4621 111.3753 38.4106 -7.5272 -2.5702 9.1537
# 3 13.1873 38.4106 99.4457 -14.0560 -1.1460 5.3084
# 4 -9.7193 -7.5272 -14.0560 44.3778 -3.6962 -3.4434
# 5 6.3244 -2.5702 -1.1460 -3.6962 29.1063 7.7322
# 6 18.8497 9.1537 5.3084 -3.4434 7.7322 34.6973
#
#
#
# Elastic Compliance Matrix: (Units=1/GPa)
#
#
# Indices 1 2 3 4 5 6 
#
# 1 0.020775 0.001835 -0.002455 0.003146 -0.001175 -0.010821
# 2 0.001835 0.010748 -0.004084 0.000781 0.001403 -0.003443
# 3 -0.002455 -0.004084 0.012331 0.002793 0.000850 0.000612
# 4 0.003146 0.000781 0.002793 0.024427 0.002738 -0.000529
# 5 -0.001175 0.001403 0.000850 0.002738 0.037211 -0.007883
# 6 -0.010821 -0.003443 0.000612 -0.000529 -0.007883 0.037218
#
#
# Mechanical properties :
#
#
# Convention : Reuss Voigt Hill
#
# Bulk Modulus (GPa) = 29.03137 41.80456 35.41796
# Shear Modulus (GPa) = 30.56238 36.30701 33.43470
#
# Velocity S-wave (km/s) = 3.66804 3.99793 3.83653
# Velocity P-wave (km/s) = 5.54255 6.30198 5.93443
#
# Compressibility (1/GPa) = 0.03444550
#
# Stress axis : x y z
#
# Youngs Moduli (GPa) = 48.13480 93.04275 81.09777
#
# Poissons Ratio (x) = -0.17077 0.19910
# Poissons Ratio (y) = -0.08835 0.33123
# Poissons Ratio (z) = 0.11817 0.38002
#
# Static dielectric constant tensor:
#      x y z
#    x 1.945840 0.021920 -0.013310 
#    y 0.021920 1.861250 -0.010650 
#    z -0.013310 -0.010650 1.867520 
# 
# From -- ./inp_files/469648.got.cif
#   From: 2010.05.17/outbox.cif.g08.bks.cpg/sg2_235_cif.got.tgz:469648.got - 2010.06.03 11:33:40.
