data_PCOD9014691
_publ_section_title
;
Structure prediction by ZEFSAII (Michael W. Deem and Ramdas Pophale) SiO2 
 PCOD9014691
Probable space group: P -1
;
_chemical_formula_sum "Si O2"
_cell_formula_units_Z 16
_cell_length_a 14.876395
_cell_length_b 13.056867
_cell_length_c 8.472902
_cell_angle_alpha 69.988446
_cell_angle_beta 54.383630
_cell_angle_gamma 113.574571
_cell_volume 779.604805
_symmetry_space_group_name_H-M "P -1"
_symmetry_group_IT_number 2
_symmetry_cell_setting 'triclinic'
loop_
_space_group_symop_operation_xyz
x,y,z
-x,-y,-z
loop_
_atom_site_type_symbol
_atom_site_label
_atom_site_fract_x
_atom_site_fract_y
_atom_site_fract_z
Si Si1 0.181468 0.697457 0.277718
Si Si2 0.409770 0.288677 0.834767
Si Si3 0.284628 0.008779 0.871447
Si Si4 0.948490 0.834394 0.137923
Si Si5 0.229763 0.368123 0.895788
Si Si6 0.378664 0.715394 0.845179
Si Si7 0.393096 0.523592 0.146309
Si Si8 0.040147 0.449392 0.128713
O O1 0.000000 0.500000 0.500000
O O2 0.135549 0.678085 0.517277
O O3 0.349138 0.756014 0.018574
O O4 0.224174 0.848020 0.087716
O O5 0.309366 0.114580 0.934429
O O6 0.285918 0.301939 0.968976
O O7 0.579023 0.441987 0.465059
O O8 0.498601 0.338180 0.889991
O O9 0.457383 0.137963 0.514789
O O10 0.129225 0.918471 0.958107
O O11 0.877358 0.757217 0.078491
O O12 0.795943 0.667166 0.496345
O O13 0.000000 0.000000 0.000000
O O14 0.109172 0.377790 0.069469
O O15 0.374639 0.588002 0.979764
O O16 0.210113 0.622577 0.962630
O O17 0.500000 0.500000 0.000000
O O18 0.000000 0.500000 0.000000
#
# Coordination Sequence:
#
# PCOD9014691 Si02
#       8
#     2   2   2   2   2   2   2   2
#     4  10  25  45  66  96 134 180 228 282 346 416
#     4  10  22  41  72 101 136 183 225 288 344 410
#     4  12  23  45  70 102 137 181 235 292 345 412
#     4  11  22  38  67 104 139 180 226 284 346 420
#     4  10  21  41  68  98 141 178 229 274 352 413
#     4  11  24  45  70  97 137 181 237 283 350 410
#     4  11  24  43  72 101 141 186 231 285 356 418
#     4  11  24  43  73  99 134 184 234 281 348 415
#
# _framework density 20.523219000000001
#
# number of rings (size 3 to 8) (size 9 to 14) (size 15 to 20)
#    0.000    1.250    2.500    3.375    8.750    0.000 
#    4.500    2.500    0.000    0.000    0.000    0.000 
#    0.000    0.000    0.000    0.000    0.000    0.000 
#
# Total GULP energy -89149.895831 kJ/mol
# GULP energy per Si atom -5571.868489 kJ/mol
# Density = 2.047651 g / cm^3
# Si number density = 20.523219 Si / 1000 Ang^3
#
#
#
# Elastic Constant Matrix: (Units=GPa)
#
#
# Indices 1 2 3 4 5 6 
#
# 1 138.1440 25.4334 59.2045 -3.7702 15.5270 -10.3625
# 2 25.4334 84.2524 41.1465 -7.2619 3.9884 -21.3664
# 3 59.2045 41.1465 97.9411 10.3774 13.4115 6.2800
# 4 -3.7702 -7.2619 10.3774 35.4091 -0.6750 -8.8911
# 5 15.5270 3.9884 13.4115 -0.6750 35.3349 -4.1418
# 6 -10.3625 -21.3664 6.2800 -8.8911 -4.1418 29.0465
#
#
#
# Elastic Compliance Matrix: (Units=1/GPa)
#
#
# Indices 1 2 3 4 5 6 
#
# 1 0.013173 0.008063 -0.013770 0.011429 0.000764 0.017215
# 2 0.008063 0.035827 -0.026837 0.027435 0.008354 0.044622
# 3 -0.013770 -0.026837 0.037070 -0.028834 -0.010582 -0.043004
# 4 0.011429 0.027435 -0.028834 0.056027 0.009641 0.049017
# 5 0.000764 0.008354 -0.010582 0.009641 0.033143 0.016382
# 6 0.017215 0.044622 -0.043004 0.049017 0.016382 0.100031
#
#
# Mechanical properties :
#
#
# Convention : Reuss Voigt Hill
#
# Bulk Modulus (GPa) = 47.66033 63.54515 55.60274
# Shear Modulus (GPa) = 14.39456 32.92831 23.66143
#
# Velocity S-wave (km/s) = 2.65123 4.00989 3.39914
# Velocity P-wave (km/s) = 5.71359 7.24353 6.52357
#
# Compressibility (1/GPa) = 0.02098181
#
# Stress axis : x y z
#
# Youngs Moduli (GPa) = 75.91247 27.91171 26.97587
#
# Poissons Ratio (x) = -0.22504 0.37145
# Poissons Ratio (y) = -0.61206 0.72396
# Poissons Ratio (z) = 1.04529 0.74908
#
# Static dielectric constant tensor:
#      x y z
#    x 1.708300 -0.006040 -0.045400 
#    y -0.006040 1.806750 0.069500 
#    z -0.045400 0.069500 1.703800 
# 
# From -- ./inp_files/299446.got.cif
#   From: 2010.05.17/outbox.cif.g08.bks.cpg/sg2_150_cif.got.tgz:299446.got - 2010.06.03 11:33:40.
