data_PCOD9014223
_publ_section_title
;
Structure prediction by ZEFSAII (Michael W. Deem and Ramdas Pophale) SiO2 
 PCOD9014223
Probable space group: P -1
;
_chemical_formula_sum "Si O2"
_cell_formula_units_Z 14
_cell_length_a 8.451062
_cell_length_b 16.936017
_cell_length_c 24.169536
_cell_angle_alpha 20.697366
_cell_angle_beta 34.268142
_cell_angle_gamma 31.902732
_cell_volume 636.428565
_symmetry_space_group_name_H-M "P -1"
_symmetry_group_IT_number 2
_symmetry_cell_setting 'triclinic'
loop_
_space_group_symop_operation_xyz
x,y,z
-x,-y,-z
loop_
_atom_site_type_symbol
_atom_site_label
_atom_site_fract_x
_atom_site_fract_y
_atom_site_fract_z
Si Si1 0.907316 0.736394 0.834179
Si Si2 0.046651 0.288144 0.778113
Si Si3 0.243602 0.256680 0.924010
Si Si4 0.251935 0.762656 0.608596
Si Si5 0.067487 0.342497 0.528086
Si Si6 0.763681 0.205697 0.015426
Si Si7 0.713862 0.031955 0.798996
O O1 0.571018 0.771584 0.886137
O O2 0.134846 0.739073 0.719059
O O3 0.856058 0.956414 0.747141
O O4 0.000000 0.500000 0.000000
O O5 0.359338 0.189866 0.787362
O O6 0.032115 0.496003 0.604269
O O7 0.056247 0.068466 0.879133
O O8 0.779102 0.350162 0.860048
O O9 0.296188 0.503650 0.737441
O O10 0.940364 0.274778 0.967780
O O11 0.500000 0.000000 0.000000
O O12 0.236731 0.208776 0.022715
O O13 0.571760 0.790745 0.494129
O O14 0.000000 0.000000 0.500000
O O15 0.000000 0.500000 0.500000
O O16 0.883078 0.170059 0.693812
#
# Coordination Sequence:
#
# PCOD9014223 Si02
#       7
#     2   2   2   2   2   2   2
#     4  11  24  47  69  98 144 193 241 294 358 442
#     4  10  21  41  67 109 140 180 244 302 353 423
#     4  12  23  46  74 108 138 190 249 298 350 433
#     4  12  30  47  70 108 155 186 239 304 367 426
#     4  12  27  45  71 105 148 191 239 304 364 427
#     4  10  22  37  73 100 138 185 241 292 356 421
#     4  11  24  41  75 101 138 192 246 294 360 431
#
# _framework density 21.997755999999999
#
# number of rings (size 3 to 8) (size 9 to 14) (size 15 to 20)
#    0.000    0.857    2.857    3.857    8.000    3.429 
#    0.000    0.000    0.000    0.000    0.000    0.000 
#    0.000    0.000    0.000    0.000    0.000    0.000 
#
# Total GULP energy -78280.812245 kJ/mol
# GULP energy per Si atom -5591.486589 kJ/mol
# Density = 2.194769 g / cm^3
# Si number density = 21.997756 Si / 1000 Ang^3
#
#
#
# Elastic Constant Matrix: (Units=GPa)
#
#
# Indices 1 2 3 4 5 6 
#
# 1 103.2272 31.0204 21.6407 -0.9188 -13.8239 -15.9839
# 2 31.0204 84.4497 21.6786 16.1384 -3.7536 -0.4535
# 3 21.6407 21.6786 93.4430 -9.5352 6.9513 -12.1746
# 4 -0.9188 16.1384 -9.5352 40.2183 1.1992 4.9855
# 5 -13.8239 -3.7536 6.9513 1.1992 46.8143 0.5544
# 6 -15.9839 -0.4535 -12.1746 4.9855 0.5544 29.8785
#
#
#
# Elastic Compliance Matrix: (Units=1/GPa)
#
#
# Indices 1 2 3 4 5 6 
#
# 1 0.012651 -0.004279 -0.001336 0.000847 0.003499 0.005952
# 2 -0.004279 0.015739 -0.003749 -0.007025 0.000764 -0.002420
# 3 -0.001336 -0.003749 0.013019 0.004161 -0.002781 0.003891
# 4 0.000847 -0.007025 0.004161 0.029083 -0.001643 -0.002780
# 5 0.003499 0.000764 -0.002781 -0.001643 0.022903 0.000599
# 6 0.005952 -0.002420 0.003891 -0.002780 0.000599 0.038655
#
#
# Mechanical properties :
#
#
# Convention : Reuss Voigt Hill
#
# Bulk Modulus (GPa) = 44.08782 47.75549 45.92165
# Shear Modulus (GPa) = 31.57811 37.16756 34.37283
#
# Velocity S-wave (km/s) = 3.79293 4.11494 3.95721
# Velocity P-wave (km/s) = 6.26636 6.65833 6.46532
#
# Compressibility (1/GPa) = 0.02268200
#
# Stress axis : x y z
#
# Youngs Moduli (GPa) = 79.04624 63.53672 76.80890
#
# Poissons Ratio (x) = 0.27184 0.10258
# Poissons Ratio (y) = 0.33820 0.28799
# Poissons Ratio (z) = 0.10557 0.23823
#
# Static dielectric constant tensor:
#      x y z
#    x 1.800910 0.014050 -0.009740 
#    y 0.014050 1.825440 -0.040660 
#    z -0.009740 -0.040660 1.747620 
# 
# From -- ./inp_files/608420.got.cif
#   From: 2010.05.17/outbox.cif.g08.bks.cpg/sg2_305_cif.got.tgz:608420.got - 2010.06.03 11:33:40.
