data_PCOD9014013
_publ_section_title
;
Structure prediction by ZEFSAII (Michael W. Deem and Ramdas Pophale) SiO2 
 PCOD9014013
Probable space group: P -1
;
_chemical_formula_sum "Si O2"
_cell_formula_units_Z 16
_cell_length_a 11.368368
_cell_length_b 26.484116
_cell_length_c 6.868902
_cell_angle_alpha 68.549086
_cell_angle_beta 85.697137
_cell_angle_gamma 146.559657
_cell_volume 711.964744
_symmetry_space_group_name_H-M "P -1"
_symmetry_group_IT_number 2
_symmetry_cell_setting 'triclinic'
loop_
_space_group_symop_operation_xyz
x,y,z
-x,-y,-z
loop_
_atom_site_type_symbol
_atom_site_label
_atom_site_fract_x
_atom_site_fract_y
_atom_site_fract_z
Si Si1 0.366759 0.644330 0.694637
Si Si2 0.669237 0.290352 0.716837
Si Si3 0.229403 0.343503 0.831173
Si Si4 0.136718 0.862264 0.193085
Si Si5 0.968049 0.699018 0.694801
Si Si6 0.343962 0.535662 0.117166
Si Si7 0.634705 0.927810 0.199418
Si Si8 0.665748 0.859197 0.633477
O O1 0.394355 0.678157 0.421657
O O2 0.588605 0.777660 0.610165
O O3 0.415216 0.604922 0.827084
O O4 0.000000 0.500000 0.000000
O O5 0.422138 0.142632 0.855199
O O6 0.021364 0.421191 0.422338
O O7 0.604316 0.259357 0.997904
O O8 0.500000 0.500000 0.500000
O O9 0.397228 0.364294 0.888813
O O10 0.993151 0.220341 0.871101
O O11 0.047044 0.301310 0.073257
O O12 0.943524 0.748934 0.543201
O O13 0.500000 0.000000 0.000000
O O14 0.121080 0.920550 0.100691
O O15 0.300859 0.815761 0.424356
O O16 0.726012 0.553951 0.832672
O O17 0.682726 0.919325 0.411089
O O18 0.000000 0.000000 0.500000
#
# Coordination Sequence:
#
# PCOD9014013 Si02
#       8
#     2   2   2   2   2   2   2   2
#     4   9  21  43  62  94 126 161 210 255 315 377
#     4   9  21  44  66  88 128 168 204 259 317 376
#     4  12  25  39  63  98 129 165 215 262 309 370
#     4  10  23  43  61  91 128 168 214 255 312 374
#     4  10  22  43  63  92 131 168 209 260 309 379
#     4  10  21  41  66  94 127 167 210 261 317 368
#     4   9  22  40  67  89 123 170 206 253 320 369
#     4  11  24  41  64  97 124 159 215 260 311 377
#
# _framework density 22.473023000000001
#
# number of rings (size 3 to 8) (size 9 to 14) (size 15 to 20)
#    0.000    2.000    1.250    1.125    3.500    7.000 
#    4.500    0.000    0.000    0.000    0.000    0.000 
#    0.000    0.000    0.000    0.000    0.000    0.000 
#
# Total GULP energy -89371.875395 kJ/mol
# GULP energy per Si atom -5585.742212 kJ/mol
# Density = 2.242187 g / cm^3
# Si number density = 22.473023 Si / 1000 Ang^3
#
#
#
# Elastic Constant Matrix: (Units=GPa)
#
#
# Indices 1 2 3 4 5 6 
#
# 1 87.6087 15.6565 40.2234 -0.8794 34.7017 14.3813
# 2 15.6565 116.3588 11.2159 -3.7769 11.0197 10.9851
# 3 40.2234 11.2159 94.5263 3.1194 29.3649 -6.0879
# 4 -0.8794 -3.7769 3.1194 35.1875 0.3128 2.3871
# 5 34.7017 11.0197 29.3649 0.3128 45.3413 3.4035
# 6 14.3813 10.9851 -6.0879 2.3871 3.4035 27.0377
#
#
#
# Elastic Compliance Matrix: (Units=1/GPa)
#
#
# Indices 1 2 3 4 5 6 
#
# 1 0.020286 -0.000030 -0.006041 0.001878 -0.010797 -0.010944
# 2 -0.000030 0.009228 -0.000973 0.001353 -0.001306 -0.003907
# 3 -0.006041 -0.000973 0.015685 -0.002141 -0.005889 0.008071
# 4 0.001878 0.001353 -0.002141 0.029113 -0.000237 -0.004571
# 5 -0.010797 -0.001306 -0.005889 -0.000237 0.034404 0.000638
# 6 -0.010944 -0.003907 0.008071 -0.004571 0.000638 0.046535
#
#
# Mechanical properties :
#
#
# Convention : Reuss Voigt Hill
#
# Bulk Modulus (GPa) = 32.14354 48.07617 40.10985
# Shear Modulus (GPa) = 27.82267 36.93982 32.38124
#
# Velocity S-wave (km/s) = 3.52241 4.05871 3.80003
# Velocity P-wave (km/s) = 5.55674 6.58813 6.09429
#
# Compressibility (1/GPa) = 0.03111045
#
# Stress axis : x y z
#
# Youngs Moduli (GPa) = 49.29614 108.36115 63.75454
#
# Poissons Ratio (x) = 0.00330 0.38515
# Poissons Ratio (y) = 0.00150 0.06201
# Poissons Ratio (z) = 0.29780 0.10540
#
# Static dielectric constant tensor:
#      x y z
#    x 1.873970 0.028570 0.140190 
#    y 0.028570 1.789710 0.065880 
#    z 0.140190 0.065880 2.287530 
# 
# From -- ./inp_files/85384.got.cif
#   From: 2010.05.17/outbox.cif.g08.bks.cpg/sg2_43_cif.got.tgz:85384.got - 2010.06.03 11:33:40.
