data_PCOD9014192
_publ_section_title
;
Structure prediction by ZEFSAII (Michael W. Deem and Ramdas Pophale) SiO2 
 PCOD9014192
Probable space group: P -1
;
_chemical_formula_sum "Si O2"
_cell_formula_units_Z 14
_cell_length_a 13.960716
_cell_length_b 8.730448
_cell_length_c 12.184485
_cell_angle_alpha 51.157762
_cell_angle_beta 30.911813
_cell_angle_gamma 63.639870
_cell_volume 577.556587
_symmetry_space_group_name_H-M "P -1"
_symmetry_group_IT_number 2
_symmetry_cell_setting 'triclinic'
loop_
_space_group_symop_operation_xyz
x,y,z
-x,-y,-z
loop_
_atom_site_type_symbol
_atom_site_label
_atom_site_fract_x
_atom_site_fract_y
_atom_site_fract_z
Si Si1 0.607972 0.145353 0.667376
Si Si2 0.369524 0.745381 0.960533
Si Si3 0.082702 0.090837 0.519583
Si Si4 0.796237 0.422932 0.177499
Si Si5 0.256312 0.388993 0.401501
Si Si6 0.935076 0.204751 0.944212
Si Si7 0.270591 0.220358 0.065037
O O1 0.646309 0.323582 0.461509
O O2 0.486970 0.945644 0.815598
O O3 0.807937 0.090174 0.521887
O O4 0.487862 0.198831 0.863119
O O5 0.529867 0.649378 0.783758
O O6 0.272233 0.585788 0.221753
O O7 0.217952 0.798287 0.001343
O O8 0.136176 0.199659 0.532595
O O9 0.179177 0.247127 0.260026
O O10 0.864043 0.986195 0.758730
O O11 0.830011 0.259463 0.130320
O O12 0.741364 0.601866 0.084506
O O13 0.000000 0.500000 0.000000
O O14 0.128997 0.372593 0.643501
O O15 0.000000 0.000000 0.000000
#
# Coordination Sequence:
#
# PCOD9014192 Si02
#       7
#     2   2   2   2   2   2   2
#     4  11  23  43  68  94 137 174 223 273 330 395
#     4  10  23  43  69 102 130 172 229 277 330 399
#     4  10  21  41  67 102 134 164 225 273 326 403
#     4  12  27  47  63  97 137 176 225 271 324 404
#     4  10  22  44  69  98 136 170 221 283 331 395
#     4  12  26  44  71  97 136 181 221 274 339 392
#     4  11  23  41  68  95 134 180 211 273 338 387
#
# _framework density 24.240051000000001
#
# number of rings (size 3 to 8) (size 9 to 14) (size 15 to 20)
#    0.000    1.143    1.429    4.714    2.000    4.571 
#   10.286    0.000    0.000    0.000    0.000    0.000 
#    0.000    0.000    0.000    0.000    0.000    0.000 
#
# Total GULP energy -78439.212799 kJ/mol
# GULP energy per Si atom -5602.800914 kJ/mol
# Density = 2.418488 g / cm^3
# Si number density = 24.240051 Si / 1000 Ang^3
#
#
#
# Elastic Constant Matrix: (Units=GPa)
#
#
# Indices 1 2 3 4 5 6 
#
# 1 78.5546 28.6846 10.5966 -1.3357 5.8101 -32.0085
# 2 28.6846 50.2349 21.8828 -3.5557 3.3471 -17.5672
# 3 10.5966 21.8828 106.1418 3.6403 10.2113 -13.3576
# 4 -1.3357 -3.5557 3.6403 39.0700 -11.3691 3.4813
# 5 5.8101 3.3471 10.2113 -11.3691 25.6709 -9.7189
# 6 -32.0085 -17.5672 -13.3576 3.4813 -9.7189 33.5446
#
#
#
# Elastic Compliance Matrix: (Units=1/GPa)
#
#
# Indices 1 2 3 4 5 6 
#
# 1 0.022858 -0.007140 0.001474 -0.001152 0.001989 0.019355
# 2 -0.007140 0.028479 -0.004768 0.003307 0.003912 0.006993
# 3 0.001474 -0.004768 0.011087 -0.002947 -0.004552 0.002311
# 4 -0.001152 0.003307 -0.002947 0.030345 0.014651 0.000555
# 5 0.001989 0.003912 -0.004552 0.014651 0.052258 0.015754
# 6 0.019355 0.006993 0.002311 0.000555 0.015754 0.057369
#
#
# Mechanical properties :
#
#
# Convention : Reuss Voigt Hill
#
# Bulk Modulus (GPa) = 24.06384 39.69548 31.87966
# Shear Modulus (GPa) = 21.08655 31.24158 26.16406
#
# Velocity S-wave (km/s) = 2.95262 3.59394 3.28895
# Velocity P-wave (km/s) = 4.64465 5.79943 5.25386
#
# Compressibility (1/GPa) = 0.04155613
#
# Stress axis : x y z
#
# Youngs Moduli (GPa) = 43.74813 35.11302 90.19434
#
# Poissons Ratio (x) = 0.25070 -0.13293
# Poissons Ratio (y) = 0.31235 0.43008
# Poissons Ratio (z) = -0.06448 0.16743
#
# Static dielectric constant tensor:
#      x y z
#    x 1.902870 0.015310 0.015110 
#    y 0.015310 1.968550 0.032860 
#    z 0.015110 0.032860 1.931310 
# 
# From -- ./inp_files/255956.got.cif
#   From: 2010.05.17/outbox.cif.g08.bks.cpg/sg2_128_cif.got.tgz:255956.got - 2010.06.03 11:33:40.
