data_PCOD9014300
_publ_section_title
;
Structure prediction by ZEFSAII (Michael W. Deem and Ramdas Pophale) SiO2 
 PCOD9014300
Probable space group: P -1
;
_chemical_formula_sum "Si O2"
_cell_formula_units_Z 16
_cell_length_a 15.300902
_cell_length_b 9.061599
_cell_length_c 12.398819
_cell_angle_alpha 75.976584
_cell_angle_beta 122.762985
_cell_angle_gamma 55.730131
_cell_volume 736.749740
_symmetry_space_group_name_H-M "P -1"
_symmetry_group_IT_number 2
_symmetry_cell_setting 'triclinic'
loop_
_space_group_symop_operation_xyz
x,y,z
-x,-y,-z
loop_
_atom_site_type_symbol
_atom_site_label
_atom_site_fract_x
_atom_site_fract_y
_atom_site_fract_z
Si Si1 0.356625 0.979399 0.830836
Si Si2 0.813773 0.869302 0.098442
Si Si3 0.390300 0.389012 0.627911
Si Si4 0.060891 0.099426 0.018566
Si Si5 0.637379 0.689565 0.615734
Si Si6 0.655381 0.207180 0.539729
Si Si7 0.770919 0.516222 0.284773
Si Si8 0.107798 0.219146 0.423277
O O1 0.235260 0.031169 0.828126
O O2 0.285121 0.239435 0.765595
O O3 0.290678 0.026666 0.658464
O O4 0.587823 0.680140 0.063560
O O5 0.877334 0.927341 0.054744
O O6 0.977610 0.533233 0.262909
O O7 0.603046 0.073210 0.873855
O O8 0.348086 0.351718 0.496469
O O9 0.398554 0.556370 0.575071
O O10 0.232815 0.560711 0.588220
O O11 0.857598 0.439250 0.850923
O O12 0.000000 0.000000 0.000000
O O13 0.232387 0.923504 0.248083
O O14 0.532917 0.667952 0.595788
O O15 0.500000 0.000000 0.500000
O O16 0.807629 0.949392 0.600746
O O17 0.965523 0.282117 0.383741
#
# Coordination Sequence:
#
# PCOD9014300 Si02
#       8
#     2   2   2   2   2   2   2   2
#     4   9  20  38  64  97 128 166 215 278 325 377
#     4  10  21  41  67  93 129 170 221 273 316 383
#     4  11  23  44  69  92 138 174 208 276 334 385
#     4  12  25  43  68  95 131 182 221 262 334 398
#     4  12  27  42  69  98 129 178 222 271 325 390
#     4  12  27  46  61 101 144 169 215 277 330 393
#     4   9  20  39  65  97 127 169 220 266 325 390
#     4  11  24  39  67  96 132 169 217 275 321 391
#
# _framework density 21.717008
#
# number of rings (size 3 to 8) (size 9 to 14) (size 15 to 20)
#    0.000    1.250    2.500    4.125    7.000    2.500 
#    0.000    2.500    0.000    0.000    0.000    0.000 
#    0.000    0.000    0.000    0.000    0.000    0.000 
#
# Total GULP energy -89523.447651 kJ/mol
# GULP energy per Si atom -5595.215478 kJ/mol
# Density = 2.166758 g / cm^3
# Si number density = 21.717008 Si / 1000 Ang^3
#
#
#
# Elastic Constant Matrix: (Units=GPa)
#
#
# Indices 1 2 3 4 5 6 
#
# 1 124.0064 -1.4519 21.8234 9.7311 -12.5585 -5.9864
# 2 -1.4519 28.4692 2.3056 6.5859 -8.2872 0.1311
# 3 21.8234 2.3056 61.1073 5.5298 -9.7221 1.3833
# 4 9.7311 6.5859 5.5298 20.2769 -6.3714 0.3779
# 5 -12.5585 -8.2872 -9.7221 -6.3714 36.2580 -1.6312
# 6 -5.9864 0.1311 1.3833 0.3779 -1.6312 19.0499
#
#
#
# Elastic Compliance Matrix: (Units=1/GPa)
#
#
# Indices 1 2 3 4 5 6 
#
# 1 0.009282 0.002267 -0.002743 -0.003722 0.002496 0.003388
# 2 0.002267 0.040263 -0.000032 -0.011672 0.007989 0.001353
# 3 -0.002743 -0.000032 0.018154 -0.002526 0.003384 -0.001840
# 4 -0.003722 -0.011672 -0.002526 0.057298 0.005363 -0.001583
# 5 0.002496 0.007989 0.003384 0.005363 0.032262 0.003140
# 6 0.003388 0.001353 -0.001840 -0.001583 0.003140 0.053983
#
#
# Mechanical properties :
#
#
# Convention : Reuss Voigt Hill
#
# Bulk Modulus (GPa) = 14.99632 28.77080 21.88356
# Shear Modulus (GPa) = 21.32328 27.84401 24.58364
#
# Velocity S-wave (km/s) = 3.13688 3.58457 3.36817
# Velocity P-wave (km/s) = 4.47664 5.51443 5.02242
#
# Compressibility (1/GPa) = 0.06668301
#
# Stress axis : x y z
#
# Youngs Moduli (GPa) = 107.73786 24.83654 55.08385
#
# Poissons Ratio (x) = -0.05631 0.15110
# Poissons Ratio (y) = -0.24429 0.00178
# Poissons Ratio (z) = 0.29554 0.00080
#
# Static dielectric constant tensor:
#      x y z
#    x 1.833810 -0.003210 0.000190 
#    y -0.003210 1.744350 -0.014160 
#    z 0.000190 -0.014160 1.807810 
# 
# From -- ./inp_files/306941.got.cif
#   From: 2010.05.17/outbox.cif.g08.bks.cpg/sg2_154_cif.got.tgz:306941.got - 2010.06.03 11:33:40.
