data_PCOD9014425
_publ_section_title
;
Structure prediction by ZEFSAII (Michael W. Deem and Ramdas Pophale) SiO2 
 PCOD9014425
Probable space group: P -1
;
_chemical_formula_sum "Si O2"
_cell_formula_units_Z 12
_cell_length_a 14.253309
_cell_length_b 11.319247
_cell_length_c 8.259190
_cell_angle_alpha 125.245593
_cell_angle_beta 136.657721
_cell_angle_gamma 34.799952
_cell_volume 521.271618
_symmetry_space_group_name_H-M "P -1"
_symmetry_group_IT_number 2
_symmetry_cell_setting 'triclinic'
loop_
_space_group_symop_operation_xyz
x,y,z
-x,-y,-z
loop_
_atom_site_type_symbol
_atom_site_label
_atom_site_fract_x
_atom_site_fract_y
_atom_site_fract_z
Si Si1 0.184509 0.947947 0.621771
Si Si2 0.555013 0.579610 0.002943
Si Si3 0.023272 0.359812 0.141206
Si Si4 0.266739 0.207922 0.009918
Si Si5 0.624502 0.853278 0.383583
Si Si6 0.137165 0.812825 0.147074
O O1 0.220195 0.862678 0.418673
O O2 0.178656 0.125253 0.764806
O O3 0.362973 0.766969 0.813490
O O4 0.000000 0.000000 0.500000
O O5 0.627758 0.676377 0.243653
O O6 0.500000 0.500000 0.000000
O O7 0.705245 0.392609 0.921345
O O8 0.817633 0.602260 0.062264
O O9 0.152051 0.268197 0.394713
O O10 0.984380 0.221760 0.945523
O O11 0.161202 0.315825 0.136451
O O12 0.496080 0.010890 0.193202
O O13 0.500000 0.000000 0.500000
O O14 0.000000 0.000000 0.000000
#
# Coordination Sequence:
#
# PCOD9014425 Si02
#       6
#     2   2   2   2   2   2
#     4  11  22  44  70  97 138 178 229 283 343 410
#     4  11  26  44  69  99 137 186 229 282 345 406
#     4  10  21  41  67  97 135 174 226 279 343 403
#     4   9  20  40  68  98 129 177 223 280 341 408
#     4   9  21  40  66  99 128 174 226 277 342 406
#     4  12  27  44  65 104 140 181 234 280 339 412
#
# _framework density 23.020629
#
# number of rings (size 3 to 8) (size 9 to 14) (size 15 to 20)
#    0.000    1.667    1.667    1.500    9.333    2.000 
#    3.000    1.667    0.000    0.000    0.000    0.000 
#    0.000    0.000    0.000    0.000    0.000    0.000 
#
# Total GULP energy -67091.164402 kJ/mol
# GULP energy per Si atom -5590.930367 kJ/mol
# Density = 2.296823 g / cm^3
# Si number density = 23.020629 Si / 1000 Ang^3
#
#
#
# Elastic Constant Matrix: (Units=GPa)
#
#
# Indices 1 2 3 4 5 6 
#
# 1 51.1569 16.6195 7.2131 2.1981 -5.9614 11.3013
# 2 16.6195 118.6940 37.8104 9.1692 2.1523 20.5788
# 3 7.2131 37.8104 134.3679 17.1885 -3.3624 18.1072
# 4 2.1981 9.1692 17.1885 41.5285 -7.1035 -7.6761
# 5 -5.9614 2.1523 -3.3624 -7.1035 19.8393 -0.0490
# 6 11.3013 20.5788 18.1072 -7.6761 -0.0490 48.0946
#
#
#
# Elastic Compliance Matrix: (Units=1/GPa)
#
#
# Indices 1 2 3 4 5 6 
#
# 1 0.022086 -0.002551 0.000325 -0.000362 0.006828 -0.004271
# 2 -0.002551 0.010276 -0.002059 -0.002445 -0.003115 -0.003415
# 3 0.000325 -0.002059 0.008922 -0.003756 0.000481 -0.003153
# 4 -0.000362 -0.002445 -0.003756 0.029240 0.010008 0.007222
# 5 0.006828 -0.003115 0.000481 0.010008 0.056462 0.001202
# 6 -0.004271 -0.003415 -0.003153 0.007222 0.001202 0.025598
#
#
# Mechanical properties :
#
#
# Convention : Reuss Voigt Hill
#
# Bulk Modulus (GPa) = 30.57015 47.50053 39.03534
# Shear Modulus (GPa) = 29.05973 38.06419 33.56196
#
# Velocity S-wave (km/s) = 3.55679 4.07071 3.82240
# Velocity P-wave (km/s) = 5.49326 6.54011 6.03941
#
# Compressibility (1/GPa) = 0.03271165
#
# Stress axis : x y z
#
# Youngs Moduli (GPa) = 45.27851 97.31548 112.08636
#
# Poissons Ratio (x) = 0.24828 -0.03643
# Poissons Ratio (y) = 0.11552 0.23084
# Poissons Ratio (z) = -0.01472 0.20042
#
# Static dielectric constant tensor:
#      x y z
#    x 1.918050 -0.044280 -0.007470 
#    y -0.044280 1.910700 0.023540 
#    z -0.007470 0.023540 1.913630 
# 
# From -- ./inp_files/145096.got.cif
#   From: 2010.05.17/outbox.cif.g08.bks.cpg/sg2_73_cif.got.tgz:145096.got - 2010.06.03 11:33:40.
