data_PCOD9014070
_publ_section_title
;
Structure prediction by ZEFSAII (Michael W. Deem and Ramdas Pophale) SiO2 
 PCOD9014070
Probable space group: P -1
;
_chemical_formula_sum "Si O2"
_cell_formula_units_Z 16
_cell_length_a 7.766400
_cell_length_b 15.553928
_cell_length_c 10.849825
_cell_angle_alpha 31.699623
_cell_angle_beta 69.240921
_cell_angle_gamma 71.878906
_cell_volume 643.865251
_symmetry_space_group_name_H-M "P -1"
_symmetry_group_IT_number 2
_symmetry_cell_setting 'triclinic'
loop_
_space_group_symop_operation_xyz
x,y,z
-x,-y,-z
loop_
_atom_site_type_symbol
_atom_site_label
_atom_site_fract_x
_atom_site_fract_y
_atom_site_fract_z
Si Si1 0.332191 0.969146 0.983392
Si Si2 0.809928 0.541944 0.064880
Si Si3 0.926392 0.869177 0.773825
Si Si4 0.850573 0.365520 0.841420
Si Si5 0.416342 0.975695 0.365783
Si Si6 0.499595 0.267240 0.167876
Si Si7 0.437986 0.631006 0.459665
Si Si8 0.854660 0.705792 0.357253
O O1 0.405108 0.005432 0.783618
O O2 0.162074 0.097087 0.877164
O O3 0.320958 0.775601 0.244226
O O4 0.500000 0.000000 0.000000
O O5 0.698076 0.424152 0.328376
O O6 0.855255 0.698781 0.946192
O O7 0.664642 0.605145 0.922264
O O8 0.000000 0.500000 0.000000
O O9 0.751484 0.969962 0.747605
O O10 0.000000 0.000000 0.500000
O O11 0.087744 0.799023 0.900643
O O12 0.882929 0.558690 0.630761
O O13 0.980088 0.337214 0.725587
O O14 0.632928 0.347325 0.935853
O O15 0.409971 0.800655 0.646680
O O16 0.416633 0.109556 0.311535
O O17 0.500000 0.500000 0.500000
O O18 0.641629 0.676376 0.403461
#
# Coordination Sequence:
#
# PCOD9014070 Si02
#       8
#     2   2   2   2   2   2   2   2
#     4  10  22  40  64  96 130 170 222 280 334 390
#     4  11  25  42  64  99 133 171 224 280 341 402
#     4  11  22  39  64  93 127 173 219 270 333 409
#     4  11  21  41  65  95 131 179 229 271 335 408
#     4  10  21  41  66  96 129 174 227 270 344 406
#     4  10  21  42  67  93 134 177 218 283 334 409
#     4  11  21  43  71  93 132 183 226 278 338 412
#     4  10  23  39  65  93 134 173 226 279 333 400
#
# _framework density 24.849917999999999
#
# number of rings (size 3 to 8) (size 9 to 14) (size 15 to 20)
#    0.000    1.500    2.500    3.750    0.000    4.000 
#    0.000    1.875    0.000    0.000    0.000    0.000 
#    0.000    0.000    0.000    0.000    0.000    0.000 
#
# Total GULP energy -89081.263435 kJ/mol
# GULP energy per Si atom -5567.578965 kJ/mol
# Density = 2.479336 g / cm^3
# Si number density = 24.849918 Si / 1000 Ang^3
#
#
#
# Elastic Constant Matrix: (Units=GPa)
#
#
# Indices 1 2 3 4 5 6 
#
# 1 58.4040 37.0108 28.8913 1.0363 -8.9332 -34.9182
# 2 37.0108 112.8523 64.2635 -8.4130 16.0573 -48.4112
# 3 28.8913 64.2635 178.8836 -4.9448 9.2437 -32.6126
# 4 1.0363 -8.4130 -4.9448 42.1842 -13.8863 1.2046
# 5 -8.9332 16.0573 9.2437 -13.8863 37.8751 -6.4559
# 6 -34.9182 -48.4112 -32.6126 1.2046 -6.4559 40.4823
#
#
#
# Elastic Compliance Matrix: (Units=1/GPa)
#
#
# Indices 1 2 3 4 5 6 
#
# 1 0.045133 0.001986 -0.000948 0.004181 0.018972 0.043443
# 2 0.001986 0.020558 -0.003286 0.002108 -0.002726 0.023153
# 3 -0.000948 -0.003286 0.007113 0.000046 -0.000393 0.000919
# 4 0.004181 0.002108 0.000046 0.027582 0.011415 0.007164
# 5 0.018972 -0.002726 -0.000393 0.011415 0.039510 0.018749
# 6 0.043443 0.023153 0.000919 0.007164 0.018749 0.093379
#
#
# Mechanical properties :
#
#
# Convention : Reuss Voigt Hill
#
# Bulk Modulus (GPa) = 14.63930 67.83012 41.23471
# Shear Modulus (GPa) = 19.19090 38.77327 28.98208
#
# Velocity S-wave (km/s) = 2.78199 3.95435 3.41880
# Velocity P-wave (km/s) = 4.02780 6.94293 5.67572
#
# Compressibility (1/GPa) = 0.06830927
#
# Stress axis : x y z
#
# Youngs Moduli (GPa) = 22.15662 48.64209 140.58923
#
# Poissons Ratio (x) = -0.09660 0.13322
# Poissons Ratio (y) = -0.04400 0.46198
# Poissons Ratio (z) = 0.02100 0.15984
#
# Static dielectric constant tensor:
#      x y z
#    x 2.128300 -0.016840 0.012450 
#    y -0.016840 2.041510 -0.071540 
#    z 0.012450 -0.071540 2.057960 
# 
# From -- ./inp_files/402632.got.cif
#   From: 2010.05.17/outbox.cif.g08.bks.cpg/sg2_202_cif.got.tgz:402632.got - 2010.06.03 11:33:40.
