data_PCOD9014822
_publ_section_title
;
Structure prediction by ZEFSAII (Michael W. Deem and Ramdas Pophale) SiO2 
 PCOD9014822
Probable space group: P -1
;
_chemical_formula_sum "Si O2"
_cell_formula_units_Z 16
_cell_length_a 14.554758
_cell_length_b 14.705602
_cell_length_c 8.747029
_cell_angle_alpha 133.478082
_cell_angle_beta 44.657145
_cell_angle_gamma 149.857918
_cell_volume 646.505240
_symmetry_space_group_name_H-M "P -1"
_symmetry_group_IT_number 2
_symmetry_cell_setting 'triclinic'
loop_
_space_group_symop_operation_xyz
x,y,z
-x,-y,-z
loop_
_atom_site_type_symbol
_atom_site_label
_atom_site_fract_x
_atom_site_fract_y
_atom_site_fract_z
Si Si1 0.632857 0.714743 0.010943
Si Si2 0.181794 0.788944 0.543230
Si Si3 0.719045 0.986222 0.034183
Si Si4 0.629713 0.164295 0.914444
Si Si5 0.745667 0.451169 0.316696
Si Si6 0.924191 0.802295 0.330961
Si Si7 0.610374 0.663663 0.302845
Si Si8 0.222908 0.552105 0.373475
O O1 0.724102 0.779470 0.146830
O O2 0.429638 0.643953 0.193172
O O3 0.755625 0.874222 0.926665
O O4 0.559075 0.537820 0.811062
O O5 0.298501 0.943650 0.711969
O O6 0.263251 0.852844 0.350241
O O7 0.193148 0.651837 0.419728
O O8 0.957929 0.668489 0.689525
O O9 0.522363 0.861403 0.031884
O O10 0.898829 0.144388 0.898488
O O11 0.772224 0.360557 0.056960
O O12 0.500000 0.000000 0.000000
O O13 0.853734 0.655821 0.376619
O O14 0.514185 0.318060 0.444783
O O15 0.789148 0.430536 0.410879
O O16 0.744530 0.690167 0.296416
O O17 0.000000 0.000000 0.500000
#
# Coordination Sequence:
#
# PCOD9014822 Si02
#       8
#     2   2   2   2   2   2   2   2
#     4  10  21  41  69  94 123 172 221 271 321 395
#     4  11  25  42  68  96 133 170 223 271 321 396
#     4  12  25  41  67  96 135 171 220 271 329 385
#     4  12  27  43  69  99 135 174 218 270 333 392
#     4  11  25  44  69  93 136 176 217 271 333 392
#     4  12  26  42  66 100 137 170 219 274 331 390
#     4  10  22  42  68  92 126 170 223 266 334 383
#     4  10  23  43  67  95 130 174 222 261 330 389
#
# _framework density 24.748445
#
# number of rings (size 3 to 8) (size 9 to 14) (size 15 to 20)
#    0.000    1.000    1.250    4.500    8.750    2.000 
#    0.000    0.000    0.000    0.000    0.000    0.000 
#    0.000    0.000    0.000    0.000    0.000    0.000 
#
# Total GULP energy -89452.066984 kJ/mol
# GULP energy per Si atom -5590.754186 kJ/mol
# Density = 2.469212 g / cm^3
# Si number density = 24.748445 Si / 1000 Ang^3
#
#
#
# Elastic Constant Matrix: (Units=GPa)
#
#
# Indices 1 2 3 4 5 6 
#
# 1 37.9384 16.5618 1.0104 -17.3961 24.1414 -5.6286
# 2 16.5618 87.4850 33.1295 -14.3262 16.0249 -22.0742
# 3 1.0104 33.1295 111.0070 -5.2160 21.1174 -2.5887
# 4 -17.3961 -14.3262 -5.2160 38.4321 -0.7824 3.7816
# 5 24.1414 16.0249 21.1174 -0.7824 32.9224 -3.3819
# 6 -5.6286 -22.0742 -2.5887 3.7816 -3.3819 36.3426
#
#
#
# Elastic Compliance Matrix: (Units=1/GPa)
#
#
# Indices 1 2 3 4 5 6 
#
# 1 0.100574 -0.002519 0.017718 0.045020 -0.082515 0.002945
# 2 -0.002519 0.016791 -0.004097 0.003633 -0.002699 0.008887
# 3 0.017718 -0.004097 0.014241 0.008159 -0.020087 -0.001448
# 4 0.045020 0.003633 0.008159 0.047956 -0.038755 0.001164
# 5 -0.082515 -0.002699 -0.020087 -0.038755 0.103938 -0.002145
# 6 0.002945 0.008887 -0.001448 0.001164 -0.002145 0.032946
#
#
# Mechanical properties :
#
#
# Convention : Reuss Voigt Hill
#
# Bulk Modulus (GPa) = 6.50159 37.53710 22.01935
# Shear Modulus (GPa) = 14.47131 33.92133 24.19632
#
# Velocity S-wave (km/s) = 2.42076 3.70624 3.13020
# Velocity P-wave (km/s) = 3.23206 5.78924 4.68836
#
# Compressibility (1/GPa) = 0.15380845
#
# Stress axis : x y z
#
# Youngs Moduli (GPa) = 9.94297 59.55736 70.22115
#
# Poissons Ratio (x) = 0.15002 -1.24415
# Poissons Ratio (y) = 0.02505 0.28768
# Poissons Ratio (z) = -0.17617 0.24399
#
# Static dielectric constant tensor:
#      x y z
#    x 2.048860 -0.143280 -0.139170 
#    y -0.143280 2.095160 0.146440 
#    z -0.139170 0.146440 2.138100 
# 
# From -- ./inp_files/315819.got.cif
#   From: 2010.05.17/outbox.cif.g08.bks.cpg/sg2_158_cif.got.tgz:315819.got - 2010.06.03 11:33:40.
