data_PCOD9014704
_publ_section_title
;
Structure prediction by ZEFSAII (Michael W. Deem and Ramdas Pophale) SiO2 
 PCOD9014704
Probable space group: P -1
;
_chemical_formula_sum "Si O2"
_cell_formula_units_Z 16
_cell_length_a 8.152752
_cell_length_b 8.749253
_cell_length_c 13.637238
_cell_angle_alpha 78.618415
_cell_angle_beta 136.368937
_cell_angle_gamma 92.030738
_cell_volume 649.663552
_symmetry_space_group_name_H-M "P -1"
_symmetry_group_IT_number 2
_symmetry_cell_setting 'triclinic'
loop_
_space_group_symop_operation_xyz
x,y,z
-x,-y,-z
loop_
_atom_site_type_symbol
_atom_site_label
_atom_site_fract_x
_atom_site_fract_y
_atom_site_fract_z
Si Si1 0.408359 0.227620 0.380900
Si Si2 0.580906 0.026890 0.143414
Si Si3 0.028288 0.746728 0.672176
Si Si4 0.319015 0.547353 0.171196
Si Si5 0.919769 0.825137 0.055432
Si Si6 0.347412 0.908861 0.323469
Si Si7 0.274576 0.271666 0.638856
Si Si8 0.756455 0.532070 0.075833
O O1 0.343071 0.394548 0.274942
O O2 0.636518 0.196594 0.556155
O O3 0.200833 0.179693 0.370375
O O4 0.440133 0.075692 0.345328
O O5 0.751022 0.158875 0.222720
O O6 0.727352 0.862444 0.265069
O O7 0.333193 0.068512 0.094701
O O8 0.500000 0.000000 0.000000
O O9 0.071481 0.579692 0.765456
O O10 0.961038 0.718332 0.533578
O O11 0.591979 0.589121 0.278091
O O12 0.116508 0.700591 0.094465
O O13 0.236686 0.502040 0.033411
O O14 0.810726 0.704891 0.093691
O O15 0.076571 0.936406 0.164027
O O16 0.520251 0.795191 0.342147
O O17 0.500000 0.500000 0.000000
#
# Coordination Sequence:
#
# PCOD9014704 Si02
#       8
#     2   2   2   2   2   2   2   2
#     4  10  21  41  68  99 141 177 235 283 346 401
#     4  12  25  44  69  99 147 184 230 283 345 412
#     4  11  23  42  68  95 138 183 228 284 341 406
#     4  11  25  44  72 103 136 180 233 290 340 410
#     4  11  24  42  70 100 135 181 229 284 339 406
#     4   9  22  40  66 103 132 183 231 288 341 408
#     4  10  25  43  68  98 131 186 234 283 345 407
#     4  12  25  44  66 103 142 179 227 280 354 408
#
# _framework density 24.628133999999999
#
# number of rings (size 3 to 8) (size 9 to 14) (size 15 to 20)
#    0.000    1.250    2.500    2.250    3.500    3.500 
#    0.000    1.875    0.000    0.000    0.000    0.000 
#    0.000    0.000    0.000    0.000    0.000    0.000 
#
# Total GULP energy -89182.839628 kJ/mol
# GULP energy per Si atom -5573.927477 kJ/mol
# Density = 2.457208 g / cm^3
# Si number density = 24.628134 Si / 1000 Ang^3
#
#
#
# Elastic Constant Matrix: (Units=GPa)
#
#
# Indices 1 2 3 4 5 6 
#
# 1 52.4030 3.5918 29.5757 -1.8426 -3.8248 -0.3389
# 2 3.5918 89.8599 35.0759 -3.4909 -10.9877 15.5343
# 3 29.5757 35.0759 134.4699 0.2322 -26.1942 2.5292
# 4 -1.8426 -3.4909 0.2322 44.1983 8.7813 5.4261
# 5 -3.8248 -10.9877 -26.1942 8.7813 45.4293 -1.1100
# 6 -0.3389 15.5343 2.5292 5.4261 -1.1100 35.2069
#
#
#
# Elastic Compliance Matrix: (Units=1/GPa)
#
#
# Indices 1 2 3 4 5 6 
#
# 1 0.021993 0.001144 -0.005374 0.001297 -0.001224 -0.000146
# 2 0.001144 0.013676 -0.003536 0.001707 0.000889 -0.006004
# 3 -0.005374 -0.003536 0.010519 -0.001720 0.005119 0.001179
# 4 0.001297 0.001707 -0.001720 0.024436 -0.005304 -0.004550
# 5 -0.001224 0.000889 0.005119 -0.005304 0.026122 0.000869
# 6 -0.000146 -0.006004 0.001179 -0.004550 0.000869 0.031695
#
#
# Mechanical properties :
#
#
# Convention : Reuss Voigt Hill
#
# Bulk Modulus (GPa) = 32.61922 45.91330 39.26626
# Shear Modulus (GPa) = 32.42765 38.86619 35.64692
#
# Velocity S-wave (km/s) = 3.63256 3.97687 3.80861
# Velocity P-wave (km/s) = 5.55585 6.30638 5.94297
#
# Compressibility (1/GPa) = 0.03065677
#
# Stress axis : x y z
#
# Youngs Moduli (GPa) = 45.46998 73.12180 95.06873
#
# Poissons Ratio (x) = -0.08367 0.51086
# Poissons Ratio (y) = -0.05203 0.33615
# Poissons Ratio (z) = 0.24434 0.25855
#
# Static dielectric constant tensor:
#      x y z
#    x 2.073280 -0.087810 0.075050 
#    y -0.087810 2.015050 -0.045770 
#    z 0.075050 -0.045770 2.124030 
# 
# From -- ./inp_files/494754.got.cif
#   From: 2010.05.17/outbox.cif.g08.bks.cpg/sg2_248_cif.got.tgz:494754.got - 2010.06.03 11:33:40.
