data_PCOD9014183
_publ_section_title
;
Structure prediction by ZEFSAII (Michael W. Deem and Ramdas Pophale) SiO2 
 PCOD9014183
Probable space group: P -1
;
_chemical_formula_sum "Si O2"
_cell_formula_units_Z 16
_cell_length_a 5.130219
_cell_length_b 16.579762
_cell_length_c 16.234458
_cell_angle_alpha 146.228167
_cell_angle_beta 125.040443
_cell_angle_gamma 61.230817
_cell_volume 628.450921
_symmetry_space_group_name_H-M "P -1"
_symmetry_group_IT_number 2
_symmetry_cell_setting 'triclinic'
loop_
_space_group_symop_operation_xyz
x,y,z
-x,-y,-z
loop_
_atom_site_type_symbol
_atom_site_label
_atom_site_fract_x
_atom_site_fract_y
_atom_site_fract_z
Si Si1 0.668570 0.723878 0.402283
Si Si2 0.141415 0.945129 0.893578
Si Si3 0.337700 0.675735 0.530831
Si Si4 0.616550 0.667645 0.164567
Si Si5 0.468863 0.048126 0.310078
Si Si6 0.439617 0.456899 0.217782
Si Si7 0.922610 0.771854 0.141790
Si Si8 0.986899 0.641224 0.673919
O O1 0.779072 0.707758 0.315015
O O2 0.529631 0.878154 0.536587
O O3 0.446653 0.586782 0.263266
O O4 0.965379 0.697146 0.495346
O O5 0.891150 0.993942 0.818588
O O6 0.124766 0.773527 0.759175
O O7 0.500000 0.000000 0.000000
O O8 0.000000 0.000000 0.000000
O O9 0.435929 0.819066 0.619609
O O10 0.362784 0.536966 0.357319
O O11 0.610985 0.664926 0.639715
O O12 0.829573 0.699521 0.151131
O O13 0.300157 0.770136 0.195737
O O14 0.500000 0.500000 0.000000
O O15 0.725258 0.921739 0.234998
O O16 0.788051 0.383766 0.228771
O O17 0.206776 0.332934 0.042004
O O18 0.000000 0.500000 0.500000
#
# Coordination Sequence:
#
# PCOD9014183 Si02
#       8
#     2   2   2   2   2   2   2   2
#     4  11  24  43  71  96 140 186 232 295 356 420
#     4  11  25  46  71 102 150 196 235 289 355 424
#     4   9  21  42  67  96 143 181 230 287 353 420
#     4  12  27  47  74 103 138 180 235 297 364 413
#     4  10  26  44  67 103 142 186 233 290 356 421
#     4  10  21  41  67 101 135 182 237 290 352 416
#     4  12  27  45  72 104 138 177 240 292 349 430
#     4   9  20  43  67 105 139 184 241 287 352 423
#
# _framework density 25.459427999999999
#
# number of rings (size 3 to 8) (size 9 to 14) (size 15 to 20)
#    0.000    1.500    1.250    2.625    8.750    2.500 
#    6.750    0.000    0.000    0.000    0.000    0.000 
#    0.000    0.000    0.000    0.000    0.000    0.000 
#
# Total GULP energy -89612.572511 kJ/mol
# GULP energy per Si atom -5600.785782 kJ/mol
# Density = 2.540148 g / cm^3
# Si number density = 25.459428 Si / 1000 Ang^3
#
#
#
# Elastic Constant Matrix: (Units=GPa)
#
#
# Indices 1 2 3 4 5 6 
#
# 1 84.6986 24.2452 22.8408 7.3886 1.8602 -22.2692
# 2 24.2452 107.8715 46.7337 -0.0536 3.6495 -26.7449
# 3 22.8408 46.7337 117.4802 9.8815 -8.4253 -13.7424
# 4 7.3886 -0.0536 9.8815 41.6293 -0.6774 -1.9278
# 5 1.8602 3.6495 -8.4253 -0.6774 39.2393 -0.6115
# 6 -22.2692 -26.7449 -13.7424 -1.9278 -0.6115 42.1870
#
#
#
# Elastic Compliance Matrix: (Units=1/GPa)
#
#
# Indices 1 2 3 4 5 6 
#
# 1 0.014360 -0.000936 -0.001577 -0.001894 -0.000866 0.006374
# 2 -0.000936 0.013105 -0.004560 0.001527 -0.002028 0.006369
# 3 -0.001577 -0.004560 0.011005 -0.002302 0.002819 -0.000203
# 4 -0.001894 0.001527 -0.002302 0.024921 -0.000111 0.000356
# 5 -0.000866 -0.002028 0.002819 -0.000111 0.026311 -0.000448
# 6 0.006374 0.006369 -0.000203 0.000356 -0.000448 0.031050
#
#
# Mechanical properties :
#
#
# Convention : Reuss Voigt Hill
#
# Bulk Modulus (GPa) = 41.11142 55.29887 48.20514
# Shear Modulus (GPa) = 34.96422 39.02649 36.99535
#
# Velocity S-wave (km/s) = 3.70987 3.91946 3.81610
# Velocity P-wave (km/s) = 5.87654 6.50003 6.19613
#
# Compressibility (1/GPa) = 0.02432414
#
# Stress axis : x y z
#
# Youngs Moduli (GPa) = 69.63880 76.30936 90.87080
#
# Poissons Ratio (x) = 0.07140 0.14328
# Poissons Ratio (y) = 0.06516 0.41437
# Poissons Ratio (z) = 0.10980 0.34797
#
# Static dielectric constant tensor:
#      x y z
#    x 2.034490 -0.040340 0.031270 
#    y -0.040340 2.072460 0.001580 
#    z 0.031270 0.001580 1.915260 
# 
# From -- ./inp_files/46290.got.cif
#   From: 2010.05.17/outbox.cif.g08.bks.cpg/sg2_24_cif.got.tgz:46290.got - 2010.06.03 11:33:40.
