data_PCOD9014918
_publ_section_title
;
Structure prediction by ZEFSAII (Michael W. Deem and Ramdas Pophale) SiO2 
 PCOD9014918
Probable space group: P -1
;
_chemical_formula_sum "Si O2"
_cell_formula_units_Z 16
_cell_length_a 9.208027
_cell_length_b 5.543690
_cell_length_c 19.677703
_cell_angle_alpha 137.360277
_cell_angle_beta 105.804476
_cell_angle_gamma 72.720216
_cell_volume 647.453192
_symmetry_space_group_name_H-M "P -1"
_symmetry_group_IT_number 2
_symmetry_cell_setting 'triclinic'
loop_
_space_group_symop_operation_xyz
x,y,z
-x,-y,-z
loop_
_atom_site_type_symbol
_atom_site_label
_atom_site_fract_x
_atom_site_fract_y
_atom_site_fract_z
Si Si1 0.790091 0.827463 0.757786
Si Si2 0.710175 0.868754 0.903022
Si Si3 0.522012 0.203405 0.736194
Si Si4 0.997293 0.599035 0.099046
Si Si5 0.927022 0.619279 0.286902
Si Si6 0.169988 0.590873 0.544201
Si Si7 0.719575 0.489882 0.125779
Si Si8 0.720242 0.883520 0.426086
O O1 0.722834 0.003362 0.855951
O O2 0.890821 0.445335 0.706452
O O3 0.652141 0.868521 0.697188
O O4 0.922956 0.054672 0.801451
O O5 0.608405 0.551334 0.819857
O O6 0.883422 0.714767 0.915266
O O7 0.652191 0.172295 0.013051
O O8 0.409546 0.254527 0.797309
O O9 0.425895 0.171362 0.649180
O O10 0.827050 0.636520 0.113979
O O11 0.000000 0.500000 0.000000
O O12 0.844221 0.365519 0.175166
O O13 0.863623 0.623129 0.355758
O O14 0.856434 0.025099 0.339748
O O15 0.000000 0.500000 0.500000
O O16 0.277928 0.270644 0.529885
O O17 0.236103 0.727963 0.510005
#
# Coordination Sequence:
#
# PCOD9014918 Si02
#       8
#     2   2   2   2   2   2   2   2
#     4  11  22  39  55  90 123 175 212 263 323 375
#     4  11  22  37  55  79 129 171 223 258 314 373
#     4  10  25  38  58  89 129 175 207 265 319 389
#     4  11  21  35  57  80 116 169 224 282 312 363
#     4   9  22  35  65  89 122 162 217 271 316 378
#     4  10  21  41  70 101 126 156 210 271 326 386
#     4  11  20  40  54  87 118 170 228 268 316 362
#     4   9  22  40  67  99 125 165 207 263 323 386
#
# _framework density 24.712209999999999
#
# number of rings (size 3 to 8) (size 9 to 14) (size 15 to 20)
#    0.750    1.000    2.500    1.875    3.500    0.500 
#    4.500    0.000    0.000    1.500    0.000    0.000 
#    0.000    0.000    0.000    0.000    0.000    0.000 
#
# Total GULP energy -89309.246080 kJ/mol
# GULP energy per Si atom -5581.827880 kJ/mol
# Density = 2.465596 g / cm^3
# Si number density = 24.712210 Si / 1000 Ang^3
#
#
#
# Elastic Constant Matrix: (Units=GPa)
#
#
# Indices 1 2 3 4 5 6 
#
# 1 97.6187 29.7223 37.9233 1.5019 18.1569 -8.1763
# 2 29.7223 115.4517 22.0107 -12.9037 12.5287 -8.2015
# 3 37.9233 22.0107 77.7778 1.9379 18.3474 -10.0675
# 4 1.5019 -12.9037 1.9379 24.3652 -1.2867 17.8665
# 5 18.1569 12.5287 18.3474 -1.2867 41.8366 -1.7619
# 6 -8.1763 -8.2015 -10.0675 17.8665 -1.7619 34.0975
#
#
#
# Elastic Compliance Matrix: (Units=1/GPa)
#
#
# Indices 1 2 3 4 5 6 
#
# 1 0.013806 -0.002584 -0.004677 -0.004634 -0.003159 0.003573
# 2 -0.002584 0.010512 -0.002058 0.007992 -0.001002 -0.002938
# 3 -0.004677 -0.002058 0.018173 -0.008241 -0.005248 0.007796
# 4 -0.004634 0.007992 -0.008241 0.077078 0.003842 -0.041811
# 5 -0.003159 -0.001002 -0.005248 0.003842 0.027862 -0.003122
# 6 0.003573 -0.002938 0.007796 -0.041811 -0.003122 0.053527
#
#
# Mechanical properties :
#
#
# Convention : Reuss Voigt Hill
#
# Bulk Modulus (GPa) = 41.92437 52.24009 47.08223
# Shear Modulus (GPa) = 21.97354 33.47265 27.72310
#
# Velocity S-wave (km/s) = 2.98514 3.68434 3.35302
# Velocity P-wave (km/s) = 5.37432 6.26773 5.83814
#
# Compressibility (1/GPa) = 0.02385247
#
# Stress axis : x y z
#
# Youngs Moduli (GPa) = 72.43356 95.12512 55.02794
#
# Poissons Ratio (x) = 0.24579 0.25737
# Poissons Ratio (y) = 0.18716 0.11326
# Poissons Ratio (z) = 0.33878 0.19578
#
# Static dielectric constant tensor:
#      x y z
#    x 1.980680 -0.027880 -0.009320 
#    y -0.027880 2.154270 0.066920 
#    z -0.009320 0.066920 1.980700 
# 
# From -- ./inp_files/605775.got.cif
#   From: 2010.05.17/outbox.cif.g08.bks.cpg/sg2_303_cif.got.tgz:605775.got - 2010.06.03 11:33:40.
