data_PCOD9014356
_publ_section_title
;
Structure prediction by ZEFSAII (Michael W. Deem and Ramdas Pophale) SiO2 
 PCOD9014356
Probable space group: P -1
;
_chemical_formula_sum "Si O2"
_cell_formula_units_Z 16
_cell_length_a 8.730771
_cell_length_b 9.665136
_cell_length_c 12.746196
_cell_angle_alpha 120.361370
_cell_angle_beta 133.557815
_cell_angle_gamma 57.668941
_cell_volume 641.935347
_symmetry_space_group_name_H-M "P -1"
_symmetry_group_IT_number 2
_symmetry_cell_setting 'triclinic'
loop_
_space_group_symop_operation_xyz
x,y,z
-x,-y,-z
loop_
_atom_site_type_symbol
_atom_site_label
_atom_site_fract_x
_atom_site_fract_y
_atom_site_fract_z
Si Si1 0.001818 0.850602 0.067971
Si Si2 0.254462 0.634125 0.677996
Si Si3 0.642795 0.058162 0.432085
Si Si4 0.388015 0.529526 0.068255
Si Si5 0.170019 0.138514 0.341056
Si Si6 0.752290 0.391857 0.563794
Si Si7 0.506723 0.077878 0.149339
Si Si8 0.946995 0.627502 0.120889
O O1 0.190850 0.702253 0.045582
O O2 0.993153 0.791450 0.162322
O O3 0.079691 0.014180 0.177196
O O4 0.754151 0.865558 0.920570
O O5 0.441493 0.482400 0.761432
O O6 0.175764 0.588228 0.511940
O O7 0.376213 0.775977 0.759902
O O8 0.047390 0.706157 0.683600
O O9 0.394984 0.147905 0.395900
O O10 0.761016 0.200642 0.520184
O O11 0.622052 0.985659 0.276640
O O12 0.761030 0.935632 0.535980
O O13 0.500000 0.500000 0.000000
O O14 0.300367 0.366650 0.972721
O O15 0.500000 0.500000 0.500000
O O16 0.902006 0.446359 0.739148
O O17 0.500000 0.000000 0.000000
O O18 0.000000 0.500000 0.000000
#
# Coordination Sequence:
#
# PCOD9014356 Si02
#       8
#     2   2   2   2   2   2   2   2
#     4  11  22  42  72  96 137 186 224 285 343 413
#     4  11  25  43  66 102 137 180 237 289 342 423
#     4  10  26  43  69 101 142 184 231 285 355 407
#     4  11  26  44  66 103 142 178 233 290 352 410
#     4  11  24  48  68 102 143 182 232 289 354 417
#     4  11  23  42  72  99 135 187 232 280 345 417
#     4  11  23  41  69 104 135 180 241 282 338 415
#     4  10  21  41  67  95 130 176 230 278 337 405
#
# _framework density 24.924627999999998
#
# number of rings (size 3 to 8) (size 9 to 14) (size 15 to 20)
#    0.000    1.250    3.750    1.500    7.000    4.500 
#    4.500    1.250    0.000    0.000    0.000    0.000 
#    0.000    0.000    0.000    0.000    0.000    0.000 
#
# Total GULP energy -89446.010624 kJ/mol
# GULP energy per Si atom -5590.375664 kJ/mol
# Density = 2.486790 g / cm^3
# Si number density = 24.924628 Si / 1000 Ang^3
#
#
#
# Elastic Constant Matrix: (Units=GPa)
#
#
# Indices 1 2 3 4 5 6 
#
# 1 111.2144 19.1282 18.4563 7.1916 -5.7945 -8.2461
# 2 19.1282 52.9490 24.2391 2.1112 4.4179 -16.4140
# 3 18.4563 24.2391 157.9896 -5.6506 -15.9938 -2.4540
# 4 7.1916 2.1112 -5.6506 31.8307 -4.8024 1.6964
# 5 -5.7945 4.4179 -15.9938 -4.8024 40.2060 -5.9137
# 6 -8.2461 -16.4140 -2.4540 1.6964 -5.9137 28.8461
#
#
#
# Elastic Compliance Matrix: (Units=1/GPa)
#
#
# Indices 1 2 3 4 5 6 
#
# 1 0.009910 -0.002850 -0.000617 -0.002019 0.001487 0.001582
# 2 -0.002850 0.026217 -0.003919 -0.002989 -0.003255 0.013278
# 3 -0.000617 -0.003919 0.007408 0.002290 0.003383 -0.001218
# 4 -0.002019 -0.002989 0.002290 0.033318 0.004468 -0.003127
# 5 0.001487 -0.003255 0.003383 0.004468 0.027960 0.004330
# 6 0.001582 0.013278 -0.001218 -0.003127 0.004330 0.043643
#
#
# Mechanical properties :
#
#
# Convention : Reuss Voigt Hill
#
# Bulk Modulus (GPa) = 34.76979 49.53335 42.15157
# Shear Modulus (GPa) = 28.93220 37.53184 33.23202
#
# Velocity S-wave (km/s) = 3.41073 3.88469 3.65540
# Velocity P-wave (km/s) = 5.43056 6.32752 5.89612
#
# Compressibility (1/GPa) = 0.02876060
#
# Stress axis : x y z
#
# Youngs Moduli (GPa) = 100.91079 38.14315 134.98067
#
# Poissons Ratio (x) = 0.10873 0.08334
# Poissons Ratio (y) = 0.28764 0.52905
# Poissons Ratio (z) = 0.06230 0.14950
#
# Static dielectric constant tensor:
#      x y z
#    x 1.957560 0.024510 -0.013040 
#    y 0.024510 2.038600 0.004900 
#    z -0.013040 0.004900 2.016360 
# 
# From -- ./inp_files/392892.got.cif
#   From: 2010.05.17/outbox.cif.g08.bks.cpg/sg2_197_cif.got.tgz:392892.got - 2010.06.03 11:33:40.
