data_PCOD9014197
_publ_section_title
;
Structure prediction by ZEFSAII (Michael W. Deem and Ramdas Pophale) SiO2 
 PCOD9014197
Probable space group: P -1
;
_chemical_formula_sum "Si O2"
_cell_formula_units_Z 14
_cell_length_a 8.516892
_cell_length_b 9.282713
_cell_length_c 8.890218
_cell_angle_alpha 68.069406
_cell_angle_beta 72.727413
_cell_angle_gamma 69.335342
_cell_volume 598.909477
_symmetry_space_group_name_H-M "P -1"
_symmetry_group_IT_number 2
_symmetry_cell_setting 'triclinic'
loop_
_space_group_symop_operation_xyz
x,y,z
-x,-y,-z
loop_
_atom_site_type_symbol
_atom_site_label
_atom_site_fract_x
_atom_site_fract_y
_atom_site_fract_z
Si Si1 0.108848 0.323052 0.589976
Si Si2 0.340943 0.982494 0.149483
Si Si3 0.185147 0.738357 0.104990
Si Si4 0.489446 0.276161 0.573460
Si Si5 0.064583 0.156032 0.374030
Si Si6 0.135399 0.597384 0.876077
Si Si7 0.508043 0.496132 0.749702
O O1 0.285111 0.318172 0.622535
O O2 0.147311 0.211388 0.475301
O O3 0.000000 0.500000 0.500000
O O4 0.984963 0.261809 0.758392
O O5 0.255342 0.876780 0.105218
O O6 0.420660 0.896461 0.316946
O O7 0.189628 0.124616 0.205990
O O8 0.500000 0.000000 0.000000
O O9 0.334633 0.571665 0.158945
O O10 0.144995 0.732733 0.943802
O O11 0.558332 0.385307 0.630489
O O12 0.522602 0.323549 0.375703
O O13 0.912942 0.310221 0.304109
O O14 0.000000 0.000000 0.500000
O O15 0.326972 0.479646 0.862033
O O16 0.000000 0.500000 0.000000
#
# Coordination Sequence:
#
# PCOD9014197 Si02
#       7
#     2   2   2   2   2   2   2
#     4  12  23  44  74 108 137 186 243 289 356 432
#     4  11  27  46  68 100 143 191 240 297 355 424
#     4  11  24  43  71  99 144 182 234 298 358 420
#     4  10  22  40  70  96 139 182 234 288 354 420
#     4  12  27  48  71 101 148 189 239 290 354 436
#     4  12  27  42  72 107 143 183 243 301 364 419
#     4  10  21  41  67 102 139 179 231 293 359 418
#
# _framework density 23.375821999999999
#
# number of rings (size 3 to 8) (size 9 to 14) (size 15 to 20)
#    0.000    0.857    2.857    3.857    8.000    3.429 
#    0.000    0.000    0.000    0.000    0.000    0.000 
#    0.000    0.000    0.000    0.000    0.000    0.000 
#
# Total GULP energy -78228.820556 kJ/mol
# GULP energy per Si atom -5587.772897 kJ/mol
# Density = 2.332262 g / cm^3
# Si number density = 23.375822 Si / 1000 Ang^3
#
#
#
# Elastic Constant Matrix: (Units=GPa)
#
#
# Indices 1 2 3 4 5 6 
#
# 1 111.7592 1.1271 22.3865 -3.4374 -5.7060 -1.7432
# 2 1.1271 50.3338 7.0171 12.0866 4.3993 5.7370
# 3 22.3865 7.0171 62.3739 13.2747 -9.0563 9.2176
# 4 -3.4374 12.0866 13.2747 35.1642 0.0538 2.8956
# 5 -5.7060 4.3993 -9.0563 0.0538 56.5231 1.7803
# 6 -1.7432 5.7370 9.2176 2.8956 1.7803 36.5143
#
#
#
# Elastic Compliance Matrix: (Units=1/GPa)
#
#
# Indices 1 2 3 4 5 6 
#
# 1 0.009916 -0.000443 -0.004222 0.002601 0.000313 0.001387
# 2 -0.000443 0.022157 -0.000668 -0.007184 -0.001785 -0.002677
# 3 -0.004222 -0.000668 0.020366 -0.007481 0.003047 -0.004793
# 4 0.002601 -0.007184 -0.007481 0.033948 -0.000424 0.000470
# 5 0.000313 -0.001785 0.003047 -0.000424 0.018393 -0.001337
# 6 0.001387 -0.002677 -0.004793 0.000470 -0.001337 0.029111
#
#
# Mechanical properties :
#
#
# Convention : Reuss Voigt Hill
#
# Bulk Modulus (GPa) = 23.94032 31.72536 27.83284
# Shear Modulus (GPa) = 31.54959 38.56939 35.05949
#
# Velocity S-wave (km/s) = 3.67777 4.06639 3.87695
# Velocity P-wave (km/s) = 5.31962 5.97065 5.65451
#
# Compressibility (1/GPa) = 0.04177053
#
# Stress axis : x y z
#
# Youngs Moduli (GPa) = 100.85125 45.13327 49.10211
#
# Poissons Ratio (x) = 0.02001 0.20731
# Poissons Ratio (y) = 0.04472 0.03281
# Poissons Ratio (z) = 0.42579 0.03016
#
# Static dielectric constant tensor:
#      x y z
#    x 1.902220 -0.100180 -0.029640 
#    y -0.100180 2.065020 -0.005740 
#    z -0.029640 -0.005740 1.936850 
# 
# From -- ./inp_files/157137.got.cif
#   From: 2010.05.17/outbox.cif.g08.bks.cpg/sg2_79_cif.got.tgz:157137.got - 2010.06.03 11:33:40.
