data_PCOD9014434
_publ_section_title
;
Structure prediction by ZEFSAII (Michael W. Deem and Ramdas Pophale) SiO2 
 PCOD9014434
Probable space group: P -1
;
_chemical_formula_sum "Si O2"
_cell_formula_units_Z 14
_cell_length_a 8.099376
_cell_length_b 16.538208
_cell_length_c 5.004958
_cell_angle_alpha 75.481918
_cell_angle_beta 83.094881
_cell_angle_gamma 99.373852
_cell_volume 631.167494
_symmetry_space_group_name_H-M "P -1"
_symmetry_group_IT_number 2
_symmetry_cell_setting 'triclinic'
loop_
_space_group_symop_operation_xyz
x,y,z
-x,-y,-z
loop_
_atom_site_type_symbol
_atom_site_label
_atom_site_fract_x
_atom_site_fract_y
_atom_site_fract_z
Si Si1 0.073334 0.193421 0.777253
Si Si2 0.046836 0.908544 0.596505
Si Si3 0.833005 0.483587 0.230833
Si Si4 0.567425 0.060512 0.690014
Si Si5 0.635330 0.343726 0.094398
Si Si6 0.462124 0.240227 0.705351
Si Si7 0.959645 0.361671 0.734959
O O1 0.263480 0.223479 0.817910
O O2 0.082082 0.151247 0.524317
O O3 0.988239 0.274305 0.683243
O O4 0.971804 0.128298 0.069799
O O5 0.232259 0.913415 0.430484
O O6 0.000000 0.000000 0.500000
O O7 0.674378 0.442467 0.110311
O O8 0.863867 0.417980 0.512362
O O9 0.859257 0.577190 0.279870
O O10 0.000000 0.500000 0.000000
O O11 0.508824 0.148545 0.704533
O O12 0.500000 0.000000 0.500000
O O13 0.500000 0.000000 0.000000
O O14 0.520371 0.293538 0.385553
O O15 0.555987 0.299202 0.876279
O O16 0.832770 0.334405 0.032831
#
# Coordination Sequence:
#
# PCOD9014434 Si02
#       7
#     2   2   2   2   2   2   2
#     4  12  26  42  66  98 132 173 215 267 319 389
#     4  12  25  45  67  96 132 173 217 267 320 382
#     4   9  20  38  70  93 130 163 222 270 319 387
#     4  12  24  42  66  94 125 169 212 265 323 380
#     4  11  21  41  64  92 124 171 212 262 320 380
#     4  12  24  41  62  94 132 167 215 268 319 386
#     4  10  21  41  67  98 125 171 221 267 323 385
#
# _framework density 22.181118000000001
#
# number of rings (size 3 to 8) (size 9 to 14) (size 15 to 20)
#    0.000    0.857    1.429    6.429    4.000    0.000 
#    0.000    1.429    0.000    0.000    0.000    0.000 
#    0.000    0.000    0.000    0.000    0.000    0.000 
#
# Total GULP energy -78078.661709 kJ/mol
# GULP energy per Si atom -5577.047265 kJ/mol
# Density = 2.213063 g / cm^3
# Si number density = 22.181118 Si / 1000 Ang^3
#
#
#
# Elastic Constant Matrix: (Units=GPa)
#
#
# Indices 1 2 3 4 5 6 
#
# 1 54.8003 4.8589 5.9285 -4.0194 -10.5301 18.9521
# 2 4.8589 79.8083 3.2881 12.0879 16.1413 16.4600
# 3 5.9285 3.2881 126.2317 2.5047 -6.8962 3.7672
# 4 -4.0194 12.0879 2.5047 37.3358 19.0607 8.5243
# 5 -10.5301 16.1413 -6.8962 19.0607 30.3913 4.5491
# 6 18.9521 16.4600 3.7672 8.5243 4.5491 39.0873
#
#
#
# Elastic Compliance Matrix: (Units=1/GPa)
#
#
# Indices 1 2 3 4 5 6 
#
# 1 0.024979 -0.001098 -0.000174 0.000493 0.010835 -0.013000
# 2 -0.001098 0.015228 -0.000639 0.000207 -0.008005 -0.004932
# 3 -0.000174 -0.000639 0.008189 -0.002048 0.003481 -0.000394
# 4 0.000493 0.000207 -0.002048 0.041264 -0.025360 -0.006176
# 5 0.010835 -0.008005 0.003481 -0.025360 0.058122 -0.003452
# 6 -0.013000 -0.004932 -0.000394 -0.006176 -0.003452 0.035751
#
#
# Mechanical properties :
#
#
# Convention : Reuss Voigt Hill
#
# Bulk Modulus (GPa) = 22.43567 32.11013 27.27290
# Shear Modulus (GPa) = 24.72625 37.81387 31.27006
#
# Velocity S-wave (km/s) = 3.34240 4.13337 3.75875
# Velocity P-wave (km/s) = 5.00322 6.10635 5.58210
#
# Compressibility (1/GPa) = 0.04457188
#
# Stress axis : x y z
#
# Youngs Moduli (GPa) = 40.03429 65.66804 122.10967
#
# Poissons Ratio (x) = 0.07213 0.02129
# Poissons Ratio (y) = 0.04397 0.07807
# Poissons Ratio (z) = 0.00698 0.04198
#
# Static dielectric constant tensor:
#      x y z
#    x 1.904840 0.118020 0.050460 
#    y 0.118020 2.061770 0.089090 
#    z 0.050460 0.089090 1.822370 
# 
# From -- ./inp_files/37838.got.cif
#   From: 2010.05.17/outbox.cif.g08.bks.cpg/sg2_19_cif.got.tgz:37838.got - 2010.06.03 11:33:40.
