data_PCOD9014876
_publ_section_title
;
Structure prediction by ZEFSAII (Michael W. Deem and Ramdas Pophale) SiO2 
 PCOD9014876
Probable space group: P -1
;
_chemical_formula_sum "Si O2"
_cell_formula_units_Z 15
_cell_length_a 9.628492
_cell_length_b 11.029531
_cell_length_c 11.873396
_cell_angle_alpha 48.940803
_cell_angle_beta 48.489881
_cell_angle_gamma 83.614901
_cell_volume 583.006281
_symmetry_space_group_name_H-M "P -1"
_symmetry_group_IT_number 2
_symmetry_cell_setting 'triclinic'
loop_
_space_group_symop_operation_xyz
x,y,z
-x,-y,-z
loop_
_atom_site_type_symbol
_atom_site_label
_atom_site_fract_x
_atom_site_fract_y
_atom_site_fract_z
Si Si1 0.785971 0.272763 0.242257
Si Si2 0.440831 0.655533 0.500791
Si Si3 0.559881 0.723845 0.730080
Si Si4 0.885630 0.797493 0.318536
Si Si5 0.000000 0.500000 0.500000
Si Si6 0.431925 0.302297 0.009722
Si Si7 0.362691 0.771423 0.240426
Si Si8 0.129958 0.200726 0.020925
O O1 0.655305 0.234160 0.452496
O O2 0.604887 0.235165 0.269000
O O3 0.898021 0.162854 0.215524
O O4 0.000000 0.500000 0.000000
O O5 0.665914 0.714734 0.409323
O O6 0.544456 0.285396 0.672534
O O7 0.269246 0.421079 0.759231
O O8 0.782433 0.783020 0.506896
O O9 0.598087 0.793751 0.795633
O O10 0.427471 0.486881 0.931527
O O11 0.985468 0.670793 0.330280
O O12 0.067392 0.030060 0.071633
O O13 0.096096 0.653794 0.467234
O O14 0.259488 0.195589 0.064523
O O15 0.659029 0.346310 0.795395
O O16 0.500000 0.000000 0.000000
#
# Coordination Sequence:
#
# PCOD9014876 Si02
#       8
#     2   2   2   2   1   2   2   2
#     4   9  18  39  67 103 133 178 229 284 348 412
#     4  10  24  47  68 102 149 182 228 300 356 412
#     4  10  21  41  69  97 142 183 223 291 354 407
#     4  11  24  45  72 104 139 189 237 291 355 416
#     4  12  26  46  66 102 142 182 238 286 346 418
#     4  11  22  42  67  97 140 184 227 287 352 402
#     4  12  28  47  71 101 145 190 237 287 356 430
#     4  11  22  42  73 106 134 184 243 284 351 423
#
# _framework density 25.728708999999998
#
# number of rings (size 3 to 8) (size 9 to 14) (size 15 to 20)
#    0.000    1.333    5.333    0.800    0.000   11.200 
#    0.000    2.000    0.000    0.000    0.000    0.000 
#    0.000    0.000    0.000    0.000    0.000    0.000 
#
# Total GULP energy -83684.579113 kJ/mol
# GULP energy per Si atom -5578.971941 kJ/mol
# Density = 2.567015 g / cm^3
# Si number density = 25.728709 Si / 1000 Ang^3
#
#
#
# Elastic Constant Matrix: (Units=GPa)
#
#
# Indices 1 2 3 4 5 6 
#
# 1 160.5708 89.9509 67.1042 2.0330 -8.2700 5.1250
# 2 89.9509 133.1735 55.1536 -9.1383 9.2665 -3.6758
# 3 67.1042 55.1536 104.7587 -29.7997 -9.7432 -4.1272
# 4 2.0330 -9.1383 -29.7997 56.4685 1.1030 6.8445
# 5 -8.2700 9.2665 -9.7432 1.1030 36.1860 9.2262
# 6 5.1250 -3.6758 -4.1272 6.8445 9.2262 57.0481
#
#
#
# Elastic Compliance Matrix: (Units=1/GPa)
#
#
# Indices 1 2 3 4 5 6 
#
# 1 0.012714 -0.006970 -0.005406 -0.004260 0.003901 -0.002102
# 2 -0.006970 0.014185 -0.003361 0.000624 -0.006739 0.002312
# 3 -0.005406 -0.003361 0.017699 0.008933 0.004169 -0.000196
# 4 -0.004260 0.000624 0.008933 0.022881 0.001045 -0.001845
# 5 0.003901 -0.006739 0.004169 0.001045 0.032853 -0.005922
# 6 -0.002102 0.002312 -0.000196 -0.001845 -0.005922 0.019032
#
#
# Mechanical properties :
#
#
# Convention : Reuss Voigt Hill
#
# Bulk Modulus (GPa) = 76.20342 91.43561 83.81951
# Shear Modulus (GPa) = 32.21403 42.36012 37.28707
#
# Velocity S-wave (km/s) = 3.54229 4.06201 3.81102
# Velocity P-wave (km/s) = 6.81269 7.59048 7.21208
#
# Compressibility (1/GPa) = 0.01312277
#
# Stress axis : x y z
#
# Youngs Moduli (GPa) = 78.65607 70.49915 56.49904
#
# Poissons Ratio (x) = 0.49139 0.30543
# Poissons Ratio (y) = 0.54825 0.18991
# Poissons Ratio (z) = 0.42521 0.23697
#
# Static dielectric constant tensor:
#      x y z
#    x 0.833050 0.613980 2.285610 
#    y 0.613980 1.746270 -1.131200 
#    z 2.285610 -1.131200 -1.970390 
# 
# From -- ./inp_files/567316.got.cif
#   From: 2010.05.17/outbox.cif.g08.bks.cpg/sg2_284_cif.got.tgz:567316.got - 2010.06.03 11:33:40.
