data_PCOD9014821
_publ_section_title
;
Structure prediction by ZEFSAII (Michael W. Deem and Ramdas Pophale) SiO2 
 PCOD9014821
Probable space group: P -1
;
_chemical_formula_sum "Si O2"
_cell_formula_units_Z 16
_cell_length_a 10.568295
_cell_length_b 13.092928
_cell_length_c 14.232566
_cell_angle_alpha 132.556459
_cell_angle_beta 39.252082
_cell_angle_gamma 146.584353
_cell_volume 683.686937
_symmetry_space_group_name_H-M "P -1"
_symmetry_group_IT_number 2
_symmetry_cell_setting 'triclinic'
loop_
_space_group_symop_operation_xyz
x,y,z
-x,-y,-z
loop_
_atom_site_type_symbol
_atom_site_label
_atom_site_fract_x
_atom_site_fract_y
_atom_site_fract_z
Si Si1 0.402214 0.497137 0.195364
Si Si2 0.288897 0.025661 0.143451
Si Si3 0.867138 0.125543 0.265566
Si Si4 0.228278 0.554173 0.134131
Si Si5 0.344809 0.015305 0.897013
Si Si6 0.174636 0.143275 0.571303
Si Si7 0.478111 0.182246 0.576890
Si Si8 0.395898 0.715004 0.716986
O O1 0.284345 0.532790 0.196775
O O2 0.456542 0.627485 0.328771
O O3 0.171034 0.281338 0.218624
O O4 0.662033 0.530062 0.037001
O O5 0.453715 0.220975 0.227967
O O6 0.028450 0.861463 0.251849
O O7 0.500000 0.000000 0.000000
O O8 0.218494 0.008819 0.063682
O O9 0.857620 0.082936 0.135222
O O10 0.734626 0.213778 0.419384
O O11 0.665485 0.934408 0.318959
O O12 0.923500 0.447541 0.212918
O O13 0.413842 0.770939 0.136603
O O14 0.437932 0.898122 0.780254
O O15 0.261752 0.065972 0.547072
O O16 0.447538 0.308318 0.462857
O O17 0.000000 0.000000 0.500000
#
# Coordination Sequence:
#
# PCOD9014821 Si02
#       8
#     2   2   2   2   2   2   2   2
#     4  11  24  38  57  95 130 167 217 256 325 375
#     4   9  22  37  69  94 123 169 214 262 323 379
#     4  11  23  40  65  94 131 172 212 270 314 381
#     4  11  24  37  63  94 129 173 209 266 319 380
#     4  11  21  41  65  94 129 167 210 267 319 374
#     4  10  21  41  69  94 123 170 214 259 319 383
#     4  11  23  40  65  94 128 173 216 259 323 382
#     4  10  21  44  63  90 130 168 212 264 318 375
#
# _framework density 23.402525000000001
#
# number of rings (size 3 to 8) (size 9 to 14) (size 15 to 20)
#    0.000    1.500    3.750    0.375    5.250    1.000 
#    0.000    0.000    0.000    8.250    0.000    0.000 
#    0.000    0.000    0.000    0.000    0.000    0.000 
#
# Total GULP energy -89297.937184 kJ/mol
# GULP energy per Si atom -5581.121074 kJ/mol
# Density = 2.334926 g / cm^3
# Si number density = 23.402525 Si / 1000 Ang^3
#
#
#
# Elastic Constant Matrix: (Units=GPa)
#
#
# Indices 1 2 3 4 5 6 
#
# 1 37.6320 12.5118 37.0249 4.1653 10.1845 16.6289
# 2 12.5118 110.7281 45.0144 -2.2315 -0.4505 11.8109
# 3 37.0249 45.0144 154.3873 -23.9775 9.0848 20.6422
# 4 4.1653 -2.2315 -23.9775 24.9560 12.7272 -8.6122
# 5 10.1845 -0.4505 9.0848 12.7272 39.3389 -3.6707
# 6 16.6289 11.8109 20.6422 -8.6122 -3.6707 30.4742
#
#
#
# Elastic Compliance Matrix: (Units=1/GPa)
#
#
# Indices 1 2 3 4 5 6 
#
# 1 0.061907 0.002556 -0.016311 -0.035603 -0.003909 -0.034255
# 2 0.002556 0.010803 -0.004258 -0.006005 0.002001 -0.004154
# 3 -0.016311 -0.004258 0.014398 0.021023 -0.005384 0.006091
# 4 -0.035603 -0.006005 0.021023 0.086519 -0.020950 0.029442
# 5 -0.003909 0.002001 -0.005384 -0.020950 0.034782 0.003273
# 6 -0.034255 -0.004154 0.006091 0.029442 0.003273 0.057706
#
#
# Mechanical properties :
#
#
# Convention : Reuss Voigt Hill
#
# Bulk Modulus (GPa) = 19.57624 54.64994 37.11309
# Shear Modulus (GPa) = 15.66574 32.83359 24.24966
#
# Velocity S-wave (km/s) = 2.59009 3.74972 3.22250
# Velocity P-wave (km/s) = 4.16268 6.49231 5.45335
#
# Compressibility (1/GPa) = 0.05108234
#
# Stress axis : x y z
#
# Youngs Moduli (GPa) = 16.15335 92.56272 69.45475
#
# Poissons Ratio (x) = -0.23661 1.13288
# Poissons Ratio (y) = -0.04129 0.29574
# Poissons Ratio (z) = 0.26348 0.39413
#
# Static dielectric constant tensor:
#      x y z
#    x 1.997850 -0.010640 0.028120 
#    y -0.010640 1.869280 -0.023730 
#    z 0.028120 -0.023730 1.927880 
# 
# From -- ./inp_files/521656.got.cif
#   From: 2010.05.17/outbox.cif.g08.bks.cpg/sg2_261_cif.got.tgz:521656.got - 2010.06.03 11:33:40.
