data_PCOD9014401
_publ_section_title
;
Structure prediction by ZEFSAII (Michael W. Deem and Ramdas Pophale) SiO2 
 PCOD9014401
Probable space group: P -1
;
_chemical_formula_sum "Si O2"
_cell_formula_units_Z 14
_cell_length_a 5.730437
_cell_length_b 10.811134
_cell_length_c 25.841632
_cell_angle_alpha 29.623284
_cell_angle_beta 132.775220
_cell_angle_gamma 138.113384
_cell_volume 525.863870
_symmetry_space_group_name_H-M "P -1"
_symmetry_group_IT_number 2
_symmetry_cell_setting 'triclinic'
loop_
_space_group_symop_operation_xyz
x,y,z
-x,-y,-z
loop_
_atom_site_type_symbol
_atom_site_label
_atom_site_fract_x
_atom_site_fract_y
_atom_site_fract_z
Si Si1 0.174927 0.461174 0.351551
Si Si2 0.040901 0.221663 0.620081
Si Si3 0.257284 0.204063 0.184717
Si Si4 0.346210 0.721834 0.884533
Si Si5 0.188308 0.773437 0.066718
Si Si6 0.925060 0.719041 0.143373
Si Si7 0.101813 0.960310 0.449571
O O1 0.578282 0.677188 0.333440
O O2 0.935904 0.607651 0.241949
O O3 0.112386 0.322611 0.448601
O O4 0.085418 0.211101 0.388046
O O5 0.000000 0.500000 0.500000
O O6 0.006341 0.068428 0.615928
O O7 0.766899 0.016595 0.694261
O O8 0.386172 0.122761 0.179409
O O9 0.572955 0.505559 0.138505
O O10 0.862532 0.199657 0.128927
O O11 0.982948 0.527330 0.871938
O O12 0.500000 0.500000 0.000000
O O13 0.234168 0.720177 0.152554
O O14 0.500000 0.000000 0.000000
O O15 0.959143 0.951645 0.960817
O O16 0.500000 0.000000 0.500000
#
# Coordination Sequence:
#
# PCOD9014401 Si02
#       7
#     2   2   2   2   2   2   2
#     4  11  26  44  73 107 138 193 251 308 378 456
#     4  12  27  48  71 108 151 196 258 316 371 452
#     4  11  26  46  72 104 147 204 241 311 385 447
#     4  11  25  45  71 106 148 192 250 311 379 447
#     4  10  21  41  67  96 139 187 236 305 361 448
#     4  10  23  42  67 101 139 187 247 296 378 446
#     4  11  24  47  74  99 142 190 245 316 380 436
#
# _framework density 26.622859999999999
#
# number of rings (size 3 to 8) (size 9 to 14) (size 15 to 20)
#    0.000    1.143    2.857    1.714    8.000    3.429 
#    0.000    0.000    0.000    0.000    0.000    0.000 
#    0.000    0.000    0.000    0.000    0.000    0.000 
#
# Total GULP energy -78050.994971 kJ/mol
# GULP energy per Si atom -5575.071069 kJ/mol
# Density = 2.656226 g / cm^3
# Si number density = 26.622860 Si / 1000 Ang^3
#
#
#
# Elastic Constant Matrix: (Units=GPa)
#
#
# Indices 1 2 3 4 5 6 
#
# 1 131.1967 13.6959 35.0504 -5.5154 -22.7418 19.5098
# 2 13.6959 95.7822 1.8895 -11.7656 -6.4213 3.0227
# 3 35.0504 1.8895 138.8934 -8.0812 -31.4170 1.3491
# 4 -5.5154 -11.7656 -8.0812 37.7591 9.6894 -3.1893
# 5 -22.7418 -6.4213 -31.4170 9.6894 54.4210 -1.7047
# 6 19.5098 3.0227 1.3491 -3.1893 -1.7047 32.9592
#
#
#
# Elastic Compliance Matrix: (Units=1/GPa)
#
#
# Indices 1 2 3 4 5 6 
#
# 1 0.009437 -0.001020 -0.001722 -0.000462 0.002745 -0.005325
# 2 -0.001020 0.011013 0.000418 0.003227 0.000537 -0.000083
# 3 -0.001722 0.000418 0.008612 0.000721 0.004202 0.000916
# 4 -0.000462 0.003227 0.000721 0.028935 -0.004469 0.002517
# 5 0.002745 0.000537 0.004202 -0.004469 0.022772 -0.001100
# 6 -0.005325 -0.000083 0.000916 0.002517 -0.001100 0.033649
#
#
# Mechanical properties :
#
#
# Convention : Reuss Voigt Hill
#
# Bulk Modulus (GPa) = 40.96141 51.90489 46.43315
# Shear Modulus (GPa) = 39.30649 46.04361 42.67505
#
# Velocity S-wave (km/s) = 3.84659 4.16321 4.00803
# Velocity P-wave (km/s) = 5.92853 6.53058 6.23682
#
# Compressibility (1/GPa) = 0.02441322
#
# Stress axis : x y z
#
# Youngs Moduli (GPa) = 105.96810 90.80156 116.11590
#
# Poissons Ratio (x) = 0.09263 0.19994
# Poissons Ratio (y) = 0.10810 -0.04850
# Poissons Ratio (z) = 0.18247 -0.03793
#
# Static dielectric constant tensor:
#      x y z
#    x 2.324200 -0.298730 -0.094070 
#    y -0.298730 2.515250 -0.053410 
#    z -0.094070 -0.053410 2.095580 
# 
# From -- ./inp_files/615508.got.cif
#   From: 2010.05.17/outbox.cif.g08.bks.cpg/sg2_308_cif.got.tgz:615508.got - 2010.06.03 11:33:40.
