data_PCOD9014047
_publ_section_title
;
Structure prediction by ZEFSAII (Michael W. Deem and Ramdas Pophale) SiO2 
 PCOD9014047
Probable space group: P -1
;
_chemical_formula_sum "Si O2"
_cell_formula_units_Z 16
_cell_length_a 8.784255
_cell_length_b 21.222812
_cell_length_c 26.649237
_cell_angle_alpha 10.870448
_cell_angle_beta 133.936198
_cell_angle_gamma 133.012074
_cell_volume 674.687871
_symmetry_space_group_name_H-M "P -1"
_symmetry_group_IT_number 2
_symmetry_cell_setting 'triclinic'
loop_
_space_group_symop_operation_xyz
x,y,z
-x,-y,-z
loop_
_atom_site_type_symbol
_atom_site_label
_atom_site_fract_x
_atom_site_fract_y
_atom_site_fract_z
Si Si1 0.914313 0.816741 0.073250
Si Si2 0.691294 0.500252 0.644750
Si Si3 0.147005 0.191743 0.257656
Si Si4 0.114380 0.897114 0.832515
Si Si5 0.752334 0.416577 0.510034
Si Si6 0.794274 0.194971 0.585722
Si Si7 0.535974 0.358577 0.063860
Si Si8 0.147209 0.250203 0.406547
O O1 0.124046 0.720837 0.164550
O O2 0.781973 0.480536 0.317507
O O3 0.000000 0.000000 0.000000
O O4 0.763580 0.065350 0.815369
O O5 0.449390 0.381652 0.674231
O O6 0.751900 0.573977 0.658665
O O7 0.709502 0.866737 0.335936
O O8 0.067062 0.101788 0.253286
O O9 0.380053 0.349110 0.182238
O O10 0.079588 0.895614 0.511719
O O11 0.000000 0.500000 0.000000
O O12 0.148547 0.518181 0.152741
O O13 0.036358 0.086484 0.717086
O O14 0.714031 0.376885 0.473811
O O15 0.000000 0.500000 0.500000
O O16 0.676699 0.843516 0.836843
O O17 0.712884 0.066811 0.329845
O O18 0.500000 0.500000 0.000000
#
# Coordination Sequence:
#
# PCOD9014047 Si02
#       8
#     2   2   2   2   2   2   2   2
#     4  11  25  47  70 101 137 177 228 287 345 407
#     4  10  24  43  70 101 138 177 224 286 341 408
#     4   9  20  37  59  88 132 166 223 268 317 397
#     4  10  21  41  66  95 128 181 224 273 342 400
#     4  12  25  45  71 102 133 177 227 281 347 413
#     4  11  23  45  65  96 140 170 226 287 334 404
#     4  11  21  39  65  95 137 178 216 282 334 394
#     4  10  21  41  67  92 131 182 224 273 337 403
#
# _framework density 23.714670000000002
#
# number of rings (size 3 to 8) (size 9 to 14) (size 15 to 20)
#    0.000    1.500    3.750    0.750    1.750    3.000 
#    0.000    1.875    0.000    0.000    0.000    0.000 
#    0.000    0.000    0.000    0.000    0.000    0.000 
#
# Total GULP energy -89208.152636 kJ/mol
# GULP energy per Si atom -5575.509540 kJ/mol
# Density = 2.366069 g / cm^3
# Si number density = 23.714670 Si / 1000 Ang^3
#
#
#
# Elastic Constant Matrix: (Units=GPa)
#
#
# Indices 1 2 3 4 5 6 
#
# 1 62.3752 55.1856 6.3899 6.8995 15.8510 -11.3459
# 2 55.1856 18.9896 7.0052 -10.5019 -10.3989 19.7990
# 3 6.3899 7.0052 92.5847 20.4005 -1.5872 -1.6375
# 4 6.8995 -10.5019 20.4005 26.5322 -3.7421 -1.3495
# 5 15.8510 -10.3989 -1.5872 -3.7421 33.9976 -9.8122
# 6 -11.3459 19.7990 -1.6375 -1.3495 -9.8122 29.9360
#
#
#
# Elastic Compliance Matrix: (Units=1/GPa)
#
#
# Indices 1 2 3 4 5 6 
#
# 1 0.000382 0.014571 -0.002972 0.007885 0.002567 -0.008458
# 2 0.014571 -0.010999 0.002168 -0.010504 -0.008418 0.009682
# 3 -0.002972 0.002168 0.012586 -0.007965 0.001232 -0.001827
# 4 0.007885 -0.010504 -0.007965 0.038209 0.000203 0.011289
# 5 0.002567 -0.008418 0.001232 0.000203 0.030519 0.016620
# 6 -0.008458 0.009682 -0.001827 0.011289 0.016620 0.029652
#
#
# Mechanical properties :
#
#
# Convention : Reuss Voigt Hill
#
# Bulk Modulus (GPa) = 33.89386 34.56786 34.23086
# Shear Modulus (GPa) = 60.49654 25.11775 42.80715
#
# Velocity S-wave (km/s) = 5.05624 3.25801 4.25325
# Velocity P-wave (km/s) = 6.95779 5.36294 6.21176
#
# Compressibility (1/GPa) = 0.02950386
#
# Stress axis : x y z
#
# Youngs Moduli (GPa) = 2618.05431 -90.92149 79.45370
#
# Poissons Ratio (x) = 1.32482 0.23612
# Poissons Ratio (y) = -38.14782 -0.17226
# Poissons Ratio (z) = 7.78045 0.19712
#
# Static dielectric constant tensor:
#      x y z
#    x 1.936290 -0.016890 -0.054980 
#    y -0.016890 1.858170 -0.149880 
#    z -0.054980 -0.149880 1.884440 
# 
# From -- ./inp_files/622743.got.cif
#   From: 2010.05.17/outbox.cif.g08.bks.cpg/sg2_312_cif.got.tgz:622743.got - 2010.06.03 11:33:40.
