data_PCOD9014157
_publ_section_title
;
Structure prediction by ZEFSAII (Michael W. Deem and Ramdas Pophale) SiO2 
 PCOD9014157
Probable space group: P -1
;
_chemical_formula_sum "Si O2"
_cell_formula_units_Z 14
_cell_length_a 9.286592
_cell_length_b 21.656684
_cell_length_c 11.873907
_cell_angle_alpha 35.818377
_cell_angle_beta 127.365517
_cell_angle_gamma 151.524549
_cell_volume 616.477507
_symmetry_space_group_name_H-M "P -1"
_symmetry_group_IT_number 2
_symmetry_cell_setting 'triclinic'
loop_
_space_group_symop_operation_xyz
x,y,z
-x,-y,-z
loop_
_atom_site_type_symbol
_atom_site_label
_atom_site_fract_x
_atom_site_fract_y
_atom_site_fract_z
Si Si1 0.780213 0.057714 0.087580
Si Si2 0.688839 0.790758 0.548679
Si Si3 0.219534 0.153403 0.976765
Si Si4 0.802025 0.595162 0.071210
Si Si5 0.801358 0.069037 0.567106
Si Si6 0.293601 0.597839 0.860109
Si Si7 0.816431 0.553618 0.731532
O O1 0.997673 0.125201 0.986361
O O2 0.668117 0.894468 0.331333
O O3 0.977900 0.217215 0.039543
O O4 0.500000 0.000000 0.000000
O O5 0.380231 0.571980 0.683036
O O6 0.610933 0.763268 0.686024
O O7 0.004817 0.879258 0.527751
O O8 0.300828 0.087702 0.186219
O O9 0.546327 0.379828 0.773113
O O10 0.000000 0.000000 0.000000
O O11 0.953878 0.592212 0.053312
O O12 0.334631 0.553571 0.059834
O O13 0.058316 0.266108 0.468463
O O14 0.500000 0.000000 0.500000
O O15 0.132802 0.632100 0.753982
O O16 0.500000 0.500000 0.000000
#
# Coordination Sequence:
#
# PCOD9014157 Si02
#       7
#     2   2   2   2   2   2   2
#     4  11  25  45  70  97 136 182 231 282 340 412
#     4   9  23  43  65 106 135 169 231 279 336 416
#     4  11  27  46  65  97 138 183 229 276 342 419
#     4  10  21  41  66  99 132 177 216 285 348 388
#     4  11  23  43  72 103 134 177 226 285 346 410
#     4   9  21  40  67 100 133 172 218 285 339 401
#     4  11  22  45  63  98 141 172 221 283 342 401
#
# _framework density 22.709668000000001
#
# number of rings (size 3 to 8) (size 9 to 14) (size 15 to 20)
#    0.857    0.857    0.000    4.286    2.000    4.000 
#   10.286    0.000    0.000    0.000    0.000    0.000 
#    0.000    0.000    0.000    0.000    0.000    0.000 
#
# Total GULP energy -78148.975776 kJ/mol
# GULP energy per Si atom -5582.069698 kJ/mol
# Density = 2.265798 g / cm^3
# Si number density = 22.709668 Si / 1000 Ang^3
#
#
#
# Elastic Constant Matrix: (Units=GPa)
#
#
# Indices 1 2 3 4 5 6 
#
# 1 118.3495 43.7938 29.4099 5.3559 18.5476 13.9601
# 2 43.7938 110.8940 37.1748 -8.6027 19.9661 3.3720
# 3 29.4099 37.1748 97.4971 -21.7509 36.4553 8.0580
# 4 5.3559 -8.6027 -21.7509 24.7392 -7.0686 15.4787
# 5 18.5476 19.9661 36.4553 -7.0686 47.9227 -6.1397
# 6 13.9601 3.3720 8.0580 15.4787 -6.1397 41.0051
#
#
#
# Elastic Compliance Matrix: (Units=1/GPa)
#
#
# Indices 1 2 3 4 5 6 
#
# 1 0.011077 -0.003623 -0.002367 -0.005540 -0.001949 -0.001209
# 2 -0.003623 0.011669 -0.002037 0.003053 -0.001551 -0.000710
# 3 -0.002367 -0.002037 0.025170 0.028099 -0.015401 -0.016886
# 4 -0.005540 0.003053 0.028099 0.088268 -0.012489 -0.039076
# 5 -0.001949 -0.001551 -0.015401 -0.012489 0.033884 0.013606
# 6 -0.001209 -0.000710 -0.016886 -0.039076 0.013606 0.044963
#
#
# Mechanical properties :
#
#
# Convention : Reuss Voigt Hill
#
# Bulk Modulus (GPa) = 31.38530 60.83306 46.10918
# Shear Modulus (GPa) = 20.68626 37.15753 28.92190
#
# Velocity S-wave (km/s) = 3.02139 4.04938 3.57255
# Velocity P-wave (km/s) = 5.10117 6.97917 6.11272
#
# Compressibility (1/GPa) = 0.03186205
#
# Stress axis : x y z
#
# Youngs Moduli (GPa) = 90.27525 85.69835 39.72932
#
# Poissons Ratio (x) = 0.31050 0.09405
# Poissons Ratio (y) = 0.32708 0.08092
# Poissons Ratio (z) = 0.21371 0.17454
#
# Static dielectric constant tensor:
#      x y z
#    x 1.885480 -0.037760 -0.003290 
#    y -0.037760 1.981100 -0.049510 
#    z -0.003290 -0.049510 1.894040 
# 
# From -- ./inp_files/508593.got.cif
#   From: 2010.05.17/outbox.cif.g08.bks.cpg/sg2_255_cif.got.tgz:508593.got - 2010.06.03 11:33:40.
