data_PCOD9014942
_publ_section_title
;
Structure prediction by ZEFSAII (Michael W. Deem and Ramdas Pophale) SiO2 
 PCOD9014942
Probable space group: P -1
;
_chemical_formula_sum "Si O2"
_cell_formula_units_Z 14
_cell_length_a 7.357097
_cell_length_b 10.478105
_cell_length_c 9.820264
_cell_angle_alpha 77.970842
_cell_angle_beta 49.490922
_cell_angle_gamma 101.377598
_cell_volume 503.464984
_symmetry_space_group_name_H-M "P -1"
_symmetry_group_IT_number 2
_symmetry_cell_setting 'triclinic'
loop_
_space_group_symop_operation_xyz
x,y,z
-x,-y,-z
loop_
_atom_site_type_symbol
_atom_site_label
_atom_site_fract_x
_atom_site_fract_y
_atom_site_fract_z
Si Si1 0.183690 0.727903 0.386590
Si Si2 0.238877 0.712245 0.937146
Si Si3 0.325854 0.153133 0.091689
Si Si4 0.267611 0.431397 0.017136
Si Si5 0.046081 0.113969 0.828925
Si Si6 0.614111 0.164822 0.457639
Si Si7 0.656521 0.521356 0.558067
O O1 0.428453 0.799654 0.146212
O O2 0.225189 0.819830 0.483212
O O3 0.210736 0.588915 0.467314
O O4 0.901849 0.671650 0.458737
O O5 0.530988 0.808059 0.840370
O O6 0.056197 0.776684 0.081723
O O7 0.137040 0.543620 0.066578
O O8 0.187968 0.259604 0.109623
O O9 0.128374 0.987664 0.187887
O O10 0.421396 0.475068 0.791380
O O11 0.500000 0.500000 0.000000
O O12 0.256525 0.735282 0.760780
O O13 0.355248 0.184612 0.624821
O O14 0.000000 0.000000 0.000000
O O15 0.500000 0.000000 0.500000
O O16 0.500000 0.500000 0.500000
#
# Coordination Sequence:
#
# PCOD9014942 Si02
#       7
#     2   2   2   2   2   2   2
#     4  10  22  42  69 103 148 193 243 311 374 440
#     4  11  24  44  73 110 142 193 257 310 374 449
#     4  10  22  45  72 105 151 196 249 308 376 451
#     4   9  21  43  69 104 146 184 242 311 373 443
#     4  12  24  46  74 102 150 203 247 306 374 445
#     4  12  25  44  74 108 151 198 252 308 374 448
#     4  10  21  41  70 103 143 193 246 305 376 448
#
# _framework density 27.807296999999998
#
# number of rings (size 3 to 8) (size 9 to 14) (size 15 to 20)
#    0.000    1.429    2.857    1.286    0.000    5.143 
#    0.000    2.143    0.000    2.571    0.000    0.000 
#    0.000    0.000    0.000    0.000    0.000    0.000 
#
# Total GULP energy -78542.198210 kJ/mol
# GULP energy per Si atom -5610.157015 kJ/mol
# Density = 2.774401 g / cm^3
# Si number density = 27.807297 Si / 1000 Ang^3
#
#
#
# Elastic Constant Matrix: (Units=GPa)
#
#
# Indices 1 2 3 4 5 6 
#
# 1 188.8095 68.9949 40.1675 15.5076 -12.9209 26.4396
# 2 68.9949 204.1924 23.0821 -4.2379 -9.6731 -4.9082
# 3 40.1675 23.0821 87.5419 19.9236 -4.8349 -12.7449
# 4 15.5076 -4.2379 19.9236 40.6867 11.5968 -6.9327
# 5 -12.9209 -9.6731 -4.8349 11.5968 41.8804 8.9769
# 6 26.4396 -4.9082 -12.7449 -6.9327 8.9769 83.0974
#
#
#
# Elastic Compliance Matrix: (Units=1/GPa)
#
#
# Indices 1 2 3 4 5 6 
#
# 1 0.007690 -0.002324 -0.002456 -0.003527 0.003303 -0.003612
# 2 -0.002324 0.005833 -0.000815 0.002184 -0.000321 0.001176
# 3 -0.002456 -0.000815 0.014697 -0.006565 0.002094 0.002214
# 4 -0.003527 0.002184 -0.006565 0.033369 -0.011497 0.004270
# 5 0.003303 -0.000321 0.002094 -0.011497 0.029292 -0.004872
# 6 -0.003612 0.001176 0.002214 0.004270 -0.004872 0.014475
#
#
# Mechanical properties :
#
#
# Convention : Reuss Voigt Hill
#
# Bulk Modulus (GPa) = 58.72415 82.78141 70.75278
# Shear Modulus (GPa) = 40.90853 56.35288 48.63070
#
# Velocity S-wave (km/s) = 3.83971 4.50661 4.18646
# Velocity P-wave (km/s) = 6.38920 7.54411 6.99055
#
# Compressibility (1/GPa) = 0.01702877
#
# Stress axis : x y z
#
# Youngs Moduli (GPa) = 130.04502 171.43164 68.04014
#
# Poissons Ratio (x) = 0.39844 0.16712
# Poissons Ratio (y) = 0.30225 0.05547
# Poissons Ratio (z) = 0.31941 0.13977
#
# Static dielectric constant tensor:
#      x y z
#    x 2.181770 -0.038250 -0.073950 
#    y -0.038250 2.205110 -0.112290 
#    z -0.073950 -0.112290 2.241970 
# 
# From -- ./inp_files/212488.got.cif
#   From: 2010.05.17/outbox.cif.g08.bks.cpg/sg2_107_cif.got.tgz:212488.got - 2010.06.03 11:33:40.
