data_PCOD9014806
_publ_section_title
;
Structure prediction by ZEFSAII (Michael W. Deem and Ramdas Pophale) SiO2 
 PCOD9014806
Probable space group: P -1
;
_chemical_formula_sum "Si O2"
_cell_formula_units_Z 10
_cell_length_a 9.478005
_cell_length_b 10.377587
_cell_length_c 6.902222
_cell_angle_alpha 131.914538
_cell_angle_beta 76.006080
_cell_angle_gamma 120.767915
_cell_volume 428.753500
_symmetry_space_group_name_H-M "P -1"
_symmetry_group_IT_number 2
_symmetry_cell_setting 'triclinic'
loop_
_space_group_symop_operation_xyz
x,y,z
-x,-y,-z
loop_
_atom_site_type_symbol
_atom_site_label
_atom_site_fract_x
_atom_site_fract_y
_atom_site_fract_z
Si Si1 0.787991 0.002046 0.731253
Si Si2 0.425905 0.303515 0.201898
Si Si3 0.049432 0.632350 0.425981
Si Si4 0.237123 0.615224 0.996790
Si Si5 0.851733 0.924065 0.209031
O O1 0.640589 0.871248 0.793828
O O2 0.776686 0.896952 0.423061
O O3 0.965269 0.048609 0.806624
O O4 0.788598 0.204710 0.890299
O O5 0.500000 0.500000 0.500000
O O6 0.573448 0.323484 0.035838
O O7 0.267469 0.250904 0.067777
O O8 0.000000 0.500000 0.500000
O O9 0.886725 0.569075 0.280568
O O10 0.131512 0.867690 0.663655
O O11 0.171739 0.585336 0.207095
#
# Coordination Sequence:
#
# PCOD9014806 Si02
#       5
#     2   2   2   2   2
#     4  10  22  43  67  91 128 168 212 266 318 381
#     4  12  25  40  61  95 135 171 212 262 316 374
#     4  10  21  41  69  93 125 166 211 265 320 380
#     4  10  23  40  64  99 126 162 215 261 318 383
#     4  10  23  43  66  93 125 171 217 259 320 382
#
# _framework density 23.323426000000001
#
# number of rings (size 3 to 8) (size 9 to 14) (size 15 to 20)
#    0.000    1.600    0.000    3.600    0.000    8.800 
#    0.000    0.000    0.000    0.000    0.000    0.000 
#    0.000    0.000    0.000    0.000    0.000    0.000 
#
# Total GULP energy -56039.313756 kJ/mol
# GULP energy per Si atom -5603.931376 kJ/mol
# Density = 2.327034 g / cm^3
# Si number density = 23.323426 Si / 1000 Ang^3
#
#
#
# Elastic Constant Matrix: (Units=GPa)
#
#
# Indices 1 2 3 4 5 6 
#
# 1 68.4972 46.9566 40.0020 -7.3828 0.8415 5.1327
# 2 46.9566 132.4028 50.4893 -32.0723 5.7875 14.8822
# 3 40.0020 50.4893 127.9417 -2.4397 27.6527 4.6061
# 4 -7.3828 -32.0723 -2.4397 48.2955 12.5887 -5.0715
# 5 0.8415 5.7875 27.6527 12.5887 25.4617 -2.1765
# 6 5.1327 14.8822 4.6061 -5.0715 -2.1765 29.8300
#
#
#
# Elastic Compliance Matrix: (Units=1/GPa)
#
#
# Indices 1 2 3 4 5 6 
#
# 1 0.022651 -0.007028 -0.006592 -0.004098 0.010091 0.000666
# 2 -0.007028 0.013531 -0.001531 0.008946 -0.005965 -0.004219
# 3 -0.006592 -0.001531 0.014067 0.002801 -0.016180 -0.000979
# 4 -0.004098 0.008946 0.002801 0.031478 -0.020532 -0.000337
# 5 0.010091 -0.005965 -0.016180 -0.020532 0.068469 0.005243
# 6 0.000666 -0.004219 -0.000979 -0.000337 0.005243 0.035990
#
#
# Mechanical properties :
#
#
# Convention : Reuss Voigt Hill
#
# Bulk Modulus (GPa) = 50.13108 67.08193 58.60650
# Shear Modulus (GPa) = 22.40787 33.47703 27.94245
#
# Velocity S-wave (km/s) = 3.10295 3.79270 3.46503
# Velocity P-wave (km/s) = 5.86330 6.92845 6.41801
#
# Compressibility (1/GPa) = 0.01994771
#
# Stress axis : x y z
#
# Youngs Moduli (GPa) = 44.14805 73.90544 71.08985
#
# Poissons Ratio (x) = 0.51943 0.46860
# Poissons Ratio (y) = 0.31028 0.10881
# Poissons Ratio (z) = 0.29101 0.11312
#
# Static dielectric constant tensor:
#      x y z
#    x 1.833710 -0.003660 -0.001870 
#    y -0.003660 1.876940 -0.015420 
#    z -0.001870 -0.015420 1.918750 
# 
# From -- ./inp_files/20755.got.cif
#   From: 2010.05.17/outbox.cif.g08.bks.cpg/sg2_11_cif.got.tgz:20755.got - 2010.06.03 11:33:40.
