data_PCOD9014634
_publ_section_title
;
Structure prediction by ZEFSAII (Michael W. Deem and Ramdas Pophale) SiO2 
 PCOD9014634
Probable space group: P -1
;
_chemical_formula_sum "Si O2"
_cell_formula_units_Z 16
_cell_length_a 8.851305
_cell_length_b 14.950616
_cell_length_c 13.801969
_cell_angle_alpha 53.554488
_cell_angle_beta 147.905841
_cell_angle_gamma 132.818546
_cell_volume 711.027664
_symmetry_space_group_name_H-M "P -1"
_symmetry_group_IT_number 2
_symmetry_cell_setting 'triclinic'
loop_
_space_group_symop_operation_xyz
x,y,z
-x,-y,-z
loop_
_atom_site_type_symbol
_atom_site_label
_atom_site_fract_x
_atom_site_fract_y
_atom_site_fract_z
Si Si1 0.757837 0.018749 0.215598
Si Si2 0.211074 0.352579 0.852160
Si Si3 0.724795 0.603865 0.626710
Si Si4 0.871070 0.129261 0.415259
Si Si5 0.722083 0.375046 0.461393
Si Si6 0.135596 0.460535 0.948690
Si Si7 0.122747 0.228032 0.152842
Si Si8 0.770218 0.879728 0.898831
O O1 0.713840 0.047230 0.285898
O O2 0.030417 0.146911 0.248696
O O3 0.908680 0.920191 0.372688
O O4 0.500000 0.000000 0.000000
O O5 0.134114 0.416970 0.863497
O O6 0.900437 0.300628 0.653746
O O7 0.500995 0.456066 0.889082
O O8 0.305603 0.243983 0.002131
O O9 0.500000 0.500000 0.500000
O O10 0.508775 0.610662 0.592870
O O11 0.911831 0.733204 0.591487
O O12 0.963868 0.546049 0.823675
O O13 0.560659 0.118938 0.309061
O O14 0.494639 0.303301 0.298453
O O15 0.000000 0.500000 0.500000
O O16 0.994402 0.331753 0.010217
O O17 0.033969 0.138254 0.072503
O O18 0.000000 0.000000 0.000000
#
# Coordination Sequence:
#
# PCOD9014634 Si02
#       8
#     2   2   2   2   2   2   2   2
#     4  11  26  49  72  98 143 189 241 298 357 414
#     4  10  21  41  68  95 142 182 229 284 359 415
#     4  12  25  43  73 103 138 188 239 284 359 434
#     4  11  26  48  72 105 140 188 248 297 347 434
#     4  12  25  43  65 107 141 179 220 294 367 422
#     4  10  21  42  70  98 135 186 229 290 347 424
#     4  11  25  45  69 102 143 179 231 296 360 413
#     4  11  25  45  72  98 136 192 244 288 351 424
#
# _framework density 22.50264
#
# number of rings (size 3 to 8) (size 9 to 14) (size 15 to 20)
#    0.000    1.000    5.000    0.750    5.250    1.000 
#    4.500    0.000    0.000    0.000    0.000    0.000 
#    0.000    0.000    0.000    0.000    0.000    0.000 
#
# Total GULP energy -89262.531758 kJ/mol
# GULP energy per Si atom -5578.908235 kJ/mol
# Density = 2.245142 g / cm^3
# Si number density = 22.502640 Si / 1000 Ang^3
#
#
#
# Elastic Constant Matrix: (Units=GPa)
#
#
# Indices 1 2 3 4 5 6 
#
# 1 47.0737 40.0544 21.2788 -13.9705 8.4879 9.5253
# 2 40.0544 94.9496 46.6195 -8.9163 8.7403 6.5804
# 3 21.2788 46.6195 145.0207 -16.2570 7.0679 -6.9272
# 4 -13.9705 -8.9163 -16.2570 47.6807 -4.5139 -5.4882
# 5 8.4879 8.7403 7.0679 -4.5139 27.7235 3.3825
# 6 9.5253 6.5804 -6.9272 -5.4882 3.3825 30.6338
#
#
#
# Elastic Compliance Matrix: (Units=1/GPa)
#
#
# Indices 1 2 3 4 5 6 
#
# 1 0.037905 -0.014243 -0.000278 0.007069 -0.005043 -0.006966
# 2 -0.014243 0.018460 -0.004104 -0.002277 -0.000686 -0.000797
# 3 -0.000278 -0.004104 0.008739 0.002448 -0.000875 0.003479
# 4 0.007069 -0.002277 0.002448 0.023934 0.001464 0.002971
# 5 -0.005043 -0.000686 -0.000875 0.001464 0.038595 -0.002482
# 6 -0.006966 -0.000797 0.003479 0.002971 -0.002482 0.036574
#
#
# Mechanical properties :
#
#
# Convention : Reuss Voigt Hill
#
# Bulk Modulus (GPa) = 35.90157 55.88327 45.89242
# Shear Modulus (GPa) = 23.72580 33.14703 28.43642
#
# Velocity S-wave (km/s) = 3.25061 3.84217 3.55870
# Velocity P-wave (km/s) = 5.48431 6.67615 6.10936
#
# Compressibility (1/GPa) = 0.02785394
#
# Stress axis : x y z
#
# Youngs Moduli (GPa) = 26.38187 54.17099 114.42921
#
# Poissons Ratio (x) = 0.77156 0.03177
# Poissons Ratio (y) = 0.37576 0.46966
# Poissons Ratio (z) = 0.00732 0.22234
#
# Static dielectric constant tensor:
#      x y z
#    x 1.861540 -0.012090 -0.026520 
#    y -0.012090 1.860150 -0.016930 
#    z -0.026520 -0.016930 2.027170 
# 
# From -- ./inp_files/505401.got.cif
#   From: 2010.05.17/outbox.cif.g08.bks.cpg/sg2_253_cif.got.tgz:505401.got - 2010.06.03 11:33:40.
