data_PCOD9014566
_publ_section_title
;
Structure prediction by ZEFSAII (Michael W. Deem and Ramdas Pophale) SiO2 
 PCOD9014566
Probable space group: P -1
;
_chemical_formula_sum "Si O2"
_cell_formula_units_Z 16
_cell_length_a 8.498670
_cell_length_b 18.696916
_cell_length_c 11.735975
_cell_angle_alpha 48.687001
_cell_angle_beta 112.500705
_cell_angle_gamma 72.075724
_cell_volume 763.202045
_symmetry_space_group_name_H-M "P -1"
_symmetry_group_IT_number 2
_symmetry_cell_setting 'triclinic'
loop_
_space_group_symop_operation_xyz
x,y,z
-x,-y,-z
loop_
_atom_site_type_symbol
_atom_site_label
_atom_site_fract_x
_atom_site_fract_y
_atom_site_fract_z
Si Si1 0.531653 0.474779 0.900955
Si Si2 0.536019 0.969556 0.904521
Si Si3 0.684662 0.106967 0.823310
Si Si4 0.628270 0.724585 0.214273
Si Si5 0.337843 0.365896 0.272140
Si Si6 0.169793 0.129505 0.409812
Si Si7 0.539795 0.820414 0.689342
Si Si8 0.228771 0.429158 0.799154
O O1 0.826792 0.287033 0.150876
O O2 0.500000 0.500000 0.000000
O O3 0.572900 0.563692 0.773454
O O4 0.276475 0.518293 0.748784
O O5 0.685566 0.000441 0.885473
O O6 0.276852 0.080001 0.623938
O O7 0.706184 0.795308 0.117438
O O8 0.500000 0.000000 0.000000
O O9 0.619769 0.146156 0.898431
O O10 0.425339 0.278592 0.506875
O O11 0.000000 0.000000 0.000000
O O12 0.563830 0.690110 0.124095
O O13 0.906532 0.559165 0.528929
O O14 0.536850 0.219243 0.390200
O O15 0.000000 0.500000 0.000000
O O16 0.283385 0.174750 0.330552
O O17 0.302305 0.982252 0.529245
O O18 0.710657 0.673239 0.976855
#
# Coordination Sequence:
#
# PCOD9014566 Si02
#       8
#     2   2   2   2   2   2   2   2
#     4  12  27  39  68 104 135 169 232 282 331 402
#     4  10  21  41  68  91 131 176 216 270 336 407
#     4  11  25  41  67 100 129 175 227 281 332 401
#     4  10  24  45  68  90 138 178 221 266 346 407
#     4  12  23  45  69  98 138 182 221 280 345 408
#     4  11  24  43  66 105 126 180 224 277 341 402
#     4  11  22  43  70  92 136 177 220 274 340 405
#     4  11  24  45  66  98 129 183 220 279 336 403
#
# _framework density 20.964307000000002
#
# number of rings (size 3 to 8) (size 9 to 14) (size 15 to 20)
#    0.000    1.000    5.000    0.750    5.250    2.500 
#    0.000    0.625    0.000    0.000    0.000    0.000 
#    0.000    0.000    0.000    0.000    0.000    0.000 
#
# Total GULP energy -89197.752529 kJ/mol
# GULP energy per Si atom -5574.859533 kJ/mol
# Density = 2.091659 g / cm^3
# Si number density = 20.964307 Si / 1000 Ang^3
#
#
#
# Elastic Constant Matrix: (Units=GPa)
#
#
# Indices 1 2 3 4 5 6 
#
# 1 44.8146 23.7561 32.2319 -5.1823 -19.9794 3.1479
# 2 23.7561 126.7687 7.8102 5.5533 -4.0302 7.6461
# 3 32.2319 7.8102 51.5863 4.7669 -15.8628 5.2076
# 4 -5.1823 5.5533 4.7669 32.3815 -1.7708 -7.1073
# 5 -19.9794 -4.0302 -15.8628 -1.7708 29.4501 -11.0221
# 6 3.1479 7.6461 5.2076 -7.1073 -11.0221 35.0091
#
#
#
# Elastic Compliance Matrix: (Units=1/GPa)
#
#
# Indices 1 2 3 4 5 6 
#
# 1 0.073568 -0.012560 -0.036991 0.025400 0.036652 0.018327
# 2 -0.012560 0.010283 0.005367 -0.006063 -0.006535 -0.005203
# 3 -0.036991 0.005367 0.042190 -0.015381 -0.005976 -0.009126
# 4 0.025400 -0.006063 -0.015381 0.042454 0.016315 0.015084
# 5 0.036652 -0.006535 -0.005976 0.016315 0.064117 0.022519
# 6 0.018327 -0.005203 -0.009126 0.015084 0.022519 0.039562
#
#
# Mechanical properties :
#
#
# Convention : Reuss Voigt Hill
#
# Bulk Modulus (GPa) = 26.54499 38.97398 32.75948
# Shear Modulus (GPa) = 13.40126 29.99290 21.69708
#
# Velocity S-wave (km/s) = 2.53107 3.78652 3.22056
# Velocity P-wave (km/s) = 4.60773 6.14394 5.43043
#
# Compressibility (1/GPa) = 0.03767189
#
# Stress axis : x y z
#
# Youngs Moduli (GPa) = 13.59294 97.24651 23.70240
#
# Poissons Ratio (x) = 1.22143 0.87678
# Poissons Ratio (y) = 0.17073 -0.12721
# Poissons Ratio (z) = 0.50282 -0.52192
#
# Static dielectric constant tensor:
#      x y z
#    x 1.823260 -0.002030 -0.033860 
#    y -0.002030 1.795900 0.001250 
#    z -0.033860 0.001250 1.770200 
# 
# From -- ./inp_files/399670.got.cif
#   From: 2010.05.17/outbox.cif.g08.bks.cpg/sg2_200_cif.got.tgz:399670.got - 2010.06.03 11:33:40.
