data_PCOD9014893
_publ_section_title
;
Structure prediction by ZEFSAII (Michael W. Deem and Ramdas Pophale) SiO2 
 PCOD9014893
Probable space group: P -1
;
_chemical_formula_sum "Si O2"
_cell_formula_units_Z 15
_cell_length_a 13.741300
_cell_length_b 13.777167
_cell_length_c 5.381483
_cell_angle_alpha 122.824002
_cell_angle_beta 94.696272
_cell_angle_gamma 51.978298
_cell_volume 623.664772
_symmetry_space_group_name_H-M "P -1"
_symmetry_group_IT_number 2
_symmetry_cell_setting 'triclinic'
loop_
_space_group_symop_operation_xyz
x,y,z
-x,-y,-z
loop_
_atom_site_type_symbol
_atom_site_label
_atom_site_fract_x
_atom_site_fract_y
_atom_site_fract_z
Si Si1 0.367166 0.145860 0.420592
Si Si2 0.097997 0.311402 0.803990
Si Si3 0.530966 0.162908 0.825773
Si Si4 0.549914 0.548479 0.281494
Si Si5 0.286985 0.402770 0.430172
Si Si6 0.994666 0.735622 0.773349
Si Si7 0.000000 0.000000 0.000000
Si Si8 0.687075 0.229786 0.133683
O O1 0.249930 0.232469 0.721948
O O2 0.488032 0.124449 0.524846
O O3 0.297302 0.265180 0.342659
O O4 0.419179 0.974679 0.160796
O O5 0.081268 0.244106 0.463483
O O6 0.064180 0.269165 0.989422
O O7 0.000000 0.500000 0.000000
O O8 0.396947 0.329131 0.136815
O O9 0.644740 0.167554 0.836534
O O10 0.657659 0.562003 0.281693
O O11 0.633067 0.398639 0.276478
O O12 0.413944 0.715216 0.585454
O O13 0.500000 0.500000 0.000000
O O14 0.142021 0.559990 0.542873
O O15 0.006362 0.864435 0.948541
O O16 0.159567 0.890888 0.937980
#
# Coordination Sequence:
#
# PCOD9014893 Si02
#       8
#     2   2   2   2   2   2   1   2
#     4  11  23  41  70 101 142 188 242 303 373 444
#     4  12  26  48  76 111 148 199 248 311 378 457
#     4  10  23  42  65 102 138 186 246 301 374 440
#     4  10  21  41  69  98 134 185 250 299 366 434
#     4  11  22  41  69 100 139 194 239 309 366 447
#     4  12  28  48  76 108 155 200 255 310 381 454
#     4  12  26  52  72 110 154 200 256 310 388 448
#     4  10  22  44  67  99 141 185 239 307 362 447
#
# _framework density 24.051385
#
# number of rings (size 3 to 8) (size 9 to 14) (size 15 to 20)
#    0.000    1.067    2.667    3.200    1.867    1.600 
#   14.400    0.000    0.000    0.000    0.000    0.000 
#    0.000    0.000    0.000    0.000    0.000    0.000 
#
# Total GULP energy -83597.201419 kJ/mol
# GULP energy per Si atom -5573.146761 kJ/mol
# Density = 2.399664 g / cm^3
# Si number density = 24.051385 Si / 1000 Ang^3
#
#
#
# Elastic Constant Matrix: (Units=GPa)
#
#
# Indices 1 2 3 4 5 6 
#
# 1 129.3378 60.9614 36.5860 8.7302 3.8805 -21.5503
# 2 60.9614 152.4372 38.6236 22.2722 -8.1530 3.8873
# 3 36.5860 38.6236 62.0920 -6.3224 2.9925 -4.8532
# 4 8.7302 22.2722 -6.3224 41.9281 -2.1677 0.3033
# 5 3.8805 -8.1530 2.9925 -2.1677 30.9836 15.1268
# 6 -21.5503 3.8873 -4.8532 0.3033 15.1268 54.1953
#
#
#
# Elastic Compliance Matrix: (Units=1/GPa)
#
#
# Indices 1 2 3 4 5 6 
#
# 1 0.012054 -0.004080 -0.003949 -0.001259 -0.005330 0.006227
# 2 -0.004080 0.010779 -0.005468 -0.005376 0.005665 -0.004436
# 3 -0.003949 -0.005468 0.022857 0.006977 -0.003553 0.001821
# 4 -0.001259 -0.005376 0.006977 0.028009 -0.000166 0.000399
# 5 -0.005330 0.005665 -0.003553 -0.000166 0.041857 -0.014526
# 6 0.006227 -0.004436 0.001821 0.000399 -0.014526 0.025461
#
#
# Mechanical properties :
#
#
# Convention : Reuss Voigt Hill
#
# Bulk Modulus (GPa) = 53.48746 68.46766 60.97756
# Shear Modulus (GPa) = 28.69550 39.26780 33.98165
#
# Velocity S-wave (km/s) = 3.45786 4.04501 3.76290
# Velocity P-wave (km/s) = 6.18300 7.09543 6.65487
#
# Compressibility (1/GPa) = 0.01869597
#
# Stress axis : x y z
#
# Youngs Moduli (GPa) = 82.95792 92.77589 43.74959
#
# Poissons Ratio (x) = 0.37852 0.17278
# Poissons Ratio (y) = 0.33846 0.23922
# Poissons Ratio (z) = 0.32763 0.50729
#
# Static dielectric constant tensor:
#      x y z
#    x 1.949640 0.042210 0.041600 
#    y 0.042210 1.950700 -0.072610 
#    z 0.041600 -0.072610 2.017690 
# 
# From -- ./inp_files/98692.got.cif
#   From: 2010.05.17/outbox.cif.g08.bks.cpg/sg2_50_cif.got.tgz:98692.got - 2010.06.03 11:33:40.
