data_PCOD9014215
_publ_section_title
;
Structure prediction by ZEFSAII (Michael W. Deem and Ramdas Pophale) SiO2 
 PCOD9014215
Probable space group: P -1
;
_chemical_formula_sum "Si O2"
_cell_formula_units_Z 15
_cell_length_a 14.727199
_cell_length_b 5.381954
_cell_length_c 9.036756
_cell_angle_alpha 94.165063
_cell_angle_beta 111.544369
_cell_angle_gamma 64.207705
_cell_volume 596.592867
_symmetry_space_group_name_H-M "P -1"
_symmetry_group_IT_number 2
_symmetry_cell_setting 'triclinic'
loop_
_space_group_symop_operation_xyz
x,y,z
-x,-y,-z
loop_
_atom_site_type_symbol
_atom_site_label
_atom_site_fract_x
_atom_site_fract_y
_atom_site_fract_z
Si Si1 0.711717 0.241658 0.493551
Si Si2 0.382663 0.755551 0.045129
Si Si3 0.803274 0.285721 0.256430
Si Si4 0.594657 0.745251 0.625760
Si Si5 0.000000 0.500000 0.000000
Si Si6 0.057657 0.384858 0.690310
Si Si7 0.549949 0.183935 0.196881
Si Si8 0.776824 0.899854 0.783890
O O1 0.763610 0.356747 0.405279
O O2 0.613038 0.470637 0.536782
O O3 0.654562 0.083956 0.360178
O O4 0.794343 0.047989 0.656608
O O5 0.499808 0.516123 0.150242
O O6 0.316894 0.881104 0.158802
O O7 0.300907 0.662661 0.904055
O O8 0.406888 0.939084 0.943458
O O9 0.861560 0.467845 0.242212
O O10 0.881424 0.952227 0.291386
O O11 0.550052 0.804847 0.768207
O O12 0.716547 0.716353 0.691484
O O13 0.500000 0.000000 0.500000
O O14 0.880249 0.752600 0.941339
O O15 0.987636 0.472778 0.804645
O O16 0.000000 0.500000 0.500000
#
# Coordination Sequence:
#
# PCOD9014215 Si02
#       8
#     2   2   2   2   1   2   2   2
#     4  11  24  44  73 104 154 197 251 320 396 470
#     4  10  22  43  69 103 154 191 243 316 392 470
#     4  11  27  49  77 109 153 203 259 320 398 466
#     4  12  24  39  75 111 142 194 257 320 396 473
#     4  12  30  50  80 112 160 208 270 324 396 460
#     4  12  28  54  79 114 150 206 268 331 387 465
#     4  10  21  41  67 105 147 192 243 315 389 479
#     4  12  25  47  70 108 150 201 259 328 384 476
#
# _framework density 25.142772000000001
#
# number of rings (size 3 to 8) (size 9 to 14) (size 15 to 20)
#    0.000    0.800    4.000    2.400    5.600    1.067 
#    0.000    0.000    0.000    0.000    0.000    0.000 
#    0.000    0.000    0.000    0.000    0.000    0.000 
#
# Total GULP energy -83542.030577 kJ/mol
# GULP energy per Si atom -5569.468705 kJ/mol
# Density = 2.508555 g / cm^3
# Si number density = 25.142772 Si / 1000 Ang^3
#
#
#
# Elastic Constant Matrix: (Units=GPa)
#
#
# Indices 1 2 3 4 5 6 
#
# 1 28.0441 6.6139 0.5954 10.8371 -16.2915 8.0558
# 2 6.6139 80.7548 30.1426 -3.4872 -4.6012 -14.9075
# 3 0.5954 30.1426 140.2344 5.8937 -21.5343 -3.7035
# 4 10.8371 -3.4872 5.8937 45.6913 -21.0397 -1.1613
# 5 -16.2915 -4.6012 -21.5343 -21.0397 47.2166 2.6344
# 6 8.0558 -14.9075 -3.7035 -1.1613 2.6344 32.9115
#
#
#
# Elastic Compliance Matrix: (Units=1/GPa)
#
#
# Indices 1 2 3 4 5 6 
#
# 1 0.056661 -0.009019 0.004356 -0.006506 0.018830 -0.019201
# 2 -0.009019 0.016237 -0.003698 0.002984 -0.002414 0.009445
# 3 0.004356 -0.003698 0.008646 -0.000111 0.005158 -0.002185
# 4 -0.006506 0.002984 -0.000111 0.028620 0.010575 0.003095
# 5 0.018830 -0.002414 0.005158 0.010575 0.034927 -0.007544
# 6 -0.019201 0.009445 -0.002185 0.003095 -0.007544 0.039830
#
#
# Mechanical properties :
#
#
# Convention : Reuss Voigt Hill
#
# Bulk Modulus (GPa) = 15.42691 35.97081 25.69886
# Shear Modulus (GPa) = 22.39624 39.27597 30.83611
#
# Velocity S-wave (km/s) = 2.98780 3.95665 3.50586
# Velocity P-wave (km/s) = 4.24872 5.93390 5.16056
#
# Compressibility (1/GPa) = 0.06482179
#
# Stress axis : x y z
#
# Youngs Moduli (GPa) = 17.64868 61.58711 115.65426
#
# Poissons Ratio (x) = 0.55546 -0.50378
# Poissons Ratio (y) = 0.15918 0.42774
# Poissons Ratio (z) = -0.07688 0.22777
#
# Static dielectric constant tensor:
#      x y z
#    x 2.076090 0.083050 -0.038650 
#    y 0.083050 2.062130 0.021210 
#    z -0.038650 0.021210 2.029420 
# 
# From -- ./inp_files/288891.got.cif
#   From: 2010.05.17/outbox.cif.g08.bks.cpg/sg2_145_cif.got.tgz:288891.got - 2010.06.03 11:33:40.
