data_PCOD9014143
_publ_section_title
;
Structure prediction by ZEFSAII (Michael W. Deem and Ramdas Pophale) SiO2 
 PCOD9014143
Probable space group: P -1
;
_chemical_formula_sum "Si O2"
_cell_formula_units_Z 14
_cell_length_a 9.871185
_cell_length_b 7.080274
_cell_length_c 17.419787
_cell_angle_alpha 81.154484
_cell_angle_beta 134.608945
_cell_angle_gamma 127.491885
_cell_volume 601.611971
_symmetry_space_group_name_H-M "P -1"
_symmetry_group_IT_number 2
_symmetry_cell_setting 'triclinic'
loop_
_space_group_symop_operation_xyz
x,y,z
-x,-y,-z
loop_
_atom_site_type_symbol
_atom_site_label
_atom_site_fract_x
_atom_site_fract_y
_atom_site_fract_z
Si Si1 0.845299 0.269317 0.780638
Si Si2 0.158262 0.403346 0.621587
Si Si3 0.428419 0.028170 0.160841
Si Si4 0.281936 0.125120 0.786805
Si Si5 0.529372 0.238396 0.028896
Si Si6 0.355118 0.741224 0.543118
Si Si7 0.716679 0.508573 0.621024
O O1 0.811474 0.179741 0.861051
O O2 0.716320 0.389529 0.707761
O O3 0.150440 0.493540 0.857822
O O4 0.659268 0.991502 0.675428
O O5 0.231579 0.264104 0.702079
O O6 0.245253 0.479203 0.562907
O O7 0.842247 0.227663 0.512418
O O8 0.328810 0.695224 0.712732
O O9 0.527253 0.894528 0.176965
O O10 0.387869 0.128837 0.062505
O O11 0.400319 0.270737 0.907637
O O12 0.000739 0.818389 0.710735
O O13 0.500000 0.000000 0.000000
O O14 0.304895 0.674965 0.438675
O O15 0.500000 0.500000 0.500000
#
# Coordination Sequence:
#
# PCOD9014143 Si02
#       7
#     2   2   2   2   2   2   2
#     4  11  22  41  68  93 125 179 211 265 331 374
#     4  10  21  41  66  99 126 175 215 260 334 378
#     4  10  22  42  67  93 132 170 214 269 321 382
#     4  11  23  41  67  93 130 173 214 266 321 385
#     4  10  21  43  65  93 132 168 218 267 322 382
#     4  10  22  41  64  93 137 167 212 273 319 386
#     4  12  24  39  61  99 131 167 218 264 323 389
#
# _framework density 23.270811999999999
#
# number of rings (size 3 to 8) (size 9 to 14) (size 15 to 20)
#    0.000    1.429    4.286    1.286    2.000    4.571 
#    0.000    2.857    0.000    0.000    0.000    0.000 
#    0.000    0.000    0.000    0.000    0.000    0.000 
#
# Total GULP energy -78251.174400 kJ/mol
# GULP energy per Si atom -5589.369600 kJ/mol
# Density = 2.321785 g / cm^3
# Si number density = 23.270812 Si / 1000 Ang^3
#
#
#
# Elastic Constant Matrix: (Units=GPa)
#
#
# Indices 1 2 3 4 5 6 
#
# 1 29.5607 30.7847 8.0911 -3.4298 -9.3782 13.5613
# 2 30.7847 123.0076 26.0044 -21.7383 3.0926 17.5060
# 3 8.0911 26.0044 73.8484 2.3487 -3.8617 6.9401
# 4 -3.4298 -21.7383 2.3487 39.9231 5.1164 -4.5862
# 5 -9.3782 3.0926 -3.8617 5.1164 27.1216 -10.6419
# 6 13.5613 17.5060 6.9401 -4.5862 -10.6419 31.8109
#
#
#
# Elastic Compliance Matrix: (Units=1/GPa)
#
#
# Indices 1 2 3 4 5 6 
#
# 1 0.060418 -0.015404 0.001182 -0.007143 0.019429 -0.012068
# 2 -0.015404 0.014968 -0.004090 0.008039 -0.010340 -0.003078
# 3 0.001182 -0.004090 0.015231 -0.003561 0.003333 -0.000974
# 4 -0.007143 0.008039 -0.003561 0.030294 -0.009359 0.000634
# 5 0.019429 -0.010340 0.003333 -0.009359 0.052003 0.012728
# 6 -0.012068 -0.003078 -0.000974 0.000634 0.012728 0.042836
#
#
# Mechanical properties :
#
#
# Convention : Reuss Voigt Hill
#
# Bulk Modulus (GPa) = 18.52089 39.57525 29.04807
# Shear Modulus (GPa) = 18.49306 30.54021 24.51664
#
# Velocity S-wave (km/s) = 2.82208 3.62661 3.24934
# Velocity P-wave (km/s) = 4.31219 5.88045 5.15629
#
# Compressibility (1/GPa) = 0.05399308
#
# Stress axis : x y z
#
# Youngs Moduli (GPa) = 16.55130 66.80916 65.65499
#
# Poissons Ratio (x) = 1.02911 -0.07759
# Poissons Ratio (y) = 0.25495 0.26854
# Poissons Ratio (z) = -0.01956 0.27326
#
# Static dielectric constant tensor:
#      x y z
#    x 1.739730 -0.030790 0.047660 
#    y -0.030790 1.902930 -0.025130 
#    z 0.047660 -0.025130 1.830020 
# 
# From -- ./inp_files/257343.got.cif
#   From: 2010.05.17/outbox.cif.g08.bks.cpg/sg2_129_cif.got.tgz:257343.got - 2010.06.03 11:33:40.
