data_PCOD9014854
_publ_section_title
;
Structure prediction by ZEFSAII (Michael W. Deem and Ramdas Pophale) SiO2 
 PCOD9014854
Probable space group: P -1
;
_chemical_formula_sum "Si O2"
_cell_formula_units_Z 14
_cell_length_a 17.181100
_cell_length_b 9.532037
_cell_length_c 6.261467
_cell_angle_alpha 82.543759
_cell_angle_beta 46.340702
_cell_angle_gamma 64.334322
_cell_volume 645.757289
_symmetry_space_group_name_H-M "P -1"
_symmetry_group_IT_number 2
_symmetry_cell_setting 'triclinic'
loop_
_space_group_symop_operation_xyz
x,y,z
-x,-y,-z
loop_
_atom_site_type_symbol
_atom_site_label
_atom_site_fract_x
_atom_site_fract_y
_atom_site_fract_z
Si Si1 0.673506 0.806509 0.884900
Si Si2 0.784295 0.143736 0.882882
Si Si3 0.281698 0.108690 0.776201
Si Si4 0.464922 0.576799 0.801249
Si Si5 0.999069 0.896519 0.222744
Si Si6 0.513961 0.837636 0.842025
Si Si7 0.915557 0.677472 0.200675
O O1 0.570054 0.771430 0.983796
O O2 0.797391 0.698147 0.547531
O O3 0.710509 0.788844 0.061767
O O4 0.617121 0.002631 0.928811
O O5 0.877259 0.013206 0.564041
O O6 0.877464 0.159447 0.866236
O O7 0.682981 0.312738 0.946121
O O8 0.710686 0.061129 0.149795
O O9 0.394881 0.097381 0.428478
O O10 0.149726 0.204563 0.897377
O O11 0.500000 0.500000 0.500000
O O12 0.516356 0.703995 0.708567
O O13 0.500000 0.500000 0.000000
O O14 0.013823 0.254067 0.805079
O O15 0.000000 0.000000 0.000000
O O16 0.000000 0.500000 0.000000
#
# Coordination Sequence:
#
# PCOD9014854 Si02
#       7
#     2   2   2   2   2   2   2
#     4  10  21  41  69  96 133 177 236 292 356 428
#     4  11  25  45  73 103 133 198 258 301 366 458
#     4  11  21  41  72 100 129 183 242 300 363 438
#     4  12  30  49  73 110 159 197 239 310 385 450
#     4  11  23  45  74  97 139 195 255 304 365 445
#     4  10  23  41  71 104 134 184 241 296 360 445
#     4  11  24  41  63 103 140 180 235 308 369 429
#
# _framework density 21.679971999999999
#
# number of rings (size 3 to 8) (size 9 to 14) (size 15 to 20)
#    0.000    1.143    4.286    0.429    4.000    5.143 
#    0.000    0.000    0.000    0.000    0.000    0.000 
#    0.000    0.000    0.000    0.000    0.000    0.000 
#
# Total GULP energy -77942.458895 kJ/mol
# GULP energy per Si atom -5567.318492 kJ/mol
# Density = 2.163063 g / cm^3
# Si number density = 21.679972 Si / 1000 Ang^3
#
#
#
# Elastic Constant Matrix: (Units=GPa)
#
#
# Indices 1 2 3 4 5 6 
#
# 1 179.4371 55.1576 52.0762 23.1010 13.1249 6.4614
# 2 55.1576 71.5409 46.8890 25.4761 0.8760 -10.9629
# 3 52.0762 46.8890 89.0751 20.0080 5.3944 -1.8349
# 4 23.1010 25.4761 20.0080 31.6699 7.6441 8.7022
# 5 13.1249 0.8760 5.3944 7.6441 39.9126 6.5311
# 6 6.4614 -10.9629 -1.8349 8.7022 6.5311 41.5213
#
#
#
# Elastic Compliance Matrix: (Units=1/GPa)
#
#
# Indices 1 2 3 4 5 6 
#
# 1 0.007974 -0.005809 -0.001824 0.001269 -0.002033 -0.002801
# 2 -0.005809 0.035092 -0.010005 -0.022546 0.004563 0.013735
# 3 -0.001824 -0.010005 0.017911 -0.001354 -0.001162 -0.001100
# 4 0.001269 -0.022546 -0.001354 0.056115 -0.007745 -0.016753
# 5 -0.002033 0.004563 -0.001162 -0.007745 0.027464 -0.001227
# 6 -0.002801 0.013735 -0.001100 -0.016753 -0.001227 0.031802
#
#
# Mechanical properties :
#
#
# Convention : Reuss Voigt Hill
#
# Bulk Modulus (GPa) = 38.90843 72.03320 55.47082
# Shear Modulus (GPa) = 22.70643 35.01611 28.86127
#
# Velocity S-wave (km/s) = 3.23978 4.02324 3.65258
# Velocity P-wave (km/s) = 5.65514 7.40808 6.59016
#
# Compressibility (1/GPa) = 0.02570137
#
# Stress axis : x y z
#
# Youngs Moduli (GPa) = 125.40599 28.49654 55.83030
#
# Poissons Ratio (x) = 0.16554 0.10182
# Poissons Ratio (y) = 0.72848 0.55860
# Poissons Ratio (z) = 0.22870 0.28512
#
# Static dielectric constant tensor:
#      x y z
#    x 1.883390 -0.059590 0.099730 
#    y -0.059590 1.856900 -0.094690 
#    z 0.099730 -0.094690 1.895070 
# 
# From -- ./inp_files/106607.got.cif
#   From: 2010.05.17/outbox.cif.g08.bks.cpg/sg2_54_cif.got.tgz:106607.got - 2010.06.03 11:33:40.
