data_PCOD9014783
_publ_section_title
;
Structure prediction by ZEFSAII (Michael W. Deem and Ramdas Pophale) SiO2 
 PCOD9014783
Probable space group: P -1
;
_chemical_formula_sum "Si O2"
_cell_formula_units_Z 16
_cell_length_a 11.169299
_cell_length_b 9.211265
_cell_length_c 8.813805
_cell_angle_alpha 115.478697
_cell_angle_beta 74.434967
_cell_angle_gamma 105.483039
_cell_volume 776.520554
_symmetry_space_group_name_H-M "P -1"
_symmetry_group_IT_number 2
_symmetry_cell_setting 'triclinic'
loop_
_space_group_symop_operation_xyz
x,y,z
-x,-y,-z
loop_
_atom_site_type_symbol
_atom_site_label
_atom_site_fract_x
_atom_site_fract_y
_atom_site_fract_z
Si Si1 0.250162 0.183227 0.279379
Si Si2 0.105125 0.579000 0.884256
Si Si3 0.471093 0.830291 0.523116
Si Si4 0.331202 0.401689 0.642286
Si Si5 0.968089 0.683239 0.681197
Si Si6 0.520091 0.242067 0.171941
Si Si7 0.265620 0.822050 0.144875
Si Si8 0.800764 0.331332 0.579949
O O1 0.278278 0.316124 0.464692
O O2 0.124734 0.186736 0.227828
O O3 0.377129 0.223861 0.156634
O O4 0.247483 0.004148 0.269066
O O5 0.205741 0.455650 0.780124
O O6 0.043243 0.627529 0.772556
O O7 0.172781 0.746772 0.009710
O O8 0.000000 0.500000 0.000000
O O9 0.578851 0.724950 0.390568
O O10 0.478367 0.856347 0.714537
O O11 0.329378 0.733581 0.493018
O O12 0.500000 0.000000 0.500000
O O13 0.425701 0.575238 0.703183
O O14 0.863548 0.519320 0.613731
O O15 0.077863 0.744924 0.549210
O O16 0.601729 0.189512 0.984524
O O17 0.234413 0.709411 0.252232
#
# Coordination Sequence:
#
# PCOD9014783 Si02
#       8
#     2   2   2   2   2   2   2   2
#     4  11  22  39  65 101 124 169 217 264 325 376
#     4  11  23  46  61  89 127 172 212 261 324 379
#     4  11  22  40  65 100 129 167 217 267 319 383
#     4  10  21  41  69  89 125 178 212 252 320 389
#     4  11  23  40  67  90 126 171 221 265 303 398
#     4  10  21  43  65  91 137 172 208 261 325 386
#     4  11  24  41  64  94 135 167 207 279 328 366
#     4  11  21  40  64  95 126 167 218 260 313 388
#
# _framework density 20.604735999999999
#
# number of rings (size 3 to 8) (size 9 to 14) (size 15 to 20)
#    0.000    1.250    1.250    7.875    0.000    1.000 
#    6.750    1.875    0.000    0.000    0.000    0.000 
#    0.000    0.000    0.000    0.000    0.000    0.000 
#
# Total GULP energy -89135.300477 kJ/mol
# GULP energy per Si atom -5570.956280 kJ/mol
# Density = 2.055784 g / cm^3
# Si number density = 20.604736 Si / 1000 Ang^3
#
#
#
# Elastic Constant Matrix: (Units=GPa)
#
#
# Indices 1 2 3 4 5 6 
#
# 1 150.7454 47.1080 48.2183 -1.9593 -17.7276 -1.4951
# 2 47.1080 81.6023 41.6891 -0.8092 -11.5207 -10.5654
# 3 48.2183 41.6891 86.0730 -15.4872 -12.6789 -2.5049
# 4 -1.9593 -0.8092 -15.4872 25.3607 13.5691 2.7138
# 5 -17.7276 -11.5207 -12.6789 13.5691 31.5432 -0.2363
# 6 -1.4951 -10.5654 -2.5049 2.7138 -0.2363 28.0887
#
#
#
# Elastic Compliance Matrix: (Units=1/GPa)
#
#
# Indices 1 2 3 4 5 6 
#
# 1 0.009210 -0.002826 -0.003892 -0.004002 0.004297 -0.000497
# 2 -0.002826 0.020041 -0.008604 -0.008945 0.006177 0.007537
# 3 -0.003892 -0.008604 0.019849 0.013592 -0.003221 -0.003014
# 4 -0.004002 -0.008945 0.013592 0.062511 -0.027008 -0.008632
# 5 0.004297 0.006177 -0.003221 -0.027008 0.046737 0.005268
# 6 -0.000497 0.007537 -0.003014 -0.008632 0.005268 0.039019
#
#
# Mechanical properties :
#
#
# Convention : Reuss Voigt Hill
#
# Bulk Modulus (GPa) = 54.18214 65.82795 60.00504
# Shear Modulus (GPa) = 21.35266 29.09220 25.22243
#
# Velocity S-wave (km/s) = 3.22265 3.76163 3.50252
# Velocity P-wave (km/s) = 6.34038 7.13329 6.74849
#
# Compressibility (1/GPa) = 0.01845627
#
# Stress axis : x y z
#
# Youngs Moduli (GPa) = 108.57521 49.89894 50.37976
#
# Poissons Ratio (x) = 0.14100 0.19610
# Poissons Ratio (y) = 0.30680 0.43345
# Poissons Ratio (z) = 0.42262 0.42932
#
# Static dielectric constant tensor:
#      x y z
#    x 1.821310 -0.000560 -0.014900 
#    y -0.000560 1.742070 0.029600 
#    z -0.014900 0.029600 1.762380 
# 
# From -- ./inp_files/240273.got.cif
#   From: 2010.05.17/outbox.cif.g08.bks.cpg/sg2_121_cif.got.tgz:240273.got - 2010.06.03 11:33:40.
