data_PCOD9014207
_publ_section_title
;
Structure prediction by ZEFSAII (Michael W. Deem and Ramdas Pophale) SiO2 
 PCOD9014207
Probable space group: P -1
;
_chemical_formula_sum "Si O2"
_cell_formula_units_Z 14
_cell_length_a 18.578134
_cell_length_b 5.215827
_cell_length_c 7.874512
_cell_angle_alpha 64.241878
_cell_angle_beta 52.132625
_cell_angle_gamma 63.996305
_cell_volume 526.466085
_symmetry_space_group_name_H-M "P -1"
_symmetry_group_IT_number 2
_symmetry_cell_setting 'triclinic'
loop_
_space_group_symop_operation_xyz
x,y,z
-x,-y,-z
loop_
_atom_site_type_symbol
_atom_site_label
_atom_site_fract_x
_atom_site_fract_y
_atom_site_fract_z
Si Si1 0.888266 0.511186 0.666125
Si Si2 0.929531 0.228307 0.167413
Si Si3 0.903918 0.856641 0.854644
Si Si4 0.540228 0.844948 0.254111
Si Si5 0.588257 0.259622 0.811502
Si Si6 0.358861 0.201654 0.564500
Si Si7 0.230784 0.092129 0.534029
O O1 0.857524 0.762741 0.780872
O O2 0.833130 0.621247 0.542574
O O3 0.000000 0.500000 0.500000
O O4 0.867520 0.202955 0.839710
O O5 0.982589 0.163749 0.289973
O O6 0.831826 0.139929 0.326150
O O7 0.910932 0.568426 0.045682
O O8 0.000000 0.000000 0.000000
O O9 0.504783 0.702216 0.182137
O O10 0.624557 0.696246 0.299263
O O11 0.445472 0.923685 0.482058
O O12 0.566273 0.134710 0.058320
O O13 0.625863 0.548336 0.657919
O O14 0.672494 0.013166 0.678369
O O15 0.263799 0.124118 0.669238
#
# Coordination Sequence:
#
# PCOD9014207 Si02
#       7
#     2   2   2   2   2   2   2
#     4  12  24  44  70  98 136 191 244 301 363 430
#     4  11  23  46  67  96 137 189 245 307 367 428
#     4  11  24  43  71  96 130 193 243 296 365 434
#     4   9  20  42  70  97 138 183 228 275 374 440
#     4  10  21  41  67 104 136 181 230 297 349 446
#     4  10  21  41  69 101 139 181 227 294 355 444
#     4  11  26  42  64 102 140 178 247 302 360 423
#
# _framework density 26.592404999999999
#
# number of rings (size 3 to 8) (size 9 to 14) (size 15 to 20)
#    0.000    1.429    2.857    1.286    2.000    2.286 
#    7.714    0.000    0.000    0.000    0.000    0.000 
#    0.000    0.000    0.000    0.000    0.000    0.000 
#
# Total GULP energy -78258.170768 kJ/mol
# GULP energy per Si atom -5589.869341 kJ/mol
# Density = 2.653188 g / cm^3
# Si number density = 26.592405 Si / 1000 Ang^3
#
#
#
# Elastic Constant Matrix: (Units=GPa)
#
#
# Indices 1 2 3 4 5 6 
#
# 1 190.0457 40.1241 41.3294 -19.1419 -4.4572 4.0864
# 2 40.1241 125.9618 36.9293 -19.0997 -9.0624 15.9965
# 3 41.3294 36.9293 84.1667 -30.2337 -3.9097 1.5585
# 4 -19.1419 -19.0997 -30.2337 61.2072 2.5980 -13.4497
# 5 -4.4572 -9.0624 -3.9097 2.5980 26.3561 -7.5019
# 6 4.0864 15.9965 1.5585 -13.4497 -7.5019 34.6510
#
#
#
# Elastic Compliance Matrix: (Units=1/GPa)
#
#
# Indices 1 2 3 4 5 6 
#
# 1 0.006057 -0.001195 -0.002292 0.000413 0.000279 0.000161
# 2 -0.001195 0.010010 -0.003658 0.000003 0.001565 -0.003976
# 3 -0.002292 -0.003658 0.017333 0.007620 0.001441 0.004449
# 4 0.000413 0.000003 0.007620 0.022032 0.001441 0.008471
# 5 0.000279 0.001565 0.001441 0.001441 0.041055 0.008627
# 6 0.000161 -0.003976 0.004449 0.008471 0.008627 0.035631
#
#
# Mechanical properties :
#
#
# Convention : Reuss Voigt Hill
#
# Bulk Modulus (GPa) = 52.32545 70.77109 61.54827
# Shear Modulus (GPa) = 32.72723 43.22896 37.97810
#
# Velocity S-wave (km/s) = 3.51194 4.03626 3.78319
# Velocity P-wave (km/s) = 6.01369 6.95650 6.50221
#
# Compressibility (1/GPa) = 0.01911116
#
# Stress axis : x y z
#
# Youngs Moduli (GPa) = 165.08995 99.90011 57.69309
#
# Poissons Ratio (x) = 0.11943 0.13221
# Poissons Ratio (y) = 0.19736 0.21102
# Poissons Ratio (z) = 0.37831 0.36539
#
# Static dielectric constant tensor:
#      x y z
#    x 2.109880 0.031830 0.050270 
#    y 0.031830 2.147060 0.097780 
#    z 0.050270 0.097780 2.153180 
# 
# From -- ./inp_files/323277.got.cif
#   From: 2010.05.17/outbox.cif.g08.bks.cpg/sg2_162_cif.got.tgz:323277.got - 2010.06.03 11:33:40.
