data_PCOD9014363
_publ_section_title
;
Structure prediction by ZEFSAII (Michael W. Deem and Ramdas Pophale) SiO2 
 PCOD9014363
Probable space group: P -1
;
_chemical_formula_sum "Si O2"
_cell_formula_units_Z 13
_cell_length_a 6.078861
_cell_length_b 5.225944
_cell_length_c 16.988823
_cell_angle_alpha 69.931155
_cell_angle_beta 98.124280
_cell_angle_gamma 88.971545
_cell_volume 500.557025
_symmetry_space_group_name_H-M "P -1"
_symmetry_group_IT_number 2
_symmetry_cell_setting 'triclinic'
loop_
_space_group_symop_operation_xyz
x,y,z
-x,-y,-z
loop_
_atom_site_type_symbol
_atom_site_label
_atom_site_fract_x
_atom_site_fract_y
_atom_site_fract_z
Si Si1 0.598595 0.380010 0.436971
Si Si2 0.751229 0.451850 0.716473
Si Si3 0.121935 0.433932 0.129955
Si Si4 0.000000 0.000000 0.500000
Si Si5 0.295112 0.728124 0.975078
Si Si6 0.474008 0.024918 0.824188
Si Si7 0.113325 0.133547 0.665422
O O1 0.500000 0.500000 0.500000
O O2 0.405100 0.354224 0.366607
O O3 0.770680 0.599868 0.391748
O O4 0.746823 0.110735 0.492364
O O5 0.915116 0.551762 0.780236
O O6 0.892596 0.244909 0.688848
O O7 0.576112 0.304546 0.777445
O O8 0.323944 0.205004 0.151252
O O9 0.904093 0.354265 0.082501
O O10 0.196017 0.706507 0.059878
O O11 0.054094 0.969979 0.602501
O O12 0.373871 0.000818 0.909380
O O13 0.500000 0.500000 0.000000
O O14 0.286298 0.993406 0.751326
#
# Coordination Sequence:
#
# PCOD9014363 Si02
#       7
#     2   2   2   1   2   2   2
#     4  11  25  47  65 101 138 172 236 282 338 413
#     4  11  24  42  67  97 137 175 229 283 332 411
#     4  10  21  41  67  95 133 179 221 282 339 399
#     4  12  24  44  72  92 134 186 216 292 344 392
#     4   9  20  40  66  97 133 173 227 273 341 412
#     4  10  22  42  63  96 134 175 224 278 339 404
#     4  11  25  43  65  98 133 176 231 281 340 414
#
# _framework density 25.971067000000001
#
# number of rings (size 3 to 8) (size 9 to 14) (size 15 to 20)
#    0.000    1.538    1.538    2.308    0.000    8.615 
#    0.000   10.769    0.000    0.000    0.000    0.000 
#    0.000    0.000    0.000    0.000    0.000    0.000 
#
# Total GULP energy -72572.545137 kJ/mol
# GULP energy per Si atom -5582.503472 kJ/mol
# Density = 2.591196 g / cm^3
# Si number density = 25.971067 Si / 1000 Ang^3
#
#
#
# Elastic Constant Matrix: (Units=GPa)
#
#
# Indices 1 2 3 4 5 6 
#
# 1 121.5048 22.3634 63.3583 -15.7566 17.8095 -6.2792
# 2 22.3634 34.3220 31.5724 5.0926 1.4376 -10.1408
# 3 63.3583 31.5724 197.0935 8.7736 23.4275 0.2826
# 4 -15.7566 5.0926 8.7736 39.2913 -1.3803 -12.0174
# 5 17.8095 1.4376 23.4275 -1.3803 71.6993 -17.6917
# 6 -6.2792 -10.1408 0.2826 -12.0174 -17.6917 37.7468
#
#
#
# Elastic Compliance Matrix: (Units=1/GPa)
#
#
# Indices 1 2 3 4 5 6 
#
# 1 0.012036 -0.005183 -0.003213 0.006876 -0.001139 0.002289
# 2 -0.005183 0.041178 -0.005451 -0.002383 0.005130 0.011887
# 3 -0.003213 -0.005451 0.007476 -0.003729 -0.002722 -0.004518
# 4 0.006876 -0.002383 -0.003729 0.033356 0.003338 0.012716
# 5 -0.001139 0.005130 -0.002722 0.003338 0.017687 0.010562
# 6 0.002289 0.011887 -0.004518 0.012716 0.010562 0.039099
#
#
# Mechanical properties :
#
#
# Convention : Reuss Voigt Hill
#
# Bulk Modulus (GPa) = 30.30658 65.27870 47.79264
# Shear Modulus (GPa) = 26.38171 45.45591 35.91881
#
# Velocity S-wave (km/s) = 3.19064 4.18814 3.72295
# Velocity P-wave (km/s) = 5.02675 6.96973 6.07640
#
# Compressibility (1/GPa) = 0.03299613
#
# Stress axis : x y z
#
# Youngs Moduli (GPa) = 83.08095 24.28470 133.76590
#
# Poissons Ratio (x) = 0.12587 0.42979
# Poissons Ratio (y) = 0.43063 0.72914
# Poissons Ratio (z) = 0.26694 0.13237
#
# Static dielectric constant tensor:
#      x y z
#    x 2.051810 0.123600 -0.037710 
#    y 0.123600 2.097320 -0.037180 
#    z -0.037710 -0.037180 2.027400 
# 
# From -- ./inp_files/4483.got.cif
#   From: 2010.05.17/outbox.cif.g08.bks.cpg/sg2_3_cif.got.tgz:4483.got - 2010.06.03 11:33:40.
