data_PCOD9014388
_publ_section_title
;
Structure prediction by ZEFSAII (Michael W. Deem and Ramdas Pophale) SiO2 
 PCOD9014388
Probable space group: P -1
;
_chemical_formula_sum "Si O2"
_cell_formula_units_Z 16
_cell_length_a 11.828044
_cell_length_b 11.232572
_cell_length_c 12.333339
_cell_angle_alpha 51.182224
_cell_angle_beta 74.120774
_cell_angle_gamma 114.916881
_cell_volume 751.238481
_symmetry_space_group_name_H-M "P -1"
_symmetry_group_IT_number 2
_symmetry_cell_setting 'triclinic'
loop_
_space_group_symop_operation_xyz
x,y,z
-x,-y,-z
loop_
_atom_site_type_symbol
_atom_site_label
_atom_site_fract_x
_atom_site_fract_y
_atom_site_fract_z
Si Si1 0.541349 0.650820 0.302136
Si Si2 0.927488 0.221806 0.938657
Si Si3 0.193164 0.862978 0.333684
Si Si4 0.056131 0.408103 0.247798
Si Si5 0.809650 0.483518 0.505481
Si Si6 0.595637 0.609505 0.072730
Si Si7 0.971999 0.805978 0.837173
Si Si8 0.185004 0.234257 0.388555
O O1 0.500000 0.500000 0.500000
O O2 0.364681 0.587109 0.377255
O O3 0.564592 0.578601 0.227866
O O4 0.740217 0.944638 0.101222
O O5 0.880431 0.352412 0.894350
O O6 0.098060 0.384955 0.712039
O O7 0.986601 0.211081 0.044271
O O8 0.260967 0.764998 0.336814
O O9 0.136573 0.801539 0.509842
O O10 0.992784 0.680940 0.424791
O O11 0.329841 0.144034 0.113688
O O12 0.018960 0.315732 0.187642
O O13 0.196202 0.427586 0.256737
O O14 0.383249 0.366614 0.220727
O O15 0.760107 0.660818 0.969369
O O16 0.122217 0.093809 0.598920
O O17 0.000000 0.000000 0.500000
#
# Coordination Sequence:
#
# PCOD9014388 Si02
#       8
#     2   2   2   2   2   2   2   2
#     4  12  26  39  66  99 131 175 219 269 333 399
#     4  11  24  43  68  97 133 179 218 269 336 388
#     4  10  21  41  67  96 132 170 218 274 331 393
#     4  10  22  44  67  94 133 173 220 277 321 389
#     4  10  23  43  62  97 137 167 215 279 328 389
#     4  12  24  39  70  98 128 178 218 268 340 390
#     4  11  24  44  66  96 136 176 220 273 323 392
#     4  10  23  42  64  94 130 169 220 273 315 386
#
# _framework density 21.298162000000001
#
# number of rings (size 3 to 8) (size 9 to 14) (size 15 to 20)
#    0.000    1.250    2.500    2.625    3.500    3.500 
#    0.000    0.000    0.000    6.750    0.000    0.000 
#    0.000    0.000    0.000    0.000    0.000    0.000 
#
# Total GULP energy -89475.148562 kJ/mol
# GULP energy per Si atom -5592.196785 kJ/mol
# Density = 2.124969 g / cm^3
# Si number density = 21.298162 Si / 1000 Ang^3
#
#
#
# Elastic Constant Matrix: (Units=GPa)
#
#
# Indices 1 2 3 4 5 6 
#
# 1 67.5966 2.6566 16.5246 -4.1985 -6.8310 7.2893
# 2 2.6566 84.3899 18.8487 9.0140 -3.3022 6.9792
# 3 16.5246 18.8487 69.1406 1.6838 2.3515 12.1968
# 4 -4.1985 9.0140 1.6838 39.2612 1.9576 1.4898
# 5 -6.8310 -3.3022 2.3515 1.9576 39.5742 5.0220
# 6 7.2893 6.9792 12.1968 1.4898 5.0220 24.9540
#
#
#
# Elastic Compliance Matrix: (Units=1/GPa)
#
#
# Indices 1 2 3 4 5 6 
#
# 1 0.016547 0.000559 -0.003552 0.001771 0.003543 -0.004072
# 2 0.000559 0.013139 -0.003279 -0.002815 0.001836 -0.002436
# 3 -0.003552 -0.003279 0.017357 -0.000077 -0.001115 -0.006300
# 4 0.001771 -0.002815 -0.000077 0.026404 -0.001098 -0.001048
# 5 0.003543 0.001836 -0.001115 -0.001098 0.026962 -0.006364
# 6 -0.004072 -0.002436 -0.006300 -0.001048 -0.006364 0.046367
#
#
# Mechanical properties :
#
#
# Convention : Reuss Voigt Hill
#
# Bulk Modulus (GPa) = 28.98770 33.02077 31.00423
# Shear Modulus (GPa) = 29.27022 32.96436 31.11729
#
# Velocity S-wave (km/s) = 3.71119 3.93842 3.82649
# Velocity P-wave (km/s) = 5.65719 6.01824 5.84051
#
# Compressibility (1/GPa) = 0.03449739
#
# Stress axis : x y z
#
# Youngs Moduli (GPa) = 60.43272 76.11107 57.61215
#
# Poissons Ratio (x) = -0.04253 0.20466
# Poissons Ratio (y) = -0.03377 0.18893
# Poissons Ratio (z) = 0.21468 0.24960
#
# Static dielectric constant tensor:
#      x y z
#    x 1.766040 0.000160 0.019860 
#    y 0.000160 1.815590 0.021780 
#    z 0.019860 0.021780 1.760960 
# 
# From -- ./inp_files/427562.got.cif
#   From: 2010.05.17/outbox.cif.g08.bks.cpg/sg2_214_cif.got.tgz:427562.got - 2010.06.03 11:33:40.
