data_PCOD9014844
_publ_section_title
;
Structure prediction by ZEFSAII (Michael W. Deem and Ramdas Pophale) SiO2 
 PCOD9014844
Probable space group: P -1
;
_chemical_formula_sum "Si O2"
_cell_formula_units_Z 14
_cell_length_a 17.127654
_cell_length_b 6.538067
_cell_length_c 12.509866
_cell_angle_alpha 48.330411
_cell_angle_beta 143.575304
_cell_angle_gamma 119.015371
_cell_volume 617.395948
_symmetry_space_group_name_H-M "P -1"
_symmetry_group_IT_number 2
_symmetry_cell_setting 'triclinic'
loop_
_space_group_symop_operation_xyz
x,y,z
-x,-y,-z
loop_
_atom_site_type_symbol
_atom_site_label
_atom_site_fract_x
_atom_site_fract_y
_atom_site_fract_z
Si Si1 0.878469 0.362967 0.197619
Si Si2 0.856322 0.240069 0.446553
Si Si3 0.233463 0.147255 0.816736
Si Si4 0.364862 0.087002 0.757028
Si Si5 0.924559 0.208974 0.761548
Si Si6 0.361806 0.677535 0.492317
Si Si7 0.634615 0.826019 0.835124
O O1 0.913216 0.205254 0.402596
O O2 0.999959 0.519004 0.241040
O O3 0.830445 0.136891 0.144585
O O4 0.753276 0.596213 0.004539
O O5 0.849003 0.566042 0.344612
O O6 0.929419 0.111889 0.676524
O O7 0.709574 0.141011 0.307079
O O8 0.274267 0.173099 0.730432
O O9 0.351812 0.136515 0.036429
O O10 0.373738 0.349863 0.600219
O O11 0.500000 0.000000 0.000000
O O12 0.771616 0.251674 0.611351
O O13 0.000000 0.000000 0.000000
O O14 0.494157 0.730984 0.682679
O O15 0.352483 0.884922 0.310095
#
# Coordination Sequence:
#
# PCOD9014844 Si02
#       7
#     2   2   2   2   2   2   2
#     4  10  22  44  67  97 131 171 220 268 328 399
#     4  10  23  42  66  95 134 173 215 273 329 383
#     4  10  21  41  69  96 126 174 217 269 334 385
#     4  11  23  41  68 103 130 165 225 273 325 397
#     4  12  24  43  67  96 136 176 222 267 322 390
#     4  11  23  44  65  97 136 172 219 275 327 385
#     4  10  23  44  67  94 134 174 216 273 334 389
#
# _framework density 22.675885999999998
#
# number of rings (size 3 to 8) (size 9 to 14) (size 15 to 20)
#    0.000    1.429    2.857    3.000    2.000    2.857 
#    5.143    3.571    0.000    0.000    0.000    0.000 
#    0.000    0.000    0.000    0.000    0.000    0.000 
#
# Total GULP energy -78232.815575 kJ/mol
# GULP energy per Si atom -5588.058255 kJ/mol
# Density = 2.262427 g / cm^3
# Si number density = 22.675886 Si / 1000 Ang^3
#
#
#
# Elastic Constant Matrix: (Units=GPa)
#
#
# Indices 1 2 3 4 5 6 
#
# 1 58.7535 26.3453 29.2204 -1.0873 9.0121 20.6076
# 2 26.3453 140.6940 50.4917 3.0648 -4.7588 23.1696
# 3 29.2204 50.4917 147.0080 6.5613 -11.0237 10.2550
# 4 -1.0873 3.0648 6.5613 32.4875 2.3525 -3.2715
# 5 9.0121 -4.7588 -11.0237 2.3525 41.1180 0.4887
# 6 20.6076 23.1696 10.2550 -3.2715 0.4887 41.6850
#
#
#
# Elastic Compliance Matrix: (Units=1/GPa)
#
#
# Indices 1 2 3 4 5 6 
#
# 1 0.024334 -0.001702 -0.004114 0.001287 -0.006589 -0.009894
# 2 -0.001702 0.008919 -0.002371 -0.000845 0.000861 -0.003609
# 3 -0.004114 -0.002371 0.008669 -0.001780 0.003041 0.001044
# 4 0.001287 -0.000845 -0.001780 0.031741 -0.002706 0.002794
# 5 -0.006589 0.000861 0.003041 -0.002706 0.026816 0.001504
# 6 -0.009894 -0.003609 0.001044 0.002794 0.001504 0.030832
#
#
# Mechanical properties :
#
#
# Convention : Reuss Voigt Hill
#
# Bulk Modulus (GPa) = 39.14053 62.06337 50.60195
# Shear Modulus (GPa) = 32.01016 39.08463 35.54739
#
# Velocity S-wave (km/s) = 3.76125 4.15616 3.96363
# Velocity P-wave (km/s) = 6.01341 7.10357 6.58110
#
# Compressibility (1/GPa) = 0.02554897
#
# Stress axis : x y z
#
# Youngs Moduli (GPa) = 41.09476 112.11860 115.35297
#
# Poissons Ratio (x) = 0.19082 0.47452
# Poissons Ratio (y) = 0.06994 0.27351
# Poissons Ratio (z) = 0.16905 0.26584
#
# Static dielectric constant tensor:
#      x y z
#    x 1.885380 0.006980 0.055180 
#    y 0.006980 1.832900 -0.020330 
#    z 0.055180 -0.020330 1.874530 
# 
# From -- ./inp_files/459410.got.cif
#   From: 2010.05.17/outbox.cif.g08.bks.cpg/sg2_230_cif.got.tgz:459410.got - 2010.06.03 11:33:40.
