data_PCOD9014701
_publ_section_title
;
Structure prediction by ZEFSAII (Michael W. Deem and Ramdas Pophale) SiO2 
 PCOD9014701
Probable space group: P -1
;
_chemical_formula_sum "Si O2"
_cell_formula_units_Z 14
_cell_length_a 7.901862
_cell_length_b 13.286869
_cell_length_c 13.772745
_cell_angle_alpha 146.412612
_cell_angle_beta 46.830463
_cell_angle_gamma 133.795769
_cell_volume 556.045120
_symmetry_space_group_name_H-M "P -1"
_symmetry_group_IT_number 2
_symmetry_cell_setting 'triclinic'
loop_
_space_group_symop_operation_xyz
x,y,z
-x,-y,-z
loop_
_atom_site_type_symbol
_atom_site_label
_atom_site_fract_x
_atom_site_fract_y
_atom_site_fract_z
Si Si1 0.077187 0.579038 0.140257
Si Si2 0.661600 0.930691 0.765496
Si Si3 0.822406 0.042815 0.503622
Si Si4 0.570860 0.622634 0.931490
Si Si5 0.777208 0.038482 0.174560
Si Si6 0.391926 0.689921 0.838307
Si Si7 0.675465 0.258437 0.556108
O O1 0.145919 0.806596 0.300265
O O2 0.847493 0.488176 0.225637
O O3 0.326056 0.526591 0.011762
O O4 0.000000 0.500000 0.000000
O O5 0.583424 0.751085 0.725364
O O6 0.909682 0.950232 0.628488
O O7 0.427604 0.924164 0.785538
O O8 0.705650 0.126705 0.965685
O O9 0.727099 0.149511 0.541196
O O10 0.612395 0.841964 0.439485
O O11 0.503969 0.660561 0.875322
O O12 0.722993 0.477253 0.740855
O O13 0.676505 0.833659 0.103388
O O14 0.829234 0.208102 0.367722
O O15 0.000000 0.000000 0.000000
#
# Coordination Sequence:
#
# PCOD9014701 Si02
#       7
#     2   2   2   2   2   2   2
#     4  10  21  41  68  99 137 174 239 291 332 422
#     4  10  23  43  70  96 140 182 228 289 344 415
#     4  11  25  45  69 106 138 183 239 284 355 411
#     4  10  22  45  68  99 138 186 235 280 356 402
#     4  11  26  46  71 103 141 186 234 286 355 414
#     4   9  21  40  65 101 131 181 227 288 338 410
#     4  11  26  46  71 103 146 183 231 296 339 422
#
# _framework density 25.177813
#
# number of rings (size 3 to 8) (size 9 to 14) (size 15 to 20)
#    0.000    1.714    1.429    0.857   10.000    4.571 
#    0.000    0.000    0.000    0.000    0.000    0.000 
#    0.000    0.000    0.000    0.000    0.000    0.000 
#
# Total GULP energy -78286.686151 kJ/mol
# GULP energy per Si atom -5591.906154 kJ/mol
# Density = 2.512051 g / cm^3
# Si number density = 25.177813 Si / 1000 Ang^3
#
#
#
# Elastic Constant Matrix: (Units=GPa)
#
#
# Indices 1 2 3 4 5 6 
#
# 1 78.7207 23.9038 17.9787 -11.0440 -8.5741 -0.2682
# 2 23.9038 69.0564 13.3244 -15.1970 -13.9424 -0.1563
# 3 17.9787 13.3244 120.0291 -22.1263 -7.3145 1.8541
# 4 -11.0440 -15.1970 -22.1263 42.1411 7.8316 -7.2374
# 5 -8.5741 -13.9424 -7.3145 7.8316 31.7257 -2.3016
# 6 -0.2682 -0.1563 1.8541 -7.2374 -2.3016 28.8476
#
#
#
# Elastic Compliance Matrix: (Units=1/GPa)
#
#
# Indices 1 2 3 4 5 6 
#
# 1 0.014658 -0.004185 -0.001384 0.001445 0.001496 0.000684
# 2 -0.004185 0.018145 -0.000223 0.004541 0.005792 0.001675
# 3 -0.001384 -0.000223 0.009419 0.004480 0.000634 0.000555
# 4 0.001445 0.004541 0.004480 0.029942 -0.003466 0.006986
# 5 0.001496 0.005792 0.000634 -0.003466 0.035615 0.001977
# 6 0.000684 0.001675 0.000555 0.006986 0.001977 0.036555
#
#
# Mechanical properties :
#
#
# Convention : Reuss Voigt Hill
#
# Bulk Modulus (GPa) = 32.63963 42.02445 37.33204
# Shear Modulus (GPa) = 30.09652 34.71616 32.40634
#
# Velocity S-wave (km/s) = 3.46115 3.71730 3.59151
# Velocity P-wave (km/s) = 5.38187 5.92889 5.66199
#
# Compressibility (1/GPa) = 0.03063760
#
# Stress axis : x y z
#
# Youngs Moduli (GPa) = 68.22173 55.11095 106.16513
#
# Poissons Ratio (x) = 0.23065 0.14693
# Poissons Ratio (y) = 0.28552 0.02370
# Poissons Ratio (z) = 0.09442 0.01230
#
# Static dielectric constant tensor:
#      x y z
#    x 2.078970 0.037770 0.014220 
#    y 0.037770 2.089610 -0.039800 
#    z 0.014220 -0.039800 1.989670 
# 
# From -- ./inp_files/505656.got.cif
#   From: 2010.05.17/outbox.cif.g08.bks.cpg/sg2_253_cif.got.tgz:505656.got - 2010.06.03 11:33:40.
