data_PCOD9014874
_publ_section_title
;
Structure prediction by ZEFSAII (Michael W. Deem and Ramdas Pophale) SiO2 
 PCOD9014874
Probable space group: P -1
;
_chemical_formula_sum "Si O2"
_cell_formula_units_Z 12
_cell_length_a 14.222388
_cell_length_b 9.877859
_cell_length_c 5.462889
_cell_angle_alpha 127.571424
_cell_angle_beta 75.286166
_cell_angle_gamma 128.162267
_cell_volume 468.901638
_symmetry_space_group_name_H-M "P -1"
_symmetry_group_IT_number 2
_symmetry_cell_setting 'triclinic'
loop_
_space_group_symop_operation_xyz
x,y,z
-x,-y,-z
loop_
_atom_site_type_symbol
_atom_site_label
_atom_site_fract_x
_atom_site_fract_y
_atom_site_fract_z
Si Si1 0.765484 0.009045 0.257987
Si Si2 0.185613 0.603912 0.028267
Si Si3 0.000206 0.314182 0.170563
Si Si4 0.239948 0.384687 0.107889
Si Si5 0.622192 0.020060 0.968290
Si Si6 0.490946 0.595313 0.361683
O O1 0.645038 0.943448 0.120033
O O2 0.767195 0.823996 0.172924
O O3 0.804287 0.211636 0.616976
O O4 0.869221 0.098073 0.072568
O O5 0.048810 0.389380 0.940664
O O6 0.262855 0.533378 0.025476
O O7 0.256022 0.738961 0.890706
O O8 0.109219 0.314699 0.211434
O O9 0.000000 0.500000 0.500000
O O10 0.354771 0.526942 0.365130
O O11 0.595831 0.848526 0.591848
O O12 0.500000 0.000000 0.000000
O O13 0.500000 0.500000 0.500000
O O14 0.500000 0.500000 0.000000
#
# Coordination Sequence:
#
# PCOD9014874 Si02
#       6
#     2   2   2   2   2   2
#     4  11  20  43  70  98 137 185 240 298 369 442
#     4   9  23  42  62 101 141 180 237 303 361 435
#     4   8  19  39  69  96 137 183 234 304 362 436
#     4  10  21  41  69  97 139 185 239 294 368 431
#     4  12  27  42  71 103 146 194 245 305 375 436
#     4  12  27  47  72 108 151 194 250 307 370 451
#
# _framework density 25.591723000000002
#
# number of rings (size 3 to 8) (size 9 to 14) (size 15 to 20)
#    1.000    0.667    1.667    2.500    2.333    2.000 
#    0.000    0.000    3.667    4.000    0.000    0.000 
#    0.000    0.000    0.000    0.000    0.000    0.000 
#
# Total GULP energy -66967.591525 kJ/mol
# GULP energy per Si atom -5580.632627 kJ/mol
# Density = 2.553348 g / cm^3
# Si number density = 25.591723 Si / 1000 Ang^3
#
#
#
# Elastic Constant Matrix: (Units=GPa)
#
#
# Indices 1 2 3 4 5 6 
#
# 1 162.1840 33.0605 23.2535 -4.8244 -6.1664 -35.0570
# 2 33.0605 141.7023 19.4738 9.0039 -9.8561 -24.0103
# 3 23.2535 19.4738 90.5820 8.1756 -18.0696 -16.7294
# 4 -4.8244 9.0039 8.1756 37.1221 -5.2501 0.1687
# 5 -6.1664 -9.8561 -18.0696 -5.2501 43.4258 2.1110
# 6 -35.0570 -24.0103 -16.7294 0.1687 2.1110 54.8974
#
#
#
# Elastic Compliance Matrix: (Units=1/GPa)
#
#
# Indices 1 2 3 4 5 6 
#
# 1 0.007432 -0.000985 -0.001014 0.001466 0.000393 0.003987
# 2 -0.000985 0.008009 -0.000601 -0.001797 0.001082 0.002655
# 3 -0.001014 -0.000601 0.013118 -0.002214 0.004769 0.002911
# 4 0.001466 -0.001797 -0.002214 0.028387 0.002345 -0.000702
# 5 0.000393 0.001082 0.004769 0.002345 0.025539 0.001188
# 6 0.003987 0.002655 0.002911 -0.000702 0.001188 0.022766
#
#
# Mechanical properties :
#
#
# Convention : Reuss Voigt Hill
#
# Bulk Modulus (GPa) = 42.80785 60.67156 51.73970
# Shear Modulus (GPa) = 42.28812 48.33443 45.31128
#
# Velocity S-wave (km/s) = 4.06940 4.35060 4.21235
# Velocity P-wave (km/s) = 6.23246 6.99971 6.62720
#
# Compressibility (1/GPa) = 0.02336020
#
# Stress axis : x y z
#
# Youngs Moduli (GPa) = 134.54815 124.86538 76.23214
#
# Poissons Ratio (x) = 0.12298 0.07728
# Poissons Ratio (y) = 0.13252 0.04579
# Poissons Ratio (z) = 0.13639 0.07500
#
# Static dielectric constant tensor:
#      x y z
#    x 2.058530 0.065490 -0.039170 
#    y 0.065490 2.148250 -0.061360 
#    z -0.039170 -0.061360 2.034180 
# 
# From -- ./inp_files/91157.got.cif
#   From: 2010.05.17/outbox.cif.g08.bks.cpg/sg2_46_cif.got.tgz:91157.got - 2010.06.03 11:33:40.
