data_PCOD9014393
_publ_section_title
;
Structure prediction by ZEFSAII (Michael W. Deem and Ramdas Pophale) SiO2 
 PCOD9014393
Probable space group: P -1
;
_chemical_formula_sum "Si O2"
_cell_formula_units_Z 12
_cell_length_a 11.059956
_cell_length_b 16.209548
_cell_length_c 13.244057
_cell_angle_alpha 35.486892
_cell_angle_beta 142.801533
_cell_angle_gamma 157.306578
_cell_volume 520.759914
_symmetry_space_group_name_H-M "P -1"
_symmetry_group_IT_number 2
_symmetry_cell_setting 'triclinic'
loop_
_space_group_symop_operation_xyz
x,y,z
-x,-y,-z
loop_
_atom_site_type_symbol
_atom_site_label
_atom_site_fract_x
_atom_site_fract_y
_atom_site_fract_z
Si Si1 0.337368 0.755763 0.637654
Si Si2 0.414801 0.370525 0.176570
Si Si3 0.357942 0.597300 0.408041
Si Si4 0.639071 0.766843 0.017508
Si Si5 0.789165 0.087745 0.164801
Si Si6 0.710648 0.493326 0.774825
O O1 0.474816 0.728473 0.669476
O O2 0.955415 0.554729 0.581663
O O3 0.500000 0.000000 0.500000
O O4 0.432628 0.732297 0.829934
O O5 0.601009 0.575529 0.172829
O O6 0.052796 0.180969 0.165174
O O7 0.500000 0.500000 0.000000
O O8 0.520798 0.535298 0.589837
O O9 0.239401 0.540712 0.268849
O O10 0.627688 0.865830 0.335847
O O11 0.513092 0.730028 0.081665
O O12 0.000000 0.000000 0.000000
O O13 0.979016 0.293784 0.164333
O O14 0.500000 0.000000 0.000000
#
# Coordination Sequence:
#
# PCOD9014393 Si02
#       6
#     2   2   2   2   2   2
#     4  11  24  43  66 100 137 178 227 276 346 408
#     4   9  21  40  65  96 136 173 222 276 339 406
#     4  11  24  43  69  93 140 178 226 285 332 410
#     4  10  21  41  67  96 133 176 226 282 337 406
#     4  11  23  42  71  99 134 174 228 285 341 410
#     4  10  24  43  67 100 131 180 230 276 345 396
#
# _framework density 23.04325
#
# number of rings (size 3 to 8) (size 9 to 14) (size 15 to 20)
#    0.000    1.667    0.000    4.500    9.333    2.667 
#    3.000    4.167    0.000    0.000    0.000    0.000 
#    0.000    0.000    0.000    0.000    0.000    0.000 
#
# Total GULP energy -67101.147226 kJ/mol
# GULP energy per Si atom -5591.762269 kJ/mol
# Density = 2.299080 g / cm^3
# Si number density = 23.043250 Si / 1000 Ang^3
#
#
#
# Elastic Constant Matrix: (Units=GPa)
#
#
# Indices 1 2 3 4 5 6 
#
# 1 111.4922 52.8624 25.4672 -1.1892 10.2996 13.4969
# 2 52.8624 159.0707 33.1145 -3.9258 14.2011 32.3078
# 3 25.4672 33.1145 89.0240 -0.2922 10.6308 4.3813
# 4 -1.1892 -3.9258 -0.2922 44.5450 -3.4839 -2.9781
# 5 10.2996 14.2011 10.6308 -3.4839 44.8449 10.0930
# 6 13.4969 32.3078 4.3813 -2.9781 10.0930 42.2558
#
#
#
# Elastic Compliance Matrix: (Units=1/GPa)
#
#
# Indices 1 2 3 4 5 6 
#
# 1 0.011015 -0.003028 -0.001872 -0.000113 -0.000959 -0.000788
# 2 -0.003028 0.008893 -0.002127 0.000293 -0.000354 -0.005506
# 3 -0.001872 -0.002127 0.012759 -0.000235 -0.002260 0.001425
# 4 -0.000113 0.000293 -0.000235 0.022660 0.001508 0.001073
# 5 -0.000959 -0.000354 -0.002260 0.001508 0.024389 -0.004908
# 6 -0.000788 -0.005506 0.001425 0.001073 -0.004908 0.029227
#
#
# Mechanical properties :
#
#
# Convention : Reuss Voigt Hill
#
# Bulk Modulus (GPa) = 53.72836 64.71946 59.22391
# Shear Modulus (GPa) = 38.69912 42.87199 40.78556
#
# Velocity S-wave (km/s) = 4.10251 4.31803 4.21165
# Velocity P-wave (km/s) = 6.76814 7.28063 7.02906
#
# Compressibility (1/GPa) = 0.01861215
#
# Stress axis : x y z
#
# Youngs Moduli (GPa) = 90.78289 112.44973 78.37775
#
# Poissons Ratio (x) = 0.34050 0.14672
# Poissons Ratio (y) = 0.27490 0.16674
# Poissons Ratio (z) = 0.16994 0.23923
#
# Static dielectric constant tensor:
#      x y z
#    x 1.579470 -0.053090 0.131530 
#    y -0.053090 1.851040 0.027320 
#    z 0.131530 0.027320 1.834380 
# 
# From -- ./inp_files/159824.got.cif
#   From: 2010.05.17/outbox.cif.g08.bks.cpg/sg2_80_cif.got.tgz:159824.got - 2010.06.03 11:33:40.
