data_PCOD9014788
_publ_section_title
;
Structure prediction by ZEFSAII (Michael W. Deem and Ramdas Pophale) SiO2 
 PCOD9014788
Probable space group: P -1
;
_chemical_formula_sum "Si O2"
_cell_formula_units_Z 16
_cell_length_a 9.585246
_cell_length_b 15.321771
_cell_length_c 16.005367
_cell_angle_alpha 143.745297
_cell_angle_beta 35.626098
_cell_angle_gamma 124.784860
_cell_volume 784.694880
_symmetry_space_group_name_H-M "P -1"
_symmetry_group_IT_number 2
_symmetry_cell_setting 'triclinic'
loop_
_space_group_symop_operation_xyz
x,y,z
-x,-y,-z
loop_
_atom_site_type_symbol
_atom_site_label
_atom_site_fract_x
_atom_site_fract_y
_atom_site_fract_z
Si Si1 0.264169 0.988810 0.053081
Si Si2 0.095156 0.636622 0.097033
Si Si3 0.496164 0.879043 0.302996
Si Si4 0.882822 0.852895 0.222069
Si Si5 0.756143 0.375807 0.802501
Si Si6 0.988746 0.672485 0.532824
Si Si7 0.665953 0.623461 0.785700
Si Si8 0.245131 0.063471 0.940458
O O1 0.055200 0.150173 0.285189
O O2 0.355204 0.972649 0.900516
O O3 0.127143 0.869565 0.067479
O O4 0.500000 0.000000 0.000000
O O5 0.092129 0.613755 0.180146
O O6 0.941787 0.775818 0.223877
O O7 0.378143 0.640638 0.947200
O O8 0.000000 0.500000 0.000000
O O9 0.717403 0.787853 0.185227
O O10 0.348081 0.772308 0.248710
O O11 0.297075 0.985694 0.541706
O O12 0.613191 0.960628 0.235521
O O13 0.940157 0.352811 0.617038
O O14 0.500000 0.500000 0.000000
O O15 0.741582 0.637178 0.663249
O O16 0.199736 0.545481 0.378610
O O17 0.760593 0.757891 0.893576
O O18 0.000000 0.000000 0.000000
#
# Coordination Sequence:
#
# PCOD9014788 Si02
#       8
#     2   2   2   2   2   2   2   2
#     4  11  23  39  66  92 130 169 208 263 325 378
#     4  12  26  43  64  95 132 171 210 272 324 381
#     4  11  23  40  65  95 127 170 217 268 309 391
#     4  11  24  40  61  95 131 168 216 266 322 377
#     4  12  22  41  69  95 124 168 218 262 326 386
#     4  10  21  41  69  91 123 170 216 260 320 378
#     4  10  22  41  68  93 127 166 215 265 318 382
#     4  11  21  41  65  97 124 169 215 264 318 378
#
# _framework density 20.390091000000002
#
# number of rings (size 3 to 8) (size 9 to 14) (size 15 to 20)
#    0.000    1.000    5.000    2.250    0.000    1.500 
#    2.250    0.625    0.000    0.000    0.000    0.000 
#    0.000    0.000    0.000    0.000    0.000    0.000 
#
# Total GULP energy -89079.181456 kJ/mol
# GULP energy per Si atom -5567.448841 kJ/mol
# Density = 2.034368 g / cm^3
# Si number density = 20.390091 Si / 1000 Ang^3
#
#
#
# Elastic Constant Matrix: (Units=GPa)
#
#
# Indices 1 2 3 4 5 6 
#
# 1 117.5339 31.3771 5.9735 -9.7199 10.5954 -0.1335
# 2 31.3771 85.3640 16.4876 -22.8175 5.9564 -5.8167
# 3 5.9735 16.4876 38.0357 -21.6900 2.9608 -0.3732
# 4 -9.7199 -22.8175 -21.6900 43.4800 -14.7388 13.3689
# 5 10.5954 5.9564 2.9608 -14.7388 27.4471 -5.4165
# 6 -0.1335 -5.8167 -0.3732 13.3689 -5.4165 46.6369
#
#
#
# Elastic Compliance Matrix: (Units=1/GPa)
#
#
# Indices 1 2 3 4 5 6 
#
# 1 0.009713 -0.003541 -0.000162 -0.000767 -0.003494 -0.000601
# 2 -0.003541 0.015105 -0.002432 0.006494 0.001880 0.000211
# 3 -0.000162 -0.002432 0.039707 0.022741 0.007405 -0.005645
# 4 -0.000767 0.006494 0.022741 0.047498 0.019904 -0.010314
# 5 -0.003494 0.001880 0.007405 0.019904 0.047278 0.000069
# 6 -0.000601 0.000211 -0.005645 -0.010314 0.000069 0.024386
#
#
# Mechanical properties :
#
#
# Convention : Reuss Voigt Hill
#
# Bulk Modulus (GPa) = 19.13732 38.73442 28.93587
# Shear Modulus (GPa) = 23.43278 35.98583 29.70931
#
# Velocity S-wave (km/s) = 3.39370 4.20559 3.82127
# Velocity P-wave (km/s) = 4.97617 6.52845 5.80443
#
# Compressibility (1/GPa) = 0.05225392
#
# Stress axis : x y z
#
# Youngs Moduli (GPa) = 102.95932 66.20325 25.18433
#
# Poissons Ratio (x) = 0.23443 0.00408
# Poissons Ratio (y) = 0.36458 0.06126
# Poissons Ratio (z) = 0.01668 0.16104
#
# Static dielectric constant tensor:
#      x y z
#    x 2.116400 -0.649730 -0.022980 
#    y -0.649730 2.896470 0.126480 
#    z -0.022980 0.126480 1.775550 
# 
# From -- ./inp_files/396974.got.cif
#   From: 2010.05.17/outbox.cif.g08.bks.cpg/sg2_199_cif.got.tgz:396974.got - 2010.06.03 11:33:40.
