data_PCOD9014510
_publ_section_title
;
Structure prediction by ZEFSAII (Michael W. Deem and Ramdas Pophale) SiO2 
 PCOD9014510
Probable space group: P -1
;
_chemical_formula_sum "Si O2"
_cell_formula_units_Z 12
_cell_length_a 14.942684
_cell_length_b 5.275544
_cell_length_c 8.759047
_cell_angle_alpha 60.492927
_cell_angle_beta 132.777597
_cell_angle_gamma 103.648166
_cell_volume 435.794983
_symmetry_space_group_name_H-M "P -1"
_symmetry_group_IT_number 2
_symmetry_cell_setting 'triclinic'
loop_
_space_group_symop_operation_xyz
x,y,z
-x,-y,-z
loop_
_atom_site_type_symbol
_atom_site_label
_atom_site_fract_x
_atom_site_fract_y
_atom_site_fract_z
Si Si1 0.403595 0.417084 0.178840
Si Si2 0.644832 0.450193 0.563551
Si Si3 0.072945 0.674903 0.147093
Si Si4 0.803507 0.794394 0.150850
Si Si5 0.308458 0.994084 0.718472
Si Si6 0.070625 0.782905 0.432032
O O1 0.548177 0.297336 0.398265
O O2 0.374928 0.544748 0.278742
O O3 0.308582 0.191047 0.102490
O O4 0.380379 0.671180 0.944662
O O5 0.787263 0.329785 0.736967
O O6 0.624618 0.783978 0.368948
O O7 0.075753 0.567940 0.355595
O O8 0.000000 0.500000 0.000000
O O9 0.000000 0.000000 0.000000
O O10 0.733030 0.869502 0.205048
O O11 0.869664 0.454346 0.304415
O O12 0.930409 0.937914 0.250518
O O13 0.179797 0.975052 0.486491
#
# Coordination Sequence:
#
# PCOD9014510 Si02
#       6
#     2   2   2   2   2   2
#     4  10  25  46  70 103 147 193 240 305 364 448
#     4  11  24  49  69 105 147 188 250 300 371 442
#     4  12  26  44  71 107 149 193 248 314 374 444
#     4  10  21  41  68 102 141 184 244 296 367 437
#     4  11  22  44  72 105 140 194 240 302 367 440
#     4  10  22  40  67 100 144 188 235 304 366 427
#
# _framework density 27.535883999999999
#
# number of rings (size 3 to 8) (size 9 to 14) (size 15 to 20)
#    0.000    1.333    1.667    3.000    2.333    0.667 
#    6.000    1.667    0.000    0.000    0.000    0.000 
#    0.000    0.000    0.000    0.000    0.000    0.000 
#
# Total GULP energy -67100.563404 kJ/mol
# GULP energy per Si atom -5591.713617 kJ/mol
# Density = 2.747321 g / cm^3
# Si number density = 27.535884 Si / 1000 Ang^3
#
#
#
# Elastic Constant Matrix: (Units=GPa)
#
#
# Indices 1 2 3 4 5 6 
#
# 1 81.5286 26.5874 44.8542 13.7129 20.8757 12.3258
# 2 26.5874 96.9945 54.1707 27.2977 11.6558 5.5482
# 3 44.8542 54.1707 187.9703 24.0934 36.2016 11.1035
# 4 13.7129 27.2977 24.0934 67.3074 11.6055 1.6650
# 5 20.8757 11.6558 36.2016 11.6055 53.1739 5.8379
# 6 12.3258 5.5482 11.1035 1.6650 5.8379 49.3054
#
#
#
# Elastic Compliance Matrix: (Units=1/GPa)
#
#
# Indices 1 2 3 4 5 6 
#
# 1 0.015671 -0.002296 -0.002092 -0.000798 -0.003752 -0.002717
# 2 -0.002296 0.013706 -0.003026 -0.004155 0.000892 -0.000252
# 3 -0.002092 -0.003026 0.007429 -0.000402 -0.003442 -0.000388
# 4 -0.000798 -0.004155 -0.000402 0.017237 -0.002313 0.000450
# 5 -0.003752 0.000892 -0.003442 -0.002313 0.023046 -0.001038
# 6 -0.002717 -0.000252 -0.000388 0.000450 -0.001038 0.021184
#
#
# Mechanical properties :
#
#
# Convention : Reuss Voigt Hill
#
# Bulk Modulus (GPa) = 45.50274 68.63533 57.06904
# Shear Modulus (GPa) = 41.51820 50.01608 45.76714
#
# Velocity S-wave (km/s) = 3.88723 4.26654 4.08130
# Velocity P-wave (km/s) = 6.05873 7.01791 6.55589
#
# Compressibility (1/GPa) = 0.02197670
#
# Stress axis : x y z
#
# Youngs Moduli (GPa) = 63.81066 72.96032 134.60893
#
# Poissons Ratio (x) = 0.16753 0.28166
# Poissons Ratio (y) = 0.14652 0.40737
# Poissons Ratio (z) = 0.13352 0.22080
#
# Static dielectric constant tensor:
#      x y z
#    x 2.238350 0.139590 -0.124230 
#    y 0.139590 2.204330 -0.141440 
#    z -0.124230 -0.141440 2.529070 
# 
# From -- ./inp_files/184594.got.cif
#   From: 2010.05.17/outbox.cif.g08.bks.cpg/sg2_93_cif.got.tgz:184594.got - 2010.06.03 11:33:40.
