data_PCOD9014917
_publ_section_title
;
Structure prediction by ZEFSAII (Michael W. Deem and Ramdas Pophale) SiO2 
 PCOD9014917
Probable space group: P -1
;
_chemical_formula_sum "Si O2"
_cell_formula_units_Z 14
_cell_length_a 17.150176
_cell_length_b 14.975808
_cell_length_c 5.441025
_cell_angle_alpha 116.393037
_cell_angle_beta 72.925757
_cell_angle_gamma 149.240582
_cell_volume 628.185670
_symmetry_space_group_name_H-M "P -1"
_symmetry_group_IT_number 2
_symmetry_cell_setting 'triclinic'
loop_
_space_group_symop_operation_xyz
x,y,z
-x,-y,-z
loop_
_atom_site_type_symbol
_atom_site_label
_atom_site_fract_x
_atom_site_fract_y
_atom_site_fract_z
Si Si1 0.171344 0.080429 0.046370
Si Si2 0.147591 0.596902 0.092632
Si Si3 0.242635 0.906379 0.491068
Si Si4 0.622436 0.857906 0.850902
Si Si5 0.960437 0.870821 0.560770
Si Si6 0.271805 0.536322 0.658046
Si Si7 0.045181 0.323023 0.221308
O O1 0.324132 0.197465 0.179672
O O2 0.146341 0.171809 0.209913
O O3 0.121517 0.011683 0.723462
O O4 0.047202 0.871205 0.020741
O O5 0.252942 0.797712 0.331895
O O6 0.072467 0.444567 0.173102
O O7 0.245175 0.623215 0.864819
O O8 0.000000 0.500000 0.000000
O O9 0.066488 0.751905 0.546938
O O10 0.290290 0.005167 0.304760
O O11 0.338567 0.042387 0.809162
O O12 0.442964 0.679375 0.731687
O O13 0.853063 0.666371 0.343828
O O14 0.000000 0.000000 0.500000
O O15 0.212308 0.466674 0.348417
#
# Coordination Sequence:
#
# PCOD9014917 Si02
#       7
#     2   2   2   2   2   2   2
#     4   9  21  40  67  93 133 171 217 271 341 397
#     4  12  23  40  70 101 129 179 235 284 322 392
#     4  11  25  44  70  95 140 183 227 269 337 397
#     4  11  27  46  65 103 139 184 212 279 344 403
#     4  10  21  41  70 101 123 174 226 281 327 404
#     4  11  26  41  66 100 136 173 228 282 332 404
#     4  10  22  41  69  98 128 177 230 281 323 403
#
# _framework density 22.286403
#
# number of rings (size 3 to 8) (size 9 to 14) (size 15 to 20)
#    0.000    1.429    1.429    3.000   10.000    1.714 
#    0.000    0.714    0.000    0.000    0.000    0.000 
#    0.000    0.000    0.000    0.000    0.000    0.000 
#
# Total GULP energy -77970.231465 kJ/mol
# GULP energy per Si atom -5569.302247 kJ/mol
# Density = 2.223568 g / cm^3
# Si number density = 22.286403 Si / 1000 Ang^3
#
#
#
# Elastic Constant Matrix: (Units=GPa)
#
#
# Indices 1 2 3 4 5 6 
#
# 1 149.9906 32.9988 32.5257 11.1729 27.6194 -4.5240
# 2 32.9988 46.4564 18.1695 -9.1670 27.6913 -9.4396
# 3 32.5257 18.1695 56.7847 11.3032 11.2992 0.8969
# 4 11.1729 -9.1670 11.3032 26.8505 -7.7320 14.2273
# 5 27.6194 27.6913 11.2992 -7.7320 64.6238 9.6645
# 6 -4.5240 -9.4396 0.8969 14.2273 9.6645 51.0072
#
#
#
# Elastic Compliance Matrix: (Units=1/GPa)
#
#
# Indices 1 2 3 4 5 6 
#
# 1 0.009255 -0.005233 -0.001797 -0.006820 -0.002554 0.002270
# 2 -0.005233 0.040695 -0.010331 0.013700 -0.012626 0.005820
# 3 -0.001797 -0.010331 0.025070 -0.014634 -0.001209 0.001799
# 4 -0.006820 0.013700 -0.014634 0.062802 0.009684 -0.017164
# 5 -0.002554 -0.012626 -0.001209 0.009684 0.024834 -0.009948
# 6 0.002270 0.005820 0.001799 -0.017164 -0.009948 0.027524
#
#
# Mechanical properties :
#
#
# Convention : Reuss Voigt Hill
#
# Bulk Modulus (GPa) = 24.81419 46.73553 35.77486
# Shear Modulus (GPa) = 20.97893 39.79882 30.38887
#
# Velocity S-wave (km/s) = 3.07144 4.23044 3.69665
# Velocity P-wave (km/s) = 4.87204 6.69912 5.85726
#
# Compressibility (1/GPa) = 0.04029953
#
# Stress axis : x y z
#
# Youngs Moduli (GPa) = 108.05147 24.57297 39.88809
#
# Poissons Ratio (x) = 0.12859 0.07167
# Poissons Ratio (y) = 0.56543 0.41207
# Poissons Ratio (z) = 0.19414 0.25385
#
# Static dielectric constant tensor:
#      x y z
#    x 1.862280 0.038700 -0.056210 
#    y 0.038700 1.858590 -0.084260 
#    z -0.056210 -0.084260 2.039620 
# 
# From -- ./inp_files/45981.got.cif
#   From: 2010.05.17/outbox.cif.g08.bks.cpg/sg2_23_cif.got.tgz:45981.got - 2010.06.03 11:33:40.
