data_PCOD9014949
_publ_section_title
;
Structure prediction by ZEFSAII (Michael W. Deem and Ramdas Pophale) SiO2 
 PCOD9014949
Probable space group: P -1
;
_chemical_formula_sum "Si O2"
_cell_formula_units_Z 16
_cell_length_a 7.124913
_cell_length_b 11.453862
_cell_length_c 10.736000
_cell_angle_alpha 111.916279
_cell_angle_beta 95.259009
_cell_angle_gamma 49.045282
_cell_volume 599.052436
_symmetry_space_group_name_H-M "P -1"
_symmetry_group_IT_number 2
_symmetry_cell_setting 'triclinic'
loop_
_space_group_symop_operation_xyz
x,y,z
-x,-y,-z
loop_
_atom_site_type_symbol
_atom_site_label
_atom_site_fract_x
_atom_site_fract_y
_atom_site_fract_z
Si Si1 0.774354 0.936932 0.140645
Si Si2 0.792562 0.837288 0.477527
Si Si3 0.048635 0.343006 0.332209
Si Si4 0.269077 0.001201 0.112475
Si Si5 0.758457 0.464037 0.015545
Si Si6 0.101837 0.946587 0.320724
Si Si7 0.200437 0.497868 0.232515
Si Si8 0.454468 0.418943 0.693165
O O1 0.842716 0.991648 0.285716
O O2 0.012089 0.736714 0.060213
O O3 0.528052 0.959727 0.142445
O O4 0.741707 0.028796 0.045346
O O5 0.819912 0.738421 0.561077
O O6 0.947266 0.695230 0.323748
O O7 0.500000 0.000000 0.500000
O O8 0.924919 0.907788 0.556810
O O9 0.060413 0.203384 0.206375
O O10 0.193064 0.382004 0.275240
O O11 0.749228 0.505845 0.398177
O O12 0.225526 0.915087 0.178448
O O13 0.780090 0.544816 0.929510
O O14 0.569841 0.507368 0.731465
O O15 0.500000 0.500000 0.000000
O O16 0.726439 0.530540 0.177870
O O17 0.306380 0.777406 0.345270
#
# Coordination Sequence:
#
# PCOD9014949 Si02
#       8
#     2   2   2   2   2   2   2   2
#     4  11  21  43  66 106 143 188 238 281 370 423
#     4  11  27  50  75 105 143 190 250 297 357 431
#     4  11  25  45  72 105 140 187 238 304 358 421
#     4  10  25  40  66 105 146 184 234 293 355 436
#     4  10  21  41  70 105 146 184 235 290 350 436
#     4  11  24  43  73  97 145 189 232 301 352 418
#     4  11  25  45  73 101 148 192 237 299 349 424
#     4  11  24  44  70 110 142 183 244 292 364 430
#
# _framework density 26.708846000000001
#
# number of rings (size 3 to 8) (size 9 to 14) (size 15 to 20)
#    0.000    1.250    3.750    1.500    5.250    5.500 
#    0.000    2.500    0.000    0.000    0.000    0.000 
#    0.000    0.000    0.000    0.000    0.000    0.000 
#
# Total GULP energy -89724.514552 kJ/mol
# GULP energy per Si atom -5607.782159 kJ/mol
# Density = 2.664806 g / cm^3
# Si number density = 26.708846 Si / 1000 Ang^3
#
#
#
# Elastic Constant Matrix: (Units=GPa)
#
#
# Indices 1 2 3 4 5 6 
#
# 1 128.6904 71.2194 46.2766 -19.9929 -3.2459 -2.5056
# 2 71.2194 122.7672 36.3318 -34.4723 3.6084 -5.5910
# 3 46.2766 36.3318 96.8733 -11.7342 -3.7470 -10.4816
# 4 -19.9929 -34.4723 -11.7342 46.8112 11.7476 1.7882
# 5 -3.2459 3.6084 -3.7470 11.7476 53.0855 -1.7190
# 6 -2.5056 -5.5910 -10.4816 1.7882 -1.7190 47.5497
#
#
#
# Elastic Compliance Matrix: (Units=1/GPa)
#
#
# Indices 1 2 3 4 5 6 
#
# 1 0.012589 -0.006412 -0.003723 -0.000503 0.001026 -0.000855
# 2 -0.006412 0.014881 -0.001533 0.008668 -0.003410 0.000625
# 3 -0.003723 -0.001533 0.013009 0.000240 0.000823 0.002512
# 4 -0.000503 0.008668 0.000240 0.029389 -0.007117 -0.000317
# 5 0.001026 -0.003410 0.000823 -0.007117 0.020793 0.000854
# 6 -0.000855 0.000625 0.002512 -0.000317 0.000854 0.021656
#
#
# Mechanical properties :
#
#
# Convention : Reuss Voigt Hill
#
# Bulk Modulus (GPa) = 58.32784 72.88739 65.60762
# Shear Modulus (GPa) = 35.36968 42.45616 38.91292
#
# Velocity S-wave (km/s) = 3.64300 3.99129 3.82112
# Velocity P-wave (km/s) = 6.29135 6.97061 6.63967
#
# Compressibility (1/GPa) = 0.01714447
#
# Stress axis : x y z
#
# Youngs Moduli (GPa) = 79.43691 67.19957 76.87224
#
# Poissons Ratio (x) = 0.43085 0.28618
# Poissons Ratio (y) = 0.50931 0.11782
# Poissons Ratio (z) = 0.29572 0.10299
#
# Static dielectric constant tensor:
#      x y z
#    x 2.073780 0.009470 -0.003130 
#    y 0.009470 2.099890 -0.022960 
#    z -0.003130 -0.022960 2.169520 
# 
# From -- ./inp_files/390449.got.cif
#   From: 2010.05.17/outbox.cif.g08.bks.cpg/sg2_196_cif.got.tgz:390449.got - 2010.06.03 11:33:40.
