data_PCOD9014387
_publ_section_title
;
Structure prediction by ZEFSAII (Michael W. Deem and Ramdas Pophale) SiO2 
 PCOD9014387
Probable space group: P -1
;
_chemical_formula_sum "Si O2"
_cell_formula_units_Z 12
_cell_length_a 7.705113
_cell_length_b 16.459753
_cell_length_c 6.945008
_cell_angle_alpha 123.868820
_cell_angle_beta 74.777556
_cell_angle_gamma 136.374652
_cell_volume 489.092976
_symmetry_space_group_name_H-M "P -1"
_symmetry_group_IT_number 2
_symmetry_cell_setting 'triclinic'
loop_
_space_group_symop_operation_xyz
x,y,z
-x,-y,-z
loop_
_atom_site_type_symbol
_atom_site_label
_atom_site_fract_x
_atom_site_fract_y
_atom_site_fract_z
Si Si1 0.227541 0.030322 0.573205
Si Si2 0.972133 0.408231 0.155989
Si Si3 0.212832 0.705455 0.376225
Si Si4 0.414916 0.447962 0.232236
Si Si5 0.893328 0.749625 0.476936
Si Si6 0.401221 0.236972 0.116489
O O1 0.488010 0.147354 0.529398
O O2 0.286588 0.099876 0.857028
O O3 0.000000 0.000000 0.500000
O O4 0.107990 0.876681 0.438333
O O5 0.690561 0.323560 0.213632
O O6 0.137568 0.572877 0.314075
O O7 0.148757 0.395606 0.185421
O O8 0.892917 0.347240 0.881814
O O9 0.047261 0.731303 0.536615
O O10 0.500000 0.500000 0.500000
O O11 0.648687 0.597004 0.253878
O O12 0.418800 0.331770 0.075987
O O13 0.770975 0.787607 0.693316
#
# Coordination Sequence:
#
# PCOD9014387 Si02
#       6
#     2   2   2   2   2   2
#     4  11  24  42  63  91 130 174 214 262 323 383
#     4  10  21  41  67  96 131 166 213 268 322 375
#     4  10  22  40  65  96 128 170 216 265 320 382
#     4  10  22  39  66  97 126 165 212 265 319 381
#     4  11  22  41  64  94 129 164 218 262 317 387
#     4  10  23  44  64  95 130 167 215 265 322 382
#
# _framework density 24.535212999999999
#
# number of rings (size 3 to 8) (size 9 to 14) (size 15 to 20)
#    0.000    1.667    1.667    2.000    2.333    3.333 
#    6.000    0.833    0.000    0.000    0.000    0.000 
#    0.000    0.000    0.000    0.000    0.000    0.000 
#
# Total GULP energy -67160.531872 kJ/mol
# GULP energy per Si atom -5596.710989 kJ/mol
# Density = 2.447937 g / cm^3
# Si number density = 24.535213 Si / 1000 Ang^3
#
#
#
# Elastic Constant Matrix: (Units=GPa)
#
#
# Indices 1 2 3 4 5 6 
#
# 1 171.6493 41.8518 33.7255 16.4337 21.2875 32.9575
# 2 41.8518 126.1852 38.4260 44.9833 12.1863 29.9222
# 3 33.7255 38.4260 61.0520 3.5326 12.9562 4.0366
# 4 16.4337 44.9833 3.5326 42.0160 1.7384 -8.1146
# 5 21.2875 12.1863 12.9562 1.7384 38.3691 1.9921
# 6 32.9575 29.9222 4.0366 -8.1146 1.9921 52.9014
#
#
#
# Elastic Compliance Matrix: (Units=1/GPa)
#
#
# Indices 1 2 3 4 5 6 
#
# 1 0.009044 0.005133 -0.006249 -0.010192 -0.003583 -0.009489
# 2 0.005133 0.033368 -0.018873 -0.041164 -0.003816 -0.026802
# 3 -0.006249 -0.018873 0.029835 0.023329 -0.002499 0.015964
# 4 -0.010192 -0.041164 0.023329 0.077308 0.005297 0.039511
# 5 -0.003583 -0.003816 -0.002499 0.005297 0.029645 0.004278
# 6 -0.009489 -0.026802 0.015964 0.039511 0.004278 0.044656
#
#
# Mechanical properties :
#
#
# Convention : Reuss Voigt Hill
#
# Bulk Modulus (GPa) = 30.99040 65.21038 48.10039
# Shear Modulus (GPa) = 18.20886 42.98286 30.59586
#
# Velocity S-wave (km/s) = 2.72720 4.19009 3.53515
# Velocity P-wave (km/s) = 4.75134 7.07426 6.02579
#
# Compressibility (1/GPa) = 0.03226806
#
# Stress axis : x y z
#
# Youngs Moduli (GPa) = 110.56658 29.96875 33.51721
#
# Poissons Ratio (x) = -0.15382 0.20945
# Poissons Ratio (y) = -0.56750 0.63259
# Poissons Ratio (z) = 0.69094 0.56561
#
# Static dielectric constant tensor:
#      x y z
#    x 1.940950 -0.033450 -0.033750 
#    y -0.033450 2.098700 -0.082570 
#    z -0.033750 -0.082570 1.990610 
# 
# From -- ./inp_files/60450.got.cif
#   From: 2010.05.17/outbox.cif.g08.bks.cpg/sg2_31_cif.got.tgz:60450.got - 2010.06.03 11:33:40.
