data_PCOD9014182
_publ_section_title
;
Structure prediction by ZEFSAII (Michael W. Deem and Ramdas Pophale) SiO2 
 PCOD9014182
Probable space group: P -1
;
_chemical_formula_sum "Si O2"
_cell_formula_units_Z 16
_cell_length_a 21.661720
_cell_length_b 5.276426
_cell_length_c 9.250070
_cell_angle_alpha 51.597387
_cell_angle_beta 119.996505
_cell_angle_gamma 110.291953
_cell_volume 716.529503
_symmetry_space_group_name_H-M "P -1"
_symmetry_group_IT_number 2
_symmetry_cell_setting 'triclinic'
loop_
_space_group_symop_operation_xyz
x,y,z
-x,-y,-z
loop_
_atom_site_type_symbol
_atom_site_label
_atom_site_fract_x
_atom_site_fract_y
_atom_site_fract_z
Si Si1 0.928529 0.994296 0.824799
Si Si2 0.276500 0.350165 0.368028
Si Si3 0.024556 0.933139 0.714494
Si Si4 0.157339 0.532819 0.961600
Si Si5 0.563758 0.705021 0.429544
Si Si6 0.433952 0.543140 0.800960
Si Si7 0.272141 0.562620 0.618404
Si Si8 0.134885 0.495313 0.634177
O O1 0.956506 0.830099 0.767633
O O2 0.898565 0.309806 0.604767
O O3 0.866874 0.843881 0.907740
O O4 0.000000 0.000000 0.000000
O O5 0.358863 0.419832 0.399262
O O6 0.264668 0.468658 0.475112
O O7 0.264822 0.953701 0.491207
O O8 0.227405 0.550197 0.133676
O O9 0.086841 0.688010 0.884633
O O10 0.068219 0.265015 0.691161
O O11 0.000000 0.000000 0.500000
O O12 0.161865 0.654326 0.760021
O O13 0.500000 0.500000 0.500000
O O14 0.557989 0.663274 0.263176
O O15 0.563280 0.070377 0.357807
O O16 0.352631 0.476466 0.787563
O O17 0.500000 0.500000 0.000000
O O18 0.208174 0.374237 0.697607
#
# Coordination Sequence:
#
# PCOD9014182 Si02
#       8
#     2   2   2   2   2   2   2   2
#     4  12  24  45  66  87 129 171 215 283 345 392
#     4  10  24  44  68  96 135 184 221 266 343 397
#     4  12  26  43  64  95 125 165 227 286 332 402
#     4  12  26  43  66  94 127 178 224 270 346 401
#     4  10  21  41  67 101 136 175 222 273 320 393
#     4  10  21  41  67 101 135 179 220 266 333 389
#     4  10  24  44  68  95 139 180 220 275 332 399
#     4  12  26  44  64  97 131 169 230 277 332 409
#
# _framework density 22.329858000000002
#
# number of rings (size 3 to 8) (size 9 to 14) (size 15 to 20)
#    0.000    1.000    3.750    2.250    7.000    1.000 
#    2.250    0.000    0.000    0.000    0.000    0.000 
#    0.000    0.000    0.000    0.000    0.000    0.000 
#
# Total GULP energy -89232.195738 kJ/mol
# GULP energy per Si atom -5577.012234 kJ/mol
# Density = 2.227903 g / cm^3
# Si number density = 22.329858 Si / 1000 Ang^3
#
#
#
# Elastic Constant Matrix: (Units=GPa)
#
#
# Indices 1 2 3 4 5 6 
#
# 1 101.9782 4.1257 17.9623 11.0188 10.7392 11.9416
# 2 4.1257 62.9419 7.4331 13.2821 2.4776 -8.4244
# 3 17.9623 7.4331 107.0804 28.1120 21.3469 12.2779
# 4 11.0188 13.2821 28.1120 33.6854 8.3693 4.5306
# 5 10.7392 2.4776 21.3469 8.3693 32.1805 7.3433
# 6 11.9416 -8.4244 12.2779 4.5306 7.3433 29.0273
#
#
#
# Elastic Compliance Matrix: (Units=1/GPa)
#
#
# Indices 1 2 3 4 5 6 
#
# 1 0.010746 -0.000659 -0.000459 -0.001910 -0.001904 -0.003638
# 2 -0.000659 0.018577 0.000325 -0.008096 -0.000923 0.007022
# 3 -0.000459 0.000325 0.013245 -0.009292 -0.005687 -0.002430
# 4 -0.001910 -0.008096 -0.009292 0.042431 -0.002801 -0.003548
# 5 -0.001904 -0.000923 -0.005687 -0.002801 0.037692 -0.006177
# 6 -0.003638 0.007022 -0.002430 -0.003548 -0.006177 0.041129
#
#
# Mechanical properties :
#
#
# Convention : Reuss Voigt Hill
#
# Bulk Modulus (GPa) = 24.40017 36.78252 30.59135
# Shear Modulus (GPa) = 27.92253 35.14393 31.53323
#
# Velocity S-wave (km/s) = 3.54002 3.97149 3.76194
# Velocity P-wave (km/s) = 5.25926 6.12686 5.70956
#
# Compressibility (1/GPa) = 0.04098332
#
# Stress axis : x y z
#
# Youngs Moduli (GPa) = 93.05391 53.82978 75.50069
#
# Poissons Ratio (x) = 0.03548 0.03463
# Poissons Ratio (y) = 0.06134 -0.02456
# Poissons Ratio (z) = 0.04268 -0.01751
#
# Static dielectric constant tensor:
#      x y z
#    x 1.817360 0.038920 -0.014360 
#    y 0.038920 1.946190 -0.055970 
#    z -0.014360 -0.055970 1.854550 
# 
# From -- ./inp_files/12791.got.cif
#   From: 2010.05.17/outbox.cif.g08.bks.cpg/sg2_7_cif.got.tgz:12791.got - 2010.06.03 11:33:40.
