data_PCOD9014623
_publ_section_title
;
Structure prediction by ZEFSAII (Michael W. Deem and Ramdas Pophale) SiO2 
 PCOD9014623
Probable space group: P -1
;
_chemical_formula_sum "Si O2"
_cell_formula_units_Z 16
_cell_length_a 17.829694
_cell_length_b 17.992387
_cell_length_c 11.946813
_cell_angle_alpha 34.842055
_cell_angle_beta 160.577803
_cell_angle_gamma 149.713957
_cell_volume 642.248661
_symmetry_space_group_name_H-M "P -1"
_symmetry_group_IT_number 2
_symmetry_cell_setting 'triclinic'
loop_
_space_group_symop_operation_xyz
x,y,z
-x,-y,-z
loop_
_atom_site_type_symbol
_atom_site_label
_atom_site_fract_x
_atom_site_fract_y
_atom_site_fract_z
Si Si1 0.453130 0.660392 0.501241
Si Si2 0.628558 0.473762 0.102918
Si Si3 0.083485 0.631642 0.206361
Si Si4 0.595704 0.018643 0.737654
Si Si5 0.720265 0.766724 0.266654
Si Si6 0.380289 0.303914 0.544918
Si Si7 0.794206 0.998608 0.628467
Si Si8 0.210822 0.968816 0.655714
O O1 0.201416 0.594241 0.307077
O O2 0.420336 0.635612 0.352463
O O3 0.604226 0.833777 0.524369
O O4 0.654323 0.605050 0.895892
O O5 0.858935 0.449389 0.507366
O O6 0.500000 0.500000 0.000000
O O7 0.427766 0.333798 0.922150
O O8 0.257718 0.807419 0.252395
O O9 0.806249 0.622017 0.820553
O O10 0.368990 0.946291 0.597957
O O11 0.500000 0.000000 0.500000
O O12 0.742139 0.926266 0.079492
O O13 0.562458 0.690578 0.249957
O O14 0.025757 0.823557 0.646673
O O15 0.245359 0.125936 0.552827
O O16 0.913825 0.081004 0.581370
O O17 0.000000 0.000000 0.000000
O O18 0.500000 0.000000 0.000000
#
# Coordination Sequence:
#
# PCOD9014623 Si02
#       8
#     2   2   2   2   2   2   2   2
#     4   9  23  42  65  92 141 174 224 276 329 391
#     4  10  23  45  69  95 134 180 231 279 326 397
#     4  10  21  41  68  95 134 175 219 282 334 391
#     4  11  20  36  61  99 131 163 222 277 333 398
#     4  12  24  39  70 101 132 179 223 272 346 403
#     4  11  24  40  67 100 135 178 222 274 343 400
#     4  10  22  36  64  95 129 172 217 274 340 387
#     4  11  24  40  62 100 140 169 212 278 346 404
#
# _framework density 24.912468000000001
#
# number of rings (size 3 to 8) (size 9 to 14) (size 15 to 20)
#    0.000    1.500    2.500    1.875   10.500    1.000 
#    0.000    2.500    5.500    0.000    0.000    0.000 
#    0.000    0.000    0.000    0.000    0.000    0.000 
#
# Total GULP energy -89348.101073 kJ/mol
# GULP energy per Si atom -5584.256317 kJ/mol
# Density = 2.485577 g / cm^3
# Si number density = 24.912468 Si / 1000 Ang^3
#
#
#
# Elastic Constant Matrix: (Units=GPa)
#
#
# Indices 1 2 3 4 5 6 
#
# 1 150.5288 40.4447 27.6922 5.3088 -8.7526 -15.6845
# 2 40.4447 51.4315 22.7870 -8.7481 -4.4721 -11.3166
# 3 27.6922 22.7870 96.9736 -17.4065 -4.4377 -7.2235
# 4 5.3088 -8.7481 -17.4065 32.7685 1.8014 -5.6210
# 5 -8.7526 -4.4721 -4.4377 1.8014 40.0492 -4.1829
# 6 -15.6845 -11.3166 -7.2235 -5.6210 -4.1829 31.5280
#
#
#
# Elastic Compliance Matrix: (Units=1/GPa)
#
#
# Indices 1 2 3 4 5 6 
#
# 1 0.009090 -0.006742 -0.001572 -0.003974 0.001365 0.001215
# 2 -0.006742 0.029481 -0.002687 0.008877 0.002005 0.008461
# 3 -0.001572 -0.002687 0.012820 0.006734 0.000734 0.002489
# 4 -0.003974 0.008877 0.006734 0.038761 0.000136 0.009680
# 5 0.001365 0.002005 0.000734 0.000136 0.026095 0.005054
# 6 0.001215 0.008461 0.002489 0.009680 0.005054 0.038326
#
#
# Mechanical properties :
#
#
# Convention : Reuss Voigt Hill
#
# Bulk Modulus (GPa) = 34.02526 53.42018 43.72272
# Shear Modulus (GPa) = 26.82832 34.73649 30.78240
#
# Velocity S-wave (km/s) = 3.28518 3.73814 3.51896
# Velocity P-wave (km/s) = 5.29882 6.33414 5.83947
#
# Compressibility (1/GPa) = 0.02938993
#
# Stress axis : x y z
#
# Youngs Moduli (GPa) = 110.01204 33.91979 78.00271
#
# Poissons Ratio (x) = 0.22868 0.12262
# Poissons Ratio (y) = 0.74166 0.20959
# Poissons Ratio (z) = 0.17294 0.09114
#
# Static dielectric constant tensor:
#      x y z
#    x 1.927400 0.033530 -0.046300 
#    y 0.033530 1.958520 0.073610 
#    z -0.046300 0.073610 1.687180 
# 
# From -- ./inp_files/466590.got.cif
#   From: 2010.05.17/outbox.cif.g08.bks.cpg/sg2_234_cif.got.tgz:466590.got - 2010.06.03 11:33:40.
