data_PCOD9014974
_publ_section_title
;
Structure prediction by ZEFSAII (Michael W. Deem and Ramdas Pophale) SiO2 
 PCOD9014974
Probable space group: P -1
;
_chemical_formula_sum "Si O2"
_cell_formula_units_Z 14
_cell_length_a 16.636003
_cell_length_b 6.359688
_cell_length_c 9.605114
_cell_angle_alpha 131.658391
_cell_angle_beta 117.685965
_cell_angle_gamma 57.848203
_cell_volume 632.845853
_symmetry_space_group_name_H-M "P -1"
_symmetry_group_IT_number 2
_symmetry_cell_setting 'triclinic'
loop_
_space_group_symop_operation_xyz
x,y,z
-x,-y,-z
loop_
_atom_site_type_symbol
_atom_site_label
_atom_site_fract_x
_atom_site_fract_y
_atom_site_fract_z
Si Si1 0.450681 0.635653 0.873410
Si Si2 0.757197 0.405483 0.347199
Si Si3 0.781615 0.281440 0.017641
Si Si4 0.615364 0.650233 0.838847
Si Si5 0.239656 0.339829 0.248761
Si Si6 0.069744 0.720324 0.073793
Si Si7 0.942979 0.886751 0.288491
O O1 0.354588 0.559146 0.735438
O O2 0.527713 0.542131 0.767576
O O3 0.500000 0.500000 0.000000
O O4 0.419946 0.993201 0.017663
O O5 0.772177 0.603694 0.572110
O O6 0.830207 0.072829 0.294662
O O7 0.789400 0.458975 0.241445
O O8 0.699282 0.500629 0.951843
O O9 0.875078 0.153302 0.939050
O O10 0.750155 0.003564 0.918648
O O11 0.668010 0.586520 0.703861
O O12 0.148796 0.544477 0.176810
O O13 0.983749 0.934767 0.190647
O O14 0.041148 0.464180 0.857699
O O15 0.000000 0.000000 0.500000
#
# Coordination Sequence:
#
# PCOD9014974 Si02
#       7
#     2   2   2   2   2   2   2
#     4  11  21  42  71  97 127 173 218 266 323 389
#     4  12  23  40  68  94 133 170 218 271 320 384
#     4  11  22  44  64  97 134 169 216 267 321 390
#     4  10  21  41  70  92 133 173 209 268 334 374
#     4  11  22  42  64  98 131 172 214 266 322 390
#     4  10  23  42  69  90 134 175 209 272 330 370
#     4  11  22  43  68  97 129 172 223 266 319 391
#
# _framework density 22.122291000000001
#
# number of rings (size 3 to 8) (size 9 to 14) (size 15 to 20)
#    0.000    1.143    5.714    0.857    0.000    2.286 
#    5.143    4.286    0.000    0.000    0.000    0.000 
#    0.000    0.000    0.000    0.000    0.000    0.000 
#
# Total GULP energy -78193.139952 kJ/mol
# GULP energy per Si atom -5585.224282 kJ/mol
# Density = 2.207194 g / cm^3
# Si number density = 22.122291 Si / 1000 Ang^3
#
#
#
# Elastic Constant Matrix: (Units=GPa)
#
#
# Indices 1 2 3 4 5 6 
#
# 1 135.9843 8.0399 24.7869 -6.3426 -5.3380 7.1987
# 2 8.0399 77.8796 17.7550 -20.7127 2.3242 -2.4474
# 3 24.7869 17.7550 120.4909 -19.3430 -8.7900 -2.1043
# 4 -6.3426 -20.7127 -19.3430 18.3421 -1.7775 -5.8566
# 5 -5.3380 2.3242 -8.7900 -1.7775 33.3545 -6.0732
# 6 7.1987 -2.4474 -2.1043 -5.8566 -6.0732 28.5991
#
#
#
# Elastic Compliance Matrix: (Units=1/GPa)
#
#
# Indices 1 2 3 4 5 6 
#
# 1 0.007790 -0.000588 -0.001551 -0.000218 0.000491 -0.002066
# 2 -0.000588 0.019783 0.001757 0.026664 0.001835 0.007820
# 3 -0.001551 0.001757 0.011268 0.015511 0.004424 0.005486
# 4 -0.000218 0.026664 0.015511 0.111531 0.013450 0.029174
# 5 0.000491 0.001835 0.004424 0.013450 0.033684 0.010266
# 6 -0.002066 0.007820 0.005486 0.029174 0.010266 0.044713
#
#
# Mechanical properties :
#
#
# Convention : Reuss Voigt Hill
#
# Bulk Modulus (GPa) = 26.26309 48.39094 37.32702
# Shear Modulus (GPa) = 20.64191 34.97735 27.80963
#
# Velocity S-wave (km/s) = 3.05795 3.98061 3.54939
# Velocity P-wave (km/s) = 4.93616 6.56115 5.80579
#
# Compressibility (1/GPa) = 0.03807624
#
# Stress axis : x y z
#
# Youngs Moduli (GPa) = 128.37396 50.54827 88.74503
#
# Poissons Ratio (x) = 0.02973 0.13765
# Poissons Ratio (y) = 0.07551 -0.15591
# Poissons Ratio (z) = 0.19912 -0.08881
#
# Static dielectric constant tensor:
#      x y z
#    x 1.907730 -0.013470 -0.018340 
#    y -0.013470 1.806880 -0.021930 
#    z -0.018340 -0.021930 1.770840 
# 
# From -- ./inp_files/48441.got.cif
#   From: 2010.05.17/outbox.cif.g08.bks.cpg/sg2_25_cif.got.tgz:48441.got - 2010.06.03 11:33:40.
