data_PCOD9014796
_publ_section_title
;
Structure prediction by ZEFSAII (Michael W. Deem and Ramdas Pophale) SiO2 
 PCOD9014796
Probable space group: P -1
;
_chemical_formula_sum "Si O2"
_cell_formula_units_Z 14
_cell_length_a 7.576483
_cell_length_b 19.917253
_cell_length_c 16.577928
_cell_angle_alpha 21.509732
_cell_angle_beta 37.550708
_cell_angle_gamma 45.623260
_cell_volume 550.793476
_symmetry_space_group_name_H-M "P -1"
_symmetry_group_IT_number 2
_symmetry_cell_setting 'triclinic'
loop_
_space_group_symop_operation_xyz
x,y,z
-x,-y,-z
loop_
_atom_site_type_symbol
_atom_site_label
_atom_site_fract_x
_atom_site_fract_y
_atom_site_fract_z
Si Si1 0.197332 0.936730 0.227905
Si Si2 0.324608 0.014427 0.440526
Si Si3 0.070945 0.337762 0.805113
Si Si4 0.600596 0.687937 0.703794
Si Si5 0.450032 0.439828 0.892741
Si Si6 0.593747 0.554475 0.278864
Si Si7 0.653458 0.952949 0.781939
O O1 0.949770 0.765272 0.483674
O O2 0.302297 0.912129 0.309152
O O3 0.500000 0.000000 0.000000
O O4 0.036431 0.117506 0.077634
O O5 0.481564 0.859328 0.599201
O O6 0.984412 0.924985 0.671756
O O7 0.458138 0.003654 0.313393
O O8 0.322780 0.235249 0.204213
O O9 0.335996 0.398941 0.578666
O O10 0.163309 0.421204 0.766517
O O11 0.789898 0.414486 0.789572
O O12 0.451488 0.614690 0.754467
O O13 0.500000 0.500000 0.000000
O O14 0.322703 0.468246 0.818764
O O15 0.483318 0.754852 0.095529
#
# Coordination Sequence:
#
# PCOD9014796 Si02
#       7
#     2   2   2   2   2   2   2
#     4  11  25  43  64 102 140 177 228 284 354 410
#     4  10  22  47  67  99 133 177 236 282 350 403
#     4  10  21  41  69  91 138 184 214 282 345 410
#     4  12  28  42  69 105 135 180 235 289 340 422
#     4  11  23  43  67  97 136 178 229 278 346 404
#     4   9  21  38  65  99 124 180 225 268 341 414
#     4   9  21  42  73  91 136 185 220 292 346 411
#
# _framework density 25.417874000000001
#
# number of rings (size 3 to 8) (size 9 to 14) (size 15 to 20)
#    0.000    1.714    1.429    1.286   10.000    2.286 
#    0.000    8.571    0.000    0.000    0.000    0.000 
#    0.000    0.000    0.000    0.000    0.000    0.000 
#
# Total GULP energy -78176.425066 kJ/mol
# GULP energy per Si atom -5584.030362 kJ/mol
# Density = 2.536002 g / cm^3
# Si number density = 25.417874 Si / 1000 Ang^3
#
#
#
# Elastic Constant Matrix: (Units=GPa)
#
#
# Indices 1 2 3 4 5 6 
#
# 1 47.7703 9.2125 5.9386 18.4269 1.2550 23.2788
# 2 9.2125 64.4950 18.7261 -13.1741 0.5979 3.5800
# 3 5.9386 18.7261 152.3155 -10.8455 -1.3629 -8.3243
# 4 18.4269 -13.1741 -10.8455 47.0024 -2.9058 8.6247
# 5 1.2550 0.5979 -1.3629 -2.9058 38.6630 1.8667
# 6 23.2788 3.5800 -8.3243 8.6247 1.8667 39.6934
#
#
#
# Elastic Compliance Matrix: (Units=1/GPa)
#
#
# Indices 1 2 3 4 5 6 
#
# 1 0.036695 -0.006168 -0.002652 -0.013404 -0.001301 -0.018547
# 2 -0.006168 0.018283 -0.001486 0.007212 0.000404 0.000071
# 3 -0.002652 -0.001486 0.007134 0.001781 0.000360 0.002781
# 4 -0.013404 0.007212 0.001781 0.028900 0.002501 0.001187
# 5 -0.001301 0.000404 0.000360 0.002501 0.026148 -0.000971
# 6 -0.018547 0.000071 0.002781 0.001187 -0.000971 0.036435
#
#
# Mechanical properties :
#
#
# Convention : Reuss Voigt Hill
#
# Bulk Modulus (GPa) = 24.09686 36.92613 30.51150
# Shear Modulus (GPa) = 26.59004 40.45199 33.52101
#
# Velocity S-wave (km/s) = 3.23788 3.99366 3.63546
# Velocity P-wave (km/s) = 4.84555 5.98539 5.44538
#
# Compressibility (1/GPa) = 0.04149919
#
# Stress axis : x y z
#
# Youngs Moduli (GPa) = 27.25138 54.69530 140.18352
#
# Poissons Ratio (x) = 0.33736 0.37178
# Poissons Ratio (y) = 0.16809 0.20836
# Poissons Ratio (z) = 0.07227 0.08129
#
# Static dielectric constant tensor:
#      x y z
#    x 2.117250 0.034110 0.032380 
#    y 0.034110 2.035160 -0.011770 
#    z 0.032380 -0.011770 1.992960 
# 
# From -- ./inp_files/426457.got.cif
#   From: 2010.05.17/outbox.cif.g08.bks.cpg/sg2_214_cif.got.tgz:426457.got - 2010.06.03 11:33:40.
