data_PCOD9014457
_publ_section_title
;
Structure prediction by ZEFSAII (Michael W. Deem and Ramdas Pophale) SiO2 
 PCOD9014457
Probable space group: P -1
;
_chemical_formula_sum "Si O2"
_cell_formula_units_Z 16
_cell_length_a 14.214363
_cell_length_b 8.741091
_cell_length_c 9.660942
_cell_angle_alpha 108.081094
_cell_angle_beta 85.157558
_cell_angle_gamma 41.313851
_cell_volume 649.787308
_symmetry_space_group_name_H-M "P -1"
_symmetry_group_IT_number 2
_symmetry_cell_setting 'triclinic'
loop_
_space_group_symop_operation_xyz
x,y,z
-x,-y,-z
loop_
_atom_site_type_symbol
_atom_site_label
_atom_site_fract_x
_atom_site_fract_y
_atom_site_fract_z
Si Si1 0.981316 0.525084 0.676146
Si Si2 0.566733 0.913563 0.314233
Si Si3 0.207754 0.748807 0.559713
Si Si4 0.835995 0.393894 0.738376
Si Si5 0.813400 0.311858 0.144199
Si Si6 0.727638 0.003653 0.312345
Si Si7 0.252315 0.937270 0.985786
Si Si8 0.485345 0.184537 0.965396
O O1 0.860621 0.548646 0.749069
O O2 0.000000 0.500000 0.500000
O O3 0.148287 0.251436 0.663566
O O4 0.896514 0.806387 0.820944
O O5 0.747802 0.577812 0.185391
O O6 0.584025 0.076427 0.322847
O O7 0.467177 0.938809 0.229012
O O8 0.500000 0.000000 0.500000
O O9 0.231275 0.596677 0.388209
O O10 0.217520 0.650138 0.677216
O O11 0.313631 0.764518 0.553693
O O12 0.018584 0.075780 0.660034
O O13 0.710268 0.514409 0.905507
O O14 0.710985 0.303058 0.094265
O O15 0.000000 0.000000 0.000000
O O16 0.797603 0.941705 0.131681
O O17 0.407979 0.821313 0.987616
O O18 0.500000 0.000000 0.000000
#
# Coordination Sequence:
#
# PCOD9014457 Si02
#       8
#     2   2   2   2   2   2   2   2
#     4  11  23  36  67 100 135 172 229 294 338 391
#     4  12  28  44  69 101 140 178 227 287 345 406
#     4   9  22  41  69  97 129 176 231 281 333 402
#     4  10  21  41  67  99 132 177 230 276 335 407
#     4  11  25  44  69 101 138 176 225 294 347 386
#     4  10  22  44  64  95 132 183 229 275 334 416
#     4  11  24  44  69  95 133 187 229 269 342 418
#     4  12  24  44  68  94 135 185 226 268 333 425
#
# _framework density 24.623441
#
# number of rings (size 3 to 8) (size 9 to 14) (size 15 to 20)
#    0.000    1.250    2.500    1.875    7.000    3.500 
#    2.250    2.500    0.000    0.000    0.000    0.000 
#    0.000    0.000    0.000    0.000    0.000    0.000 
#
# Total GULP energy -89509.284775 kJ/mol
# GULP energy per Si atom -5594.330298 kJ/mol
# Density = 2.456740 g / cm^3
# Si number density = 24.623441 Si / 1000 Ang^3
#
#
#
# Elastic Constant Matrix: (Units=GPa)
#
#
# Indices 1 2 3 4 5 6 
#
# 1 131.8278 16.3108 19.8864 -6.0777 32.5639 -11.0745
# 2 16.3108 59.2491 6.8428 -2.5700 6.3720 -6.5172
# 3 19.8864 6.8428 128.0087 -26.0354 27.3768 -2.3353
# 4 -6.0777 -2.5700 -26.0354 39.2317 -5.5189 -0.9221
# 5 32.5639 6.3720 27.3768 -5.5189 45.2348 2.3263
# 6 -11.0745 -6.5172 -2.3353 -0.9221 2.3263 31.1499
#
#
#
# Elastic Compliance Matrix: (Units=1/GPa)
#
#
# Indices 1 2 3 4 5 6 
#
# 1 0.009847 -0.001531 0.000294 0.000702 -0.007159 0.003758
# 2 -0.001531 0.017864 -0.000230 0.000666 -0.001363 0.003298
# 3 0.000294 -0.000230 0.010264 0.006070 -0.005724 0.001433
# 4 0.000702 0.000666 0.006070 0.029606 -0.000752 0.001777
# 5 -0.007159 -0.001363 -0.005724 -0.000752 0.031114 -0.005605
# 6 0.003758 0.003298 0.001433 0.001777 -0.005605 0.034708
#
#
# Mechanical properties :
#
#
# Convention : Reuss Voigt Hill
#
# Bulk Modulus (GPa) = 28.53731 45.01838 36.77784
# Shear Modulus (GPa) = 33.78019 41.52632 37.65325
#
# Velocity S-wave (km/s) = 3.70790 4.11110 3.91469
# Velocity P-wave (km/s) = 5.47229 6.39197 5.94993
#
# Compressibility (1/GPa) = 0.03504185
#
# Stress axis : x y z
#
# Youngs Moduli (GPa) = 101.55242 55.97787 97.43263
#
# Poissons Ratio (x) = 0.08571 -0.02869
# Poissons Ratio (y) = 0.15549 0.02239
# Poissons Ratio (z) = -0.02990 0.01287
#
# Static dielectric constant tensor:
#      x y z
#    x 1.967880 -0.066990 -0.026290 
#    y -0.066990 2.048650 0.035410 
#    z -0.026290 0.035410 1.934980 
# 
# From -- ./inp_files/299179.got.cif
#   From: 2010.05.17/outbox.cif.g08.bks.cpg/sg2_150_cif.got.tgz:299179.got - 2010.06.03 11:33:40.
