data_PCOD9014115
_publ_section_title
;
Structure prediction by ZEFSAII (Michael W. Deem and Ramdas Pophale) SiO2 
 PCOD9014115
Probable space group: P -1
;
_chemical_formula_sum "Si O2"
_cell_formula_units_Z 16
_cell_length_a 5.729638
_cell_length_b 6.947552
_cell_length_c 18.872510
_cell_angle_alpha 72.333340
_cell_angle_beta 91.450429
_cell_angle_gamma 113.570341
_cell_volume 652.125747
_symmetry_space_group_name_H-M "P -1"
_symmetry_group_IT_number 2
_symmetry_cell_setting 'triclinic'
loop_
_space_group_symop_operation_xyz
x,y,z
-x,-y,-z
loop_
_atom_site_type_symbol
_atom_site_label
_atom_site_fract_x
_atom_site_fract_y
_atom_site_fract_z
Si Si1 0.022174 0.473089 0.829948
Si Si2 0.437256 0.965079 0.147610
Si Si3 0.694925 0.490341 0.562394
Si Si4 0.346443 0.127565 0.701172
Si Si5 0.170215 0.155837 0.238443
Si Si6 0.763744 0.221888 0.474892
Si Si7 0.285968 0.579450 0.959980
Si Si8 0.361342 0.682220 0.684838
O O1 0.951525 0.683991 0.811844
O O2 0.231669 0.496468 0.887461
O O3 0.141900 0.497732 0.750036
O O4 0.775658 0.250370 0.864183
O O5 0.300295 0.078669 0.185461
O O6 0.598212 0.153710 0.073079
O O7 0.593614 0.887630 0.214047
O O8 0.500000 0.500000 0.500000
O O9 0.541181 0.353969 0.643684
O O10 0.794640 0.323545 0.542102
O O11 0.938334 0.726458 0.548253
O O12 0.365882 0.921730 0.681541
O O13 0.045069 0.061410 0.703221
O O14 0.369443 0.293138 0.284729
O O15 0.696729 0.345629 0.394867
O O16 0.500000 0.000000 0.500000
O O17 0.500000 0.500000 0.000000
O O18 0.000000 0.500000 0.000000
#
# Coordination Sequence:
#
# PCOD9014115 Si02
#       8
#     2   2   2   2   2   2   2   2
#     4  11  24  45  72 104 138 185 241 289 360 436
#     4  11  24  45  74 101 141 189 238 294 356 435
#     4  11  26  40  62  99 138 179 235 293 360 431
#     4  10  21  41  66  97 137 177 238 298 347 427
#     4  10  21  42  71 102 137 182 243 301 355 422
#     4  11  24  42  62  89 137 181 226 291 358 423
#     4  12  27  49  75 110 158 189 239 311 371 451
#     4  10  21  41  69  95 131 181 235 297 349 424
#
# _framework density 24.535145
#
# number of rings (size 3 to 8) (size 9 to 14) (size 15 to 20)
#    0.000    1.250    5.000    1.500    1.750    7.500 
#    0.000    0.000    0.000    0.000    0.000    0.000 
#    0.000    0.000    0.000    0.000    0.000    0.000 
#
# Total GULP energy -89408.186518 kJ/mol
# GULP energy per Si atom -5588.011657 kJ/mol
# Density = 2.447930 g / cm^3
# Si number density = 24.535145 Si / 1000 Ang^3
#
#
#
# Elastic Constant Matrix: (Units=GPa)
#
#
# Indices 1 2 3 4 5 6 
#
# 1 87.4457 23.7050 41.9864 -18.2078 4.1477 29.5097
# 2 23.7050 124.0024 26.7364 -34.4899 -7.2871 26.9225
# 3 41.9864 26.7364 117.2080 -33.1438 -3.6964 15.7977
# 4 -18.2078 -34.4899 -33.1438 53.4383 21.3562 -19.1837
# 5 4.1477 -7.2871 -3.6964 21.3562 40.1308 0.6198
# 6 29.5097 26.9225 15.7977 -19.1837 0.6198 39.8805
#
#
#
# Elastic Compliance Matrix: (Units=1/GPa)
#
#
# Indices 1 2 3 4 5 6 
#
# 1 0.017619 -0.000092 -0.004949 -0.000360 -0.001930 -0.011158
# 2 -0.000092 0.010529 -0.000289 0.005402 -0.000913 -0.004313
# 3 -0.004949 -0.000289 0.012072 0.007624 -0.002529 0.002782
# 4 -0.000360 0.005402 0.007624 0.039057 -0.019260 0.012687
# 5 -0.001930 -0.000913 -0.002529 -0.019260 0.035073 -0.006764
# 6 -0.011158 -0.004313 0.002782 0.012687 -0.006764 0.041349
#
#
# Mechanical properties :
#
#
# Convention : Reuss Voigt Hill
#
# Bulk Modulus (GPa) = 33.82980 57.05686 45.44333
# Shear Modulus (GPa) = 28.37477 42.43846 35.40662
#
# Velocity S-wave (km/s) = 3.40442 4.16348 3.80293
# Velocity P-wave (km/s) = 5.41033 6.81310 6.15183
#
# Compressibility (1/GPa) = 0.02955974
#
# Stress axis : x y z
#
# Youngs Moduli (GPa) = 56.75742 94.97143 82.83749
#
# Poissons Ratio (x) = 0.00875 0.40999
# Poissons Ratio (y) = 0.00523 0.02392
# Poissons Ratio (z) = 0.28091 0.02743
#
# Static dielectric constant tensor:
#      x y z
#    x 2.121480 -0.012110 -0.060950 
#    y -0.012110 1.975340 -0.016770 
#    z -0.060950 -0.016770 1.958910 
# 
# From -- ./inp_files/582349.got.cif
#   From: 2010.05.17/outbox.cif.g08.bks.cpg/sg2_292_cif.got.tgz:582349.got - 2010.06.03 11:33:40.
