data_PCOD9014256
_publ_section_title
;
Structure prediction by ZEFSAII (Michael W. Deem and Ramdas Pophale) SiO2 
 PCOD9014256
Probable space group: P -1
;
_chemical_formula_sum "Si O2"
_cell_formula_units_Z 14
_cell_length_a 10.272887
_cell_length_b 5.012246
_cell_length_c 15.166204
_cell_angle_alpha 102.701561
_cell_angle_beta 125.103718
_cell_angle_gamma 63.392485
_cell_volume 570.455302
_symmetry_space_group_name_H-M "P -1"
_symmetry_group_IT_number 2
_symmetry_cell_setting 'triclinic'
loop_
_space_group_symop_operation_xyz
x,y,z
-x,-y,-z
loop_
_atom_site_type_symbol
_atom_site_label
_atom_site_fract_x
_atom_site_fract_y
_atom_site_fract_z
Si Si1 0.221609 0.178047 0.237706
Si Si2 0.613370 0.785046 0.307813
Si Si3 0.497817 0.446053 0.099537
Si Si4 0.796846 0.205450 0.447436
Si Si5 0.154310 0.807526 0.335154
Si Si6 0.867661 0.259126 0.059189
Si Si7 0.799763 0.879144 0.155068
O O1 0.414186 0.960538 0.271635
O O2 0.180355 0.058103 0.305590
O O3 0.211529 0.508859 0.276055
O O4 0.070799 0.171847 0.110983
O O5 0.600598 0.603014 0.204288
O O6 0.732159 0.533089 0.404107
O O7 0.691717 0.031024 0.349691
O O8 0.606978 0.092926 0.124076
O O9 0.500000 0.500000 0.000000
O O10 0.295156 0.583605 0.058156
O O11 0.757361 0.239589 0.539262
O O12 0.000000 0.000000 0.500000
O O13 0.948250 0.903369 0.275913
O O14 0.835323 0.537109 0.133135
O O15 0.839335 0.000013 0.084312
#
# Coordination Sequence:
#
# PCOD9014256 Si02
#       7
#     2   2   2   2   2   2   2
#     4  10  22  41  64  97 129 167 214 251 312 380
#     4  12  27  42  64  97 131 163 213 270 304 380
#     4  10  22  40  64  91 126 169 212 260 321 369
#     4  12  27  45  67  96 128 165 210 265 322 371
#     4  10  21  41  67  90 129 173 206 257 315 377
#     4   9  19  35  60  87 120 161 203 254 301 366
#     4   9  18  34  59  90 116 156 213 252 298 367
#
# _framework density 24.541799000000001
#
# number of rings (size 3 to 8) (size 9 to 14) (size 15 to 20)
#    0.000    1.714    0.000    3.429    0.000   14.286 
#    0.000    0.000    0.000   12.000    0.000    0.000 
#    0.000    0.000    0.000    0.000    0.000    0.000 
#
# Total GULP energy -78335.963008 kJ/mol
# GULP energy per Si atom -5595.425929 kJ/mol
# Density = 2.448594 g / cm^3
# Si number density = 24.541799 Si / 1000 Ang^3
#
#
#
# Elastic Constant Matrix: (Units=GPa)
#
#
# Indices 1 2 3 4 5 6 
#
# 1 64.1183 25.0546 3.2201 -8.1057 25.0915 -10.8118
# 2 25.0546 107.9547 -7.6625 -26.6749 3.3770 -13.0352
# 3 3.2201 -7.6625 59.4565 -0.3988 11.3050 -8.9835
# 4 -8.1057 -26.6749 -0.3988 38.1840 1.5439 13.3697
# 5 25.0915 3.3770 11.3050 1.5439 27.2024 -15.9797
# 6 -10.8118 -13.0352 -8.9835 13.3697 -15.9797 45.1017
#
#
#
# Elastic Compliance Matrix: (Units=1/GPa)
#
#
# Indices 1 2 3 4 5 6 
#
# 1 0.029832 -0.004882 0.002935 0.006850 -0.032830 -0.007337
# 2 -0.004882 0.012323 0.001601 0.006873 0.002921 0.001708
# 3 0.002935 0.001601 0.018978 0.002177 -0.010595 0.000547
# 4 0.006850 0.006873 0.002177 0.037992 -0.018263 -0.013671
# 5 -0.032830 0.002921 -0.010595 -0.018263 0.088315 0.027568
# 6 -0.007337 0.001708 0.000547 -0.013671 0.027568 0.034836
#
#
# Mechanical properties :
#
#
# Convention : Reuss Voigt Hill
#
# Bulk Modulus (GPa) = 16.54479 30.30600 23.42540
# Shear Modulus (GPa) = 20.56633 36.15878 28.36255
#
# Velocity S-wave (km/s) = 2.89798 3.84259 3.40322
# Velocity P-wave (km/s) = 4.23720 5.66241 5.00084
#
# Compressibility (1/GPa) = 0.06044198
#
# Stress axis : x y z
#
# Youngs Moduli (GPa) = 33.52055 81.14974 52.69192
#
# Poissons Ratio (x) = 0.39616 -0.15464
# Poissons Ratio (y) = 0.16364 -0.08437
# Poissons Ratio (z) = -0.09837 -0.12994
#
# Static dielectric constant tensor:
#      x y z
#    x 2.001180 -0.072180 0.028830 
#    y -0.072180 1.921700 -0.025520 
#    z 0.028830 -0.025520 1.965640 
# 
# From -- ./inp_files/488729.got.cif
#   From: 2010.05.17/outbox.cif.g08.bks.cpg/sg2_245_cif.got.tgz:488729.got - 2010.06.03 11:33:40.
