data_PCOD9014550
_publ_section_title
;
Structure prediction by ZEFSAII (Michael W. Deem and Ramdas Pophale) SiO2 
 PCOD9014550
Probable space group: P -1
;
_chemical_formula_sum "Si O2"
_cell_formula_units_Z 16
_cell_length_a 15.108525
_cell_length_b 16.580983
_cell_length_c 12.819493
_cell_angle_alpha 152.105320
_cell_angle_beta 126.287647
_cell_angle_gamma 35.522503
_cell_volume 771.019550
_symmetry_space_group_name_H-M "P -1"
_symmetry_group_IT_number 2
_symmetry_cell_setting 'triclinic'
loop_
_space_group_symop_operation_xyz
x,y,z
-x,-y,-z
loop_
_atom_site_type_symbol
_atom_site_label
_atom_site_fract_x
_atom_site_fract_y
_atom_site_fract_z
Si Si1 0.890826 0.926883 0.198178
Si Si2 0.472281 0.829288 0.776691
Si Si3 0.071653 0.871369 0.071714
Si Si4 0.469129 0.627477 0.950511
Si Si5 0.314261 0.878160 0.340210
Si Si6 0.141822 0.415551 0.932415
Si Si7 0.666264 0.523813 0.771777
Si Si8 0.756748 0.359892 0.276805
O O1 0.975198 0.855981 0.062885
O O2 0.724572 0.000819 0.174269
O O3 0.818606 0.200988 0.495081
O O4 0.043648 0.672261 0.085674
O O5 0.548091 0.654331 0.736226
O O6 0.593993 0.625680 0.532076
O O7 0.500000 0.000000 0.000000
O O8 0.185958 0.874207 0.217105
O O9 0.186373 0.639760 0.797024
O O10 0.921987 0.158372 0.235841
O O11 0.570628 0.336076 0.730478
O O12 0.573407 0.593841 0.895497
O O13 0.294138 0.774113 0.942406
O O14 0.426731 0.774767 0.196519
O O15 0.227224 0.160003 0.634352
O O16 0.268018 0.362726 0.037712
O O17 0.000000 0.500000 0.000000
#
# Coordination Sequence:
#
# PCOD9014550 Si02
#       8
#     2   2   2   2   2   2   2   2
#     4  12  23  42  67  93 127 166 218 255 314 379
#     4  12  26  42  64  96 129 166 208 267 312 374
#     4  10  21  41  70  92 120 171 206 261 309 383
#     4  10  21  42  69  92 121 176 206 258 313 388
#     4  10  23  42  64  94 132 161 214 255 324 372
#     4  12  26  40  61  95 131 165 207 270 317 365
#     4  12  23  41  67  91 125 166 221 254 312 377
#     4  10  21  41  68  90 126 160 215 247 322 369
#
# _framework density 20.751742
#
# number of rings (size 3 to 8) (size 9 to 14) (size 15 to 20)
#    0.000    1.000    2.500    4.500    3.500    0.500 
#    2.250    0.625    0.000    0.000    0.000    0.000 
#    0.000    0.000    0.000    0.000    0.000    0.000 
#
# Total GULP energy -89353.397228 kJ/mol
# GULP energy per Si atom -5584.587327 kJ/mol
# Density = 2.070451 g / cm^3
# Si number density = 20.751742 Si / 1000 Ang^3
#
#
#
# Elastic Constant Matrix: (Units=GPa)
#
#
# Indices 1 2 3 4 5 6 
#
# 1 118.3879 9.7076 22.6330 -21.0066 -34.0467 10.2636
# 2 9.7076 85.6221 29.2535 -10.3477 -3.4500 -12.0511
# 3 22.6330 29.2535 66.8626 -8.2679 -8.1529 12.7173
# 4 -21.0066 -10.3477 -8.2679 24.4072 3.9434 -2.7042
# 5 -34.0467 -3.4500 -8.1529 3.9434 26.9709 0.8848
# 6 10.2636 -12.0511 12.7173 -2.7042 0.8848 25.5532
#
#
#
# Elastic Compliance Matrix: (Units=1/GPa)
#
#
# Indices 1 2 3 4 5 6 
#
# 1 0.016438 -0.000574 -0.000557 0.009915 0.019263 -0.006214
# 2 -0.000574 0.017690 -0.009876 0.005675 -0.002742 0.014184
# 3 -0.000557 -0.009876 0.023277 0.000537 0.005522 -0.016153
# 4 0.009915 0.005675 0.000537 0.051574 0.005744 0.003686
# 5 0.019263 -0.002742 0.005522 0.005744 0.062310 -0.013328
# 6 -0.006214 0.014184 -0.016153 0.003686 -0.013328 0.057209
#
#
# Mechanical properties :
#
#
# Convention : Reuss Voigt Hill
#
# Bulk Modulus (GPa) = 28.25369 43.78453 36.01911
# Shear Modulus (GPa) = 19.06150 29.33816 24.19983
#
# Velocity S-wave (km/s) = 3.03405 3.76409 3.41861
# Velocity P-wave (km/s) = 5.09103 6.32741 5.74259
#
# Compressibility (1/GPa) = 0.03539361
#
# Stress axis : x y z
#
# Youngs Moduli (GPa) = 60.83406 56.52868 42.96027
#
# Poissons Ratio (x) = 0.03243 0.02391
# Poissons Ratio (y) = 0.03490 0.42427
# Poissons Ratio (z) = 0.03386 0.55827
#
# Static dielectric constant tensor:
#      x y z
#    x 1.736930 -0.033000 -0.080030 
#    y -0.033000 1.780080 -0.140810 
#    z -0.080030 -0.140810 1.730380 
# 
# From -- ./inp_files/353839.got.cif
#   From: 2010.05.17/outbox.cif.g08.bks.cpg/sg2_177_cif.got.tgz:353839.got - 2010.06.03 11:33:40.
