data_PCOD9014431
_publ_section_title
;
Structure prediction by ZEFSAII (Michael W. Deem and Ramdas Pophale) SiO2 
 PCOD9014431
Probable space group: P -1
;
_chemical_formula_sum "Si O2"
_cell_formula_units_Z 16
_cell_length_a 5.145501
_cell_length_b 17.638444
_cell_length_c 9.514869
_cell_angle_alpha 114.094395
_cell_angle_beta 55.835616
_cell_angle_gamma 93.863988
_cell_volume 637.124658
_symmetry_space_group_name_H-M "P -1"
_symmetry_group_IT_number 2
_symmetry_cell_setting 'triclinic'
loop_
_space_group_symop_operation_xyz
x,y,z
-x,-y,-z
loop_
_atom_site_type_symbol
_atom_site_label
_atom_site_fract_x
_atom_site_fract_y
_atom_site_fract_z
Si Si1 0.425426 0.660517 0.817057
Si Si2 0.592843 0.104714 0.545084
Si Si3 0.958074 0.102531 0.672058
Si Si4 0.278525 0.498768 0.204987
Si Si5 0.230569 0.908348 0.838070
Si Si6 0.176863 0.271195 0.773459
Si Si7 0.597717 0.598859 0.404839
Si Si8 0.634815 0.838666 0.919817
O O1 0.620199 0.589127 0.808557
O O2 0.456242 0.632257 0.623841
O O3 0.569149 0.744805 0.854618
O O4 0.057788 0.679634 0.999566
O O5 0.912187 0.068787 0.506027
O O6 0.632962 0.097340 0.362858
O O7 0.490039 0.206061 0.686966
O O8 0.269567 0.070599 0.650105
O O9 0.997398 0.200051 0.715870
O O10 0.623924 0.107516 0.854307
O O11 0.354844 0.566447 0.348050
O O12 0.909349 0.524235 0.287861
O O13 0.500000 0.500000 0.000000
O O14 0.520090 0.884207 0.841394
O O15 0.989305 0.842784 0.865094
O O16 0.000000 0.000000 0.000000
O O17 0.266495 0.330802 0.671504
#
# Coordination Sequence:
#
# PCOD9014431 Si02
#       8
#     2   2   2   2   2   2   2   2
#     4  11  25  47  73 103 139 186 245 297 345 433
#     4  10  21  41  67  97 139 179 231 285 351 420
#     4   9  21  41  66  98 135 175 234 285 335 414
#     4  12  27  48  68  99 148 190 233 296 364 411
#     4  12  26  46  71 106 145 181 228 294 362 427
#     4   9  23  41  70  98 141 181 241 292 354 406
#     4  12  26  44  69 102 138 189 239 293 364 407
#     4  11  25  45  72 104 136 183 236 288 350 425
#
# _framework density 25.112828
#
# number of rings (size 3 to 8) (size 9 to 14) (size 15 to 20)
#    0.750    0.500    1.250    3.750    3.500    2.000 
#    2.250    3.750    0.000    0.000    0.000    0.000 
#    0.000    0.000    0.000    0.000    0.000    0.000 
#
# Total GULP energy -89575.693532 kJ/mol
# GULP energy per Si atom -5598.480846 kJ/mol
# Density = 2.505567 g / cm^3
# Si number density = 25.112828 Si / 1000 Ang^3
#
#
#
# Elastic Constant Matrix: (Units=GPa)
#
#
# Indices 1 2 3 4 5 6 
#
# 1 110.7898 7.5211 23.6708 -1.1548 12.4355 -5.2526
# 2 7.5211 101.3760 28.1743 -6.3398 5.2558 -19.6126
# 3 23.6708 28.1743 125.5335 -12.0014 7.1867 -9.7495
# 4 -1.1548 -6.3398 -12.0014 32.7948 -3.9159 -3.0335
# 5 12.4355 5.2558 7.1867 -3.9159 31.8849 0.2074
# 6 -5.2526 -19.6126 -9.7495 -3.0335 0.2074 26.3244
#
#
#
# Elastic Compliance Matrix: (Units=1/GPa)
#
#
# Indices 1 2 3 4 5 6 
#
# 1 0.009825 0.000154 -0.001620 -0.000509 -0.003564 0.001444
# 2 0.000154 0.012276 -0.001792 0.002364 -0.001446 0.008796
# 3 -0.001620 -0.001792 0.009173 0.003054 -0.000779 0.002097
# 4 -0.000509 0.002364 0.003054 0.033032 0.003134 0.006572
# 5 -0.003564 -0.001446 -0.000779 0.003134 0.033565 -0.001980
# 6 0.001444 0.008796 0.002097 0.006572 -0.001980 0.046379
#
#
# Mechanical properties :
#
#
# Convention : Reuss Voigt Hill
#
# Bulk Modulus (GPa) = 40.39194 50.71465 45.55329
# Shear Modulus (GPa) = 31.44310 36.75635 34.09973
#
# Velocity S-wave (km/s) = 3.54230 3.82992 3.68891
# Velocity P-wave (km/s) = 5.73146 6.30843 6.02685
#
# Compressibility (1/GPa) = 0.02475741
#
# Stress axis : x y z
#
# Youngs Moduli (GPa) = 101.78209 81.46307 109.01464
#
# Poissons Ratio (x) = -0.01251 0.17655
# Poissons Ratio (y) = -0.01563 0.19537
# Poissons Ratio (z) = 0.16484 0.14599
#
# Static dielectric constant tensor:
#      x y z
#    x 2.027440 -0.038320 -0.054480 
#    y -0.038320 2.639480 0.175250 
#    z -0.054480 0.175250 2.030170 
# 
# From -- ./inp_files/368683.got.cif
#   From: 2010.05.17/outbox.cif.g08.bks.cpg/sg2_185_cif.got.tgz:368683.got - 2010.06.03 11:33:40.
