data_PCOD9014839
_publ_section_title
;
Structure prediction by ZEFSAII (Michael W. Deem and Ramdas Pophale) SiO2 
 PCOD9014839
Probable space group: P -1
;
_chemical_formula_sum "Si O2"
_cell_formula_units_Z 16
_cell_length_a 5.282194
_cell_length_b 16.602331
_cell_length_c 19.002336
_cell_angle_alpha 22.423879
_cell_angle_beta 101.319201
_cell_angle_gamma 104.111598
_cell_volume 614.580712
_symmetry_space_group_name_H-M "P -1"
_symmetry_group_IT_number 2
_symmetry_cell_setting 'triclinic'
loop_
_space_group_symop_operation_xyz
x,y,z
-x,-y,-z
loop_
_atom_site_type_symbol
_atom_site_label
_atom_site_fract_x
_atom_site_fract_y
_atom_site_fract_z
Si Si1 0.817765 0.639431 0.936451
Si Si2 0.892381 0.855268 0.291454
Si Si3 0.562225 0.565352 0.718368
Si Si4 0.520176 0.459734 0.637367
Si Si5 0.006672 0.257862 0.293150
Si Si6 0.061593 0.782743 0.211320
Si Si7 0.310527 0.926262 0.373234
Si Si8 0.679903 0.169947 0.098280
O O1 0.090496 0.725479 0.922123
O O2 0.845963 0.654124 0.842143
O O3 0.762948 0.392883 0.161005
O O4 0.665277 0.835331 0.787035
O O5 0.646954 0.665594 0.432406
O O6 0.079036 0.826291 0.260487
O O7 0.047566 0.853244 0.374843
O O8 0.798740 0.085395 0.102407
O O9 0.578284 0.509360 0.682701
O O10 0.833756 0.666214 0.688945
O O11 0.374300 0.740009 0.576670
O O12 0.487388 0.336973 0.936939
O O13 0.207192 0.388995 0.673106
O O14 0.690115 0.285806 0.757998
O O15 0.000000 0.000000 0.500000
O O16 0.000000 0.000000 0.000000
O O17 0.532277 0.963260 0.296108
#
# Coordination Sequence:
#
# PCOD9014839 Si02
#       8
#     2   2   2   2   2   2   2   2
#     4   9  22  42  63 101 137 187 237 303 370 441
#     4  11  25  45  72 104 145 195 242 306 372 445
#     4  11  24  43  69 104 140 191 246 301 373 446
#     4  12  26  47  72 109 152 199 249 310 377 451
#     4  10  21  41  69  95 141 185 242 304 368 441
#     4  12  28  47  77 111 151 195 256 311 375 451
#     4  11  23  42  70 102 145 187 241 301 375 441
#     4  10  22  43  68  99 145 186 241 301 369 445
#
# _framework density 26.034006999999999
#
# number of rings (size 3 to 8) (size 9 to 14) (size 15 to 20)
#    0.000    1.250    1.250    3.375    5.250    1.500 
#    4.500    8.750    0.000    0.000    0.000    0.000 
#    0.000    0.000    0.000    0.000    0.000    0.000 
#
# Total GULP energy -89456.635069 kJ/mol
# GULP energy per Si atom -5591.039692 kJ/mol
# Density = 2.597475 g / cm^3
# Si number density = 26.034007 Si / 1000 Ang^3
#
#
#
# Elastic Constant Matrix: (Units=GPa)
#
#
# Indices 1 2 3 4 5 6 
#
# 1 75.7195 15.4033 20.8916 -2.1412 18.1583 3.0119
# 2 15.4033 133.4408 28.1780 -0.5023 14.9939 -8.5040
# 3 20.8916 28.1780 164.2015 -1.5668 45.5519 -0.5942
# 4 -2.1412 -0.5023 -1.5668 37.3338 -6.3772 3.9102
# 5 18.1583 14.9939 45.5519 -6.3772 46.1930 -10.8013
# 6 3.0119 -8.5040 -0.5942 3.9102 -10.8013 38.9815
#
#
#
# Elastic Compliance Matrix: (Units=1/GPa)
#
#
# Indices 1 2 3 4 5 6 
#
# 1 0.015089 -0.001244 0.000027 0.000110 -0.006285 -0.003189
# 2 -0.001244 0.008041 -0.000998 -0.000313 -0.000795 0.001646
# 3 0.000027 -0.000998 0.008742 -0.000924 -0.009017 -0.002492
# 4 0.000110 -0.000313 -0.000924 0.027674 0.004405 -0.001646
# 5 -0.006285 -0.000795 -0.009017 0.004405 0.036157 0.009751
# 6 -0.003189 0.001646 -0.002492 -0.001646 0.009751 0.029088
#
#
# Mechanical properties :
#
#
# Convention : Reuss Voigt Hill
#
# Bulk Modulus (GPa) = 36.44152 55.81196 46.12674
# Shear Modulus (GPa) = 36.13509 45.09424 40.61466
#
# Velocity S-wave (km/s) = 3.72962 4.16640 3.95405
# Velocity P-wave (km/s) = 5.70744 6.68056 6.21308
#
# Compressibility (1/GPa) = 0.02744123
#
# Stress axis : x y z
#
# Youngs Moduli (GPa) = 66.27138 124.35609 114.39516
#
# Poissons Ratio (x) = 0.15471 -0.00304
# Poissons Ratio (y) = 0.08245 0.11418
# Poissons Ratio (z) = -0.00176 0.12412
#
# Static dielectric constant tensor:
#      x y z
#    x 2.108080 -0.059870 0.073580 
#    y -0.059870 2.042640 -0.070120 
#    z 0.073580 -0.070120 2.086070 
# 
# From -- ./inp_files/584024.got.cif
#   From: 2010.05.17/outbox.cif.g08.bks.cpg/sg2_293_cif.got.tgz:584024.got - 2010.06.03 11:33:40.
