data_PCOD9014390
_publ_section_title
;
Structure prediction by ZEFSAII (Michael W. Deem and Ramdas Pophale) SiO2 
 PCOD9014390
Probable space group: P -1
;
_chemical_formula_sum "Si O2"
_cell_formula_units_Z 16
_cell_length_a 12.702595
_cell_length_b 14.235518
_cell_length_c 17.543058
_cell_angle_alpha 27.476284
_cell_angle_beta 31.573181
_cell_angle_gamma 48.733168
_cell_volume 702.808719
_symmetry_space_group_name_H-M "P -1"
_symmetry_group_IT_number 2
_symmetry_cell_setting 'triclinic'
loop_
_space_group_symop_operation_xyz
x,y,z
-x,-y,-z
loop_
_atom_site_type_symbol
_atom_site_label
_atom_site_fract_x
_atom_site_fract_y
_atom_site_fract_z
Si Si1 0.396663 0.762679 0.564012
Si Si2 0.736773 0.250512 0.037601
Si Si3 0.065399 0.729059 0.679616
Si Si4 0.208551 0.499585 0.327389
Si Si5 0.556960 0.645074 0.253709
Si Si6 0.861414 0.626925 0.202894
Si Si7 0.486990 0.240763 0.338920
Si Si8 0.348931 0.162105 0.109532
O O1 0.166316 0.757421 0.681798
O O2 0.439707 0.589897 0.606994
O O3 0.405810 0.678711 0.703388
O O4 0.575917 0.014175 0.272499
O O5 0.610770 0.339557 0.113199
O O6 0.815593 0.427842 0.794962
O O7 0.939975 0.222911 0.974371
O O8 0.035794 0.496630 0.828882
O O9 0.846677 0.770205 0.789834
O O10 0.253758 0.911803 0.380120
O O11 0.262609 0.279533 0.451406
O O12 0.000000 0.500000 0.500000
O O13 0.425915 0.685378 0.097936
O O14 0.731035 0.731248 0.153816
O O15 0.316329 0.559554 0.500054
O O16 0.613074 0.799378 0.032935
O O17 0.500000 0.000000 0.500000
#
# Coordination Sequence:
#
# PCOD9014390 Si02
#       8
#     2   2   2   2   2   2   2   2
#     4  10  21  41  67  96 132 177 229 279 337 409
#     4  11  23  41  67  97 140 173 228 284 341 397
#     4  10  23  41  68  96 128 177 233 271 340 403
#     4  12  24  44  70 102 138 185 223 277 348 409
#     4  10  22  41  66  89 137 173 227 275 341 406
#     4  10  23  41  60 100 129 177 219 287 334 401
#     4  10  23  42  64 100 135 172 226 280 333 397
#     4  11  22  42  71  94 128 182 228 278 329 417
#
# _framework density 22.765795000000001
#
# number of rings (size 3 to 8) (size 9 to 14) (size 15 to 20)
#    0.000    1.500    2.500    1.875    1.750    2.000 
#    4.500    0.000    0.000    0.000    0.000    0.000 
#    0.000    0.000    0.000    0.000    0.000    0.000 
#
# Total GULP energy -89341.949001 kJ/mol
# GULP energy per Si atom -5583.871813 kJ/mol
# Density = 2.271398 g / cm^3
# Si number density = 22.765795 Si / 1000 Ang^3
#
#
#
# Elastic Constant Matrix: (Units=GPa)
#
#
# Indices 1 2 3 4 5 6 
#
# 1 127.8082 25.3334 40.3396 13.3710 5.8778 1.4318
# 2 25.3334 83.5065 30.7322 23.1352 -3.3118 -1.8827
# 3 40.3396 30.7322 74.6916 21.5606 -5.1557 -5.7011
# 4 13.3710 23.1352 21.5606 43.0782 3.7829 4.2837
# 5 5.8778 -3.3118 -5.1557 3.7829 53.4919 7.6863
# 6 1.4318 -1.8827 -5.7011 4.2837 7.6863 19.7160
#
#
#
# Elastic Compliance Matrix: (Units=1/GPa)
#
#
# Indices 1 2 3 4 5 6 
#
# 1 0.009727 -0.001324 -0.005112 0.000562 -0.001413 -0.001882
# 2 -0.001324 0.015559 -0.003672 -0.006344 0.000986 0.001514
# 3 -0.005112 -0.003672 0.020489 -0.007541 0.001857 0.006860
# 4 0.000562 -0.006344 -0.007541 0.031282 -0.002130 -0.008794
# 5 -0.001413 0.000986 0.001857 -0.002130 0.020200 -0.006679
# 6 -0.001882 0.001514 0.006860 -0.008794 -0.006679 0.057499
#
#
# Mechanical properties :
#
#
# Convention : Reuss Voigt Hill
#
# Bulk Modulus (GPa) = 39.12419 53.20186 46.16303
# Shear Modulus (GPa) = 27.24905 35.89728 31.57317
#
# Velocity S-wave (km/s) = 3.46342 3.97521 3.72811
# Velocity P-wave (km/s) = 5.76338 6.67006 6.23323
#
# Compressibility (1/GPa) = 0.02555963
#
# Stress axis : x y z
#
# Youngs Moduli (GPa) = 102.80155 64.27162 48.80700
#
# Poissons Ratio (x) = 0.08507 0.24952
# Poissons Ratio (y) = 0.13607 0.17922
# Poissons Ratio (z) = 0.52555 0.23600
#
# Static dielectric constant tensor:
#      x y z
#    x 1.860190 -0.012190 0.015270 
#    y -0.012190 1.883130 -0.025720 
#    z 0.015270 -0.025720 1.905990 
# 
# From -- ./inp_files/569928.got.cif
#   From: 2010.05.17/outbox.cif.g08.bks.cpg/sg2_285_cif.got.tgz:569928.got - 2010.06.03 11:33:40.
