data_PCOD9014789
_publ_section_title
;
Structure prediction by ZEFSAII (Michael W. Deem and Ramdas Pophale) SiO2 
 PCOD9014789
Probable space group: P -1
;
_chemical_formula_sum "Si O2"
_cell_formula_units_Z 14
_cell_length_a 9.348015
_cell_length_b 16.180245
_cell_length_c 8.914317
_cell_angle_alpha 58.787745
_cell_angle_beta 123.661927
_cell_angle_gamma 79.697761
_cell_volume 725.459724
_symmetry_space_group_name_H-M "P -1"
_symmetry_group_IT_number 2
_symmetry_cell_setting 'triclinic'
loop_
_space_group_symop_operation_xyz
x,y,z
-x,-y,-z
loop_
_atom_site_type_symbol
_atom_site_label
_atom_site_fract_x
_atom_site_fract_y
_atom_site_fract_z
Si Si1 0.390964 0.441198 0.555016
Si Si2 0.857621 0.616573 0.005199
Si Si3 0.686677 0.494022 0.204880
Si Si4 0.316686 0.127966 0.183084
Si Si5 0.160444 0.024263 0.018259
Si Si6 0.157000 0.211383 0.707348
Si Si7 0.395777 0.251807 0.563263
O O1 0.500000 0.500000 0.500000
O O2 0.399103 0.444640 0.737276
O O3 0.491690 0.305858 0.667517
O O4 0.125787 0.528135 0.272669
O O5 0.757187 0.563017 0.087979
O O6 0.755813 0.753048 0.881528
O O7 0.767993 0.644936 0.757104
O O8 0.921425 0.346909 0.494919
O O9 0.500000 0.500000 0.000000
O O10 0.500000 0.000000 0.500000
O O11 0.133531 0.113103 0.052321
O O12 0.350386 0.148710 0.009632
O O13 0.404988 0.885170 0.266493
O O14 0.117594 0.110208 0.769589
O O15 0.000000 0.000000 0.000000
O O16 0.247424 0.234436 0.595550
#
# Coordination Sequence:
#
# PCOD9014789 Si02
#       7
#     2   2   2   2   2   2   2
#     4  12  26  41  65 101 137 173 225 285 334 397
#     4  12  23  43  69  97 137 179 227 275 341 402
#     4  12  26  44  69  99 137 182 225 276 339 409
#     4  10  21  41  69  91 124 177 229 266 330 396
#     4  10  24  41  66  95 129 176 223 279 336 393
#     4  10  23  43  67  92 134 175 224 274 334 395
#     4  12  24  42  69  98 135 178 226 275 343 402
#
# _framework density 19.298107000000002
#
# number of rings (size 3 to 8) (size 9 to 14) (size 15 to 20)
#    0.857    0.000    4.286    3.000    8.000    0.000 
#    0.000    0.000    0.000    2.571    0.000    0.000 
#    0.000    0.000    0.000    0.000    0.000    0.000 
#
# Total GULP energy -77958.296284 kJ/mol
# GULP energy per Si atom -5568.449735 kJ/mol
# Density = 1.925418 g / cm^3
# Si number density = 19.298107 Si / 1000 Ang^3
#
#
#
# Elastic Constant Matrix: (Units=GPa)
#
#
# Indices 1 2 3 4 5 6 
#
# 1 116.1624 59.3611 38.9928 9.0128 -26.2278 22.6333
# 2 59.3611 128.8614 51.7374 -4.1549 -13.4975 21.9064
# 3 38.9928 51.7374 104.6476 -1.8623 -23.8502 -2.3426
# 4 9.0128 -4.1549 -1.8623 38.5115 -7.1607 -6.4032
# 5 -26.2278 -13.4975 -23.8502 -7.1607 29.3837 -4.8522
# 6 22.6333 21.9064 -2.3426 -6.4032 -4.8522 34.4508
#
#
#
# Elastic Compliance Matrix: (Units=1/GPa)
#
#
# Indices 1 2 3 4 5 6 
#
# 1 0.014710 -0.004195 -0.001874 -0.003677 0.007676 -0.006727
# 2 -0.004195 0.012616 -0.005566 0.000447 -0.003355 -0.006034
# 3 -0.001874 -0.005566 0.015728 0.003961 0.010841 0.008103
# 4 -0.003677 0.000447 0.003961 0.030299 0.009059 0.009308
# 5 0.007676 -0.003355 0.010841 0.009059 0.051466 0.006760
# 6 -0.006727 -0.006034 0.008103 0.009308 0.006760 0.040516
#
#
# Mechanical properties :
#
#
# Convention : Reuss Voigt Hill
#
# Bulk Modulus (GPa) = 50.54285 72.20599 61.37442
# Shear Modulus (GPa) = 25.61457 33.77454 29.69455
#
# Velocity S-wave (km/s) = 3.64718 4.18802 3.92692
# Velocity P-wave (km/s) = 6.63199 7.80277 7.24108
#
# Compressibility (1/GPa) = 0.01978519
#
# Stress axis : x y z
#
# Youngs Moduli (GPa) = 67.97896 79.26181 63.57899
#
# Poissons Ratio (x) = 0.33252 0.11914
# Poissons Ratio (y) = 0.28519 0.35388
# Poissons Ratio (z) = 0.12738 0.44117
#
# Static dielectric constant tensor:
#      x y z
#    x 1.686790 -0.032530 -0.025020 
#    y -0.032530 1.723310 0.017590 
#    z -0.025020 0.017590 1.731450 
# 
# From -- ./inp_files/199853.got.cif
#   From: 2010.05.17/outbox.cif.g08.bks.cpg/sg2_100_cif.got.tgz:199853.got - 2010.06.03 11:33:40.
