data_PCOD9014353
_publ_section_title
;
Structure prediction by ZEFSAII (Michael W. Deem and Ramdas Pophale) SiO2 
 PCOD9014353
Probable space group: P -1
;
_chemical_formula_sum "Si O2"
_cell_formula_units_Z 16
_cell_length_a 18.073092
_cell_length_b 11.693215
_cell_length_c 9.533567
_cell_angle_alpha 55.773118
_cell_angle_beta 93.187315
_cell_angle_gamma 138.912843
_cell_volume 804.886360
_symmetry_space_group_name_H-M "P -1"
_symmetry_group_IT_number 2
_symmetry_cell_setting 'triclinic'
loop_
_space_group_symop_operation_xyz
x,y,z
-x,-y,-z
loop_
_atom_site_type_symbol
_atom_site_label
_atom_site_fract_x
_atom_site_fract_y
_atom_site_fract_z
Si Si1 0.457181 0.332633 0.317706
Si Si2 0.601824 0.209460 0.997304
Si Si3 0.952409 0.782974 0.565726
Si Si4 0.108167 0.756957 0.720255
Si Si5 0.441790 0.803041 0.502606
Si Si6 0.088944 0.259044 0.742892
Si Si7 0.434187 0.205630 0.076598
Si Si8 0.891461 0.407515 0.453183
O O1 0.543510 0.336011 0.373334
O O2 0.441487 0.272528 0.191048
O O3 0.290336 0.072583 0.554161
O O4 0.544542 0.622441 0.133859
O O5 0.775497 0.474732 0.793162
O O6 0.559477 0.295240 0.986729
O O7 0.500000 0.000000 0.000000
O O8 0.559547 0.035972 0.234656
O O9 0.956373 0.814045 0.376280
O O10 0.042550 0.797495 0.628833
O O11 0.000000 0.000000 0.500000
O O12 0.116281 0.673966 0.641813
O O13 0.000000 0.500000 0.000000
O O14 0.269993 0.547485 0.602819
O O15 0.500000 0.000000 0.500000
O O16 0.042348 0.333513 0.738215
O O17 0.000000 0.000000 0.000000
O O18 0.271773 0.861785 0.297967
O O19 0.000000 0.500000 0.500000
#
# Coordination Sequence:
#
# PCOD9014353 Si02
#       8
#     2   2   2   2   2   2   2   2
#     4  10  22  40  69 102 127 170 232 283 326 405
#     4  12  23  44  68  95 141 178 226 277 340 413
#     4  12  27  45  69 102 143 185 223 288 351 407
#     4  11  24  44  69 101 137 179 230 278 352 411
#     4  12  23  44  71 101 135 181 233 280 339 405
#     4  12  28  45  68 108 140 181 237 283 347 420
#     4  10  21  41  67  95 129 173 226 273 334 395
#     4  11  22  44  69  92 134 180 222 281 342 402
#
# _framework density 19.878584
#
# number of rings (size 3 to 8) (size 9 to 14) (size 15 to 20)
#    0.000    0.750    5.000    2.250    5.250    1.000 
#    0.000    0.625    0.000    0.000    0.000    0.000 
#    0.000    0.000    0.000    0.000    0.000    0.000 
#
# Total GULP energy -89242.045185 kJ/mol
# GULP energy per Si atom -5577.627824 kJ/mol
# Density = 1.983334 g / cm^3
# Si number density = 19.878584 Si / 1000 Ang^3
#
#
#
# Elastic Constant Matrix: (Units=GPa)
#
#
# Indices 1 2 3 4 5 6 
#
# 1 123.2500 13.1930 45.2608 -2.6693 28.8494 2.9362
# 2 13.1930 62.3698 21.1596 1.1635 6.9889 -1.4894
# 3 45.2608 21.1596 120.1530 11.8937 27.8512 -7.4317
# 4 -2.6693 1.1635 11.8937 25.4548 -3.3532 5.0862
# 5 28.8494 6.9889 27.8512 -3.3532 45.6624 -1.0648
# 6 2.9362 -1.4894 -7.4317 5.0862 -1.0648 31.2798
#
#
#
# Elastic Compliance Matrix: (Units=1/GPa)
#
#
# Indices 1 2 3 4 5 6 
#
# 1 0.010518 -0.000746 -0.003191 0.002509 -0.004455 -0.002341
# 2 -0.000746 0.017142 -0.002629 0.000257 -0.000525 0.000202
# 3 -0.003191 -0.002629 0.012263 -0.007494 -0.005515 0.004119
# 4 0.002509 0.000257 -0.007494 0.045683 0.006086 -0.009225
# 5 -0.004455 -0.000525 -0.005515 0.006086 0.028584 -0.000934
# 6 -0.002341 0.000202 0.004119 -0.009225 -0.000934 0.034646
#
#
# Mechanical properties :
#
#
# Convention : Reuss Voigt Hill
#
# Bulk Modulus (GPa) = 37.32618 51.66663 44.49641
# Shear Modulus (GPa) = 29.25721 35.55669 32.40695
#
# Velocity S-wave (km/s) = 3.84056 4.23388 4.04201
# Velocity P-wave (km/s) = 6.20358 7.06743 6.64955
#
# Compressibility (1/GPa) = 0.02679085
#
# Stress axis : x y z
#
# Youngs Moduli (GPa) = 95.07269 58.33636 81.54763
#
# Poissons Ratio (x) = 0.04350 0.26024
# Poissons Ratio (y) = 0.07090 0.21439
# Poissons Ratio (z) = 0.30340 0.15337
#
# Static dielectric constant tensor:
#      x y z
#    x 1.769240 0.113490 0.025200 
#    y 0.113490 1.953150 0.013000 
#    z 0.025200 0.013000 1.706390 
# 
# From -- ./inp_files/261713.got.cif
#   From: 2010.05.17/outbox.cif.g08.bks.cpg/sg2_131_cif.got.tgz:261713.got - 2010.06.03 11:33:40.
