data_PCOD9014168
_publ_section_title
;
Structure prediction by ZEFSAII (Michael W. Deem and Ramdas Pophale) SiO2 
 PCOD9014168
Probable space group: P -1
;
_chemical_formula_sum "Si O2"
_cell_formula_units_Z 16
_cell_length_a 15.613928
_cell_length_b 8.096658
_cell_length_c 11.177938
_cell_angle_alpha 54.560954
_cell_angle_beta 145.221338
_cell_angle_gamma 120.585455
_cell_volume 655.105512
_symmetry_space_group_name_H-M "P -1"
_symmetry_group_IT_number 2
_symmetry_cell_setting 'triclinic'
loop_
_space_group_symop_operation_xyz
x,y,z
-x,-y,-z
loop_
_atom_site_type_symbol
_atom_site_label
_atom_site_fract_x
_atom_site_fract_y
_atom_site_fract_z
Si Si1 0.723835 0.137017 0.796323
Si Si2 0.843828 0.041344 0.416415
Si Si3 0.074962 0.737904 0.819514
Si Si4 0.100408 0.659010 0.289537
Si Si5 0.684030 0.348363 0.254124
Si Si6 0.209286 0.306130 0.954436
Si Si7 0.476467 0.434235 0.364728
Si Si8 0.427416 0.212352 0.861202
O O1 0.843980 0.172019 0.812348
O O2 0.572522 0.236971 0.541944
O O3 0.720280 0.900235 0.918466
O O4 0.786084 0.258770 0.933427
O O5 0.881627 0.213944 0.288473
O O6 0.755126 0.141121 0.378206
O O7 0.746269 0.864021 0.307508
O O8 0.985958 0.933257 0.671820
O O9 0.967616 0.534601 0.782170
O O10 0.249119 0.612334 0.555043
O O11 0.965674 0.711307 0.201787
O O12 0.755393 0.527574 0.177021
O O13 0.509118 0.302288 0.036542
O O14 0.305826 0.378676 0.151687
O O15 0.500000 0.500000 0.500000
O O16 0.535746 0.621025 0.269088
O O17 0.500000 0.000000 0.000000
#
# Coordination Sequence:
#
# PCOD9014168 Si02
#       8
#     2   2   2   2   2   2   2   2
#     4  12  27  44  64 101 138 177 226 271 340 405
#     4  10  21  41  67 100 129 170 231 272 332 390
#     4  11  24  39  67  97 133 176 219 282 331 394
#     4  12  24  43  70  99 137 174 225 283 336 394
#     4  10  22  42  69  96 132 174 224 277 334 394
#     4  11  24  44  66  98 137 181 223 270 338 401
#     4  11  25  46  69  97 139 181 220 277 338 403
#     4   9  21  41  67  98 124 168 224 270 324 393
#
# _framework density 24.423548
#
# number of rings (size 3 to 8) (size 9 to 14) (size 15 to 20)
#    0.000    1.250    1.250    3.750    7.000    3.000 
#    2.250    1.875    0.000    0.000    0.000    0.000 
#    0.000    0.000    0.000    0.000    0.000    0.000 
#
# Total GULP energy -89577.697852 kJ/mol
# GULP energy per Si atom -5598.606116 kJ/mol
# Density = 2.436796 g / cm^3
# Si number density = 24.423548 Si / 1000 Ang^3
#
#
#
# Elastic Constant Matrix: (Units=GPa)
#
#
# Indices 1 2 3 4 5 6 
#
# 1 49.3579 10.2263 7.5014 -2.6255 5.6363 -6.7113
# 2 10.2263 96.4050 29.3922 -1.1795 -6.1841 -12.5325
# 3 7.5014 29.3922 131.0035 8.6815 -5.6101 -0.0310
# 4 -2.6255 -1.1795 8.6815 42.4675 -8.3453 0.9696
# 5 5.6363 -6.1841 -5.6101 -8.3453 28.6783 7.5262
# 6 -6.7113 -12.5325 -0.0310 0.9696 7.5262 31.7809
#
#
#
# Elastic Compliance Matrix: (Units=1/GPa)
#
#
# Indices 1 2 3 4 5 6 
#
# 1 0.022281 -0.001689 -0.001181 0.000193 -0.006372 0.005541
# 2 -0.001689 0.011970 -0.002583 0.000993 0.001664 0.003937
# 3 -0.001181 -0.002583 0.008439 -0.001588 0.001260 -0.001510
# 4 0.000193 0.000993 -0.001588 0.025508 0.007869 -0.002211
# 5 -0.006372 0.001664 0.001260 0.007869 0.041862 -0.010842
# 6 0.005541 0.003937 -0.001510 -0.002211 -0.010842 0.036821
#
#
# Mechanical properties :
#
#
# Convention : Reuss Voigt Hill
#
# Bulk Modulus (GPa) = 31.46218 41.22292 36.34255
# Shear Modulus (GPa) = 29.69409 35.89512 32.79461
#
# Velocity S-wave (km/s) = 3.49061 3.83782 3.66832
# Velocity P-wave (km/s) = 5.39960 6.04594 5.73189
#
# Compressibility (1/GPa) = 0.03178419
#
# Stress axis : x y z
#
# Youngs Moduli (GPa) = 44.88106 83.54138 118.49359
#
# Poissons Ratio (x) = 0.14114 0.13996
# Poissons Ratio (y) = 0.07582 0.30601
# Poissons Ratio (z) = 0.05301 0.21575
#
# Static dielectric constant tensor:
#      x y z
#    x 1.926230 -0.061470 0.044130 
#    y -0.061470 1.935760 0.019280 
#    z 0.044130 0.019280 1.964250 
# 
# From -- ./inp_files/243733.got.cif
#   From: 2010.05.17/outbox.cif.g08.bks.cpg/sg2_122_cif.got.tgz:243733.got - 2010.06.03 11:33:40.
