data_PCOD9014578
_publ_section_title
;
Structure prediction by ZEFSAII (Michael W. Deem and Ramdas Pophale) SiO2 
 PCOD9014578
Probable space group: P -1
;
_chemical_formula_sum "Si O2"
_cell_formula_units_Z 15
_cell_length_a 20.016248
_cell_length_b 13.784021
_cell_length_c 12.739265
_cell_angle_alpha 148.126867
_cell_angle_beta 152.183958
_cell_angle_gamma 26.739465
_cell_volume 707.854318
_symmetry_space_group_name_H-M "P -1"
_symmetry_group_IT_number 2
_symmetry_cell_setting 'triclinic'
loop_
_space_group_symop_operation_xyz
x,y,z
-x,-y,-z
loop_
_atom_site_type_symbol
_atom_site_label
_atom_site_fract_x
_atom_site_fract_y
_atom_site_fract_z
Si Si1 0.814774 0.558854 0.335701
Si Si2 0.386883 0.970132 0.398635
Si Si3 0.500000 0.500000 0.500000
Si Si4 0.914844 0.226648 0.524667
Si Si5 0.283822 0.085784 0.842151
Si Si6 0.708960 0.308964 0.107359
Si Si7 0.368245 0.342920 0.045535
Si Si8 0.373144 0.332551 0.355802
O O1 0.804741 0.396513 0.253291
O O2 0.000000 0.500000 0.500000
O O3 0.729466 0.795045 0.490086
O O4 0.695946 0.592135 0.100690
O O5 0.512885 0.787129 0.492231
O O6 0.500000 0.000000 0.500000
O O7 0.276441 0.895953 0.118621
O O8 0.315594 0.543868 0.234165
O O9 0.475201 0.389464 0.470559
O O10 0.785442 0.250409 0.276639
O O11 0.807062 0.442269 0.648302
O O12 0.081653 0.194155 0.670786
O O13 0.000000 0.000000 0.500000
O O14 0.417939 0.811255 0.774780
O O15 0.315819 0.185217 0.875153
O O16 0.340397 0.166413 0.095018
O O17 0.500000 0.500000 0.000000
#
# Coordination Sequence:
#
# PCOD9014578 Si02
#       8
#     2   2   1   2   2   2   2   2
#     4  12  26  48  75 106 144 190 250 302 359 434
#     4  12  25  45  79 103 143 198 246 291 372 444
#     4  10  22  38  66  98 128 178 232 280 350 426
#     4  12  26  42  67 103 140 175 237 296 348 416
#     4  10  22  40  64  99 135 175 225 283 346 419
#     4  12  26  48  73 105 147 192 244 298 366 442
#     4  10  21  41  68  92 137 182 219 283 355 416
#     4  11  22  43  68 100 136 186 234 288 358 434
#
# _framework density 21.190798999999998
#
# number of rings (size 3 to 8) (size 9 to 14) (size 15 to 20)
#    0.000    0.800    4.000    2.800    3.733    0.533 
#   12.000    0.000    0.000    0.000    0.000    0.000 
#    0.000    0.000    0.000    0.000    0.000    0.000 
#
# Total GULP energy -83648.225193 kJ/mol
# GULP energy per Si atom -5576.548346 kJ/mol
# Density = 2.114257 g / cm^3
# Si number density = 21.190799 Si / 1000 Ang^3
#
#
#
# Elastic Constant Matrix: (Units=GPa)
#
#
# Indices 1 2 3 4 5 6 
#
# 1 112.3919 47.7030 25.8868 -19.4437 -1.2909 9.7344
# 2 47.7030 59.8868 20.4226 -10.4417 7.4876 7.9500
# 3 25.8868 20.4226 78.8332 -9.3278 -6.4500 13.6765
# 4 -19.4437 -10.4417 -9.3278 25.9303 2.2327 3.5346
# 5 -1.2909 7.4876 -6.4500 2.2327 46.6475 -8.0120
# 6 9.7344 7.9500 13.6765 3.5346 -8.0120 35.8838
#
#
#
# Elastic Compliance Matrix: (Units=1/GPa)
#
#
# Indices 1 2 3 4 5 6 
#
# 1 0.014787 -0.010185 -0.001010 0.006751 0.001281 -0.001749
# 2 -0.010185 0.027783 -0.003279 0.003410 -0.006014 -0.003821
# 3 -0.001010 -0.003279 0.015309 0.003956 0.001589 -0.004869
# 4 0.006751 0.003410 0.003956 0.048067 -0.003775 -0.009672
# 5 0.001281 -0.006014 0.001589 -0.003775 0.023884 0.006084
# 6 -0.001749 -0.003821 -0.004869 -0.009672 0.006084 0.033356
#
#
# Mechanical properties :
#
#
# Convention : Reuss Voigt Hill
#
# Bulk Modulus (GPa) = 34.56433 48.79298 41.67866
# Shear Modulus (GPa) = 24.77977 32.16561 28.47269
#
# Velocity S-wave (km/s) = 3.42331 3.90026 3.66954
# Velocity P-wave (km/s) = 5.65436 6.58469 6.13718
#
# Compressibility (1/GPa) = 0.02893156
#
# Stress axis : x y z
#
# Youngs Moduli (GPa) = 67.62607 35.99313 65.32116
#
# Poissons Ratio (x) = 0.36659 0.06598
# Poissons Ratio (y) = 0.68878 0.21416
# Poissons Ratio (z) = 0.06831 0.11801
#
# Static dielectric constant tensor:
#      x y z
#    x 1.706320 0.027710 -0.048380 
#    y 0.027710 1.630120 -0.093210 
#    z -0.048380 -0.093210 1.692980 
# 
# From -- ./inp_files/433309.got.cif
#   From: 2010.05.17/outbox.cif.g08.bks.cpg/sg2_217_cif.got.tgz:433309.got - 2010.06.03 11:33:40.
