data_PCOD9014162
_publ_section_title
;
Structure prediction by ZEFSAII (Michael W. Deem and Ramdas Pophale) SiO2 
 PCOD9014162
Probable space group: P -1
;
_chemical_formula_sum "Si O2"
_cell_formula_units_Z 16
_cell_length_a 9.035783
_cell_length_b 10.413990
_cell_length_c 11.676912
_cell_angle_alpha 53.391397
_cell_angle_beta 54.250246
_cell_angle_gamma 86.890762
_cell_volume 638.695190
_symmetry_space_group_name_H-M "P -1"
_symmetry_group_IT_number 2
_symmetry_cell_setting 'triclinic'
loop_
_space_group_symop_operation_xyz
x,y,z
-x,-y,-z
loop_
_atom_site_type_symbol
_atom_site_label
_atom_site_fract_x
_atom_site_fract_y
_atom_site_fract_z
Si Si1 0.685083 0.276864 0.771499
Si Si2 0.941603 0.613310 0.619327
Si Si3 0.813737 0.545405 0.272924
Si Si4 0.698820 0.963685 0.058109
Si Si5 0.904814 0.821677 0.883223
Si Si6 0.657687 0.710310 0.829310
Si Si7 0.352704 0.252132 0.596642
Si Si8 0.656396 0.936922 0.518185
O O1 0.766369 0.463950 0.699798
O O2 0.489616 0.216130 0.811485
O O3 0.865271 0.286224 0.602722
O O4 0.652484 0.125508 0.959758
O O5 0.859676 0.733649 0.657126
O O6 0.017879 0.513213 0.730796
O O7 0.593117 0.379550 0.440196
O O8 0.774928 0.655363 0.336402
O O9 0.877241 0.663597 0.066825
O O10 0.711442 0.928775 0.203636
O O11 0.886234 0.968524 0.897205
O O12 0.726418 0.760687 0.901535
O O13 0.118198 0.899506 0.678892
O O14 0.592830 0.844245 0.719891
O O15 0.500000 0.500000 0.000000
O O16 0.333151 0.209561 0.495270
O O17 0.500000 0.000000 0.500000
#
# Coordination Sequence:
#
# PCOD9014162 Si02
#       8
#     2   2   2   2   2   2   2   2
#     4  10  22  37  65 104 135 171 223 286 348 408
#     4  11  24  39  70  99 139 178 234 282 343 408
#     4  10  23  42  72 102 137 179 227 294 339 413
#     4  10  21  41  66  99 137 176 219 286 347 409
#     4  11  26  45  71  99 140 183 236 279 349 408
#     4  12  28  49  73  98 140 189 236 285 340 417
#     4  10  23  43  67 100 139 175 227 283 352 403
#     4  12  30  47  72 101 143 186 231 287 346 416
#
# _framework density 25.051072999999999
#
# number of rings (size 3 to 8) (size 9 to 14) (size 15 to 20)
#    0.000    1.250    1.250    2.625   10.500    3.500 
#    0.000    0.000    0.000    0.000    0.000    0.000 
#    0.000    0.000    0.000    0.000    0.000    0.000 
#
# Total GULP energy -89705.500830 kJ/mol
# GULP energy per Si atom -5606.593802 kJ/mol
# Density = 2.499406 g / cm^3
# Si number density = 25.051073 Si / 1000 Ang^3
#
#
#
# Elastic Constant Matrix: (Units=GPa)
#
#
# Indices 1 2 3 4 5 6 
#
# 1 131.1728 20.9426 51.7164 -9.6068 24.3695 5.9178
# 2 20.9426 49.7025 24.0514 18.4066 7.2188 12.0533
# 3 51.7164 24.0514 115.0122 1.2566 25.2943 9.2247
# 4 -9.6068 18.4066 1.2566 27.7619 -1.6119 4.7427
# 5 24.3695 7.2188 25.2943 -1.6119 56.0392 -0.9527
# 6 5.9178 12.0533 9.2247 4.7427 -0.9527 38.9786
#
#
#
# Elastic Compliance Matrix: (Units=1/GPa)
#
#
# Indices 1 2 3 4 5 6 
#
# 1 0.010716 -0.005222 -0.003286 0.007215 -0.002299 -0.000168
# 2 -0.005222 0.034597 -0.003867 -0.023591 -0.001224 -0.006150
# 3 -0.003286 -0.003867 0.011824 0.000915 -0.003406 -0.001298
# 4 0.007215 -0.023591 0.000915 0.054279 0.001040 -0.000596
# 5 -0.002299 -0.001224 -0.003406 0.001040 0.020602 0.001911
# 6 -0.000168 -0.006150 -0.001298 -0.000596 0.001911 0.028009
#
#
# Mechanical properties :
#
#
# Convention : Reuss Voigt Hill
#
# Bulk Modulus (GPa) = 30.87639 54.36760 42.62199
# Shear Modulus (GPa) = 25.56606 37.83440 31.70023
#
# Velocity S-wave (km/s) = 3.19808 3.89046 3.56114
# Velocity P-wave (km/s) = 5.09795 6.47540 5.82751
#
# Compressibility (1/GPa) = 0.03238721
#
# Stress axis : x y z
#
# Youngs Moduli (GPa) = 93.31804 28.90445 84.57316
#
# Poissons Ratio (x) = 0.15094 0.27792
# Poissons Ratio (y) = 0.48732 0.32701
# Poissons Ratio (z) = 0.30666 0.11176
#
# Static dielectric constant tensor:
#      x y z
#    x 1.961080 -0.012030 -0.024320 
#    y -0.012030 1.947020 -0.008680 
#    z -0.024320 -0.008680 1.974670 
# 
# From -- ./inp_files/392041.got.cif
#   From: 2010.05.17/outbox.cif.g08.bks.cpg/sg2_197_cif.got.tgz:392041.got - 2010.06.03 11:33:40.
