data_PCOD9014238
_publ_section_title
;
Structure prediction by ZEFSAII (Michael W. Deem and Ramdas Pophale) SiO2 
 PCOD9014238
Probable space group: P -1
;
_chemical_formula_sum "Si O2"
_cell_formula_units_Z 16
_cell_length_a 16.602055
_cell_length_b 19.353508
_cell_length_c 8.257163
_cell_angle_alpha 42.477848
_cell_angle_beta 32.829627
_cell_angle_gamma 32.101191
_cell_volume 761.312479
_symmetry_space_group_name_H-M "P -1"
_symmetry_group_IT_number 2
_symmetry_cell_setting 'triclinic'
loop_
_space_group_symop_operation_xyz
x,y,z
-x,-y,-z
loop_
_atom_site_type_symbol
_atom_site_label
_atom_site_fract_x
_atom_site_fract_y
_atom_site_fract_z
Si Si1 0.788529 0.672544 0.727810
Si Si2 0.422546 0.495644 0.367283
Si Si3 0.075649 0.804472 0.882997
Si Si4 0.048617 0.706615 0.429763
Si Si5 0.729647 0.475526 0.065367
Si Si6 0.295132 0.051462 0.201922
Si Si7 0.582076 0.217550 0.620562
Si Si8 0.291986 0.101549 0.745704
O O1 0.957264 0.643571 0.608412
O O2 0.764635 0.767570 0.466792
O O3 0.811363 0.553835 0.806872
O O4 0.593642 0.748444 0.033273
O O5 0.585345 0.512072 0.096164
O O6 0.366927 0.496002 0.645988
O O7 0.502833 0.350391 0.426862
O O8 0.239291 0.604394 0.386100
O O9 0.121123 0.679722 0.928503
O O10 0.238576 0.810734 0.538668
O O11 0.093378 0.767125 0.105877
O O12 0.856500 0.921261 0.024479
O O13 0.879324 0.827540 0.612956
O O14 0.318655 0.918821 0.401905
O O15 0.280370 0.096797 0.964759
O O16 0.500000 0.000000 0.000000
O O17 0.500000 0.000000 0.500000
#
# Coordination Sequence:
#
# PCOD9014238 Si02
#       8
#     2   2   2   2   2   2   2   2
#     4  10  21  42  66  94 124 166 211 265 314 378
#     4   9  20  40  63  96 127 165 206 272 310 377
#     4  10  23  42  64  94 127 164 210 265 308 384
#     4  11  23  40  64  94 135 163 216 258 316 371
#     4   9  19  39  64  90 131 159 214 255 324 367
#     4  12  23  43  62  92 130 170 204 264 316 379
#     4  10  21  41  67  88 129 164 210 252 324 368
#     4  11  22  42  65  88 124 166 211 259 315 371
#
# _framework density 21.016338999999999
#
# number of rings (size 3 to 8) (size 9 to 14) (size 15 to 20)
#    0.000    1.750    2.500    2.250    0.000    7.000 
#    9.000    0.000    0.000    0.000    0.000    0.000 
#    0.000    0.000    0.000    0.000    0.000    0.000 
#
# Total GULP energy -89147.626247 kJ/mol
# GULP energy per Si atom -5571.726640 kJ/mol
# Density = 2.096850 g / cm^3
# Si number density = 21.016339 Si / 1000 Ang^3
#
#
#
# Elastic Constant Matrix: (Units=GPa)
#
#
# Indices 1 2 3 4 5 6 
#
# 1 117.2509 51.3363 36.0003 -7.6145 -17.9378 -19.3328
# 2 51.3363 81.2016 6.9217 2.8884 -19.4937 10.2736
# 3 36.0003 6.9217 76.3382 18.6296 -20.0250 -8.4136
# 4 -7.6145 2.8884 18.6296 27.7982 -3.3354 -8.0783
# 5 -17.9378 -19.4937 -20.0250 -3.3354 36.6296 2.6827
# 6 -19.3328 10.2736 -8.4136 -8.0783 2.6827 42.3090
#
#
#
# Elastic Compliance Matrix: (Units=1/GPa)
#
#
# Indices 1 2 3 4 5 6 
#
# 1 0.025392 -0.019163 -0.015498 0.023943 -0.005381 0.018087
# 2 -0.019163 0.029410 0.012720 -0.020569 0.012674 -0.018100
# 3 -0.015498 0.012720 0.027711 -0.025618 0.012755 -0.010360
# 4 0.023943 -0.020569 -0.025618 0.067857 -0.008831 0.024357
# 5 -0.005381 0.012674 0.012755 -0.008831 0.038099 -0.007102
# 6 0.018087 -0.018100 -0.010360 0.024357 -0.007102 0.039336
#
#
# Mechanical properties :
#
#
# Convention : Reuss Voigt Hill
#
# Bulk Modulus (GPa) = 25.88693 51.47860 38.68277
# Shear Modulus (GPa) = 17.57073 33.38286 25.47679
#
# Velocity S-wave (km/s) = 2.89459 3.98983 3.48550
# Velocity P-wave (km/s) = 4.84931 6.76555 5.88594
#
# Compressibility (1/GPa) = 0.03862953
#
# Stress axis : x y z
#
# Youngs Moduli (GPa) = 39.38326 34.00183 36.08674
#
# Poissons Ratio (x) = 0.65159 0.55928
# Poissons Ratio (y) = 0.75472 -0.45902
# Poissons Ratio (z) = 0.61037 -0.43250
#
# Static dielectric constant tensor:
#      x y z
#    x 1.838810 0.003610 -0.062540 
#    y 0.003610 1.809850 0.024620 
#    z -0.062540 0.024620 1.824800 
# 
# From -- ./inp_files/338057.got.cif
#   From: 2010.05.17/outbox.cif.g08.bks.cpg/sg2_170_cif.got.tgz:338057.got - 2010.06.03 11:33:40.
