data_PCOD9014114
_publ_section_title
;
Structure prediction by ZEFSAII (Michael W. Deem and Ramdas Pophale) SiO2 
 PCOD9014114
Probable space group: P -1
;
_chemical_formula_sum "Si O2"
_cell_formula_units_Z 15
_cell_length_a 11.016442
_cell_length_b 11.115181
_cell_length_c 11.008989
_cell_angle_alpha 118.645800
_cell_angle_beta 36.014010
_cell_angle_gamma 106.726815
_cell_volume 682.435107
_symmetry_space_group_name_H-M "P -1"
_symmetry_group_IT_number 2
_symmetry_cell_setting 'triclinic'
loop_
_space_group_symop_operation_xyz
x,y,z
-x,-y,-z
loop_
_atom_site_type_symbol
_atom_site_label
_atom_site_fract_x
_atom_site_fract_y
_atom_site_fract_z
Si Si1 0.392723 0.933561 0.367582
Si Si2 0.991274 0.342245 0.391370
Si Si3 0.440978 0.546190 0.294575
Si Si4 0.992408 0.942122 0.115451
Si Si5 0.418406 0.235731 0.100790
Si Si6 0.500000 0.500000 0.500000
Si Si7 0.544646 0.172797 0.238892
Si Si8 0.767508 0.734610 0.092001
O O1 0.578470 0.863552 0.274100
O O2 0.169631 0.949828 0.621518
O O3 0.410119 0.090389 0.392382
O O4 0.447902 0.846153 0.156594
O O5 0.741450 0.350997 0.581940
O O6 0.000000 0.500000 0.500000
O O7 0.166904 0.248551 0.288823
O O8 0.094400 0.309292 0.160075
O O9 0.465192 0.393381 0.141706
O O10 0.383732 0.530954 0.473925
O O11 0.654262 0.607480 0.155764
O O12 0.912067 0.795596 0.099111
O O13 0.219803 0.911668 0.974673
O O14 0.000000 0.000000 0.000000
O O15 0.480085 0.170695 0.150054
O O16 0.528113 0.331376 0.370592
#
# Coordination Sequence:
#
# PCOD9014114 Si02
#       8
#     2   2   2   2   2   1   2   2
#     4  11  24  41  67  95 132 175 222 275 327 390
#     4   9  20  39  64  96 128 174 217 261 324 387
#     4  10  21  41  66  97 137 171 219 271 324 394
#     4  12  26  42  66  99 128 176 228 271 332 394
#     4   9  22  43  66 100 136 178 215 273 332 390
#     4  10  22  40  68  90 134 178 198 276 336 372
#     4  11  23  45  67  97 140 169 221 273 332 396
#     4  11  23  39  66 100 127 171 224 271 326 389
#
# _framework density 21.98011
#
# number of rings (size 3 to 8) (size 9 to 14) (size 15 to 20)
#    0.000    1.600    1.333    2.400    3.733    5.333 
#    0.000   20.000    0.000    0.000    0.000    0.000 
#    0.000    0.000    0.000    0.000    0.000    0.000 
#
# Total GULP energy -83571.699987 kJ/mol
# GULP energy per Si atom -5571.446666 kJ/mol
# Density = 2.193008 g / cm^3
# Si number density = 21.980110 Si / 1000 Ang^3
#
#
#
# Elastic Constant Matrix: (Units=GPa)
#
#
# Indices 1 2 3 4 5 6 
#
# 1 102.8224 9.2876 38.8220 8.7175 -8.4325 -6.8601
# 2 9.2876 74.1943 20.4558 14.8609 -7.4173 2.0275
# 3 38.8220 20.4558 88.7363 7.9275 6.6169 -5.2524
# 4 8.7175 14.8609 7.9275 28.0513 13.3488 0.9877
# 5 -8.4325 -7.4173 6.6169 13.3488 24.2771 7.0203
# 6 -6.8601 2.0275 -5.2524 0.9877 7.0203 36.9568
#
#
#
# Elastic Compliance Matrix: (Units=1/GPa)
#
#
# Indices 1 2 3 4 5 6 
#
# 1 0.014238 0.004058 -0.007308 -0.011535 0.014846 -0.001130
# 2 0.004058 0.021722 -0.006897 -0.021785 0.023434 -0.005288
# 3 -0.007308 -0.006897 0.016671 0.008119 -0.014807 0.003987
# 4 -0.011535 -0.021785 0.008119 0.075207 -0.056829 0.008993
# 5 0.014846 0.023434 -0.014807 -0.056829 0.093681 -0.016911
# 6 -0.001130 -0.005288 0.003987 0.008993 -0.016911 0.030678
#
#
# Mechanical properties :
#
#
# Convention : Reuss Voigt Hill
#
# Bulk Modulus (GPa) = 30.92372 44.76486 37.84429
# Shear Modulus (GPa) = 17.65094 31.00288 24.32691
#
# Velocity S-wave (km/s) = 2.83687 3.75973 3.33042
# Velocity P-wave (km/s) = 4.98297 6.26560 5.66073
#
# Compressibility (1/GPa) = 0.03233764
#
# Stress axis : x y z
#
# Youngs Moduli (GPa) = 70.23277 46.03523 59.98315
#
# Poissons Ratio (x) = -0.18681 0.43837
# Poissons Ratio (y) = -0.28501 0.41371
# Poissons Ratio (z) = 0.51328 0.31751
#
# Static dielectric constant tensor:
#      x y z
#    x 1.784500 0.021760 -0.006030 
#    y 0.021760 1.869750 -0.015470 
#    z -0.006030 -0.015470 1.783260 
# 
# From -- ./inp_files/363293.got.cif
#   From: 2010.05.17/outbox.cif.g08.bks.cpg/sg2_182_cif.got.tgz:363293.got - 2010.06.03 11:33:40.
