data_PCOD9014762
_publ_section_title
;
Structure prediction by ZEFSAII (Michael W. Deem and Ramdas Pophale) SiO2 
 PCOD9014762
Probable space group: P -1
;
_chemical_formula_sum "Si O2"
_cell_formula_units_Z 13
_cell_length_a 4.865401
_cell_length_b 20.081254
_cell_length_c 7.366093
_cell_angle_alpha 119.317946
_cell_angle_beta 104.803441
_cell_angle_gamma 114.746554
_cell_volume 463.619380
_symmetry_space_group_name_H-M "P -1"
_symmetry_group_IT_number 2
_symmetry_cell_setting 'triclinic'
loop_
_space_group_symop_operation_xyz
x,y,z
-x,-y,-z
loop_
_atom_site_type_symbol
_atom_site_label
_atom_site_fract_x
_atom_site_fract_y
_atom_site_fract_z
Si Si1 0.500000 0.500000 0.500000
Si Si2 0.334787 0.827667 0.531155
Si Si3 0.188764 0.963412 0.745039
Si Si4 0.327300 0.297963 0.111373
Si Si5 0.482278 0.547311 0.238790
Si Si6 0.741201 0.349279 0.884414
Si Si7 0.389598 0.815572 0.932515
O O1 0.533207 0.411271 0.349785
O O2 0.785410 0.574902 0.468124
O O3 0.208297 0.890160 0.528726
O O4 0.211934 0.725655 0.290348
O O5 0.211343 0.802759 0.688389
O O6 0.782251 0.902349 0.681906
O O7 0.500000 0.000000 0.000000
O O8 0.318558 0.065899 0.819202
O O9 0.418609 0.232297 0.126704
O O10 0.903717 0.237134 0.024962
O O11 0.441232 0.304478 0.929815
O O12 0.369572 0.610724 0.239743
O O13 0.500000 0.500000 0.000000
O O14 0.140361 0.447686 0.165268
#
# Coordination Sequence:
#
# PCOD9014762 Si02
#       7
#     1   2   2   2   2   2   2
#     4  12  26  46  76 104 142 194 248 288 382 416
#     4  11  23  41  75  99 140 190 243 303 370 432
#     4  10  21  41  69 104 139 183 246 306 359 438
#     4  12  26  42  69 100 146 182 238 299 356 443
#     4  11  25  47  72 101 149 190 244 305 357 448
#     4  11  27  46  67 107 147 190 240 306 377 426
#     4  11  23  43  68 102 136 186 242 295 358 436
#
# _framework density 28.040241000000002
#
# number of rings (size 3 to 8) (size 9 to 14) (size 15 to 20)
#    0.000    0.923    1.538    6.462    4.308    2.462 
#    0.000    4.615    0.000    0.000    0.000    0.000 
#    0.000    0.000    0.000    0.000    0.000    0.000 
#
# Total GULP energy -72704.972426 kJ/mol
# GULP energy per Si atom -5592.690187 kJ/mol
# Density = 2.797642 g / cm^3
# Si number density = 28.040241 Si / 1000 Ang^3
#
#
#
# Elastic Constant Matrix: (Units=GPa)
#
#
# Indices 1 2 3 4 5 6 
#
# 1 151.7920 42.5793 50.6660 26.6081 -26.8160 -12.2933
# 2 42.5793 157.4129 67.7594 10.2182 -23.3787 -20.2573
# 3 50.6660 67.7594 176.3166 39.6010 -41.9917 -11.0340
# 4 26.6081 10.2182 39.6010 56.5289 2.4015 -16.8097
# 5 -26.8160 -23.3787 -41.9917 2.4015 62.3853 17.5938
# 6 -12.2933 -20.2573 -11.0340 -16.8097 17.5938 67.3345
#
#
#
# Elastic Compliance Matrix: (Units=1/GPa)
#
#
# Indices 1 2 3 4 5 6 
#
# 1 0.008260 -0.001517 -0.000216 -0.003829 0.003203 -0.000777
# 2 -0.001517 0.008221 -0.003169 0.002160 -0.000445 0.002333
# 3 -0.000216 -0.003169 0.010019 -0.007499 0.006582 -0.002943
# 4 -0.003829 0.002160 -0.007499 0.027085 -0.009147 0.007874
# 5 0.003203 -0.000445 0.006582 -0.009147 0.024003 -0.007026
# 6 -0.000777 0.002333 -0.002943 0.007874 -0.007026 0.018730
#
#
# Mechanical properties :
#
#
# Convention : Reuss Voigt Hill
#
# Bulk Modulus (GPa) = 59.89414 89.72565 74.80990
# Shear Modulus (GPa) = 44.76757 58.88419 51.82588
#
# Velocity S-wave (km/s) = 4.00002 4.58754 4.30381
# Velocity P-wave (km/s) = 6.53758 7.75429 7.17178
#
# Compressibility (1/GPa) = 0.01669612
#
# Stress axis : x y z
#
# Youngs Moduli (GPa) = 121.06832 121.64232 99.80748
#
# Poissons Ratio (x) = 0.18450 0.02160
# Poissons Ratio (y) = 0.18363 0.31626
# Poissons Ratio (z) = 0.02620 0.38545
#
# Static dielectric constant tensor:
#      x y z
#    x 2.261840 -0.163080 0.323200 
#    y -0.163080 2.467310 -0.398570 
#    z 0.323200 -0.398570 2.879900 
# 
# From -- ./inp_files/140357.got.cif
#   From: 2010.05.17/outbox.cif.g08.bks.cpg/sg2_71_cif.got.tgz:140357.got - 2010.06.03 11:33:40.
