data_PCOD9014043
_publ_section_title
;
Structure prediction by ZEFSAII (Michael W. Deem and Ramdas Pophale) SiO2 
 PCOD9014043
Probable space group: P -1
;
_chemical_formula_sum "Si O2"
_cell_formula_units_Z 16
_cell_length_a 28.832745
_cell_length_b 5.251084
_cell_length_c 5.249809
_cell_angle_alpha 95.507822
_cell_angle_beta 107.402749
_cell_angle_gamma 125.345565
_cell_volume 580.531323
_symmetry_space_group_name_H-M "P -1"
_symmetry_group_IT_number 2
_symmetry_cell_setting 'triclinic'
loop_
_space_group_symop_operation_xyz
x,y,z
-x,-y,-z
loop_
_atom_site_type_symbol
_atom_site_label
_atom_site_fract_x
_atom_site_fract_y
_atom_site_fract_z
Si Si1 0.040864 0.912630 0.927387
Si Si2 0.370644 0.457069 0.759718
Si Si3 0.717468 0.143365 0.123645
Si Si4 0.810577 0.068367 0.222415
Si Si5 0.928439 0.163755 0.533486
Si Si6 0.252285 0.350182 0.407325
Si Si7 0.512749 0.308767 0.808713
Si Si8 0.603440 0.908872 0.619679
O O1 0.068725 0.041476 0.702317
O O2 0.995718 0.518487 0.747755
O O3 0.091126 0.012793 0.239308
O O4 0.000000 0.000000 0.000000
O O5 0.324268 0.485596 0.532851
O O6 0.378797 0.223600 0.591694
O O7 0.329030 0.245186 0.918519
O O8 0.441863 0.755139 0.998674
O O9 0.741211 0.346334 0.442653
O O10 0.780165 0.237790 0.111536
O O11 0.669134 0.170129 0.902976
O O12 0.784672 0.918879 0.449372
O O13 0.883525 0.240848 0.375406
O O14 0.782302 0.794739 0.928675
O O15 0.557547 0.589565 0.697156
O O16 0.443815 0.025375 0.546640
O O17 0.500000 0.500000 0.000000
#
# Coordination Sequence:
#
# PCOD9014043 Si02
#       8
#     2   2   2   2   2   2   2   2
#     4  10  21  41  66  95 126 161 197 245 296 346
#     4   9  18  35  54  81 114 151 196 253 306 364
#     4  10  22  37  58  83 116 159 200 251 303 356
#     4  11  24  41  59  90 125 159 204 249 290 352
#     4  10  22  39  63  93 126 161 202 243 293 352
#     4  11  24  39  61  86 120 163 207 248 304 357
#     4   8  15  27  53  82 107 148 190 245 313 360
#     4   9  15  31  55  78 111 151 192 245 309 361
#
# _framework density 27.560960000000001
#
# number of rings (size 3 to 8) (size 9 to 14) (size 15 to 20)
#    0.000    2.250    1.250    1.125    1.750    2.000 
#    0.000    0.625    0.000   25.500    0.000    0.000 
#    0.000    0.000    0.000    0.000    0.000    0.000 
#
# Total GULP energy -89433.008761 kJ/mol
# GULP energy per Si atom -5589.563048 kJ/mol
# Density = 2.749823 g / cm^3
# Si number density = 27.560960 Si / 1000 Ang^3
#
#
#
# Elastic Constant Matrix: (Units=GPa)
#
#
# Indices 1 2 3 4 5 6 
#
# 1 129.8175 16.3217 62.5018 -7.5586 14.4991 -12.1786
# 2 16.3217 47.3498 19.9159 -16.7241 -2.6992 -8.3083
# 3 62.5018 19.9159 172.6965 -20.9267 7.6765 -12.8597
# 4 -7.5586 -16.7241 -20.9267 26.9795 -8.2780 -2.0324
# 5 14.4991 -2.6992 7.6765 -8.2780 59.9524 -1.3042
# 6 -12.1786 -8.3083 -12.8597 -2.0324 -1.3042 35.1502
#
#
#
# Elastic Compliance Matrix: (Units=1/GPa)
#
#
# Indices 1 2 3 4 5 6 
#
# 1 0.009906 -0.002629 -0.003322 -0.002045 -0.002341 0.001390
# 2 -0.002629 0.030922 0.000266 0.020777 0.005034 0.007884
# 3 -0.003322 0.000266 0.007771 0.005617 0.000642 0.002104
# 4 -0.002045 0.020777 0.005617 0.057180 0.008821 0.009891
# 5 -0.002341 0.005034 0.000642 0.008821 0.018648 0.001816
# 6 0.001390 0.007884 0.002104 0.009891 0.001816 0.032203
#
#
# Mechanical properties :
#
#
# Convention : Reuss Voigt Hill
#
# Bulk Modulus (GPa) = 26.86036 60.81586 43.83811
# Shear Modulus (GPa) = 27.71467 41.15806 34.43637
#
# Velocity S-wave (km/s) = 3.17452 3.86858 3.53861
# Velocity P-wave (km/s) = 4.81703 6.48601 5.71280
#
# Compressibility (1/GPa) = 0.03722959
#
# Stress axis : x y z
#
# Youngs Moduli (GPa) = 100.94956 32.33910 128.68499
#
# Poissons Ratio (x) = 0.08502 0.42751
# Poissons Ratio (y) = 0.26539 -0.03427
# Poissons Ratio (z) = 0.33537 -0.00861
#
# Static dielectric constant tensor:
#      x y z
#    x 2.143220 0.057250 0.006170 
#    y 0.057250 2.269770 -0.135630 
#    z 0.006170 -0.135630 2.179050 
# 
# From -- ./inp_files/14433.got.cif
#   From: 2010.05.17/outbox.cif.g08.bks.cpg/sg2_8_cif.got.tgz:14433.got - 2010.06.03 11:33:40.
