data_PCOD9014939
_publ_section_title
;
Structure prediction by ZEFSAII (Michael W. Deem and Ramdas Pophale) SiO2 
 PCOD9014939
Probable space group: P -1
;
_chemical_formula_sum "Si O2"
_cell_formula_units_Z 14
_cell_length_a 7.780119
_cell_length_b 9.907323
_cell_length_c 14.381358
_cell_angle_alpha 57.176608
_cell_angle_beta 62.724735
_cell_angle_gamma 108.492718
_cell_volume 540.778718
_symmetry_space_group_name_H-M "P -1"
_symmetry_group_IT_number 2
_symmetry_cell_setting 'triclinic'
loop_
_space_group_symop_operation_xyz
x,y,z
-x,-y,-z
loop_
_atom_site_type_symbol
_atom_site_label
_atom_site_fract_x
_atom_site_fract_y
_atom_site_fract_z
Si Si1 0.331972 0.185987 0.078708
Si Si2 0.105957 0.691473 0.259343
Si Si3 0.521106 0.692713 0.386072
Si Si4 0.960140 0.083312 0.567395
Si Si5 0.366122 0.901123 0.736482
Si Si6 0.473711 0.344528 0.795944
Si Si7 0.049123 0.546243 0.122844
O O1 0.231491 0.943541 0.161652
O O2 0.146095 0.088119 0.254606
O O3 0.311123 0.281444 0.956308
O O4 0.676434 0.400058 0.942812
O O5 0.352992 0.712876 0.205624
O O6 0.003744 0.612634 0.206018
O O7 0.824818 0.480033 0.472375
O O8 0.500000 0.500000 0.500000
O O9 0.688827 0.788630 0.210714
O O10 0.639592 0.910447 0.338532
O O11 0.273639 0.366977 0.397097
O O12 0.695537 0.042936 0.625016
O O13 0.000000 0.000000 0.500000
O O14 0.229769 0.725495 0.746770
O O15 0.172226 0.730816 0.938734
#
# Coordination Sequence:
#
# PCOD9014939 Si02
#       7
#     2   2   2   2   2   2   2
#     4  10  21  41  70 103 133 177 243 280 336 421
#     4  11  20  41  70  99 133 180 232 283 338 418
#     4  12  25  41  67 105 139 182 231 285 350 416
#     4  11  23  41  70 104 136 179 235 284 342 416
#     4  10  21  44  66 100 147 176 224 290 354 414
#     4  11  21  43  69  96 131 183 228 286 341 401
#     4   9  20  38  71 102 132 184 225 286 359 410
#
# _framework density 25.888594000000001
#
# number of rings (size 3 to 8) (size 9 to 14) (size 15 to 20)
#    0.000    1.429    2.857    4.714    0.000    2.286 
#    5.143    7.143    0.000    0.000    0.000    0.000 
#    0.000    0.000    0.000    0.000    0.000    0.000 
#
# Total GULP energy -78409.409231 kJ/mol
# GULP energy per Si atom -5600.672088 kJ/mol
# Density = 2.582967 g / cm^3
# Si number density = 25.888594 Si / 1000 Ang^3
#
#
#
# Elastic Constant Matrix: (Units=GPa)
#
#
# Indices 1 2 3 4 5 6 
#
# 1 88.9322 29.3155 16.3089 2.1225 0.7710 7.7530
# 2 29.3155 141.6956 40.1210 15.4863 16.3113 3.2272
# 3 16.3089 40.1210 111.6569 29.6016 -5.9734 -0.9178
# 4 2.1225 15.4863 29.6016 56.8504 9.6867 -0.9980
# 5 0.7710 16.3113 -5.9734 9.6867 20.5060 -0.2505
# 6 7.7530 3.2272 -0.9178 -0.9980 -0.2505 34.3783
#
#
#
# Elastic Compliance Matrix: (Units=1/GPa)
#
#
# Indices 1 2 3 4 5 6 
#
# 1 0.012427 -0.002353 -0.001101 0.000571 0.000782 -0.002589
# 2 -0.002353 0.009595 -0.003877 0.001047 -0.009174 -0.000510
# 3 -0.001101 -0.003877 0.013057 -0.007471 0.010468 0.000820
# 4 0.000571 0.001047 -0.007471 0.023591 -0.014172 0.000155
# 5 0.000782 -0.009174 0.010468 -0.014172 0.065791 0.001032
# 6 -0.002589 -0.000510 0.000820 0.000155 0.001032 0.029754
#
#
# Mechanical properties :
#
#
# Convention : Reuss Voigt Hill
#
# Bulk Modulus (GPa) = 48.97354 57.08616 53.02985
# Shear Modulus (GPa) = 28.46063 39.44957 33.95510
#
# Velocity S-wave (km/s) = 3.31924 3.90785 3.62551
# Velocity P-wave (km/s) = 5.80068 6.51616 6.16880
#
# Compressibility (1/GPa) = 0.02041919
#
# Stress axis : x y z
#
# Youngs Moduli (GPa) = 80.46824 104.22006 76.58722
#
# Poissons Ratio (x) = 0.24523 0.08429
# Poissons Ratio (y) = 0.18934 0.29689
# Poissons Ratio (z) = 0.08856 0.40401
#
# Static dielectric constant tensor:
#      x y z
#    x 2.120860 0.015590 -0.047080 
#    y 0.015590 2.032640 0.023960 
#    z -0.047080 0.023960 2.068760 
# 
# From -- ./inp_files/500022.got.cif
#   From: 2010.05.17/outbox.cif.g08.bks.cpg/sg2_251_cif.got.tgz:500022.got - 2010.06.03 11:33:40.
