data_PCOD9014330
_publ_section_title
;
Structure prediction by ZEFSAII (Michael W. Deem and Ramdas Pophale) SiO2 
 PCOD9014330
Probable space group: P -1
;
_chemical_formula_sum "Si O2"
_cell_formula_units_Z 16
_cell_length_a 9.080856
_cell_length_b 11.498139
_cell_length_c 9.257915
_cell_angle_alpha 100.975546
_cell_angle_beta 55.289823
_cell_angle_gamma 117.945762
_cell_volume 698.062605
_symmetry_space_group_name_H-M "P -1"
_symmetry_group_IT_number 2
_symmetry_cell_setting 'triclinic'
loop_
_space_group_symop_operation_xyz
x,y,z
-x,-y,-z
loop_
_atom_site_type_symbol
_atom_site_label
_atom_site_fract_x
_atom_site_fract_y
_atom_site_fract_z
Si Si1 0.814977 0.571246 0.744912
Si Si2 0.079047 0.630463 0.889421
Si Si3 0.596760 0.139286 0.346568
Si Si4 0.571299 0.689227 0.096141
Si Si5 0.116606 0.205032 0.805155
Si Si6 0.461091 0.909688 0.138124
Si Si7 0.160368 0.973578 0.647585
Si Si8 0.001388 0.776843 0.441630
O O1 0.653515 0.420984 0.777762
O O2 0.972849 0.583236 0.782874
O O3 0.909975 0.647232 0.562266
O O4 0.687553 0.638565 0.908627
O O5 0.313700 0.719255 0.747484
O O6 0.000000 0.500000 0.000000
O O7 0.023180 0.737624 0.026605
O O8 0.380428 0.096269 0.526758
O O9 0.545361 0.014676 0.243351
O O10 0.772443 0.132724 0.345664
O O11 0.685453 0.722847 0.192211
O O12 0.568570 0.816823 0.057909
O O13 0.051008 0.046878 0.811666
O O14 0.121713 0.235012 0.638445
O O15 0.226424 0.817919 0.272118
O O16 0.500000 0.000000 0.000000
O O17 0.033784 0.898726 0.560310
#
# Coordination Sequence:
#
# PCOD9014330 Si02
#       8
#     2   2   2   2   2   2   2   2
#     4  10  24  45  69  92 137 183 229 277 332 398
#     4  11  25  45  67  99 136 179 225 278 336 402
#     4  10  21  41  67  94 134 173 212 276 338 393
#     4  10  24  46  67  95 136 184 225 274 339 399
#     4  11  24  44  67 101 132 175 226 278 336 397
#     4  11  24  42  69 101 134 176 223 275 340 401
#     4  10  21  42  67 100 133 168 220 276 339 392
#     4  11  24  43  68 106 133 173 226 281 336 397
#
# _framework density 22.920580000000001
#
# number of rings (size 3 to 8) (size 9 to 14) (size 15 to 20)
#    0.000    1.500    2.500    1.125    3.500    5.500 
#    6.750    0.000    0.000    0.000    0.000    0.000 
#    0.000    0.000    0.000    0.000    0.000    0.000 
#
# Total GULP energy -89403.532903 kJ/mol
# GULP energy per Si atom -5587.720806 kJ/mol
# Density = 2.286841 g / cm^3
# Si number density = 22.920580 Si / 1000 Ang^3
#
#
#
# Elastic Constant Matrix: (Units=GPa)
#
#
# Indices 1 2 3 4 5 6 
#
# 1 92.2310 54.6998 32.9927 -10.5414 36.4064 3.9154
# 2 54.6998 72.7657 59.5079 -33.9496 -6.3708 5.0007
# 3 32.9927 59.5079 82.3352 -22.5167 27.6310 2.2935
# 4 -10.5414 -33.9496 -22.5167 54.8657 -2.8032 4.9228
# 5 36.4064 -6.3708 27.6310 -2.8032 34.1910 3.1762
# 6 3.9154 5.0007 2.2935 4.9228 3.1762 27.4282
#
#
#
# Elastic Compliance Matrix: (Units=1/GPa)
#
#
# Indices 1 2 3 4 5 6 
#
# 1 0.001041 0.016999 -0.016667 0.005135 0.016384 -0.004673
# 2 0.016999 -0.016001 0.015450 -0.002356 -0.034093 0.003569
# 3 -0.016667 0.015450 0.004170 0.009426 0.018457 -0.004615
# 4 0.005135 -0.002356 0.009426 0.021362 -0.011438 -0.003601
# 5 0.016384 -0.034093 0.018457 -0.011438 -0.010929 0.005652
# 6 -0.004673 0.003569 -0.004615 -0.003601 0.005652 0.036853
#
#
# Mechanical properties :
#
#
# Convention : Reuss Voigt Hill
#
# Bulk Modulus (GPa) = 48.13568 60.19251 54.16410
# Shear Modulus (GPa) = 421.71556 29.97244 225.84400
#
# Velocity S-wave (km/s) = 13.57900 3.62009 9.93716
# Velocity P-wave (km/s) = 16.33705 6.61753 12.46376
#
# Compressibility (1/GPa) = 0.02077461
#
# Stress axis : x y z
#
# Youngs Moduli (GPa) = 960.83311 -62.49783 239.81324
#
# Poissons Ratio (x) = 1.06242 3.99698
# Poissons Ratio (y) = -16.33352 -3.70511
# Poissons Ratio (z) = 16.01426 0.96559
#
# Static dielectric constant tensor:
#      x y z
#    x 1.901380 -0.051080 -0.133110 
#    y -0.051080 1.831580 -0.046460 
#    z -0.133110 -0.046460 1.727220 
# 
# From -- ./inp_files/188327.got.cif
#   From: 2010.05.17/outbox.cif.g08.bks.cpg/sg2_95_cif.got.tgz:188327.got - 2010.06.03 11:33:40.
