data_PCOD9014729
_publ_section_title
;
Structure prediction by ZEFSAII (Michael W. Deem and Ramdas Pophale) SiO2 
 PCOD9014729
Probable space group: P -1
;
_chemical_formula_sum "Si O2"
_cell_formula_units_Z 15
_cell_length_a 5.148792
_cell_length_b 15.554454
_cell_length_c 10.004745
_cell_angle_alpha 83.904113
_cell_angle_beta 90.573213
_cell_angle_gamma 119.082102
_cell_volume 695.470478
_symmetry_space_group_name_H-M "P -1"
_symmetry_group_IT_number 2
_symmetry_cell_setting 'triclinic'
loop_
_space_group_symop_operation_xyz
x,y,z
-x,-y,-z
loop_
_atom_site_type_symbol
_atom_site_label
_atom_site_fract_x
_atom_site_fract_y
_atom_site_fract_z
Si Si1 0.586690 0.401955 0.457973
Si Si2 0.825010 0.692256 0.785017
Si Si3 0.230902 0.985616 0.091104
Si Si4 0.466037 0.171072 0.252549
Si Si5 0.103781 0.806494 0.293709
Si Si6 0.256026 0.419431 0.711956
Si Si7 0.500000 0.500000 0.000000
Si Si8 0.414171 0.193959 0.542604
O O1 0.320179 0.357817 0.351560
O O2 0.483835 0.422378 0.597296
O O3 0.827694 0.500966 0.367177
O O4 0.646911 0.310627 0.495376
O O5 0.684180 0.763287 0.804895
O O6 0.178910 0.758870 0.766419
O O7 0.724034 0.607616 0.910621
O O8 0.355283 0.071106 0.187981
O O9 0.093658 0.877014 0.169949
O O10 0.500000 0.000000 0.000000
O O11 0.000000 0.000000 0.000000
O O12 0.368477 0.142360 0.409890
O O13 0.433065 0.845355 0.346289
O O14 0.989978 0.694775 0.263827
O O15 0.879190 0.806586 0.405031
O O16 0.381170 0.453494 0.855070
#
# Coordination Sequence:
#
# PCOD9014729 Si02
#       8
#     2   2   2   2   2   2   1   2
#     4   8  17  37  62  94 130 169 210 261 342 389
#     4  10  22  41  65  98 132 173 222 271 335 395
#     4  12  28  46  66  95 133 185 225 266 336 402
#     4  11  23  42  71  93 131 176 215 279 330 397
#     4  11  24  42  66  97 130 169 224 280 325 386
#     4   9  18  35  62  91 131 171 211 272 318 397
#     4  10  22  38  62  98 132 174 226 268 322 400
#     4  10  21  41  69 101 127 164 220 278 334 389
#
# _framework density 21.568134000000001
#
# number of rings (size 3 to 8) (size 9 to 14) (size 15 to 20)
#    0.000    1.867    0.000    4.000    3.733    2.133 
#    0.000   14.667    0.000    0.000    0.000    0.000 
#    0.000    0.000    0.000    0.000    0.000    0.000 
#
# Total GULP energy -83526.069606 kJ/mol
# GULP energy per Si atom -5568.404640 kJ/mol
# Density = 2.151904 g / cm^3
# Si number density = 21.568134 Si / 1000 Ang^3
#
#
#
# Elastic Constant Matrix: (Units=GPa)
#
#
# Indices 1 2 3 4 5 6 
#
# 1 73.1911 -10.0950 0.7858 2.5639 5.2883 -0.7750
# 2 -10.0950 50.4374 24.0598 2.7356 -4.2823 -2.0101
# 3 0.7858 24.0598 136.7376 1.5478 4.2419 -11.5285
# 4 2.5639 2.7356 1.5478 45.4483 -9.6668 -4.2082
# 5 5.2883 -4.2823 4.2419 -9.6668 21.9537 0.5382
# 6 -0.7750 -2.0101 -11.5285 -4.2082 0.5382 19.9173
#
#
#
# Elastic Compliance Matrix: (Units=1/GPa)
#
#
# Indices 1 2 3 4 5 6 
#
# 1 0.014387 0.002888 -0.000432 -0.001700 -0.003576 0.000339
# 2 0.002888 0.022782 -0.004173 -0.000489 0.004345 -0.000225
# 3 -0.000432 -0.004173 0.008512 -0.000132 -0.002524 0.004529
# 4 -0.001700 -0.000489 -0.000132 0.024960 0.011213 0.004779
# 5 -0.003576 0.004345 -0.002524 0.011213 0.052690 -0.000216
# 6 0.000339 -0.000225 0.004529 0.004779 -0.000216 0.053835
#
#
# Mechanical properties :
#
#
# Convention : Reuss Voigt Hill
#
# Bulk Modulus (GPa) = 23.67113 32.20748 27.93931
# Shear Modulus (GPa) = 25.68274 33.83821 29.76047
#
# Velocity S-wave (km/s) = 3.45450 3.96523 3.71864
# Velocity P-wave (km/s) = 5.18751 5.99411 5.60534
#
# Compressibility (1/GPa) = 0.04224555
#
# Stress axis : x y z
#
# Youngs Moduli (GPa) = 69.50566 43.89466 117.48490
#
# Poissons Ratio (x) = -0.12676 0.05077
# Poissons Ratio (y) = -0.20072 0.49031
# Poissons Ratio (z) = 0.03003 0.18319
#
# Static dielectric constant tensor:
#      x y z
#    x 1.783030 0.017970 0.013260 
#    y 0.017970 1.857400 -0.013280 
#    z 0.013260 -0.013280 1.791660 
# 
# From -- ./inp_files/137639.got.cif
#   From: 2010.05.17/outbox.cif.g08.bks.cpg/sg2_69_cif.got.tgz:137639.got - 2010.06.03 11:33:40.
