data_PCOD9014105
_publ_section_title
;
Structure prediction by ZEFSAII (Michael W. Deem and Ramdas Pophale) SiO2 
 PCOD9014105
Probable space group: P -1
;
_chemical_formula_sum "Si O2"
_cell_formula_units_Z 14
_cell_length_a 21.791895
_cell_length_b 5.099088
_cell_length_c 21.464651
_cell_angle_alpha 65.563324
_cell_angle_beta 160.485921
_cell_angle_gamma 120.515652
_cell_volume 668.676261
_symmetry_space_group_name_H-M "P -1"
_symmetry_group_IT_number 2
_symmetry_cell_setting 'triclinic'
loop_
_space_group_symop_operation_xyz
x,y,z
-x,-y,-z
loop_
_atom_site_type_symbol
_atom_site_label
_atom_site_fract_x
_atom_site_fract_y
_atom_site_fract_z
Si Si1 0.458328 0.851169 0.663830
Si Si2 0.871342 0.243238 0.037445
Si Si3 0.739546 0.171315 0.223656
Si Si4 0.021547 0.096552 0.606655
Si Si5 0.440407 0.135894 0.491013
Si Si6 0.985264 0.933778 0.065579
Si Si7 0.806628 0.838364 0.555136
O O1 0.369241 0.488621 0.598673
O O2 0.520394 0.049101 0.639470
O O3 0.292184 0.941987 0.529869
O O4 0.664748 0.971874 0.886685
O O5 0.849744 0.574792 0.985165
O O6 0.048627 0.237822 0.250978
O O7 0.929543 0.170931 0.030920
O O8 0.820388 0.544259 0.274671
O O9 0.835889 0.059852 0.386255
O O10 0.858894 0.102728 0.286763
O O11 0.500000 0.000000 0.000000
O O12 0.930654 0.989661 0.597757
O O13 0.500000 0.500000 0.500000
O O14 0.500000 0.000000 0.500000
O O15 0.205454 0.974284 0.291109
O O16 0.000000 0.000000 0.000000
#
# Coordination Sequence:
#
# PCOD9014105 Si02
#       7
#     2   2   2   2   2   2   2
#     4  12  25  42  63  89 125 165 208 264 318 381
#     4  12  24  43  62  88 122 161 205 260 318 377
#     4  10  21  41  66  97 134 165 213 253 301 364
#     4  10  23  39  65  97 129 172 208 257 303 368
#     4  12  22  38  60  87 115 152 206 260 315 374
#     4  12  23  41  62  87 120 154 206 266 320 379
#     4  12  24  44  63  93 132 165 212 257 316 379
#
# _framework density 20.936888
#
# number of rings (size 3 to 8) (size 9 to 14) (size 15 to 20)
#    0.000    0.571    2.857    6.000    0.000    2.286 
#    0.000    0.000    0.000    0.000    0.000    0.000 
#    0.000    0.000    0.000    0.000    0.000    0.000 
#
# Total GULP energy -78293.879359 kJ/mol
# GULP energy per Si atom -5592.419954 kJ/mol
# Density = 2.088923 g / cm^3
# Si number density = 20.936888 Si / 1000 Ang^3
#
#
#
# Elastic Constant Matrix: (Units=GPa)
#
#
# Indices 1 2 3 4 5 6 
#
# 1 108.9392 10.5698 -2.4707 -0.6881 10.1329 1.3645
# 2 10.5698 28.0280 1.2411 7.8482 -5.8278 -8.8079
# 3 -2.4707 1.2411 124.9377 18.8323 -3.6116 3.1413
# 4 -0.6881 7.8482 18.8323 21.2662 -9.3707 1.6532
# 5 10.1329 -5.8278 -3.6116 -9.3707 22.5304 3.5980
# 6 1.3645 -8.8079 3.1413 1.6532 3.5980 34.6177
#
#
#
# Elastic Compliance Matrix: (Units=1/GPa)
#
#
# Indices 1 2 3 4 5 6 
#
# 1 0.010271 -0.005378 0.000168 -0.000365 -0.005951 -0.001153
# 2 -0.005378 0.047757 0.001991 -0.018070 0.005585 0.012465
# 3 0.000168 0.001991 0.009440 -0.010142 -0.002325 0.000369
# 4 -0.000365 -0.018070 -0.010142 0.075231 0.026757 -0.010036
# 5 -0.005951 0.005585 -0.002325 0.026757 0.060166 -0.005665
# 6 -0.001153 0.012465 0.000369 -0.010036 -0.005665 0.033138
#
#
# Mechanical properties :
#
#
# Convention : Reuss Voigt Hill
#
# Bulk Modulus (GPa) = 16.38547 31.17613 23.78080
# Shear Modulus (GPa) = 19.02711 32.52052 25.77381
#
# Velocity S-wave (km/s) = 3.01787 3.94542 3.51240
# Velocity P-wave (km/s) = 4.47063 5.97311 5.27563
#
# Compressibility (1/GPa) = 0.06102970
#
# Stress axis : x y z
#
# Youngs Moduli (GPa) = 97.36420 20.93948 105.93486
#
# Poissons Ratio (x) = 0.11262 -0.01785
# Poissons Ratio (y) = 0.52364 -0.21091
# Poissons Ratio (z) = -0.01640 -0.04169
#
# Static dielectric constant tensor:
#      x y z
#    x 1.778040 0.077770 -0.110150 
#    y 0.077770 1.912690 -0.118820 
#    z -0.110150 -0.118820 1.899000 
# 
# From -- ./inp_files/600734.got.cif
#   From: 2010.05.17/outbox.cif.g08.bks.cpg/sg2_301_cif.got.tgz:600734.got - 2010.06.03 11:33:40.
