data_PCOD9014572
_publ_section_title
;
Structure prediction by ZEFSAII (Michael W. Deem and Ramdas Pophale) SiO2 
 PCOD9014572
Probable space group: P -1
;
_chemical_formula_sum "Si O2"
_cell_formula_units_Z 16
_cell_length_a 15.596982
_cell_length_b 18.347202
_cell_length_c 24.358042
_cell_angle_alpha 160.506051
_cell_angle_beta 162.464208
_cell_angle_gamma 26.351418
_cell_volume 700.573373
_symmetry_space_group_name_H-M "P -1"
_symmetry_group_IT_number 2
_symmetry_cell_setting 'triclinic'
loop_
_space_group_symop_operation_xyz
x,y,z
-x,-y,-z
loop_
_atom_site_type_symbol
_atom_site_label
_atom_site_fract_x
_atom_site_fract_y
_atom_site_fract_z
Si Si1 0.141999 0.548933 0.373402
Si Si2 0.203227 0.310409 0.133335
Si Si3 0.241868 0.503853 0.801068
Si Si4 0.891671 0.900540 0.647073
Si Si5 0.428110 0.177084 0.500017
Si Si6 0.931845 0.005984 0.526504
Si Si7 0.169562 0.445726 0.010405
Si Si8 0.663508 0.033027 0.821281
O O1 0.095159 0.365664 0.168016
O O2 0.472754 0.611517 0.619471
O O3 0.031804 0.468025 0.307316
O O4 0.980008 0.770337 0.415882
O O5 0.019385 0.460087 0.087526
O O6 0.174068 0.051303 0.920462
O O7 0.172434 0.302432 0.576095
O O8 0.500000 0.500000 0.000000
O O9 0.327911 0.720736 0.975029
O O10 0.841648 0.830280 0.629695
O O11 0.668342 0.081205 0.618535
O O12 0.416599 0.018775 0.328029
O O13 0.533017 0.417445 0.714782
O O14 0.155115 0.185689 0.814049
O O15 0.605383 0.076505 0.388577
O O16 0.000000 0.000000 0.500000
O O17 0.000000 0.500000 0.000000
O O18 0.000000 0.000000 0.000000
#
# Coordination Sequence:
#
# PCOD9014572 Si02
#       8
#     2   2   2   2   2   2   2   2
#     4  11  24  44  70  98 133 169 226 278 327 399
#     4  10  24  43  69 100 128 176 218 273 336 395
#     4  12  24  41  68  97 127 169 227 272 324 388
#     4  10  22  40  68  98 125 168 225 274 322 390
#     4  10  21  41  68  92 129 176 215 268 331 395
#     4  12  25  43  67  99 133 176 221 273 332 391
#     4  11  23  41  66  93 136 176 217 262 337 400
#     4  12  27  45  68  97 137 178 221 272 337 400
#
# _framework density 22.838436000000002
#
# number of rings (size 3 to 8) (size 9 to 14) (size 15 to 20)
#    0.000    1.000    5.000    0.750    8.750    1.500 
#    2.250    0.625    0.000    0.000    0.000    0.000 
#    0.000    0.000    0.000    0.000    0.000    0.000 
#
# Total GULP energy -89263.103405 kJ/mol
# GULP energy per Si atom -5578.943963 kJ/mol
# Density = 2.278645 g / cm^3
# Si number density = 22.838436 Si / 1000 Ang^3
#
#
#
# Elastic Constant Matrix: (Units=GPa)
#
#
# Indices 1 2 3 4 5 6 
#
# 1 107.5059 -15.0091 28.5517 3.4268 4.9125 -6.3353
# 2 -15.0091 28.8141 20.9209 1.7272 5.4868 -8.4176
# 3 28.5517 20.9209 133.4749 33.0960 -2.7349 -1.4682
# 4 3.4268 1.7272 33.0960 36.3125 -8.4936 -0.0857
# 5 4.9125 5.4868 -2.7349 -8.4936 35.6828 6.0591
# 6 -6.3353 -8.4176 -1.4682 -0.0857 6.0591 16.4502
#
#
#
# Elastic Compliance Matrix: (Units=1/GPa)
#
#
# Indices 1 2 3 4 5 6 
#
# 1 0.015283 0.019784 -0.006813 0.001917 -0.008351 0.018487
# 2 0.019784 0.078187 -0.017595 0.004903 -0.024271 0.055023
# 3 -0.006813 -0.017595 0.014284 -0.010572 0.004255 -0.011975
# 4 0.001917 0.004903 -0.010572 0.038483 0.007368 -0.000210
# 5 -0.008351 -0.024271 0.004255 0.007368 0.040077 -0.029979
# 6 0.018487 0.055023 -0.011975 -0.000210 -0.029979 0.106037
#
#
# Mechanical properties :
#
#
# Convention : Reuss Voigt Hill
#
# Bulk Modulus (GPa) = 10.15161 37.63576 23.89368
# Shear Modulus (GPa) = 14.95057 33.37787 24.16422
#
# Velocity S-wave (km/s) = 2.56134 3.82708 3.25630
# Velocity P-wave (km/s) = 3.63344 6.00363 4.96213
#
# Compressibility (1/GPa) = 0.09850659
#
# Stress axis : x y z
#
# Youngs Moduli (GPa) = 65.43061 12.78980 70.00769
#
# Poissons Ratio (x) = -0.25303 0.47698
# Poissons Ratio (y) = -1.29448 1.23178
# Poissons Ratio (z) = 0.44579 0.22504
#
# Static dielectric constant tensor:
#      x y z
#    x 1.835840 -0.003980 -0.010110 
#    y -0.003980 1.935610 0.007570 
#    z -0.010110 0.007570 1.906770 
# 
# From -- ./inp_files/612222.got.cif
#   From: 2010.05.17/outbox.cif.g08.bks.cpg/sg2_307_cif.got.tgz:612222.got - 2010.06.03 11:33:40.
