data_PCOD9014085
_publ_section_title
;
Structure prediction by ZEFSAII (Michael W. Deem and Ramdas Pophale) SiO2 
 PCOD9014085
Probable space group: P -1
;
_chemical_formula_sum "Si O2"
_cell_formula_units_Z 16
_cell_length_a 4.873469
_cell_length_b 18.745409
_cell_length_c 14.808463
_cell_angle_alpha 149.364610
_cell_angle_beta 96.985691
_cell_angle_gamma 98.606546
_cell_volume 591.478867
_symmetry_space_group_name_H-M "P -1"
_symmetry_group_IT_number 2
_symmetry_cell_setting 'triclinic'
loop_
_space_group_symop_operation_xyz
x,y,z
-x,-y,-z
loop_
_atom_site_type_symbol
_atom_site_label
_atom_site_fract_x
_atom_site_fract_y
_atom_site_fract_z
Si Si1 0.821607 0.579591 0.660848
Si Si2 0.658935 0.256542 0.298675
Si Si3 0.181446 0.999772 0.889758
Si Si4 0.312081 0.215161 0.494236
Si Si5 0.339862 0.805625 0.040659
Si Si6 0.145947 0.646562 0.092687
Si Si7 0.741459 0.117030 0.492887
Si Si8 0.534041 0.580282 0.897671
O O1 0.500000 0.500000 0.500000
O O2 0.742109 0.414671 0.530906
O O3 0.110293 0.658304 0.685635
O O4 0.978365 0.721472 0.896325
O O5 0.754086 0.136017 0.214908
O O6 0.296721 0.144401 0.124698
O O7 0.425932 0.083195 0.908285
O O8 0.837229 0.905392 0.727755
O O9 0.636880 0.222513 0.541901
O O10 0.349527 0.388246 0.666541
O O11 0.068872 0.141030 0.489387
O O12 0.430689 0.668530 0.916267
O O13 0.458591 0.932730 0.266155
O O14 0.227139 0.807880 0.326261
O O15 0.429907 0.632168 0.042561
O O16 0.000000 0.500000 0.000000
O O17 0.895432 0.624340 0.980154
#
# Coordination Sequence:
#
# PCOD9014085 Si02
#       8
#     2   2   2   2   2   2   2   2
#     4  10  21  41  66  96 135 169 224 276 331 395
#     4   9  19  41  64  94 122 182 218 274 330 394
#     4   9  20  40  65  88 135 170 229 269 333 401
#     4  11  21  40  65  98 131 178 221 278 334 399
#     4  10  25  43  62 101 139 174 225 283 341 402
#     4  12  23  44  71 100 131 175 234 280 342 410
#     4  11  24  42  68  96 133 176 221 281 338 406
#     4  12  24  42  71 100 135 180 224 285 342 404
#
# _framework density 27.050839
#
# number of rings (size 3 to 8) (size 9 to 14) (size 15 to 20)
#    0.000    1.500    2.500    1.875    1.750    3.000 
#   13.500    1.875    0.000    0.000    0.000    0.000 
#    0.000    0.000    0.000    0.000    0.000    0.000 
#
# Total GULP energy -89585.437928 kJ/mol
# GULP energy per Si atom -5599.089870 kJ/mol
# Density = 2.698927 g / cm^3
# Si number density = 27.050839 Si / 1000 Ang^3
#
#
#
# Elastic Constant Matrix: (Units=GPa)
#
#
# Indices 1 2 3 4 5 6 
#
# 1 99.8413 9.0339 19.6313 -1.4071 8.2620 -6.1004
# 2 9.0339 97.6321 28.8031 9.3905 4.7951 -11.2564
# 3 19.6313 28.8031 204.7056 1.4045 13.8250 -6.3168
# 4 -1.4071 9.3905 1.4045 51.6055 -10.5741 -5.8685
# 5 8.2620 4.7951 13.8250 -10.5741 28.3693 -5.5320
# 6 -6.1004 -11.2564 -6.3168 -5.8685 -5.5320 37.4845
#
#
#
# Elastic Compliance Matrix: (Units=1/GPa)
#
#
# Indices 1 2 3 4 5 6 
#
# 1 0.010471 -0.000513 -0.000738 0.000034 -0.002380 0.001080
# 2 -0.000513 0.011241 -0.001349 -0.002008 -0.001344 0.002552
# 3 -0.000738 -0.001349 0.005302 -0.000392 -0.002293 -0.000032
# 4 0.000034 -0.002008 -0.000392 0.022208 0.009624 0.004234
# 5 -0.002380 -0.001344 -0.002293 0.009624 0.042151 0.006550
# 6 0.001080 0.002552 -0.000032 0.004234 0.006550 0.029244
#
#
# Mechanical properties :
#
#
# Convention : Reuss Voigt Hill
#
# Bulk Modulus (GPa) = 45.84266 57.45730 51.64998
# Shear Modulus (GPa) = 37.56850 46.47258 42.02054
#
# Velocity S-wave (km/s) = 3.73072 4.14934 3.94558
# Velocity P-wave (km/s) = 5.96165 6.65151 6.31601
#
# Compressibility (1/GPa) = 0.02181374
#
# Stress axis : x y z
#
# Youngs Moduli (GPa) = 95.50332 88.95661 188.59742
#
# Poissons Ratio (x) = 0.04564 0.13922
# Poissons Ratio (y) = 0.04899 0.25446
# Poissons Ratio (z) = 0.07050 0.12002
#
# Static dielectric constant tensor:
#      x y z
#    x 2.072890 0.034720 -0.035410 
#    y 0.034720 2.167940 -0.033070 
#    z -0.035410 -0.033070 2.148090 
# 
# From -- ./inp_files/550913.got.cif
#   From: 2010.05.17/outbox.cif.g08.bks.cpg/sg2_276_cif.got.tgz:550913.got - 2010.06.03 11:33:40.
