data_PCOD9014258
_publ_section_title
;
Structure prediction by ZEFSAII (Michael W. Deem and Ramdas Pophale) SiO2 
 PCOD9014258
Probable space group: P -1
;
_chemical_formula_sum "Si O2"
_cell_formula_units_Z 14
_cell_length_a 7.139550
_cell_length_b 8.029731
_cell_length_c 11.309030
_cell_angle_alpha 121.298762
_cell_angle_beta 108.761373
_cell_angle_gamma 69.010566
_cell_volume 509.701390
_symmetry_space_group_name_H-M "P -1"
_symmetry_group_IT_number 2
_symmetry_cell_setting 'triclinic'
loop_
_space_group_symop_operation_xyz
x,y,z
-x,-y,-z
loop_
_atom_site_type_symbol
_atom_site_label
_atom_site_fract_x
_atom_site_fract_y
_atom_site_fract_z
Si Si1 0.917659 0.508104 0.827479
Si Si2 0.266216 0.037877 0.022035
Si Si3 0.713499 0.562813 0.546803
Si Si4 0.449215 0.561592 0.148134
Si Si5 0.921762 0.929187 0.333674
Si Si6 0.260732 0.743925 0.736372
Si Si7 0.309790 0.989586 0.290889
O O1 0.879503 0.741904 0.941532
O O2 0.823224 0.531193 0.683902
O O3 0.784408 0.439355 0.877991
O O4 0.092398 0.302429 0.767115
O O5 0.295101 0.992959 0.148072
O O6 0.500000 0.000000 0.000000
O O7 0.165777 0.878034 0.877144
O O8 0.500000 0.500000 0.500000
O O9 0.830063 0.410766 0.414526
O O10 0.664882 0.793931 0.585500
O O11 0.557800 0.403563 0.210463
O O12 0.472240 0.781379 0.271192
O O13 0.500000 0.500000 0.000000
O O14 0.104050 0.965294 0.301560
O O15 0.000000 0.000000 0.500000
O O16 0.726517 0.087074 0.297389
#
# Coordination Sequence:
#
# PCOD9014258 Si02
#       7
#     2   2   2   2   2   2   2
#     4  10  21  41  67  90 138 172 216 285 333 380
#     4  11  20  42  71 101 131 173 224 287 338 389
#     4  11  21  41  70  99 125 170 233 282 330 392
#     4  11  20  40  64  99 129 169 220 286 329 391
#     4  11  25  46  65  96 142 183 224 274 325 399
#     4  12  23  38  70  94 134 177 222 270 339 397
#     4  10  24  42  69  96 139 174 220 282 340 389
#
# _framework density 27.467061000000001
#
# number of rings (size 3 to 8) (size 9 to 14) (size 15 to 20)
#    0.000    1.143    5.714    0.857    0.000    2.286 
#    0.000    1.429    0.000    0.000    0.000    0.000 
#    0.000    0.000    0.000    0.000    0.000    0.000 
#
# Total GULP energy -78210.319274 kJ/mol
# GULP energy per Si atom -5586.451377 kJ/mol
# Density = 2.740454 g / cm^3
# Si number density = 27.467061 Si / 1000 Ang^3
#
#
#
# Elastic Constant Matrix: (Units=GPa)
#
#
# Indices 1 2 3 4 5 6 
#
# 1 106.2123 24.8039 28.5252 1.5136 -21.7283 3.2835
# 2 24.8039 236.8251 76.9242 43.3100 -5.5520 -18.9526
# 3 28.5252 76.9242 218.3408 29.4238 -26.8371 0.1737
# 4 1.5136 43.3100 29.4238 86.8296 12.4984 2.8508
# 5 -21.7283 -5.5520 -26.8371 12.4984 28.2589 -5.5753
# 6 3.2835 -18.9526 0.1737 2.8508 -5.5753 30.1786
#
#
#
# Elastic Compliance Matrix: (Units=1/GPa)
#
#
# Indices 1 2 3 4 5 6 
#
# 1 0.011494 -0.000790 0.000076 -0.001172 0.009289 0.000079
# 2 -0.000790 0.005578 -0.001376 -0.002598 0.001129 0.004051
# 3 0.000076 -0.001376 0.006232 -0.002440 0.006904 0.000597
# 4 -0.001172 -0.002598 -0.002440 0.015495 -0.011587 -0.005094
# 5 0.009289 0.001129 0.006904 -0.011587 0.056645 0.011218
# 6 0.000079 0.004051 0.000597 -0.005094 0.011218 0.038222
#
#
# Mechanical properties :
#
#
# Convention : Reuss Voigt Hill
#
# Bulk Modulus (GPa) = 52.29269 91.32053 71.80661
# Shear Modulus (GPa) = 34.66930 57.79507 46.23218
#
# Velocity S-wave (km/s) = 3.55662 4.59209 4.10712
# Velocity P-wave (km/s) = 5.99547 7.83810 6.97788
#
# Compressibility (1/GPa) = 0.01912313
#
# Stress axis : x y z
#
# Youngs Moduli (GPa) = 87.00511 179.27328 160.46773
#
# Poissons Ratio (x) = 0.14166 -0.01225
# Poissons Ratio (y) = 0.06875 0.22085
# Poissons Ratio (z) = -0.00664 0.24674
#
# Static dielectric constant tensor:
#      x y z
#    x 2.326950 -0.122380 0.011970 
#    y -0.122380 2.215160 0.085580 
#    z 0.011970 0.085580 2.156900 
# 
# From -- ./inp_files/296285.got.cif
#   From: 2010.05.17/outbox.cif.g08.bks.cpg/sg2_149_cif.got.tgz:296285.got - 2010.06.03 11:33:40.
