data_PCOD9014889
_publ_section_title
;
Structure prediction by ZEFSAII (Michael W. Deem and Ramdas Pophale) SiO2 
 PCOD9014889
Probable space group: P -1
;
_chemical_formula_sum "Si O2"
_cell_formula_units_Z 14
_cell_length_a 9.152953
_cell_length_b 18.930190
_cell_length_c 5.890791
_cell_angle_alpha 63.812802
_cell_angle_beta 43.132112
_cell_angle_gamma 58.333336
_cell_volume 590.950788
_symmetry_space_group_name_H-M "P -1"
_symmetry_group_IT_number 2
_symmetry_cell_setting 'triclinic'
loop_
_space_group_symop_operation_xyz
x,y,z
-x,-y,-z
loop_
_atom_site_type_symbol
_atom_site_label
_atom_site_fract_x
_atom_site_fract_y
_atom_site_fract_z
Si Si1 0.931372 0.873826 0.752921
Si Si2 0.616677 0.430260 0.152360
Si Si3 0.891446 0.530890 0.836728
Si Si4 0.621960 0.832994 0.778907
Si Si5 0.671365 0.280764 0.568679
Si Si6 0.017188 0.687850 0.420613
Si Si7 0.817010 0.024617 0.975253
O O1 0.743500 0.858894 0.821010
O O2 0.126304 0.786115 0.709353
O O3 0.076866 0.922861 0.386707
O O4 0.814413 0.939027 0.987798
O O5 0.526145 0.365180 0.481377
O O6 0.500000 0.500000 0.000000
O O7 0.696631 0.490221 0.135369
O O8 0.824636 0.361785 0.888299
O O9 0.000000 0.500000 0.500000
O O10 0.871844 0.626961 0.723932
O O11 0.000000 0.500000 0.000000
O O12 0.831855 0.778224 0.465725
O O13 0.486590 0.770932 0.095473
O O14 0.433119 0.913154 0.774234
O O15 0.812437 0.305146 0.580273
O O16 0.000000 0.000000 0.000000
#
# Coordination Sequence:
#
# PCOD9014889 Si02
#       7
#     2   2   2   2   2   2   2
#     4   9  21  42  64  97 133 169 221 270 335 414
#     4  11  25  43  66  97 133 184 232 295 350 412
#     4  10  21  42  68  95 134 184 236 300 359 422
#     4  10  22  41  70  96 132 181 217 278 341 412
#     4  10  22  43  66  94 133 177 223 287 338 413
#     4  10  23  43  63  93 134 172 235 285 344 413
#     4  10  21  41  69  98 133 168 214 275 338 412
#
# _framework density 23.690638
#
# number of rings (size 3 to 8) (size 9 to 14) (size 15 to 20)
#    0.000    2.000    1.429    0.429    2.000    6.857 
#    2.571    7.143    0.000    0.000    0.000    0.000 
#    0.000    0.000    0.000    0.000    0.000    0.000 
#
# Total GULP energy -78005.107651 kJ/mol
# GULP energy per Si atom -5571.793404 kJ/mol
# Density = 2.363672 g / cm^3
# Si number density = 23.690638 Si / 1000 Ang^3
#
#
#
# Elastic Constant Matrix: (Units=GPa)
#
#
# Indices 1 2 3 4 5 6 
#
# 1 104.8159 63.3137 12.6178 9.6521 -11.9268 4.8735
# 2 63.3137 184.4063 53.0294 -0.8194 -7.8427 -3.2071
# 3 12.6178 53.0294 95.6881 5.2542 -12.7043 0.9923
# 4 9.6521 -0.8194 5.2542 46.8683 -2.4984 -5.4261
# 5 -11.9268 -7.8427 -12.7043 -2.4984 20.0068 -7.6400
# 6 4.8735 -3.2071 0.9923 -5.4261 -7.6400 54.8700
#
#
#
# Elastic Compliance Matrix: (Units=1/GPa)
#
#
# Indices 1 2 3 4 5 6 
#
# 1 0.013301 -0.004886 0.001993 -0.002796 0.006602 -0.000860
# 2 -0.004886 0.008278 -0.004287 0.001638 -0.001842 0.000901
# 3 0.001993 -0.004287 0.013727 -0.001555 0.008147 0.000305
# 4 -0.002796 0.001638 -0.001555 0.022548 0.001898 0.002866
# 5 0.006602 -0.001842 0.008147 0.001898 0.061634 0.007928
# 6 -0.000860 0.000901 0.000305 0.002866 0.007928 0.019736
#
#
# Mechanical properties :
#
#
# Convention : Reuss Voigt Hill
#
# Bulk Modulus (GPa) = 47.74307 71.42580 59.58444
# Shear Modulus (GPa) = 31.13957 41.41230 36.27593
#
# Velocity S-wave (km/s) = 3.62943 4.18550 3.91734
# Velocity P-wave (km/s) = 6.14493 7.31934 6.75769
#
# Compressibility (1/GPa) = 0.02094545
#
# Stress axis : x y z
#
# Youngs Moduli (GPa) = 75.18293 120.80311 72.84670
#
# Poissons Ratio (x) = 0.59030 -0.14519
# Poissons Ratio (y) = 0.36738 0.31229
# Poissons Ratio (z) = -0.14984 0.51788
#
# Static dielectric constant tensor:
#      x y z
#    x 1.908830 -0.063360 0.033260 
#    y -0.063360 1.898270 0.020660 
#    z 0.033260 0.020660 1.999770 
# 
# From -- ./inp_files/46915.got.cif
#   From: 2010.05.17/outbox.cif.g08.bks.cpg/sg2_24_cif.got.tgz:46915.got - 2010.06.03 11:33:40.
