data_PCOD9014709
_publ_section_title
;
Structure prediction by ZEFSAII (Michael W. Deem and Ramdas Pophale) SiO2 
 PCOD9014709
Probable space group: P -1
;
_chemical_formula_sum "Si O2"
_cell_formula_units_Z 14
_cell_length_a 11.688811
_cell_length_b 7.307946
_cell_length_c 10.981132
_cell_angle_alpha 109.466351
_cell_angle_beta 37.068088
_cell_angle_gamma 104.128000
_cell_volume 532.692123
_symmetry_space_group_name_H-M "P -1"
_symmetry_group_IT_number 2
_symmetry_cell_setting 'triclinic'
loop_
_space_group_symop_operation_xyz
x,y,z
-x,-y,-z
loop_
_atom_site_type_symbol
_atom_site_label
_atom_site_fract_x
_atom_site_fract_y
_atom_site_fract_z
Si Si1 0.741137 0.518720 0.047206
Si Si2 0.279164 0.557389 0.681271
Si Si3 0.095113 0.105290 0.108323
Si Si4 0.503876 0.059084 0.829184
Si Si5 0.301002 0.942027 0.597055
Si Si6 0.940005 0.512932 0.383703
Si Si7 0.403177 0.319360 0.181779
O O1 0.797021 0.456442 0.121055
O O2 0.527744 0.469170 0.184876
O O3 0.796098 0.745387 0.042659
O O4 0.859139 0.413980 0.814503
O O5 0.500000 0.500000 0.500000
O O6 0.260257 0.769203 0.687557
O O7 0.180856 0.444081 0.630070
O O8 0.918304 0.969718 0.201373
O O9 0.980466 0.281682 0.315805
O O10 0.282010 0.004245 0.984997
O O11 0.482499 0.257486 0.969045
O O12 0.625612 0.081330 0.609224
O O13 0.593659 0.883281 0.792366
O O14 0.500000 0.000000 0.500000
O O15 0.811598 0.597775 0.617775
#
# Coordination Sequence:
#
# PCOD9014709 Si02
#       7
#     2   2   2   2   2   2   2
#     4  10  21  41  69 100 129 175 217 273 319 390
#     4  11  19  38  68  97 133 166 221 265 323 389
#     4   9  24  43  66 101 132 163 225 270 323 390
#     4  11  26  46  64  97 137 171 221 276 327 393
#     4  11  25  44  65  98 135 174 210 272 341 391
#     4   9  22  38  65 100 124 173 219 266 324 383
#     4  11  24  45  69  92 131 183 221 265 333 392
#
# _framework density 26.281596
#
# number of rings (size 3 to 8) (size 9 to 14) (size 15 to 20)
#    0.857    0.857    1.429    2.143    2.000    4.000 
#    0.000    2.857    0.000    0.000    0.000    0.000 
#    0.000    0.000    0.000    0.000    0.000    0.000 
#
# Total GULP energy -78049.417685 kJ/mol
# GULP energy per Si atom -5574.958406 kJ/mol
# Density = 2.622178 g / cm^3
# Si number density = 26.281596 Si / 1000 Ang^3
#
#
#
# Elastic Constant Matrix: (Units=GPa)
#
#
# Indices 1 2 3 4 5 6 
#
# 1 80.7057 -8.0434 25.1335 -12.9039 -1.3789 25.8390
# 2 -8.0434 30.7142 7.2723 -2.8867 7.4310 3.5685
# 3 25.1335 7.2723 146.3715 -8.4648 -3.5562 8.7212
# 4 -12.9039 -2.8867 -8.4648 31.3431 -8.4620 -4.2474
# 5 -1.3789 7.4310 -3.5562 -8.4620 63.6933 -3.1359
# 6 25.8390 3.5685 8.7212 -4.2474 -3.1359 36.3555
#
#
#
# Elastic Compliance Matrix: (Units=1/GPa)
#
#
# Indices 1 2 3 4 5 6 
#
# 1 0.019097 0.007805 -0.002554 0.005989 -0.000488 -0.013069
# 2 0.007805 0.037593 -0.002591 0.003656 -0.004297 -0.008559
# 3 -0.002554 -0.002591 0.007449 0.001007 0.000820 0.000471
# 4 0.005989 0.003656 0.001007 0.036176 0.004554 -0.000238
# 5 -0.000488 -0.004297 0.000820 0.004554 0.016968 0.002567
# 6 -0.013069 -0.008559 0.000471 -0.000238 0.002567 0.037716
#
#
# Mechanical properties :
#
#
# Convention : Reuss Voigt Hill
#
# Bulk Modulus (GPa) = 14.39667 34.05737 24.22702
# Shear Modulus (GPa) = 28.92962 41.84032 35.38497
#
# Velocity S-wave (km/s) = 3.32136 3.99432 3.67328
# Velocity P-wave (km/s) = 4.49426 5.85316 5.21814
#
# Compressibility (1/GPa) = 0.06946051
#
# Stress axis : x y z
#
# Youngs Moduli (GPa) = 52.36345 26.60040 134.24116
#
# Poissons Ratio (x) = -0.20762 0.34283
# Poissons Ratio (y) = -0.40870 0.34782
# Poissons Ratio (z) = 0.13373 0.06892
#
# Static dielectric constant tensor:
#      x y z
#    x 2.230590 0.112990 -0.000940 
#    y 0.112990 2.082660 0.104120 
#    z -0.000940 0.104120 2.059270 
# 
# From -- ./inp_files/443162.got.cif
#   From: 2010.05.17/outbox.cif.g08.bks.cpg/sg2_222_cif.got.tgz:443162.got - 2010.06.03 11:33:40.
