data_PCOD9014153
_publ_section_title
;
Structure prediction by ZEFSAII (Michael W. Deem and Ramdas Pophale) SiO2 
 PCOD9014153
Probable space group: P -1
;
_chemical_formula_sum "Si O2"
_cell_formula_units_Z 16
_cell_length_a 9.244438
_cell_length_b 8.911974
_cell_length_c 11.942828
_cell_angle_alpha 130.601501
_cell_angle_beta 76.440614
_cell_angle_gamma 87.525997
_cell_volume 700.221433
_symmetry_space_group_name_H-M "P -1"
_symmetry_group_IT_number 2
_symmetry_cell_setting 'triclinic'
loop_
_space_group_symop_operation_xyz
x,y,z
-x,-y,-z
loop_
_atom_site_type_symbol
_atom_site_label
_atom_site_fract_x
_atom_site_fract_y
_atom_site_fract_z
Si Si1 0.195615 0.980377 0.064257
Si Si2 0.958313 0.702497 0.377763
Si Si3 0.765188 0.129591 0.540597
Si Si4 0.665639 0.242674 0.867222
Si Si5 0.596320 0.278213 0.419361
Si Si6 0.120560 0.692831 0.759897
Si Si7 0.149667 0.446804 0.022476
Si Si8 0.611318 0.907325 0.105963
O O1 0.049955 0.170557 0.166148
O O2 0.225990 0.940497 0.169472
O O3 0.335334 0.030172 0.993254
O O4 0.164843 0.778240 0.912514
O O5 0.870368 0.546290 0.368986
O O6 0.077248 0.796979 0.471833
O O7 0.080082 0.551215 0.201126
O O8 0.837208 0.883779 0.421292
O O9 0.690816 0.201744 0.711064
O O10 0.637609 0.221858 0.514043
O O11 0.723581 0.439689 0.983940
O O12 0.498547 0.243915 0.945702
O O13 0.500000 0.500000 0.500000
O O14 0.762904 0.249954 0.319347
O O15 0.528869 0.106109 0.289350
O O16 0.233453 0.211198 0.914035
O O17 0.000000 0.500000 0.000000
#
# Coordination Sequence:
#
# PCOD9014153 Si02
#       8
#     2   2   2   2   2   2   2   2
#     4  10  22  42  69 100 132 172 231 279 338 399
#     4  10  21  41  66  99 132 168 219 291 325 395
#     4  10  25  44  65  99 133 175 228 268 339 406
#     4  11  25  42  69 100 141 179 217 282 346 394
#     4  11  27  47  66  94 139 182 229 273 337 411
#     4  10  22  41  71  98 129 177 230 281 334 392
#     4  11  22  41  70 101 132 173 228 278 337 397
#     4  11  24  46  66 100 136 177 223 286 335 404
#
# _framework density 22.849914999999999
#
# number of rings (size 3 to 8) (size 9 to 14) (size 15 to 20)
#    0.000    1.500    1.250    2.250   10.500    2.000 
#   15.750    0.000    0.000    0.000    0.000    0.000 
#    0.000    0.000    0.000    0.000    0.000    0.000 
#
# Total GULP energy -89333.346855 kJ/mol
# GULP energy per Si atom -5583.334178 kJ/mol
# Density = 2.279791 g / cm^3
# Si number density = 22.849915 Si / 1000 Ang^3
#
#
#
# Elastic Constant Matrix: (Units=GPa)
#
#
# Indices 1 2 3 4 5 6 
#
# 1 65.4605 33.6165 7.4658 4.1091 2.0432 -1.5895
# 2 33.6165 118.2118 36.8316 8.4659 12.8587 -8.1733
# 3 7.4658 36.8316 52.9020 3.1165 -1.9526 -14.4204
# 4 4.1091 8.4659 3.1165 44.8958 -3.1117 3.1817
# 5 2.0432 12.8587 -1.9526 -3.1117 17.9793 7.1782
# 6 -1.5895 -8.1733 -14.4204 3.1817 7.1782 44.5542
#
#
#
# Elastic Compliance Matrix: (Units=1/GPa)
#
#
# Indices 1 2 3 4 5 6 
#
# 1 0.018059 -0.005865 0.001577 -0.000476 0.002337 -0.000264
# 2 -0.005865 0.014554 -0.009164 -0.002501 -0.011799 0.001574
# 3 0.001577 -0.009164 0.026968 -0.000239 0.006861 0.006015
# 4 -0.000476 -0.002501 -0.000239 0.023549 0.007251 -0.003403
# 5 0.002337 -0.011799 0.006861 0.007251 0.070477 -0.011733
# 6 -0.000264 0.001574 0.006015 -0.003403 -0.011733 0.026804
#
#
# Mechanical properties :
#
#
# Convention : Reuss Voigt Hill
#
# Bulk Modulus (GPa) = 30.60318 43.60025 37.10172
# Shear Modulus (GPa) = 22.91400 32.06323 27.48861
#
# Velocity S-wave (km/s) = 3.17014 3.75001 3.47220
# Velocity P-wave (km/s) = 5.17899 6.15408 5.68747
#
# Compressibility (1/GPa) = 0.03267634
#
# Stress axis : x y z
#
# Youngs Moduli (GPa) = 55.37372 68.70940 37.08162
#
# Poissons Ratio (x) = 0.40301 -0.05849
# Poissons Ratio (y) = 0.32479 0.33982
# Poissons Ratio (z) = -0.08735 0.62967
#
# Static dielectric constant tensor:
#      x y z
#    x 1.907420 0.028760 0.053980 
#    y 0.028760 1.875220 0.027580 
#    z 0.053980 0.027580 1.893960 
# 
# From -- ./inp_files/383504.got.cif
#   From: 2010.05.17/outbox.cif.g08.bks.cpg/sg2_192_cif.got.tgz:383504.got - 2010.06.03 11:33:40.
