data_PCOD9014045
_publ_section_title
;
Structure prediction by ZEFSAII (Michael W. Deem and Ramdas Pophale) SiO2 
 PCOD9014045
Probable space group: P -1
;
_chemical_formula_sum "Si O2"
_cell_formula_units_Z 16
_cell_length_a 20.566252
_cell_length_b 8.823360
_cell_length_c 11.411444
_cell_angle_alpha 51.526683
_cell_angle_beta 139.207517
_cell_angle_gamma 149.274261
_cell_volume 688.670086
_symmetry_space_group_name_H-M "P -1"
_symmetry_group_IT_number 2
_symmetry_cell_setting 'triclinic'
loop_
_space_group_symop_operation_xyz
x,y,z
-x,-y,-z
loop_
_atom_site_type_symbol
_atom_site_label
_atom_site_fract_x
_atom_site_fract_y
_atom_site_fract_z
Si Si1 0.253946 0.609805 0.971713
Si Si2 0.150414 0.713155 0.252564
Si Si3 0.303576 0.074749 0.707595
Si Si4 0.153236 0.496106 0.128839
Si Si5 0.118789 0.323398 0.568179
Si Si6 0.323161 0.291685 0.869924
Si Si7 0.648772 0.670571 0.844186
Si Si8 0.047012 0.899357 0.306473
O O1 0.068670 0.337034 0.837835
O O2 0.319774 0.871100 0.850895
O O3 0.277943 0.696615 0.099019
O O4 0.308374 0.478489 0.072011
O O5 0.201622 0.646239 0.248987
O O6 0.122874 0.534076 0.410194
O O7 0.280478 0.067243 0.271680
O O8 0.996170 0.597073 0.061191
O O9 0.249499 0.075974 0.761039
O O10 0.466767 0.407189 0.738485
O O11 0.181160 0.953724 0.501626
O O12 0.109826 0.205771 0.219199
O O13 0.281509 0.455039 0.720400
O O14 0.063499 0.254784 0.657840
O O15 0.000000 0.000000 0.500000
O O16 0.500000 0.500000 0.000000
O O17 0.278526 0.181787 0.997139
#
# Coordination Sequence:
#
# PCOD9014045 Si02
#       8
#     2   2   2   2   2   2   2   2
#     4  12  24  42  67  95 130 176 218 260 323 387
#     4  11  23  40  70  98 129 167 216 272 323 376
#     4  11  24  42  66  95 132 173 217 268 318 380
#     4  11  23  41  68  99 129 167 217 271 323 377
#     4  12  21  40  71  99 126 162 218 275 319 370
#     4  10  21  41  66  95 128 169 212 262 321 382
#     4  11  24  44  64  94 135 173 215 261 326 392
#     4  12  23  42  68  98 131 165 221 270 317 384
#
# _framework density 23.233186
#
# number of rings (size 3 to 8) (size 9 to 14) (size 15 to 20)
#    0.000    0.750    5.000    2.625    1.750    0.000 
#    0.000    8.750    0.000    0.000    0.000    0.000 
#    0.000    0.000    0.000    0.000    0.000    0.000 
#
# Total GULP energy -89546.221281 kJ/mol
# GULP energy per Si atom -5596.638830 kJ/mol
# Density = 2.318031 g / cm^3
# Si number density = 23.233186 Si / 1000 Ang^3
#
#
#
# Elastic Constant Matrix: (Units=GPa)
#
#
# Indices 1 2 3 4 5 6 
#
# 1 91.1805 1.2108 23.6399 3.5090 -1.5286 1.4680
# 2 1.2108 77.9873 23.4678 -30.5984 21.5753 8.1831
# 3 23.6399 23.4678 71.7048 -20.9669 10.7769 16.4821
# 4 3.5090 -30.5984 -20.9669 45.6987 -1.4120 -4.2000
# 5 -1.5286 21.5753 10.7769 -1.4120 21.0650 6.6268
# 6 1.4680 8.1831 16.4821 -4.2000 6.6268 24.4034
#
#
#
# Elastic Compliance Matrix: (Units=1/GPa)
#
#
# Indices 1 2 3 4 5 6 
#
# 1 0.012832 -0.001742 -0.006200 -0.004673 0.004996 0.001839
# 2 -0.001742 0.027112 0.000836 0.017914 -0.027431 0.000981
# 3 -0.006200 0.000836 0.022499 0.010078 -0.008677 -0.011012
# 4 -0.004673 0.017914 0.010078 0.038186 -0.021221 -0.000198
# 5 0.004996 -0.027431 -0.008677 -0.021221 0.082501 -0.011297
# 6 0.001839 0.000981 -0.011012 -0.000198 -0.011297 0.051010
#
#
# Mechanical properties :
#
#
# Convention : Reuss Voigt Hill
#
# Bulk Modulus (GPa) = 20.73340 37.50109 29.11725
# Shear Modulus (GPa) = 18.90863 31.07034 24.98948
#
# Velocity S-wave (km/s) = 2.85592 3.66091 3.28318
# Velocity P-wave (km/s) = 4.45180 5.83489 5.18963
#
# Compressibility (1/GPa) = 0.04823135
#
# Stress axis : x y z
#
# Youngs Moduli (GPa) = 77.93082 36.88340 44.44645
#
# Poissons Ratio (x) = 0.06425 0.27558
# Poissons Ratio (y) = 0.13575 -0.03717
# Poissons Ratio (z) = 0.48320 -0.03084
#
# Static dielectric constant tensor:
#      x y z
#    x 1.896710 -0.042490 -0.043500 
#    y -0.042490 1.878090 0.044720 
#    z -0.043500 0.044720 1.886480 
# 
# From -- ./inp_files/184281.got.cif
#   From: 2010.05.17/outbox.cif.g08.bks.cpg/sg2_93_cif.got.tgz:184281.got - 2010.06.03 11:33:40.
