data_PCOD9014930
_publ_section_title
;
Structure prediction by ZEFSAII (Michael W. Deem and Ramdas Pophale) SiO2 
 PCOD9014930
Probable space group: P -1
;
_chemical_formula_sum "Si O2"
_cell_formula_units_Z 16
_cell_length_a 9.086518
_cell_length_b 12.017932
_cell_length_c 20.908639
_cell_angle_alpha 141.989749
_cell_angle_beta 33.915526
_cell_angle_gamma 116.925662
_cell_volume 636.259847
_symmetry_space_group_name_H-M "P -1"
_symmetry_group_IT_number 2
_symmetry_cell_setting 'triclinic'
loop_
_space_group_symop_operation_xyz
x,y,z
-x,-y,-z
loop_
_atom_site_type_symbol
_atom_site_label
_atom_site_fract_x
_atom_site_fract_y
_atom_site_fract_z
Si Si1 0.145872 0.934423 0.193764
Si Si2 0.246725 0.240456 0.166844
Si Si3 0.723447 0.999942 0.256289
Si Si4 0.107878 0.656413 0.462761
Si Si5 0.687309 0.169143 0.646785
Si Si6 0.748101 0.439091 0.217015
Si Si7 0.207058 0.791636 0.782037
Si Si8 0.203998 0.580277 0.094697
O O1 0.174763 0.122798 0.298606
O O2 0.053273 0.823054 0.229613
O O3 0.909133 0.024396 0.258633
O O4 0.504507 0.736208 0.952703
O O5 0.069200 0.459974 0.374306
O O6 0.021418 0.222557 0.191748
O O7 0.500000 0.000000 0.000000
O O8 0.479829 0.959442 0.359774
O O9 0.573261 0.180090 0.333726
O O10 0.000616 0.783608 0.016651
O O11 0.177381 0.754412 0.421487
O O12 0.423765 0.563345 0.349680
O O13 0.388217 0.396136 0.889575
O O14 0.000000 0.000000 0.500000
O O15 0.658787 0.402659 0.303026
O O16 0.929235 0.558120 0.211348
O O17 0.000000 0.000000 0.000000
O O18 0.500000 0.500000 0.000000
#
# Coordination Sequence:
#
# PCOD9014930 Si02
#       8
#     2   2   2   2   2   2   2   2
#     4  12  24  43  72 104 140 188 241 285 358 423
#     4  12  23  47  75 101 148 183 235 298 351 421
#     4  10  21  44  69 100 139 190 235 290 359 418
#     4  12  26  44  71 111 137 189 238 293 358 424
#     4  11  24  43  70 104 146 181 239 301 352 422
#     4  10  21  41  70 101 142 186 242 290 358 422
#     4  10  21  42  75 101 136 192 232 289 360 421
#     4  11  22  39  68 102 141 192 233 294 362 416
#
# _framework density 25.14696
#
# number of rings (size 3 to 8) (size 9 to 14) (size 15 to 20)
#    0.000    1.000    3.750    3.000    0.000    7.500 
#    0.000    1.875    0.000    0.000    0.000    0.000 
#    0.000    0.000    0.000    0.000    0.000    0.000 
#
# Total GULP energy -89479.649413 kJ/mol
# GULP energy per Si atom -5592.478088 kJ/mol
# Density = 2.508972 g / cm^3
# Si number density = 25.146960 Si / 1000 Ang^3
#
#
#
# Elastic Constant Matrix: (Units=GPa)
#
#
# Indices 1 2 3 4 5 6 
#
# 1 140.0844 56.5600 23.7291 22.1644 5.2121 -1.6467
# 2 56.5600 154.8254 21.3757 16.4405 2.1586 -21.4212
# 3 23.7291 21.3757 85.0305 18.3626 26.3431 5.1793
# 4 22.1644 16.4405 18.3626 36.4411 7.5708 -8.1111
# 5 5.2121 2.1586 26.3431 7.5708 47.2916 11.1007
# 6 -1.6467 -21.4212 5.1793 -8.1111 11.1007 50.8569
#
#
#
# Elastic Compliance Matrix: (Units=1/GPa)
#
#
# Indices 1 2 3 4 5 6 
#
# 1 0.009142 -0.002996 -0.001020 -0.004236 0.000776 -0.001707
# 2 -0.002996 0.008266 -0.001343 -0.000453 -0.000038 0.003457
# 3 -0.001020 -0.001343 0.016008 -0.005614 -0.007495 -0.001488
# 4 -0.004236 -0.000453 -0.005614 0.035280 -0.003595 0.006655
# 5 0.000776 -0.000038 -0.007495 -0.003595 0.027157 -0.005729
# 6 -0.001707 0.003457 -0.001488 0.006655 -0.005729 0.023527
#
#
# Mechanical properties :
#
#
# Convention : Reuss Voigt Hill
#
# Bulk Modulus (GPa) = 44.05597 64.80778 54.43188
# Shear Modulus (GPa) = 36.32040 45.46962 40.89501
#
# Velocity S-wave (km/s) = 3.80455 4.25685 4.03704
# Velocity P-wave (km/s) = 6.07099 7.07027 6.58960
#
# Compressibility (1/GPa) = 0.02269840
#
# Stress axis : x y z
#
# Youngs Moduli (GPa) = 109.38097 120.98025 62.46975
#
# Poissons Ratio (x) = 0.36249 0.06370
# Poissons Ratio (y) = 0.32773 0.08389
# Poissons Ratio (z) = 0.11154 0.16245
#
# Static dielectric constant tensor:
#      x y z
#    x 1.964060 0.033620 0.046590 
#    y 0.033620 2.079440 0.023260 
#    z 0.046590 0.023260 2.037410 
# 
# From -- ./inp_files/274111.got.cif
#   From: 2010.05.17/outbox.cif.g08.bks.cpg/sg2_138_cif.got.tgz:274111.got - 2010.06.03 11:33:40.
