data_PCOD9014381
_publ_section_title
;
Structure prediction by ZEFSAII (Michael W. Deem and Ramdas Pophale) SiO2 
 PCOD9014381
Probable space group: P -1
;
_chemical_formula_sum "Si O2"
_cell_formula_units_Z 15
_cell_length_a 12.059734
_cell_length_b 11.465026
_cell_length_c 9.265126
_cell_angle_alpha 118.687212
_cell_angle_beta 54.150441
_cell_angle_gamma 138.036236
_cell_volume 691.960752
_symmetry_space_group_name_H-M "P -1"
_symmetry_group_IT_number 2
_symmetry_cell_setting 'triclinic'
loop_
_space_group_symop_operation_xyz
x,y,z
-x,-y,-z
loop_
_atom_site_type_symbol
_atom_site_label
_atom_site_fract_x
_atom_site_fract_y
_atom_site_fract_z
Si Si1 0.627108 0.622111 0.106258
Si Si2 0.274036 0.075401 0.320850
Si Si3 0.000000 0.000000 0.000000
Si Si4 0.209492 0.470352 0.855866
Si Si5 0.072104 0.454825 0.545424
Si Si6 0.419876 0.634216 0.529498
Si Si7 0.170679 0.741366 0.105259
Si Si8 0.071155 0.148578 0.343687
O O1 0.786969 0.818226 0.048196
O O2 0.724045 0.557517 0.068465
O O3 0.514187 0.617269 0.318065
O O4 0.500000 0.500000 0.000000
O O5 0.426092 0.198853 0.395329
O O6 0.241047 0.174671 0.292885
O O7 0.296530 0.947874 0.150074
O O8 0.083641 0.943310 0.470791
O O9 0.014084 0.980606 0.803291
O O10 0.307872 0.477509 0.641278
O O11 0.995714 0.322439 0.909431
O O12 0.250578 0.653611 0.937716
O O13 0.260846 0.621143 0.570253
O O14 0.107272 0.326180 0.387968
O O15 0.000000 0.500000 0.500000
O O16 0.925823 0.355667 0.726503
#
# Coordination Sequence:
#
# PCOD9014381 Si02
#       8
#     2   2   1   2   2   2   2   2
#     4  12  27  43  69 104 141 178 233 288 346 415
#     4  10  21  41  67  96 129 169 233 278 333 406
#     4  12  24  42  64 104 138 180 216 280 356 392
#     4  10  23  43  68  96 132 178 232 281 335 412
#     4  10  23  41  65  93 132 182 223 279 356 416
#     4  11  24  42  68  97 133 179 234 292 336 410
#     4   9  21  42  67  94 127 183 226 274 342 412
#     4  10  22  40  66  94 131 177 219 280 335 407
#
# _framework density 21.677529
#
# number of rings (size 3 to 8) (size 9 to 14) (size 15 to 20)
#    0.000    1.600    1.333    2.000   13.067    0.533 
#    2.400    4.000    0.000    0.000    0.000    0.000 
#    0.000    0.000    0.000    0.000    0.000    0.000 
#
# Total GULP energy -83596.483233 kJ/mol
# GULP energy per Si atom -5573.098882 kJ/mol
# Density = 2.162819 g / cm^3
# Si number density = 21.677529 Si / 1000 Ang^3
#
#
#
# Elastic Constant Matrix: (Units=GPa)
#
#
# Indices 1 2 3 4 5 6 
#
# 1 155.9957 50.1438 36.0835 19.8668 29.8135 3.1440
# 2 50.1438 83.5780 21.8633 20.4201 3.8077 16.6937
# 3 36.0835 21.8633 89.0538 17.8623 7.8181 -1.6035
# 4 19.8668 20.4201 17.8623 40.8918 13.3649 6.3342
# 5 29.8135 3.8077 7.8181 13.3649 31.1857 7.5649
# 6 3.1440 16.6937 -1.6035 6.3342 7.5649 24.6561
#
#
#
# Elastic Compliance Matrix: (Units=1/GPa)
#
#
# Indices 1 2 3 4 5 6 
#
# 1 0.011071 -0.007387 -0.001923 0.001934 -0.011613 0.006531
# 2 -0.007387 0.021328 -0.002022 -0.007724 0.011993 -0.015325
# 3 -0.001923 -0.002022 0.013486 -0.004424 -0.000302 0.003721
# 4 0.001934 -0.007724 -0.004424 0.033965 -0.014451 0.000403
# 5 -0.011613 0.011993 -0.000302 -0.014451 0.052603 -0.019086
# 6 0.006531 -0.015325 0.003721 0.000403 -0.019086 0.056095
#
#
# Mechanical properties :
#
#
# Convention : Reuss Voigt Hill
#
# Bulk Modulus (GPa) = 43.06792 60.53431 51.80111
# Shear Modulus (GPa) = 22.83580 34.04916 28.44248
#
# Velocity S-wave (km/s) = 3.24918 3.96752 3.62618
# Velocity P-wave (km/s) = 5.82983 6.99813 6.44053
#
# Compressibility (1/GPa) = 0.02321914
#
# Stress axis : x y z
#
# Youngs Moduli (GPa) = 90.32200 46.88699 74.15184
#
# Poissons Ratio (x) = 0.34637 0.14261
# Poissons Ratio (y) = 0.66725 0.14997
# Poissons Ratio (z) = 0.17370 0.09483
#
# Static dielectric constant tensor:
#      x y z
#    x 1.788550 -0.008610 -0.030380 
#    y -0.008610 1.820410 -0.002210 
#    z -0.030380 -0.002210 1.823140 
# 
# From -- ./inp_files/259931.got.cif
#   From: 2010.05.17/outbox.cif.g08.bks.cpg/sg2_130_cif.got.tgz:259931.got - 2010.06.03 11:33:40.
