data_PCOD9014952
_publ_section_title
;
Structure prediction by ZEFSAII (Michael W. Deem and Ramdas Pophale) SiO2 
 PCOD9014952
Probable space group: P -1
;
_chemical_formula_sum "Si O2"
_cell_formula_units_Z 16
_cell_length_a 12.360451
_cell_length_b 10.718502
_cell_length_c 6.230915
_cell_angle_alpha 112.286569
_cell_angle_beta 99.776841
_cell_angle_gamma 62.426154
_cell_volume 677.062290
_symmetry_space_group_name_H-M "P -1"
_symmetry_group_IT_number 2
_symmetry_cell_setting 'triclinic'
loop_
_space_group_symop_operation_xyz
x,y,z
-x,-y,-z
loop_
_atom_site_type_symbol
_atom_site_label
_atom_site_fract_x
_atom_site_fract_y
_atom_site_fract_z
Si Si1 0.671398 0.504224 0.852391
Si Si2 0.300262 0.768635 0.093892
Si Si3 0.745544 0.651778 0.325945
Si Si4 0.530272 0.139188 0.558075
Si Si5 0.105956 0.261941 0.836401
Si Si6 0.557939 0.324225 0.318361
Si Si7 0.018110 0.934466 0.211873
Si Si8 0.118597 0.505435 0.327517
O O1 0.630658 0.381729 0.840309
O O2 0.554374 0.656821 0.863316
O O3 0.762665 0.466107 0.661016
O O4 0.751822 0.525153 0.080845
O O5 0.369617 0.869070 0.237876
O O6 0.163496 0.831986 0.175709
O O7 0.324948 0.719420 0.822676
O O8 0.606886 0.724171 0.402376
O O9 0.773587 0.774991 0.287415
O O10 0.851293 0.567634 0.477178
O O11 0.581675 0.185969 0.392614
O O12 0.500000 0.000000 0.500000
O O13 0.075420 0.140317 0.860796
O O14 0.995963 0.345052 0.684492
O O15 0.109490 0.378471 0.090174
O O16 0.500000 0.500000 0.500000
O O17 0.000000 0.000000 0.500000
O O18 0.000000 0.000000 0.000000
#
# Coordination Sequence:
#
# PCOD9014952 Si02
#       8
#     2   2   2   2   2   2   2   2
#     4  11  21  41  69 109 140 182 248 315 389 448
#     4  12  27  48  76 107 152 194 260 322 384 468
#     4  11  23  41  71 105 151 190 243 318 387 470
#     4  12  28  44  69 108 149 201 248 309 388 470
#     4  10  24  44  70 106 141 191 257 311 386 451
#     4  12  24  44  77 111 148 196 251 323 394 463
#     4  12  32  53  78 108 153 214 268 318 381 469
#     4  10  21  41  70 106 140 184 241 320 387 444
#
# _framework density 23.631504
#
# number of rings (size 3 to 8) (size 9 to 14) (size 15 to 20)
#    0.000    0.750    5.000    1.500    5.250    1.500 
#    0.000    0.000    0.000    0.000    0.000    0.000 
#    0.000    0.000    0.000    0.000    0.000    0.000 
#
# Total GULP energy -89095.686848 kJ/mol
# GULP energy per Si atom -5568.480428 kJ/mol
# Density = 2.357772 g / cm^3
# Si number density = 23.631504 Si / 1000 Ang^3
#
#
#
# Elastic Constant Matrix: (Units=GPa)
#
#
# Indices 1 2 3 4 5 6 
#
# 1 100.5001 8.1800 27.9283 6.3998 -20.3660 22.7060
# 2 8.1800 63.8303 41.4157 -16.9591 -8.6027 30.4821
# 3 27.9283 41.4157 95.9892 -15.6978 -5.5674 7.5565
# 4 6.3998 -16.9591 -15.6978 32.4857 2.3701 1.2550
# 5 -20.3660 -8.6027 -5.5674 2.3701 50.2078 -5.5997
# 6 22.7060 30.4821 7.5565 1.2550 -5.5997 57.9472
#
#
#
# Elastic Compliance Matrix: (Units=1/GPa)
#
#
# Indices 1 2 3 4 5 6 
#
# 1 0.014023 0.005343 -0.006022 -0.003002 0.005303 -0.006943
# 2 0.005343 0.037112 -0.013793 0.012108 0.004231 -0.019670
# 3 -0.006022 -0.013793 0.017851 0.002498 -0.002161 0.007024
# 4 -0.003002 0.012108 0.002498 0.039259 -0.001445 -0.006508
# 5 0.005303 0.004231 -0.002161 -0.001445 0.022419 -0.001824
# 6 -0.006943 -0.019670 0.007024 -0.006508 -0.001824 0.029373
#
#
# Mechanical properties :
#
#
# Convention : Reuss Voigt Hill
#
# Bulk Modulus (GPa) = 24.97365 46.15198 35.56281
# Shear Modulus (GPa) = 24.71209 40.31451 32.51330
#
# Velocity S-wave (km/s) = 3.23728 4.13481 3.71326
# Velocity P-wave (km/s) = 4.95623 6.50906 5.78498
#
# Compressibility (1/GPa) = 0.04004220
#
# Stress axis : x y z
#
# Youngs Moduli (GPa) = 71.30973 26.94537 56.01804
#
# Poissons Ratio (x) = -0.14397 0.33735
# Poissons Ratio (y) = -0.38100 0.77266
# Poissons Ratio (z) = 0.42944 0.37166
#
# Static dielectric constant tensor:
#      x y z
#    x 1.971350 0.021700 -0.021530 
#    y 0.021700 1.934890 -0.027150 
#    z -0.021530 -0.027150 2.121840 
# 
# From -- ./inp_files/71919.got.cif
#   From: 2010.05.17/outbox.cif.g08.bks.cpg/sg2_36_cif.got.tgz:71919.got - 2010.06.03 11:33:40.
