data_PCOD9014098
_publ_section_title
;
Structure prediction by ZEFSAII (Michael W. Deem and Ramdas Pophale) SiO2 
 PCOD9014098
Probable space group: P -1
;
_chemical_formula_sum "Si O2"
_cell_formula_units_Z 16
_cell_length_a 5.334542
_cell_length_b 23.156973
_cell_length_c 7.456346
_cell_angle_alpha 42.237314
_cell_angle_beta 89.198856
_cell_angle_gamma 90.618233
_cell_volume 618.796647
_symmetry_space_group_name_H-M "P -1"
_symmetry_group_IT_number 2
_symmetry_cell_setting 'triclinic'
loop_
_space_group_symop_operation_xyz
x,y,z
-x,-y,-z
loop_
_atom_site_type_symbol
_atom_site_label
_atom_site_fract_x
_atom_site_fract_y
_atom_site_fract_z
Si Si1 0.295557 0.071101 0.856776
Si Si2 0.385384 0.226333 0.764546
Si Si3 0.123600 0.781820 0.985517
Si Si4 0.737206 0.318260 0.105777
Si Si5 0.360465 0.486628 0.219445
Si Si6 0.140011 0.511800 0.659333
Si Si7 0.982783 0.048533 0.580464
Si Si8 0.767387 0.680146 0.761770
O O1 0.109829 0.024738 0.110477
O O2 0.380897 0.155077 0.771555
O O3 0.204808 0.087173 0.617368
O O4 0.500000 0.000000 0.000000
O O5 0.346010 0.312341 0.452550
O O6 0.647504 0.222778 0.869477
O O7 0.146063 0.212935 0.928158
O O8 0.140021 0.699568 0.045709
O O9 0.166478 0.866886 0.665848
O O10 0.451528 0.281910 0.199279
O O11 0.949208 0.279651 0.323929
O O12 0.694068 0.416377 0.935211
O O13 0.577303 0.447335 0.433142
O O14 0.076694 0.446858 0.313233
O O15 0.500000 0.500000 0.000000
O O16 0.000000 0.500000 0.500000
O O17 0.189351 0.415826 0.950690
O O18 0.000000 0.000000 0.500000
#
# Coordination Sequence:
#
# PCOD9014098 Si02
#       8
#     2   2   2   2   2   2   2   2
#     4  11  26  41  71 101 139 189 232 296 346 410
#     4  12  26  44  67 101 137 183 236 281 355 405
#     4  12  26  43  70  97 139 184 232 291 339 421
#     4  10  22  43  66  95 131 179 223 276 347 404
#     4  10  21  41  66  97 132 169 219 276 340 413
#     4  10  21  41  66  97 130 170 220 273 340 413
#     4  11  24  45  67 102 141 181 242 286 350 408
#     4  10  22  43  66  93 136 173 224 280 338 417
#
# _framework density 25.856635000000001
#
# number of rings (size 3 to 8) (size 9 to 14) (size 15 to 20)
#    0.000    1.250    1.250    3.750    5.250    1.000 
#    0.000   30.000    0.000    0.000    0.000    0.000 
#    0.000    0.000    0.000    0.000    0.000    0.000 
#
# Total GULP energy -89346.035768 kJ/mol
# GULP energy per Si atom -5584.127236 kJ/mol
# Density = 2.579778 g / cm^3
# Si number density = 25.856635 Si / 1000 Ang^3
#
#
#
# Elastic Constant Matrix: (Units=GPa)
#
#
# Indices 1 2 3 4 5 6 
#
# 1 182.0681 20.0969 31.5965 17.2691 36.2676 -24.7478
# 2 20.0969 141.5202 25.6727 26.9755 6.5956 -15.8908
# 3 31.5965 25.6727 138.3747 13.3770 38.1844 2.9380
# 4 17.2691 26.9755 13.3770 48.4370 4.8492 -1.3423
# 5 36.2676 6.5956 38.1844 4.8492 56.6043 4.8861
# 6 -24.7478 -15.8908 2.9380 -1.3423 4.8861 37.8988
#
#
#
# Elastic Compliance Matrix: (Units=1/GPa)
#
#
# Indices 1 2 3 4 5 6 
#
# 1 0.007442 0.000243 -0.000315 -0.002059 -0.004887 0.005543
# 2 0.000243 0.008512 -0.001216 -0.004361 -0.000273 0.003703
# 3 -0.000315 -0.001216 0.009235 -0.001209 -0.005719 -0.000737
# 4 -0.002059 -0.004361 -0.001209 0.023999 0.000788 -0.002331
# 5 -0.004887 -0.000273 -0.005719 0.000788 0.025144 -0.006076
# 6 0.005543 0.003703 -0.000737 -0.002331 -0.006076 0.032316
#
#
# Mechanical properties :
#
#
# Convention : Reuss Voigt Hill
#
# Bulk Modulus (GPa) = 44.22221 68.52170 56.37195
# Shear Modulus (GPa) = 42.82185 54.22780 48.52483
#
# Velocity S-wave (km/s) = 4.07397 4.58454 4.33677
# Velocity P-wave (km/s) = 6.26655 7.38798 6.85025
#
# Compressibility (1/GPa) = 0.02261307
#
# Stress axis : x y z
#
# Youngs Moduli (GPa) = 134.36494 117.48001 108.28354
#
# Poissons Ratio (x) = -0.02853 0.03407
# Poissons Ratio (y) = -0.03263 0.13172
# Poissons Ratio (z) = 0.04228 0.14290
#
# Static dielectric constant tensor:
#      x y z
#    x 2.379050 0.175710 -0.135180 
#    y 0.175710 2.126650 -0.036870 
#    z -0.135180 -0.036870 2.146600 
# 
# From -- ./inp_files/12761.got.cif
#   From: 2010.05.17/outbox.cif.g08.bks.cpg/sg2_7_cif.got.tgz:12761.got - 2010.06.03 11:33:40.
