data_PCOD9014055
_publ_section_title
;
Structure prediction by ZEFSAII (Michael W. Deem and Ramdas Pophale) SiO2 
 PCOD9014055
Probable space group: P -1
;
_chemical_formula_sum "Si O2"
_cell_formula_units_Z 16
_cell_length_a 20.282924
_cell_length_b 7.767565
_cell_length_c 5.589770
_cell_angle_alpha 67.921552
_cell_angle_beta 122.779566
_cell_angle_gamma 107.002001
_cell_volume 681.648454
_symmetry_space_group_name_H-M "P -1"
_symmetry_group_IT_number 2
_symmetry_cell_setting 'triclinic'
loop_
_space_group_symop_operation_xyz
x,y,z
-x,-y,-z
loop_
_atom_site_type_symbol
_atom_site_label
_atom_site_fract_x
_atom_site_fract_y
_atom_site_fract_z
Si Si1 0.410473 0.516503 0.258460
Si Si2 0.778882 0.182496 0.409609
Si Si3 0.654710 0.158505 0.815111
Si Si4 0.689959 0.848322 0.720850
Si Si5 0.018436 0.398861 0.342777
Si Si6 0.176288 0.264759 0.608217
Si Si7 0.693811 0.479824 0.365839
Si Si8 0.063265 0.925309 0.346722
O O1 0.500000 0.500000 0.500000
O O2 0.395391 0.737780 0.140589
O O3 0.359649 0.338466 0.385645
O O4 0.377609 0.458477 0.960231
O O5 0.747600 0.367863 0.352782
O O6 0.872630 0.185142 0.609707
O O7 0.728343 0.006946 0.531829
O O8 0.744707 0.164617 0.083326
O O9 0.655681 0.324385 0.544386
O O10 0.638183 0.962739 0.746488
O O11 0.764561 0.789214 0.044032
O O12 0.972918 0.193788 0.432539
O O13 0.000000 0.500000 0.500000
O O14 0.110426 0.380316 0.524552
O O15 0.000000 0.500000 0.000000
O O16 0.237997 0.366850 0.486146
O O17 0.122300 0.097593 0.466688
O O18 0.000000 0.000000 0.000000
#
# Coordination Sequence:
#
# PCOD9014055 Si02
#       8
#     2   2   2   2   2   2   2   2
#     4  10  23  41  65 101 138 169 218 279 342 420
#     4  10  21  41  67  92 131 172 230 285 330 419
#     4  10  21  41  66  95 132 174 221 276 342 402
#     4  10  22  41  67  99 124 179 235 272 347 420
#     4  12  28  46  67 101 144 190 240 309 380 435
#     4  11  23  42  68  91 131 178 233 287 347 433
#     4   9  22  41  67  95 123 175 227 266 339 416
#     4  12  25  43  68 100 136 182 237 305 370 423
#
# _framework density 23.47251
#
# number of rings (size 3 to 8) (size 9 to 14) (size 15 to 20)
#    0.000    1.500    1.250    2.625    3.500    2.000 
#    2.250    5.625    0.000    0.000    0.000    0.000 
#    0.000    0.000    0.000    0.000    0.000    0.000 
#
# Total GULP energy -89120.213937 kJ/mol
# GULP energy per Si atom -5570.013371 kJ/mol
# Density = 2.341909 g / cm^3
# Si number density = 23.472510 Si / 1000 Ang^3
#
#
#
# Elastic Constant Matrix: (Units=GPa)
#
#
# Indices 1 2 3 4 5 6 
#
# 1 54.3801 34.2876 47.4258 6.2327 19.4465 7.8610
# 2 34.2876 128.9240 37.2851 -4.3239 14.5644 0.3415
# 3 47.4258 37.2851 117.3761 -9.0874 25.4213 16.1046
# 4 6.2327 -4.3239 -9.0874 30.7625 5.9418 1.7973
# 5 19.4465 14.5644 25.4213 5.9418 46.4694 -3.7824
# 6 7.8610 0.3415 16.1046 1.7973 -3.7824 40.9343
#
#
#
# Elastic Compliance Matrix: (Units=1/GPa)
#
#
# Indices 1 2 3 4 5 6 
#
# 1 0.036046 -0.005831 -0.012029 -0.010483 -0.005514 -0.002190
# 2 -0.005831 0.009600 -0.000556 0.002394 -0.000480 0.001109
# 3 -0.012029 -0.000556 0.015927 0.008300 -0.004955 -0.004774
# 4 -0.010483 0.002394 0.008300 0.038816 -0.006156 -0.003545
# 5 -0.005514 -0.000480 -0.004955 -0.006156 0.027953 0.005865
# 6 -0.002190 0.001109 -0.004774 -0.003545 0.005865 0.027417
#
#
# Mechanical properties :
#
#
# Convention : Reuss Voigt Hill
#
# Bulk Modulus (GPa) = 40.41829 59.85302 50.13566
# Shear Modulus (GPa) = 24.89576 35.74534 30.32055
#
# Velocity S-wave (km/s) = 3.26027 3.90662 3.59799
# Velocity P-wave (km/s) = 5.60618 6.77521 6.21823
#
# Compressibility (1/GPa) = 0.02474127
#
# Stress axis : x y z
#
# Youngs Moduli (GPa) = 27.74207 104.17027 62.78493
#
# Poissons Ratio (x) = 0.60737 0.75525
# Poissons Ratio (y) = 0.16175 0.03493
# Poissons Ratio (z) = 0.33371 0.05795
#
# Static dielectric constant tensor:
#      x y z
#    x 2.209760 -0.275820 -0.173020 
#    y -0.275820 2.329960 0.015330 
#    z -0.173020 0.015330 1.907260 
# 
# From -- ./inp_files/116762.got.cif
#   From: 2010.05.17/outbox.cif.g08.bks.cpg/sg2_59_cif.got.tgz:116762.got - 2010.06.03 11:33:40.
