data_PCOD9014883
_publ_section_title
;
Structure prediction by ZEFSAII (Michael W. Deem and Ramdas Pophale) SiO2 
 PCOD9014883
Probable space group: P -1
;
_chemical_formula_sum "Si O2"
_cell_formula_units_Z 16
_cell_length_a 6.560550
_cell_length_b 9.316539
_cell_length_c 13.000248
_cell_angle_alpha 70.458725
_cell_angle_beta 108.170574
_cell_angle_gamma 76.251902
_cell_volume 657.555558
_symmetry_space_group_name_H-M "P -1"
_symmetry_group_IT_number 2
_symmetry_cell_setting 'triclinic'
loop_
_space_group_symop_operation_xyz
x,y,z
-x,-y,-z
loop_
_atom_site_type_symbol
_atom_site_label
_atom_site_fract_x
_atom_site_fract_y
_atom_site_fract_z
Si Si1 0.930047 0.674775 0.000890
Si Si2 0.501936 0.459376 0.290713
Si Si3 0.468486 0.820365 0.796034
Si Si4 0.460232 0.789655 0.462773
Si Si5 0.116763 0.771845 0.240380
Si Si6 0.227195 0.882192 0.964608
Si Si7 0.220997 0.052878 0.518862
Si Si8 0.299285 0.289527 0.818874
O O1 0.723082 0.803505 0.870946
O O2 0.813289 0.671183 0.093997
O O3 0.000000 0.500000 0.000000
O O4 0.134952 0.739960 0.008408
O O5 0.508094 0.346430 0.220685
O O6 0.567542 0.340377 0.428847
O O7 0.253977 0.598787 0.246571
O O8 0.661889 0.559475 0.264166
O O9 0.357640 0.961486 0.662746
O O10 0.322814 0.850242 0.870479
O O11 0.320407 0.783821 0.340463
O O12 0.323363 0.969472 0.446298
O O13 0.727828 0.778567 0.507824
O O14 0.981529 0.938139 0.113548
O O15 0.890773 0.756565 0.262211
O O16 0.446454 0.852633 0.082869
O O17 0.000000 0.000000 0.500000
#
# Coordination Sequence:
#
# PCOD9014883 Si02
#       8
#     2   2   2   2   2   2   2   2
#     4  11  22  41  68  96 131 172 218 275 331 386
#     4  11  25  43  65  96 137 174 219 271 325 392
#     4  10  22  40  66  98 127 167 218 271 327 389
#     4  10  24  43  65  98 130 170 220 268 326 390
#     4  12  25  43  66  94 134 179 217 270 329 387
#     4  11  24  42  67  98 130 170 223 274 327 388
#     4  10  21  41  69  98 129 164 215 274 327 385
#     4  11  25  41  63  97 133 176 223 267 323 390
#
# _framework density 24.332543999999999
#
# number of rings (size 3 to 8) (size 9 to 14) (size 15 to 20)
#    0.000    1.250    0.000    5.250    0.000   12.500 
#    0.000    0.000    0.000    0.000    0.000    0.000 
#    0.000    0.000    0.000    0.000    0.000    0.000 
#
# Total GULP energy -89337.103520 kJ/mol
# GULP energy per Si atom -5583.568970 kJ/mol
# Density = 2.427716 g / cm^3
# Si number density = 24.332544 Si / 1000 Ang^3
#
#
#
# Elastic Constant Matrix: (Units=GPa)
#
#
# Indices 1 2 3 4 5 6 
#
# 1 119.4942 34.0465 26.2217 -4.7701 1.7515 25.3191
# 2 34.0465 110.9490 20.7299 -1.6447 -9.6458 7.0828
# 3 26.2217 20.7299 97.2161 -13.3367 0.1822 4.6689
# 4 -4.7701 -1.6447 -13.3367 30.1151 1.9595 -16.2596
# 5 1.7515 -9.6458 0.1822 1.9595 28.8596 -0.3547
# 6 25.3191 7.0828 4.6689 -16.2596 -0.3547 54.6895
#
#
#
# Elastic Compliance Matrix: (Units=1/GPa)
#
#
# Indices 1 2 3 4 5 6 
#
# 1 0.010643 -0.002663 -0.002350 -0.002117 -0.001439 -0.005021
# 2 -0.002663 0.010462 -0.001638 -0.000948 0.003730 -0.000240
# 3 -0.002350 -0.001638 0.011998 0.006020 -0.000864 0.002060
# 4 -0.002117 -0.000948 0.006020 0.042867 -0.002973 0.013314
# 5 -0.001439 0.003730 -0.000864 -0.002973 0.036187 -0.000392
# 6 -0.005021 -0.000240 0.002060 0.013314 -0.000392 0.024421
#
#
# Mechanical properties :
#
#
# Convention : Reuss Voigt Hill
#
# Bulk Modulus (GPa) = 50.50036 54.40616 52.45326
# Shear Modulus (GPa) = 31.95293 39.17692 35.56492
#
# Velocity S-wave (km/s) = 3.62771 4.01691 3.82726
# Velocity P-wave (km/s) = 6.19244 6.62737 6.41359
#
# Compressibility (1/GPa) = 0.01980184
#
# Stress axis : x y z
#
# Youngs Moduli (GPa) = 93.95517 95.58423 83.34737
#
# Poissons Ratio (x) = 0.25455 0.19583
# Poissons Ratio (y) = 0.25021 0.13653
# Poissons Ratio (z) = 0.22075 0.15658
#
# Static dielectric constant tensor:
#      x y z
#    x 2.100380 0.021580 0.052260 
#    y 0.021580 1.972580 0.021660 
#    z 0.052260 0.021660 1.978800 
# 
# From -- ./inp_files/364329.got.cif
#   From: 2010.05.17/outbox.cif.g08.bks.cpg/sg2_183_cif.got.tgz:364329.got - 2010.06.03 11:33:40.
