data_PCOD9014476
_publ_section_title
;
Structure prediction by ZEFSAII (Michael W. Deem and Ramdas Pophale) SiO2 
 PCOD9014476
Probable space group: P -1
;
_chemical_formula_sum "Si O2"
_cell_formula_units_Z 14
_cell_length_a 9.546254
_cell_length_b 18.659029
_cell_length_c 5.919271
_cell_angle_alpha 75.312476
_cell_angle_beta 112.678063
_cell_angle_gamma 53.980197
_cell_volume 602.251826
_symmetry_space_group_name_H-M "P -1"
_symmetry_group_IT_number 2
_symmetry_cell_setting 'triclinic'
loop_
_space_group_symop_operation_xyz
x,y,z
-x,-y,-z
loop_
_atom_site_type_symbol
_atom_site_label
_atom_site_fract_x
_atom_site_fract_y
_atom_site_fract_z
Si Si1 0.370756 0.619708 0.699788
Si Si2 0.925852 0.973712 0.673555
Si Si3 0.649291 0.204318 0.573648
Si Si4 0.212114 0.522625 0.229701
Si Si5 0.540027 0.018695 0.260315
Si Si6 0.090926 0.285552 0.782326
Si Si7 0.825510 0.615966 0.572299
O O1 0.369954 0.711404 0.653723
O O2 0.521787 0.560005 0.608559
O O3 0.099760 0.694899 0.477890
O O4 0.500000 0.500000 0.000000
O O5 0.735289 0.096357 0.592356
O O6 0.803714 0.950608 0.495980
O O7 0.000000 0.000000 0.500000
O O8 0.139815 0.866405 0.052444
O O9 0.398412 0.284643 0.480088
O O10 0.213509 0.454596 0.461652
O O11 0.044997 0.648670 0.120618
O O12 0.071897 0.539789 0.917456
O O13 0.500000 0.000000 0.500000
O O14 0.341160 0.154892 0.042180
O O15 0.500000 0.000000 0.000000
O O16 0.153142 0.339135 0.660156
#
# Coordination Sequence:
#
# PCOD9014476 Si02
#       7
#     2   2   2   2   2   2   2
#     4  11  23  44  66 103 146 192 237 303 373 455
#     4  11  25  48  78 105 145 197 261 316 379 454
#     4  10  24  45  73 107 145 191 253 308 377 448
#     4  10  22  41  65  98 138 182 241 298 362 447
#     4  12  31  50  78 114 154 197 255 320 385 450
#     4  12  24  42  71  96 143 188 239 302 378 440
#     4  10  21  41  68 100 136 180 239 302 365 444
#
# _framework density 23.246088
#
# number of rings (size 3 to 8) (size 9 to 14) (size 15 to 20)
#    0.000    1.143    1.429    3.429   10.000    0.000 
#   10.286    0.000    0.000    0.000    0.000    0.000 
#    0.000    0.000    0.000    0.000    0.000    0.000 
#
# Total GULP energy -77970.565467 kJ/mol
# GULP energy per Si atom -5569.326105 kJ/mol
# Density = 2.319318 g / cm^3
# Si number density = 23.246088 Si / 1000 Ang^3
#
#
#
# Elastic Constant Matrix: (Units=GPa)
#
#
# Indices 1 2 3 4 5 6 
#
# 1 118.2377 4.7954 33.3822 5.6157 -7.6342 -1.8531
# 2 4.7954 64.7869 19.2427 -4.5590 -5.5240 -10.7730
# 3 33.3822 19.2427 99.7140 -3.6943 -0.2316 10.2739
# 4 5.6157 -4.5590 -3.6943 35.2973 4.6754 5.7741
# 5 -7.6342 -5.5240 -0.2316 4.6754 45.7098 -6.5045
# 6 -1.8531 -10.7730 10.2739 5.7741 -6.5045 28.4172
#
#
#
# Elastic Compliance Matrix: (Units=1/GPa)
#
#
# Indices 1 2 3 4 5 6 
#
# 1 0.009898 0.001086 -0.003997 -0.002792 0.002570 0.003658
# 2 0.001086 0.018814 -0.005031 -0.000421 0.003895 0.009999
# 3 -0.003997 -0.005031 0.013292 0.003078 -0.002692 -0.008215
# 4 -0.002792 -0.000421 0.003078 0.031159 -0.004958 -0.008920
# 5 0.002570 0.003895 -0.002692 -0.004958 0.024587 0.009253
# 6 0.003658 0.009999 -0.008215 -0.008920 0.009253 0.046120
#
#
# Mechanical properties :
#
#
# Convention : Reuss Voigt Hill
#
# Bulk Modulus (GPa) = 38.28689 44.17548 41.23119
# Shear Modulus (GPa) = 29.68021 36.90608 33.29314
#
# Velocity S-wave (km/s) = 3.57709 3.98882 3.78855
# Velocity P-wave (km/s) = 5.79368 6.34499 6.07559
#
# Compressibility (1/GPa) = 0.02611860
#
# Stress axis : x y z
#
# Youngs Moduli (GPa) = 101.03072 53.15067 75.23289
#
# Poissons Ratio (x) = -0.05770 0.30074
# Poissons Ratio (y) = -0.10968 0.37850
# Poissons Ratio (z) = 0.40387 0.26740
#
# Static dielectric constant tensor:
#      x y z
#    x 1.854780 0.002020 0.036060 
#    y 0.002020 1.903520 0.078320 
#    z 0.036060 0.078320 1.774510 
# 
# From -- ./inp_files/47138.got.cif
#   From: 2010.05.17/outbox.cif.g08.bks.cpg/sg2_24_cif.got.tgz:47138.got - 2010.06.03 11:33:40.
