data_PCOD9014349
_publ_section_title
;
Structure prediction by ZEFSAII (Michael W. Deem and Ramdas Pophale) SiO2 
 PCOD9014349
Probable space group: P -1
;
_chemical_formula_sum "Si O2"
_cell_formula_units_Z 15
_cell_length_a 18.026147
_cell_length_b 6.058077
_cell_length_c 8.238145
_cell_angle_alpha 123.918045
_cell_angle_beta 106.759404
_cell_angle_gamma 63.182581
_cell_volume 665.444276
_symmetry_space_group_name_H-M "P -1"
_symmetry_group_IT_number 2
_symmetry_cell_setting 'triclinic'
loop_
_space_group_symop_operation_xyz
x,y,z
-x,-y,-z
loop_
_atom_site_type_symbol
_atom_site_label
_atom_site_fract_x
_atom_site_fract_y
_atom_site_fract_z
Si Si1 0.606063 0.149050 0.531930
Si Si2 0.515190 0.283489 0.179934
Si Si3 0.035146 0.659230 0.718895
Si Si4 0.789940 0.485336 0.124264
Si Si5 0.235779 0.903201 0.573236
Si Si6 0.113212 0.777225 0.225029
Si Si7 0.000000 0.500000 0.000000
Si Si8 0.646583 0.520447 0.280053
O O1 0.558979 0.221099 0.358487
O O2 0.564996 0.425560 0.730924
O O3 0.702711 0.087447 0.530400
O O4 0.600872 0.844347 0.447205
O O5 0.581383 0.365545 0.148671
O O6 0.500000 0.000000 0.000000
O O7 0.131601 0.622833 0.745667
O O8 0.029348 0.541819 0.846691
O O9 0.000000 0.500000 0.500000
O O10 0.975828 0.988586 0.789581
O O11 0.703331 0.502040 0.151847
O O12 0.779366 0.811777 0.217253
O O13 0.821388 0.290669 0.907617
O O14 0.151818 0.884561 0.443409
O O15 0.288246 0.636875 0.604111
O O16 0.088593 0.505455 0.130192
#
# Coordination Sequence:
#
# PCOD9014349 Si02
#       8
#     2   2   2   2   2   2   1   2
#     4   9  21  41  62  95 131 161 215 268 314 403
#     4  10  21  41  67  95 129 167 211 265 329 393
#     4  11  23  43  66  92 132 176 226 287 334 397
#     4  10  22  41  60  93 131 163 223 281 322 395
#     4  10  22  39  63  91 126 174 212 267 334 387
#     4  11  24  43  62  92 131 171 222 279 330 397
#     4  10  24  38  62  96 122 172 226 270 340 396
#     4  10  22  41  67  95 129 172 215 266 333 399
#
# _framework density 22.541333999999999
#
# number of rings (size 3 to 8) (size 9 to 14) (size 15 to 20)
#    0.000    1.867    1.333    2.000    1.867    8.533 
#    0.000    9.333    0.000    0.000    0.000    0.000 
#    0.000    0.000    0.000    0.000    0.000    0.000 
#
# Total GULP energy -83520.805202 kJ/mol
# GULP energy per Si atom -5568.053680 kJ/mol
# Density = 2.249003 g / cm^3
# Si number density = 22.541334 Si / 1000 Ang^3
#
#
#
# Elastic Constant Matrix: (Units=GPa)
#
#
# Indices 1 2 3 4 5 6 
#
# 1 95.8761 10.2474 25.8795 19.6735 6.5267 -0.2345
# 2 10.2474 64.9923 5.6458 16.4113 -6.2254 -17.3181
# 3 25.8795 5.6458 79.6570 18.1588 9.0793 2.5770
# 4 19.6735 16.4113 18.1588 31.8297 -8.7177 -5.8191
# 5 6.5267 -6.2254 9.0793 -8.7177 31.6206 6.6028
# 6 -0.2345 -17.3181 2.5770 -5.8191 6.6028 24.8994
#
#
#
# Elastic Compliance Matrix: (Units=1/GPa)
#
#
# Indices 1 2 3 4 5 6 
#
# 1 0.012904 -0.000464 -0.001822 -0.008007 -0.004283 -0.000748
# 2 -0.000464 0.020910 0.000320 -0.008597 -0.000909 0.012738
# 3 -0.001822 0.000320 0.016386 -0.010634 -0.006741 -0.002188
# 4 -0.008007 -0.008597 -0.010634 0.051959 0.016766 0.002743
# 5 -0.004283 -0.000909 -0.006741 0.016766 0.040296 -0.006742
# 6 -0.000748 0.012738 -0.002188 0.002743 -0.006742 0.051669
#
#
# Mechanical properties :
#
#
# Convention : Reuss Voigt Hill
#
# Bulk Modulus (GPa) = 21.61285 36.00786 28.81035
# Shear Modulus (GPa) = 23.42159 30.92011 27.17085
#
# Velocity S-wave (km/s) = 3.22693 3.70767 3.47562
# Velocity P-wave (km/s) = 4.84696 5.85986 5.37731
#
# Compressibility (1/GPa) = 0.04626877
#
# Stress axis : x y z
#
# Youngs Moduli (GPa) = 77.49351 47.82473 61.02713
#
# Poissons Ratio (x) = 0.02220 0.11118
# Poissons Ratio (y) = 0.03596 -0.01954
# Poissons Ratio (z) = 0.14118 -0.01531
#
# Static dielectric constant tensor:
#      x y z
#    x 1.922220 0.172810 0.192240 
#    y 0.172810 2.253850 0.558470 
#    z 0.192240 0.558470 2.566130 
# 
# From -- ./inp_files/324267.got.cif
#   From: 2010.05.17/outbox.cif.g08.bks.cpg/sg2_163_cif.got.tgz:324267.got - 2010.06.03 11:33:40.
