data_PCOD9014946
_publ_section_title
;
Structure prediction by ZEFSAII (Michael W. Deem and Ramdas Pophale) SiO2 
 PCOD9014946
Probable space group: P -1
;
_chemical_formula_sum "Si O2"
_cell_formula_units_Z 14
_cell_length_a 20.364175
_cell_length_b 8.154419
_cell_length_c 19.990337
_cell_angle_alpha 35.755590
_cell_angle_beta 159.338395
_cell_angle_gamma 148.103757
_cell_volume 616.279464
_symmetry_space_group_name_H-M "P -1"
_symmetry_group_IT_number 2
_symmetry_cell_setting 'triclinic'
loop_
_space_group_symop_operation_xyz
x,y,z
-x,-y,-z
loop_
_atom_site_type_symbol
_atom_site_label
_atom_site_fract_x
_atom_site_fract_y
_atom_site_fract_z
Si Si1 0.508318 0.718424 0.998493
Si Si2 0.853824 0.414080 0.824713
Si Si3 0.453280 0.189808 0.333252
Si Si4 0.110153 0.773699 0.569012
Si Si5 0.730379 0.487180 0.386533
Si Si6 0.651347 0.851211 0.448067
Si Si7 0.261135 0.624798 0.064147
O O1 0.287750 0.718073 0.793617
O O2 0.669554 0.067764 0.017235
O O3 0.500000 0.500000 0.000000
O O4 0.564292 0.578909 0.162530
O O5 0.723217 0.615250 0.629740
O O6 0.688179 0.059961 0.773754
O O7 0.000000 0.500000 0.000000
O O8 0.023122 0.497380 0.899057
O O9 0.666217 0.422333 0.423514
O O10 0.324817 0.372455 0.175497
O O11 0.500000 0.000000 0.500000
O O12 0.000000 0.500000 0.500000
O O13 0.943880 0.747187 0.474401
O O14 0.226175 0.063553 0.534482
O O15 0.714799 0.162866 0.448513
O O16 0.413022 0.730229 0.239298
#
# Coordination Sequence:
#
# PCOD9014946 Si02
#       7
#     2   2   2   2   2   2   2
#     4  11  20  39  70 105 135 169 229 293 344 407
#     4  12  27  43  75 101 128 188 251 281 334 407
#     4  12  28  49  65  96 150 194 224 283 347 410
#     4   9  18  34  64 100 132 167 217 286 347 392
#     4  11  23  40  69  99 139 179 232 280 340 417
#     4  10  21  41  70 105 133 174 232 293 344 403
#     4  11  24  46  69  96 147 181 222 290 354 409
#
# _framework density 22.716967
#
# number of rings (size 3 to 8) (size 9 to 14) (size 15 to 20)
#    0.000    1.143    5.714    2.143    4.000    1.714 
#    2.571    2.857    0.000    0.000    0.000    0.000 
#    0.000    0.000    0.000    0.000    0.000    0.000 
#
# Total GULP energy -78295.182058 kJ/mol
# GULP energy per Si atom -5592.513004 kJ/mol
# Density = 2.266526 g / cm^3
# Si number density = 22.716967 Si / 1000 Ang^3
#
#
#
# Elastic Constant Matrix: (Units=GPa)
#
#
# Indices 1 2 3 4 5 6 
#
# 1 94.9558 23.4355 23.0407 -5.8898 0.4113 16.1934
# 2 23.4355 61.6301 11.0496 -12.2267 2.3449 -0.6601
# 3 23.0407 11.0496 65.9144 -18.7782 1.3749 13.5500
# 4 -5.8898 -12.2267 -18.7782 47.8034 7.9638 10.0988
# 5 0.4113 2.3449 1.3749 7.9638 26.5175 2.0340
# 6 16.1934 -0.6601 13.5500 10.0988 2.0340 46.3890
#
#
#
# Elastic Compliance Matrix: (Units=1/GPa)
#
#
# Indices 1 2 3 4 5 6 
#
# 1 0.013007 -0.004475 -0.003065 -0.000069 0.000659 -0.003723
# 2 -0.004475 0.019015 -0.000571 0.004333 -0.002975 0.001187
# 3 -0.003065 -0.000571 0.020540 0.009547 -0.003307 -0.006871
# 4 -0.000069 0.004333 0.009547 0.029086 -0.008949 -0.008642
# 5 0.000659 -0.002975 -0.003307 -0.008949 0.040757 0.000855
# 6 -0.003723 0.001187 -0.006871 -0.008642 0.000855 0.026724
#
#
# Mechanical properties :
#
#
# Convention : Reuss Voigt Hill
#
# Bulk Modulus (GPa) = 27.51751 37.50576 32.51163
# Shear Modulus (GPa) = 28.17461 35.14028 31.65745
#
# Velocity S-wave (km/s) = 3.52553 3.93730 3.73709
# Velocity P-wave (km/s) = 5.35836 6.10046 5.74141
#
# Compressibility (1/GPa) = 0.03634049
#
# Stress axis : x y z
#
# Youngs Moduli (GPa) = 76.88109 52.58877 48.68650
#
# Poissons Ratio (x) = 0.23535 0.14921
# Poissons Ratio (y) = 0.34407 0.02779
# Poissons Ratio (z) = 0.23561 0.03002
#
# Static dielectric constant tensor:
#      x y z
#    x 1.855910 0.020410 -0.019840 
#    y 0.020410 1.855560 0.027940 
#    z -0.019840 0.027940 1.777090 
# 
# From -- ./inp_files/505158.got.cif
#   From: 2010.05.17/outbox.cif.g08.bks.cpg/sg2_253_cif.got.tgz:505158.got - 2010.06.03 11:33:40.
