data_PCOD9014800
_publ_section_title
;
Structure prediction by ZEFSAII (Michael W. Deem and Ramdas Pophale) SiO2 
 PCOD9014800
Probable space group: P -1
;
_chemical_formula_sum "Si O2"
_cell_formula_units_Z 16
_cell_length_a 9.165781
_cell_length_b 15.333326
_cell_length_c 8.272396
_cell_angle_alpha 125.169969
_cell_angle_beta 111.282522
_cell_angle_gamma 100.210510
_cell_volume 763.203441
_symmetry_space_group_name_H-M "P -1"
_symmetry_group_IT_number 2
_symmetry_cell_setting 'triclinic'
loop_
_space_group_symop_operation_xyz
x,y,z
-x,-y,-z
loop_
_atom_site_type_symbol
_atom_site_label
_atom_site_fract_x
_atom_site_fract_y
_atom_site_fract_z
Si Si1 0.806782 0.842881 0.925651
Si Si2 0.277178 0.779555 0.337927
Si Si3 0.778742 0.037337 0.695272
Si Si4 0.884695 0.643356 0.180936
Si Si5 0.570948 0.604133 0.774901
Si Si6 0.357410 0.602800 0.992925
Si Si7 0.258651 0.221929 0.541884
Si Si8 0.596376 0.960491 0.866319
O O1 0.658863 0.735160 0.861116
O O2 0.795024 0.800404 0.690052
O O3 0.754777 0.948443 0.003417
O O4 0.004655 0.888054 0.121327
O O5 0.278222 0.900789 0.400217
O O6 0.304941 0.706263 0.124188
O O7 0.441243 0.829535 0.586368
O O8 0.084017 0.688588 0.244131
O O9 0.727930 0.894282 0.507979
O O10 0.688656 0.044173 0.835052
O O11 0.881821 0.756217 0.390658
O O12 0.735511 0.604614 0.938327
O O13 0.802285 0.526861 0.143607
O O14 0.500000 0.500000 0.500000
O O15 0.418173 0.591328 0.825503
O O16 0.546112 0.653832 0.223831
O O17 0.500000 0.000000 0.000000
#
# Coordination Sequence:
#
# PCOD9014800 Si02
#       8
#     2   2   2   2   2   2   2   2
#     4  11  22  43  65 101 131 169 224 273 325 394
#     4  12  25  44  66 100 138 175 213 276 332 403
#     4  11  24  43  66  98 138 170 225 266 334 395
#     4  11  24  42  67  97 128 179 227 267 331 395
#     4  11  23  42  70  96 127 172 231 274 321 396
#     4  11  23  44  66  93 133 178 218 270 337 388
#     4  10  21  41  69  92 130 176 217 275 323 394
#     4  11  26  41  67  97 138 177 212 271 335 394
#
# _framework density 20.964265999999999
#
# number of rings (size 3 to 8) (size 9 to 14) (size 15 to 20)
#    0.000    1.000    3.750    5.250    5.250    1.500 
#    0.000    0.625    0.000    0.000    0.000    0.000 
#    0.000    0.000    0.000    0.000    0.000    0.000 
#
# Total GULP energy -89434.400086 kJ/mol
# GULP energy per Si atom -5589.650005 kJ/mol
# Density = 2.091655 g / cm^3
# Si number density = 20.964266 Si / 1000 Ang^3
#
#
#
# Elastic Constant Matrix: (Units=GPa)
#
#
# Indices 1 2 3 4 5 6 
#
# 1 114.5508 18.8702 31.6323 -1.5601 -9.0777 15.9296
# 2 18.8702 73.2163 24.5840 14.2174 9.5862 13.2004
# 3 31.6323 24.5840 52.4643 6.7813 -19.9151 5.0976
# 4 -1.5601 14.2174 6.7813 21.9810 3.0369 10.5373
# 5 -9.0777 9.5862 -19.9151 3.0369 35.7052 0.9270
# 6 15.9296 13.2004 5.0976 10.5373 0.9270 31.7767
#
#
#
# Elastic Compliance Matrix: (Units=1/GPa)
#
#
# Indices 1 2 3 4 5 6 
#
# 1 0.011872 -0.000303 -0.007914 0.006990 -0.001732 -0.006823
# 2 -0.000303 0.022131 -0.013976 -0.006097 -0.013182 -0.004393
# 3 -0.007914 -0.013976 0.040704 -0.010416 0.025175 0.005963
# 4 0.006990 -0.006097 -0.010416 0.063872 -0.007302 -0.020268
# 5 -0.001732 -0.013182 0.025175 -0.007302 0.045681 0.003394
# 6 -0.006823 -0.004393 0.005963 -0.020268 0.003394 0.042380
#
#
# Mechanical properties :
#
#
# Convention : Reuss Voigt Hill
#
# Bulk Modulus (GPa) = 32.98056 43.37826 38.17941
# Shear Modulus (GPa) = 17.78515 28.90224 23.34370
#
# Velocity S-wave (km/s) = 2.91581 3.71704 3.34053
# Velocity P-wave (km/s) = 5.20595 6.25766 5.75587
#
# Compressibility (1/GPa) = 0.03032089
#
# Stress axis : x y z
#
# Youngs Moduli (GPa) = 84.23290 45.18553 24.56731
#
# Poissons Ratio (x) = 0.01369 0.19442
# Poissons Ratio (y) = 0.02552 0.34336
# Poissons Ratio (z) = 0.66661 0.63153
#
# Static dielectric constant tensor:
#      x y z
#    x 1.754910 -0.007350 -0.015550 
#    y -0.007350 1.764170 0.037500 
#    z -0.015550 0.037500 1.755890 
# 
# From -- ./inp_files/176725.got.cif
#   From: 2010.05.17/outbox.cif.g08.bks.cpg/sg2_89_cif.got.tgz:176725.got - 2010.06.03 11:33:40.
