data_PCOD9014749
_publ_section_title
;
Structure prediction by ZEFSAII (Michael W. Deem and Ramdas Pophale) SiO2 
 PCOD9014749
Probable space group: P -1
;
_chemical_formula_sum "Si O2"
_cell_formula_units_Z 15
_cell_length_a 13.072264
_cell_length_b 7.760551
_cell_length_c 12.434045
_cell_angle_alpha 83.729502
_cell_angle_beta 50.447216
_cell_angle_gamma 46.647384
_cell_volume 573.628168
_symmetry_space_group_name_H-M "P -1"
_symmetry_group_IT_number 2
_symmetry_cell_setting 'triclinic'
loop_
_space_group_symop_operation_xyz
x,y,z
-x,-y,-z
loop_
_atom_site_type_symbol
_atom_site_label
_atom_site_fract_x
_atom_site_fract_y
_atom_site_fract_z
Si Si1 0.186356 0.094952 0.606594
Si Si2 0.617836 0.277425 0.282862
Si Si3 0.882584 0.267862 0.483457
Si Si4 0.259854 0.394554 0.235457
Si Si5 0.684092 0.053362 0.860457
Si Si6 0.743666 0.796968 0.133868
Si Si7 0.500000 0.000000 0.500000
Si Si8 0.536069 0.696220 0.213031
O O1 0.246138 0.221125 0.604350
O O2 0.930658 0.327827 0.734993
O O3 0.301052 0.862800 0.642527
O O4 0.315961 0.943338 0.417600
O O5 0.347262 0.541228 0.436202
O O6 0.684780 0.399143 0.196142
O O7 0.704394 0.042256 0.157561
O O8 0.813970 0.489756 0.600671
O O9 0.000000 0.000000 0.500000
O O10 0.074443 0.115723 0.279913
O O11 0.269465 0.183504 0.209243
O O12 0.503576 0.219313 0.062935
O O13 0.546844 0.298038 0.842945
O O14 0.659185 0.748830 0.105112
O O15 0.606977 0.863657 0.321165
O O16 0.000000 0.500000 0.000000
#
# Coordination Sequence:
#
# PCOD9014749 Si02
#       8
#     2   2   2   2   2   2   1   2
#     4  10  21  41  69 102 140 180 233 292 358 423
#     4  11  24  43  71 107 142 183 237 290 360 426
#     4  12  24  47  70 101 143 188 240 295 354 430
#     4  11  25  44  72 102 137 189 243 298 356 428
#     4  11  25  43  72 101 138 189 243 291 355 427
#     4  10  23  41  64  97 138 178 225 280 346 417
#     4   8  20  36  58  94 130 170 214 274 334 406
#     4  11  22  44  70 103 139 187 232 291 356 419
#
# _framework density 26.149345
#
# number of rings (size 3 to 8) (size 9 to 14) (size 15 to 20)
#    0.000    1.333    2.667    1.600    9.333    1.067 
#    0.000    0.000    0.000    0.000    0.000    0.000 
#    0.000    0.000    0.000    0.000    0.000    0.000 
#
# Total GULP energy -83589.978005 kJ/mol
# GULP energy per Si atom -5572.665200 kJ/mol
# Density = 2.608983 g / cm^3
# Si number density = 26.149345 Si / 1000 Ang^3
#
#
#
# Elastic Constant Matrix: (Units=GPa)
#
#
# Indices 1 2 3 4 5 6 
#
# 1 70.8915 16.8541 -25.0135 4.5630 13.6784 -6.4161
# 2 16.8541 116.9528 24.1119 8.2265 -8.0355 -17.0279
# 3 -25.0135 24.1119 -7.7948 -1.7428 45.3460 9.1889
# 4 4.5630 8.2265 -1.7428 26.6042 -1.1089 4.2374
# 5 13.6784 -8.0355 45.3460 -1.1089 -5.9540 -2.5370
# 6 -6.4161 -17.0279 9.1889 4.2374 -2.5370 46.6010
#
#
#
# Elastic Compliance Matrix: (Units=1/GPa)
#
#
# Indices 1 2 3 4 5 6 
#
# 1 0.012411 -0.000214 -0.002925 -0.002449 0.005806 0.002746
# 2 -0.000214 0.008674 0.000993 -0.003271 -0.005284 0.002954
# 3 -0.002925 0.000993 0.003802 0.001267 0.020570 0.000215
# 4 -0.002449 -0.003271 0.001267 0.040073 0.003210 -0.005251
# 5 0.005806 -0.005284 0.020570 0.003210 0.010664 -0.004899
# 6 0.002746 0.002954 0.000215 -0.005251 -0.004899 0.023085
#
#
# Mechanical properties :
#
#
# Convention : Reuss Voigt Hill
#
# Bulk Modulus (GPa) = 48.55946 23.55050 36.05498
# Shear Modulus (GPa) = 45.50997 24.39005 34.95001
#
# Velocity S-wave (km/s) = 4.17632 3.05736 3.65986
# Velocity P-wave (km/s) = 6.47039 4.63562 5.62827
#
# Compressibility (1/GPa) = 0.02059331
#
# Stress axis : x y z
#
# Youngs Moduli (GPa) = 80.57605 115.29121 263.00089
#
# Poissons Ratio (x) = 0.02471 0.76940
# Poissons Ratio (y) = 0.01727 -0.26120
# Poissons Ratio (z) = 0.23572 -0.11450
#
# Static dielectric constant tensor:
#      x y z
#    x 2.133400 0.079580 -0.049330 
#    y 0.079580 2.239640 0.033870 
#    z -0.049330 0.033870 2.012070 
# 
# From -- ./inp_files/529660.got.cif
#   From: 2010.05.17/outbox.cif.g08.bks.cpg/sg2_265_cif.got.tgz:529660.got - 2010.06.03 11:33:40.
