data_PCOD9014038
_publ_section_title
;
Structure prediction by ZEFSAII (Michael W. Deem and Ramdas Pophale) SiO2 
 PCOD9014038
Probable space group: P -1
;
_chemical_formula_sum "Si O2"
_cell_formula_units_Z 16
_cell_length_a 12.787083
_cell_length_b 9.518098
_cell_length_c 21.449623
_cell_angle_alpha 28.415343
_cell_angle_beta 27.705503
_cell_angle_gamma 41.390243
_cell_volume 572.772128
_symmetry_space_group_name_H-M "P -1"
_symmetry_group_IT_number 2
_symmetry_cell_setting 'triclinic'
loop_
_space_group_symop_operation_xyz
x,y,z
-x,-y,-z
loop_
_atom_site_type_symbol
_atom_site_label
_atom_site_fract_x
_atom_site_fract_y
_atom_site_fract_z
Si Si1 0.881871 0.644297 0.092312
Si Si2 0.280868 0.484399 0.539815
Si Si3 0.745314 0.704699 0.010590
Si Si4 0.045235 0.864311 0.595595
Si Si5 0.625841 0.044556 0.516405
Si Si6 0.412026 0.367418 0.007595
Si Si7 0.653684 0.074774 0.101568
Si Si8 0.102325 0.296801 0.575806
O O1 0.787853 0.345415 0.293967
O O2 0.879120 0.930375 0.024262
O O3 0.119317 0.576976 0.965699
O O4 0.706238 0.682646 0.113328
O O5 0.131860 0.554079 0.650443
O O6 0.399529 0.184184 0.596971
O O7 0.468215 0.780510 0.322546
O O8 0.148192 0.454825 0.556091
O O9 0.564271 0.691607 0.055373
O O10 0.921721 0.003470 0.794212
O O11 0.244977 0.058868 0.451313
O O12 0.821524 0.824849 0.770702
O O13 0.000000 0.000000 0.500000
O O14 0.665122 0.814005 0.531005
O O15 0.599292 0.266727 0.994150
O O16 0.364077 0.698088 0.921861
O O17 0.000000 0.500000 0.500000
#
# Coordination Sequence:
#
# PCOD9014038 Si02
#       8
#     2   2   2   2   2   2   2   2
#     4   9  20  41  64  89 127 161 214 258 315 374
#     4  11  23  40  64  97 132 166 212 264 321 380
#     4  10  21  41  66  95 121 167 220 258 311 383
#     4  12  22  41  68  94 127 171 216 265 318 390
#     4  10  22  44  63  95 130 166 213 270 321 377
#     4  11  22  42  64  92 132 166 214 260 315 380
#     4  10  23  41  62  93 132 167 206 267 315 376
#     4  11  21  39  67  96 128 170 213 265 317 378
#
# _framework density 27.934318999999999
#
# number of rings (size 3 to 8) (size 9 to 14) (size 15 to 20)
#    0.000    1.500    3.750    2.250    1.750    1.000 
#    0.000    6.250    0.000    0.000    0.000    0.000 
#    0.000    0.000    0.000    0.000    0.000    0.000 
#
# Total GULP energy -89707.566255 kJ/mol
# GULP energy per Si atom -5606.722891 kJ/mol
# Density = 2.787074 g / cm^3
# Si number density = 27.934319 Si / 1000 Ang^3
#
#
#
# Elastic Constant Matrix: (Units=GPa)
#
#
# Indices 1 2 3 4 5 6 
#
# 1 141.4544 -6.4106 17.6653 -6.9750 14.1668 26.1463
# 2 -6.4106 139.9416 4.3258 -12.2837 -0.4984 11.3095
# 3 17.6653 4.3258 83.5249 -23.5377 -4.9446 6.2569
# 4 -6.9750 -12.2837 -23.5377 40.6652 11.4059 -3.7185
# 5 14.1668 -0.4984 -4.9446 11.4059 34.5381 -10.0429
# 6 26.1463 11.3095 6.2569 -3.7185 -10.0429 47.8403
#
#
#
# Elastic Compliance Matrix: (Units=1/GPa)
#
#
# Indices 1 2 3 4 5 6 
#
# 1 0.009238 0.001172 -0.001224 0.002507 -0.006625 -0.006362
# 2 0.001172 0.007667 0.000286 0.003028 -0.002114 -0.002699
# 3 -0.001224 0.000286 0.014608 0.008371 -0.000382 -0.000739
# 4 0.002507 0.003028 0.008371 0.033824 -0.011839 -0.003037
# 5 -0.006625 -0.002114 -0.000382 -0.011839 0.038810 0.011398
# 6 -0.006362 -0.002699 -0.000739 -0.003037 0.011398 0.027271
#
#
# Mechanical properties :
#
#
# Convention : Reuss Voigt Hill
#
# Bulk Modulus (GPa) = 31.26896 44.00908 37.63902
# Shear Modulus (GPa) = 35.30753 47.89807 41.60280
#
# Velocity S-wave (km/s) = 3.55906 4.14535 3.86334
# Velocity P-wave (km/s) = 5.30163 6.22098 5.77961
#
# Compressibility (1/GPa) = 0.03198059
#
# Stress axis : x y z
#
# Youngs Moduli (GPa) = 108.24308 130.42814 68.45388
#
# Poissons Ratio (x) = -0.15281 0.08378
# Poissons Ratio (y) = -0.12682 -0.01955
# Poissons Ratio (z) = 0.13247 -0.03724
#
# Static dielectric constant tensor:
#      x y z
#    x 2.197730 -0.075990 0.007380 
#    y -0.075990 2.185250 0.040830 
#    z 0.007380 0.040830 2.155630 
# 
# From -- ./inp_files/593901.got.cif
#   From: 2010.05.17/outbox.cif.g08.bks.cpg/sg2_297_cif.got.tgz:593901.got - 2010.06.03 11:33:40.
