data_PCOD9014477
_publ_section_title
;
Structure prediction by ZEFSAII (Michael W. Deem and Ramdas Pophale) SiO2 
 PCOD9014477
Probable space group: P -1
;
_chemical_formula_sum "Si O2"
_cell_formula_units_Z 16
_cell_length_a 8.667944
_cell_length_b 11.768740
_cell_length_c 17.217674
_cell_angle_alpha 60.859833
_cell_angle_beta 149.566191
_cell_angle_gamma 128.784670
_cell_volume 687.205723
_symmetry_space_group_name_H-M "P -1"
_symmetry_group_IT_number 2
_symmetry_cell_setting 'triclinic'
loop_
_space_group_symop_operation_xyz
x,y,z
-x,-y,-z
loop_
_atom_site_type_symbol
_atom_site_label
_atom_site_fract_x
_atom_site_fract_y
_atom_site_fract_z
Si Si1 0.611704 0.958017 0.320061
Si Si2 0.348237 0.820411 0.096324
Si Si3 0.647470 0.352885 0.412954
Si Si4 0.767186 0.472247 0.833043
Si Si5 0.734739 0.867968 0.810173
Si Si6 0.865552 0.313518 0.683337
Si Si7 0.757531 0.430837 0.138889
Si Si8 0.628222 0.818661 0.053523
O O1 0.569083 0.945639 0.212231
O O2 0.354950 0.803272 0.305504
O O3 0.476681 0.073509 0.248505
O O4 0.000000 0.000000 0.500000
O O5 0.475780 0.700226 0.212788
O O6 0.403053 0.829648 0.023770
O O7 0.949459 0.780433 0.958501
O O8 0.379919 0.415841 0.271065
O O9 0.527435 0.226638 0.338816
O O10 0.651096 0.290009 0.520126
O O11 0.000000 0.500000 0.500000
O O12 0.984926 0.498244 0.842803
O O13 0.000000 0.500000 0.000000
O O14 0.065334 0.018288 0.877854
O O15 0.019236 0.486763 0.715923
O O16 0.181612 0.279831 0.810836
O O17 0.500000 0.500000 0.000000
O O18 0.565497 0.260993 0.084212
#
# Coordination Sequence:
#
# PCOD9014477 Si02
#       8
#     2   2   2   2   2   2   2   2
#     4  11  27  46  71 105 144 189 221 290 359 411
#     4  12  23  45  73 100 140 181 240 285 346 414
#     4  12  28  45  72 104 139 186 239 289 352 410
#     4  12  23  44  71 100 133 184 236 287 338 414
#     4  11  26  46  69 105 140 181 242 287 341 423
#     4  10  24  45  68 103 146 182 231 289 347 421
#     4  10  21  41  68 100 137 178 230 281 351 404
#     4  10  22  41  74 103 135 189 231 288 351 410
#
# _framework density 23.282695
#
# number of rings (size 3 to 8) (size 9 to 14) (size 15 to 20)
#    0.000    1.000    3.750    1.500    7.000    1.500 
#    2.250    0.000    0.000    0.000    0.000    0.000 
#    0.000    0.000    0.000    0.000    0.000    0.000 
#
# Total GULP energy -89230.142797 kJ/mol
# GULP energy per Si atom -5576.883925 kJ/mol
# Density = 2.322970 g / cm^3
# Si number density = 23.282695 Si / 1000 Ang^3
#
#
#
# Elastic Constant Matrix: (Units=GPa)
#
#
# Indices 1 2 3 4 5 6 
#
# 1 109.3207 55.7739 42.9295 9.3209 7.4772 -35.9869
# 2 55.7739 133.5410 31.9454 19.4432 -19.8665 -29.0013
# 3 42.9295 31.9454 104.3752 12.0918 -13.1913 -16.5900
# 4 9.3209 19.4432 12.0918 45.9441 -6.5944 -5.8594
# 5 7.4772 -19.8665 -13.1913 -6.5944 34.4758 4.3400
# 6 -35.9869 -29.0013 -16.5900 -5.8594 4.3400 40.7591
#
#
#
# Elastic Compliance Matrix: (Units=1/GPa)
#
#
# Indices 1 2 3 4 5 6 
#
# 1 0.018672 -0.005607 -0.005514 -0.000066 -0.010838 0.011396
# 2 -0.005607 0.011731 0.000314 -0.002557 0.007307 0.002378
# 3 -0.005514 0.000314 0.012626 -0.001527 0.005961 -0.000361
# 4 -0.000066 -0.002557 -0.001527 0.023691 0.002406 0.000650
# 5 -0.010838 0.007307 0.005961 0.002406 0.039032 -0.005753
# 6 0.011396 0.002378 -0.000361 0.000650 -0.005753 0.036848
#
#
# Mechanical properties :
#
#
# Convention : Reuss Voigt Hill
#
# Bulk Modulus (GPa) = 46.70015 67.61494 57.15754
# Shear Modulus (GPa) = 29.17945 38.67502 33.92723
#
# Velocity S-wave (km/s) = 3.54399 4.08009 3.82145
# Velocity P-wave (km/s) = 6.07025 7.16241 6.63882
#
# Compressibility (1/GPa) = 0.02141321
#
# Stress axis : x y z
#
# Youngs Moduli (GPa) = 53.55679 85.24359 79.20270
#
# Poissons Ratio (x) = 0.47796 0.43675
# Poissons Ratio (y) = 0.30029 -0.02483
# Poissons Ratio (z) = 0.29533 -0.02673
#
# Static dielectric constant tensor:
#      x y z
#    x 1.868360 0.024750 -0.013080 
#    y 0.024750 1.936030 0.074310 
#    z -0.013080 0.074310 1.853660 
# 
# From -- ./inp_files/559127.got.cif
#   From: 2010.05.17/outbox.cif.g08.bks.cpg/sg2_280_cif.got.tgz:559127.got - 2010.06.03 11:33:40.
