data_PCOD9014759
_publ_section_title
;
Structure prediction by ZEFSAII (Michael W. Deem and Ramdas Pophale) SiO2 
 PCOD9014759
Probable space group: P -1
;
_chemical_formula_sum "Si O2"
_cell_formula_units_Z 14
_cell_length_a 11.693335
_cell_length_b 6.916122
_cell_length_c 10.302232
_cell_angle_alpha 136.968603
_cell_angle_beta 97.198866
_cell_angle_gamma 80.423517
_cell_volume 560.621127
_symmetry_space_group_name_H-M "P -1"
_symmetry_group_IT_number 2
_symmetry_cell_setting 'triclinic'
loop_
_space_group_symop_operation_xyz
x,y,z
-x,-y,-z
loop_
_atom_site_type_symbol
_atom_site_label
_atom_site_fract_x
_atom_site_fract_y
_atom_site_fract_z
Si Si1 0.486625 0.804713 0.574496
Si Si2 0.307482 0.639860 0.297641
Si Si3 0.123308 0.697692 0.977971
Si Si4 0.728057 0.816301 0.144297
Si Si5 0.887229 0.296823 0.314316
Si Si6 0.934559 0.023931 0.639139
Si Si7 0.737148 0.773301 0.673695
O O1 0.500000 0.500000 0.500000
O O2 0.432170 0.742696 0.397028
O O3 0.612543 0.898363 0.662704
O O4 0.384107 0.010839 0.725239
O O5 0.273344 0.460277 0.330356
O O6 0.200175 0.879773 0.372238
O O7 0.313061 0.409437 0.072797
O O8 0.054798 0.745776 0.128533
O O9 0.199783 0.965963 0.132910
O O10 0.196478 0.388946 0.845319
O O11 0.930652 0.289691 0.167553
O O12 0.805438 0.040929 0.199689
O O13 0.805190 0.583982 0.478458
O O14 0.990544 0.233625 0.400564
O O15 0.000000 0.000000 0.500000
#
# Coordination Sequence:
#
# PCOD9014759 Si02
#       7
#     2   2   2   2   2   2   2
#     4  10  21  41  74 104 133 192 234 283 349 419
#     4  10  21  41  69 104 134 184 239 280 345 417
#     4  11  28  44  67 112 144 177 241 292 351 423
#     4  11  23  44  72  99 145 185 234 287 350 417
#     4  12  24  46  73 102 144 190 231 292 354 416
#     4  11  23  46  75 101 140 190 235 290 352 422
#     4  11  23  44  69 105 143 182 239 292 347 416
#
# _framework density 24.972301999999999
#
# number of rings (size 3 to 8) (size 9 to 14) (size 15 to 20)
#    0.000    1.143    5.714    0.429    0.000   10.286 
#    2.571    5.000    0.000    0.000    0.000    0.000 
#    0.000    0.000    0.000    0.000    0.000    0.000 
#
# Total GULP energy -78231.666405 kJ/mol
# GULP energy per Si atom -5587.976172 kJ/mol
# Density = 2.491546 g / cm^3
# Si number density = 24.972302 Si / 1000 Ang^3
#
#
#
# Elastic Constant Matrix: (Units=GPa)
#
#
# Indices 1 2 3 4 5 6 
#
# 1 96.1732 37.0953 34.2441 5.7816 3.4210 -22.0854
# 2 37.0953 203.2298 73.6386 -6.3104 -7.9971 -25.1281
# 3 34.2441 73.6386 122.9357 19.9985 -10.2499 -4.2730
# 4 5.7816 -6.3104 19.9985 58.1100 -7.5551 -8.1246
# 5 3.4210 -7.9971 -10.2499 -7.5551 52.3690 5.3528
# 6 -22.0854 -25.1281 -4.2730 -8.1246 5.3528 28.4063
#
#
#
# Elastic Compliance Matrix: (Units=1/GPa)
#
#
# Indices 1 2 3 4 5 6 
#
# 1 0.014534 0.000283 -0.004255 0.001343 -0.002753 0.011813
# 2 0.000283 0.007698 -0.005018 0.003548 -0.000060 0.007300
# 3 -0.004255 -0.005018 0.013116 -0.005445 0.002083 -0.007724
# 4 0.001343 0.003548 -0.005445 0.020787 0.001464 0.009033
# 5 -0.002753 -0.000060 0.002083 0.001464 0.020428 -0.005310
# 6 0.011813 0.007300 -0.007724 0.009033 -0.005310 0.053268
#
#
# Mechanical properties :
#
#
# Convention : Reuss Voigt Hill
#
# Bulk Modulus (GPa) = 57.58019 79.14386 68.36203
# Shear Modulus (GPa) = 32.55198 46.26778 39.40988
#
# Velocity S-wave (km/s) = 3.61435 4.30904 3.97690
# Velocity P-wave (km/s) = 6.36598 7.51789 6.96579
#
# Compressibility (1/GPa) = 0.01736708
#
# Stress axis : x y z
#
# Youngs Moduli (GPa) = 68.80488 129.91117 76.24064
#
# Poissons Ratio (x) = -0.03677 0.32443
# Poissons Ratio (y) = -0.01947 0.38258
# Poissons Ratio (z) = 0.29279 0.65190
#
# Static dielectric constant tensor:
#      x y z
#    x 2.159870 0.141720 0.099330 
#    y 0.141720 2.068440 0.030360 
#    z 0.099330 0.030360 1.998020 
# 
# From -- ./inp_files/516476.got.cif
#   From: 2010.05.17/outbox.cif.g08.bks.cpg/sg2_259_cif.got.tgz:516476.got - 2010.06.03 11:33:40.
