data_PCOD9014190
_publ_section_title
;
Structure prediction by ZEFSAII (Michael W. Deem and Ramdas Pophale) SiO2 
 PCOD9014190
Probable space group: P -1
;
_chemical_formula_sum "Si O2"
_cell_formula_units_Z 16
_cell_length_a 9.619129
_cell_length_b 12.678943
_cell_length_c 13.506179
_cell_angle_alpha 55.849702
_cell_angle_beta 40.089501
_cell_angle_gamma 37.957418
_cell_volume 648.810169
_symmetry_space_group_name_H-M "P -1"
_symmetry_group_IT_number 2
_symmetry_cell_setting 'triclinic'
loop_
_space_group_symop_operation_xyz
x,y,z
-x,-y,-z
loop_
_atom_site_type_symbol
_atom_site_label
_atom_site_fract_x
_atom_site_fract_y
_atom_site_fract_z
Si Si1 0.450162 0.897428 0.648836
Si Si2 0.163174 0.665017 0.095843
Si Si3 0.829635 0.385459 0.416439
Si Si4 0.303440 0.009522 0.386632
Si Si5 0.270140 0.333291 0.546975
Si Si6 0.290226 0.142162 0.922189
Si Si7 0.792591 0.120256 0.921471
Si Si8 0.197102 0.340744 0.051004
O O1 0.538897 0.922189 0.692919
O O2 0.651704 0.708457 0.589772
O O3 0.500000 0.000000 0.500000
O O4 0.112610 0.002610 0.763968
O O5 0.168916 0.814583 0.033450
O O6 0.982014 0.665779 0.281096
O O7 0.985628 0.698132 0.076992
O O8 0.500000 0.500000 0.000000
O O9 0.500000 0.500000 0.500000
O O10 0.810933 0.497116 0.455481
O O11 0.974559 0.192125 0.469283
O O12 0.026868 0.365675 0.229796
O O13 0.435199 0.840915 0.468001
O O14 0.418969 0.930899 0.255593
O O15 0.265846 0.192458 0.021260
O O16 0.276825 0.999021 0.984504
O O17 0.501870 0.290237 0.937080
O O18 0.000000 0.500000 0.000000
#
# Coordination Sequence:
#
# PCOD9014190 Si02
#       8
#     2   2   2   2   2   2   2   2
#     4  10  21  41  67 102 132 174 228 279 349 417
#     4  11  22  40  68 100 132 177 223 286 345 404
#     4  12  28  46  68 102 140 186 235 283 346 421
#     4  10  22  45  70  97 140 173 229 292 340 412
#     4  10  23  45  67  97 143 176 224 285 353 408
#     4  11  23  41  66  99 132 175 228 283 343 399
#     4  12  22  39  72  95 128 176 230 278 337 415
#     4  12  27  46  66 100 142 181 233 288 346 418
#
# _framework density 24.660525
#
# number of rings (size 3 to 8) (size 9 to 14) (size 15 to 20)
#    0.000    1.000    5.000    3.750    1.750    3.000 
#    2.250    0.000    0.000    0.000    0.000    0.000 
#    0.000    0.000    0.000    0.000    0.000    0.000 
#
# Total GULP energy -89387.484559 kJ/mol
# GULP energy per Si atom -5586.717785 kJ/mol
# Density = 2.460440 g / cm^3
# Si number density = 24.660525 Si / 1000 Ang^3
#
#
#
# Elastic Constant Matrix: (Units=GPa)
#
#
# Indices 1 2 3 4 5 6 
#
# 1 129.1751 28.8706 46.7497 27.5500 -2.7833 2.2146
# 2 28.8706 114.7737 22.0369 31.3373 0.9223 -5.4451
# 3 46.7497 22.0369 84.4438 33.8680 -4.4792 -5.0006
# 4 27.5500 31.3373 33.8680 44.1489 1.2181 -2.9167
# 5 -2.7833 0.9223 -4.4792 1.2181 38.2314 17.2673
# 6 2.2146 -5.4451 -5.0006 -2.9167 17.2673 54.3716
#
#
#
# Elastic Compliance Matrix: (Units=1/GPa)
#
#
# Indices 1 2 3 4 5 6 
#
# 1 0.010123 -0.001165 -0.004454 -0.002188 0.000922 -0.001349
# 2 -0.001165 0.010979 0.000892 -0.007675 -0.000432 0.000954
# 3 -0.004454 0.000892 0.019306 -0.012670 0.001988 0.000735
# 4 -0.002188 -0.007675 -0.012670 0.039362 -0.003308 0.001317
# 5 0.000922 -0.000432 0.001988 -0.003308 0.031062 -0.009940
# 6 -0.001349 0.000954 0.000735 0.001317 -0.009940 0.021837
#
#
# Mechanical properties :
#
#
# Convention : Reuss Voigt Hill
#
# Bulk Modulus (GPa) = 32.30648 58.18968 45.24808
# Shear Modulus (GPa) = 32.79947 42.73275 37.76611
#
# Velocity S-wave (km/s) = 3.65093 4.16726 3.91761
# Velocity P-wave (km/s) = 5.55889 6.84121 6.23312
#
# Compressibility (1/GPa) = 0.03095354
#
# Stress axis : x y z
#
# Youngs Moduli (GPa) = 98.78095 91.08306 51.79804
#
# Poissons Ratio (x) = 0.10614 0.23070
# Poissons Ratio (y) = 0.11511 -0.04620
# Poissons Ratio (z) = 0.43995 -0.08123
#
# Static dielectric constant tensor:
#      x y z
#    x 2.024150 -0.093350 -0.030630 
#    y -0.093350 2.207460 0.113440 
#    z -0.030630 0.113440 2.004770 
# 
# From -- ./inp_files/357400.got.cif
#   From: 2010.05.17/outbox.cif.g08.bks.cpg/sg2_179_cif.got.tgz:357400.got - 2010.06.03 11:33:40.
