data_PCOD9014408
_publ_section_title
;
Structure prediction by ZEFSAII (Michael W. Deem and Ramdas Pophale) SiO2 
 PCOD9014408
Probable space group: P -1
;
_chemical_formula_sum "Si O2"
_cell_formula_units_Z 16
_cell_length_a 12.143403
_cell_length_b 22.116342
_cell_length_c 8.154796
_cell_angle_alpha 128.421116
_cell_angle_beta 29.190855
_cell_angle_gamma 141.414538
_cell_volume 652.674310
_symmetry_space_group_name_H-M "P -1"
_symmetry_group_IT_number 2
_symmetry_cell_setting 'triclinic'
loop_
_space_group_symop_operation_xyz
x,y,z
-x,-y,-z
loop_
_atom_site_type_symbol
_atom_site_label
_atom_site_fract_x
_atom_site_fract_y
_atom_site_fract_z
Si Si1 0.438194 0.316357 0.689869
Si Si2 0.149522 0.151945 0.553529
Si Si3 0.426781 0.069270 0.647653
Si Si4 0.707991 0.407074 0.808067
Si Si5 0.698593 0.263866 0.804008
Si Si6 0.014707 0.368320 0.866065
Si Si7 0.521406 0.538836 0.329757
Si Si8 0.179305 0.016013 0.526899
O O1 0.168435 0.220996 0.785394
O O2 0.484478 0.317383 0.823395
O O3 0.456196 0.410386 0.780977
O O4 0.726508 0.339958 0.275669
O O5 0.235864 0.094810 0.452628
O O6 0.398718 0.220190 0.211489
O O7 0.873282 0.070910 0.664533
O O8 0.650071 0.181818 0.609565
O O9 0.390346 0.059474 0.481681
O O10 0.500000 0.000000 0.500000
O O11 0.126971 0.028968 0.061359
O O12 0.790849 0.360962 0.754770
O O13 0.000000 0.500000 0.500000
O O14 0.565624 0.456875 0.127664
O O15 0.917229 0.293539 0.717858
O O16 0.212399 0.478553 0.717254
O O17 0.219559 0.374811 0.747077
#
# Coordination Sequence:
#
# PCOD9014408 Si02
#       8
#     2   2   2   2   2   2   2   2
#     4  11  22  40  62  92 127 162 218 264 316 378
#     4   9  20  39  67  89 123 173 202 261 316 373
#     4  10  21  41  67  97 126 162 200 261 324 380
#     4  12  24  42  64  90 132 174 214 273 321 368
#     4  10  23  41  64  91 130 165 211 265 318 375
#     4  10  23  40  62  88 124 164 212 264 315 375
#     4  11  24  39  65  89 122 172 218 261 324 373
#     4   9  19  42  65  92 130 159 205 253 322 383
#
# _framework density 24.514526
#
# number of rings (size 3 to 8) (size 9 to 14) (size 15 to 20)
#    0.000    1.750    1.250    2.250    7.000    1.000 
#    9.000    5.625    0.000    0.000    0.000    0.000 
#    0.000    0.000    0.000    0.000    0.000    0.000 
#
# Total GULP energy -89427.817262 kJ/mol
# GULP energy per Si atom -5589.238579 kJ/mol
# Density = 2.445873 g / cm^3
# Si number density = 24.514526 Si / 1000 Ang^3
#
#
#
# Elastic Constant Matrix: (Units=GPa)
#
#
# Indices 1 2 3 4 5 6 
#
# 1 130.2632 36.8263 7.3827 10.8071 8.7136 38.6417
# 2 36.8263 92.4331 13.3473 5.7703 5.7700 25.5002
# 3 7.3827 13.3473 72.9242 6.3901 6.3416 9.7692
# 4 10.8071 5.7703 6.3901 19.9800 1.4115 12.7840
# 5 8.7136 5.7700 6.3416 1.4115 21.8490 -2.7382
# 6 38.6417 25.5002 9.7692 12.7840 -2.7382 59.1584
#
#
#
# Elastic Compliance Matrix: (Units=1/GPa)
#
#
# Indices 1 2 3 4 5 6 
#
# 1 0.010418 -0.002271 0.000630 -0.001096 -0.004406 -0.005897
# 2 -0.002271 0.013237 -0.001450 0.000806 -0.002758 -0.004284
# 3 0.000630 -0.001450 0.014793 -0.003260 -0.004167 -0.001718
# 4 -0.001096 0.000806 -0.003260 0.059524 -0.004197 -0.012150
# 5 -0.004406 -0.002758 -0.004167 -0.004197 0.050739 0.008011
# 6 -0.005897 -0.004284 -0.001718 -0.012150 0.008011 0.025883
#
#
# Mechanical properties :
#
#
# Convention : Reuss Voigt Hill
#
# Bulk Modulus (GPa) = 30.99224 45.63700 38.31462
# Shear Modulus (GPa) = 26.10568 36.06841 31.08705
#
# Velocity S-wave (km/s) = 3.26683 3.83992 3.56491
# Velocity P-wave (km/s) = 5.18647 6.19005 5.71035
#
# Compressibility (1/GPa) = 0.03226614
#
# Stress axis : x y z
#
# Youngs Moduli (GPa) = 95.98572 75.54731 67.60171
#
# Poissons Ratio (x) = 0.17160 -0.04261
# Poissons Ratio (y) = 0.21802 0.09799
# Poissons Ratio (z) = -0.06049 0.10951
#
# Static dielectric constant tensor:
#      x y z
#    x 1.920170 0.076800 0.033620 
#    y 0.076800 1.961720 -0.017080 
#    z 0.033620 -0.017080 2.019840 
# 
# From -- ./inp_files/283191.got.cif
#   From: 2010.05.17/outbox.cif.g08.bks.cpg/sg2_142_cif.got.tgz:283191.got - 2010.06.03 11:33:40.
