data_PCOD9014487
_publ_section_title
;
Structure prediction by ZEFSAII (Michael W. Deem and Ramdas Pophale) SiO2 
 PCOD9014487
Probable space group: P -1
;
_chemical_formula_sum "Si O2"
_cell_formula_units_Z 14
_cell_length_a 9.228103
_cell_length_b 8.477993
_cell_length_c 16.094026
_cell_angle_alpha 79.266776
_cell_angle_beta 146.751399
_cell_angle_gamma 117.377632
_cell_volume 559.849345
_symmetry_space_group_name_H-M "P -1"
_symmetry_group_IT_number 2
_symmetry_cell_setting 'triclinic'
loop_
_space_group_symop_operation_xyz
x,y,z
-x,-y,-z
loop_
_atom_site_type_symbol
_atom_site_label
_atom_site_fract_x
_atom_site_fract_y
_atom_site_fract_z
Si Si1 0.708950 0.675939 0.160522
Si Si2 0.243311 0.347952 0.265382
Si Si3 0.691052 0.991411 0.512084
Si Si4 0.445429 0.061025 0.225269
Si Si5 0.221330 0.344290 0.076921
Si Si6 0.217845 0.576386 0.371370
Si Si7 0.364507 0.059233 0.002543
O O1 0.407469 0.517954 0.084538
O O2 0.945513 0.609646 0.260031
O O3 0.618913 0.747677 0.029534
O O4 0.937378 0.876458 0.301032
O O5 0.218310 0.428659 0.157399
O O6 0.106047 0.400190 0.272465
O O7 0.599120 0.422750 0.458557
O O8 0.013368 0.116793 0.159987
O O9 0.652572 0.074256 0.400227
O O10 0.509269 0.760805 0.441925
O O11 0.500000 0.000000 0.500000
O O12 0.409275 0.241196 0.193978
O O13 0.526685 0.067622 0.166375
O O14 0.117709 0.843227 0.097792
O O15 0.500000 0.000000 0.000000
#
# Coordination Sequence:
#
# PCOD9014487 Si02
#       7
#     2   2   2   2   2   2   2
#     4  11  24  43  75 102 133 178 242 282 331 418
#     4  10  22  45  65 100 141 179 221 288 349 405
#     4  10  21  41  68 101 133 177 228 284 337 402
#     4  10  24  43  69  95 145 184 224 280 358 407
#     4  10  23  41  68 102 136 180 230 283 344 411
#     4  10  22  39  73  99 135 180 227 279 352 400
#     4  11  26  46  67 101 143 182 225 290 345 410
#
# _framework density 25.006727000000001
#
# number of rings (size 3 to 8) (size 9 to 14) (size 15 to 20)
#    0.000    1.714    1.429    1.714   12.000    5.143 
#    2.571    4.286    0.000    0.000    0.000    0.000 
#    0.000    0.000    0.000    0.000    0.000    0.000 
#
# Total GULP energy -78320.248956 kJ/mol
# GULP energy per Si atom -5594.303497 kJ/mol
# Density = 2.494981 g / cm^3
# Si number density = 25.006727 Si / 1000 Ang^3
#
#
#
# Elastic Constant Matrix: (Units=GPa)
#
#
# Indices 1 2 3 4 5 6 
#
# 1 108.0069 25.9783 28.6976 -17.1361 -18.8380 14.1259
# 2 25.9783 83.3788 34.1868 -6.0383 -4.2543 34.5866
# 3 28.6976 34.1868 110.9064 -8.5594 -29.1016 10.2979
# 4 -17.1361 -6.0383 -8.5594 38.8997 3.5257 0.1708
# 5 -18.8380 -4.2543 -29.1016 3.5257 39.0477 -6.9894
# 6 14.1259 34.5866 10.2979 0.1708 -6.9894 42.2415
#
#
#
# Elastic Compliance Matrix: (Units=1/GPa)
#
#
# Indices 1 2 3 4 5 6 
#
# 1 0.011555 -0.002314 -0.000752 0.004191 0.004185 -0.001110
# 2 -0.002314 0.022035 -0.006207 0.001699 -0.006509 -0.016839
# 3 -0.000752 -0.006207 0.013333 0.000764 0.009482 0.003649
# 4 0.004191 0.001699 0.000764 0.028028 -0.000317 -0.003145
# 5 0.004185 -0.006509 0.009482 -0.000317 0.035352 0.007469
# 6 -0.001110 -0.016839 0.003649 -0.003145 0.007469 0.038191
#
#
# Mechanical properties :
#
#
# Convention : Reuss Voigt Hill
#
# Bulk Modulus (GPa) = 35.23972 53.33528 44.28750
# Shear Modulus (GPa) = 28.32877 38.26641 33.29759
#
# Velocity S-wave (km/s) = 3.36943 3.91608 3.65299
# Velocity P-wave (km/s) = 5.40926 6.46701 5.96164
#
# Compressibility (1/GPa) = 0.02837707
#
# Stress axis : x y z
#
# Youngs Moduli (GPa) = 86.54118 45.38145 75.00445
#
# Poissons Ratio (x) = 0.10502 0.05640
# Poissons Ratio (y) = 0.20028 0.46554
# Poissons Ratio (z) = 0.06507 0.28168
#
# Static dielectric constant tensor:
#      x y z
#    x 2.023880 -0.013710 -0.020440 
#    y -0.013710 2.014360 0.027870 
#    z -0.020440 0.027870 1.999960 
# 
# From -- ./inp_files/495006.got.cif
#   From: 2010.05.17/outbox.cif.g08.bks.cpg/sg2_248_cif.got.tgz:495006.got - 2010.06.03 11:33:40.
