data_PCOD9014142
_publ_section_title
;
Structure prediction by ZEFSAII (Michael W. Deem and Ramdas Pophale) SiO2 
 PCOD9014142
Probable space group: P -1
;
_chemical_formula_sum "Si O2"
_cell_formula_units_Z 14
_cell_length_a 15.054890
_cell_length_b 8.999838
_cell_length_c 7.080016
_cell_angle_alpha 77.809031
_cell_angle_beta 75.984468
_cell_angle_gamma 132.401861
_cell_volume 585.919848
_symmetry_space_group_name_H-M "P -1"
_symmetry_group_IT_number 2
_symmetry_cell_setting 'triclinic'
loop_
_space_group_symop_operation_xyz
x,y,z
-x,-y,-z
loop_
_atom_site_type_symbol
_atom_site_label
_atom_site_fract_x
_atom_site_fract_y
_atom_site_fract_z
Si Si1 0.995208 0.457360 0.736963
Si Si2 0.304171 0.434734 0.818210
Si Si3 0.392452 0.965990 0.694504
Si Si4 0.398978 0.092098 0.285719
Si Si5 0.697318 0.913622 0.037838
Si Si6 0.746668 0.405123 0.536149
Si Si7 0.152988 0.446568 0.133683
O O1 0.978166 0.602012 0.801137
O O2 0.000000 0.500000 0.500000
O O3 0.130241 0.521678 0.669828
O O4 0.851025 0.182544 0.923055
O O5 0.441053 0.651032 0.820673
O O6 0.283060 0.710929 0.910602
O O7 0.310412 0.263997 0.831622
O O8 0.164478 0.309119 0.042083
O O9 0.694582 0.471279 0.405111
O O10 0.500000 0.000000 0.500000
O O11 0.420297 0.121199 0.805223
O O12 0.328380 0.113108 0.166409
O O13 0.331791 0.000330 0.553602
O O14 0.365175 0.875598 0.286723
O O15 0.811042 0.536813 0.668585
#
# Coordination Sequence:
#
# PCOD9014142 Si02
#       7
#     2   2   2   2   2   2   2
#     4   9  19  44  70  92 121 179 228 257 320 376
#     4  12  26  40  62 106 135 167 213 266 346 379
#     4  11  21  41  66  98 120 174 231 252 316 394
#     4  12  22  42  67  95 131 177 217 258 325 395
#     4  11  26  44  64  97 142 166 208 285 323 377
#     4  11  22  42  73  92 132 174 224 276 295 396
#     4  10  21  41  66  99 123 175 220 267 324 374
#
# _framework density 23.894051000000001
#
# number of rings (size 3 to 8) (size 9 to 14) (size 15 to 20)
#    0.000    1.143    7.143    0.857    0.000    6.286 
#    0.000    2.857    0.000    0.000    0.000    0.000 
#    0.000    0.000    0.000    0.000    0.000    0.000 
#
# Total GULP energy -78046.885042 kJ/mol
# GULP energy per Si atom -5574.777503 kJ/mol
# Density = 2.383967 g / cm^3
# Si number density = 23.894051 Si / 1000 Ang^3
#
#
#
# Elastic Constant Matrix: (Units=GPa)
#
#
# Indices 1 2 3 4 5 6 
#
# 1 128.1956 39.9940 44.2681 -10.7678 11.5990 -13.1123
# 2 39.9940 51.1306 20.4750 -1.4427 -1.0743 -15.3005
# 3 44.2681 20.4750 103.2702 11.1022 -10.6969 -6.4400
# 4 -10.7678 -1.4427 11.1022 26.8442 0.7462 3.5888
# 5 11.5990 -1.0743 -10.6969 0.7462 49.7929 7.0734
# 6 -13.1123 -15.3005 -6.4400 3.5888 7.0734 40.4786
#
#
#
# Elastic Compliance Matrix: (Units=1/GPa)
#
#
# Indices 1 2 3 4 5 6 
#
# 1 0.013150 -0.007891 -0.005267 0.007074 -0.004557 0.000608
# 2 -0.007891 0.028693 -0.001469 -0.002122 0.001028 0.008064
# 3 -0.005267 -0.001469 0.013508 -0.007876 0.004237 -0.000154
# 4 0.007074 -0.002122 -0.007876 0.043736 -0.003614 -0.003010
# 5 -0.004557 0.001028 0.004237 -0.003614 0.022708 -0.004061
# 6 0.000608 0.008064 -0.000154 -0.003010 -0.004061 0.028902
#
#
# Mechanical properties :
#
#
# Convention : Reuss Voigt Hill
#
# Bulk Modulus (GPa) = 38.31729 54.67449 46.49589
# Shear Modulus (GPa) = 26.50420 35.28044 30.89232
#
# Velocity S-wave (km/s) = 3.33414 3.84674 3.59958
# Velocity P-wave (km/s) = 5.55816 6.53159 6.06443
#
# Compressibility (1/GPa) = 0.02609788
#
# Stress axis : x y z
#
# Youngs Moduli (GPa) = 76.04639 34.85173 74.02854
#
# Poissons Ratio (x) = 0.27500 0.38991
# Poissons Ratio (y) = 0.60006 0.10874
# Poissons Ratio (z) = 0.40054 0.05119
#
# Static dielectric constant tensor:
#      x y z
#    x 2.112890 0.095230 -0.074540 
#    y 0.095230 1.982830 -0.002720 
#    z -0.074540 -0.002720 1.947300 
# 
# From -- ./inp_files/327556.got.cif
#   From: 2010.05.17/outbox.cif.g08.bks.cpg/sg2_164_cif.got.tgz:327556.got - 2010.06.03 11:33:40.
