data_PCOD9014406
_publ_section_title
;
Structure prediction by ZEFSAII (Michael W. Deem and Ramdas Pophale) SiO2 
 PCOD9014406
Probable space group: P -1
;
_chemical_formula_sum "Si O2"
_cell_formula_units_Z 16
_cell_length_a 9.048290
_cell_length_b 17.012150
_cell_length_c 6.625454
_cell_angle_alpha 74.199868
_cell_angle_beta 70.990001
_cell_angle_gamma 51.904182
_cell_volume 755.344694
_symmetry_space_group_name_H-M "P -1"
_symmetry_group_IT_number 2
_symmetry_cell_setting 'triclinic'
loop_
_space_group_symop_operation_xyz
x,y,z
-x,-y,-z
loop_
_atom_site_type_symbol
_atom_site_label
_atom_site_fract_x
_atom_site_fract_y
_atom_site_fract_z
Si Si1 0.038814 0.297568 0.332062
Si Si2 0.464394 0.198415 0.266152
Si Si3 0.027484 0.813167 0.895175
Si Si4 0.726289 0.310578 0.742471
Si Si5 0.281885 0.835890 0.455641
Si Si6 0.015089 0.496170 0.733026
Si Si7 0.662508 0.598506 0.050452
Si Si8 0.194639 0.977305 0.030488
O O1 0.258810 0.216791 0.356461
O O2 0.010848 0.256116 0.167687
O O3 0.880574 0.317329 0.550352
O O4 0.011307 0.402353 0.254902
O O5 0.544491 0.192215 0.456894
O O6 0.425119 0.296396 0.099874
O O7 0.625347 0.100898 0.135527
O O8 0.122467 0.848987 0.671599
O O9 0.843616 0.915015 0.997874
O O10 0.172533 0.750598 0.055997
O O11 0.680180 0.249421 0.655706
O O12 0.513737 0.407808 0.817885
O O13 0.221594 0.927350 0.271728
O O14 0.000000 0.500000 0.500000
O O15 0.826354 0.510129 0.896764
O O16 0.217505 0.409356 0.799776
O O17 0.000000 0.000000 0.000000
#
# Coordination Sequence:
#
# PCOD9014406 Si02
#       8
#     2   2   2   2   2   2   2   2
#     4  10  27  42  61  97 134 167 205 269 337 367
#     4  11  23  40  64  99 128 169 222 264 311 383
#     4  11  23  41  62  94 136 167 214 266 317 378
#     4  11  22  41  67  93 132 173 206 264 322 376
#     4  11  20  37  68  95 123 173 220 265 303 379
#     4  10  24  43  69  96 126 165 215 266 316 391
#     4  10  21  41  67  97 123 165 219 256 317 379
#     4  12  21  37  67  99 123 173 225 261 306 376
#
# _framework density 21.182382
#
# number of rings (size 3 to 8) (size 9 to 14) (size 15 to 20)
#    0.000    1.250    5.000    0.375    3.500    5.000 
#    0.000    2.500    0.000    0.000    0.000    0.000 
#    0.000    0.000    0.000    0.000    0.000    0.000 
#
# Total GULP energy -89335.717382 kJ/mol
# GULP energy per Si atom -5583.482336 kJ/mol
# Density = 2.113417 g / cm^3
# Si number density = 21.182382 Si / 1000 Ang^3
#
#
#
# Elastic Constant Matrix: (Units=GPa)
#
#
# Indices 1 2 3 4 5 6 
#
# 1 109.9136 50.9313 63.1293 13.8505 9.6416 -30.5550
# 2 50.9313 69.5312 26.1535 1.1600 9.1526 -18.7000
# 3 63.1293 26.1535 120.7404 -1.4498 31.0291 -22.3300
# 4 13.8505 1.1600 -1.4498 22.3853 -11.1087 4.1057
# 5 9.6416 9.1526 31.0291 -11.1087 43.8849 4.4467
# 6 -30.5550 -18.7000 -22.3300 4.1057 4.4467 38.9029
#
#
#
# Elastic Compliance Matrix: (Units=1/GPa)
#
#
# Indices 1 2 3 4 5 6 
#
# 1 0.024823 -0.011195 -0.007467 -0.019529 -0.004034 0.012351
# 2 -0.011195 0.023085 0.002554 0.003356 -0.003701 0.003839
# 3 -0.007467 0.002554 0.015311 -0.000697 -0.010443 0.005418
# 4 -0.019529 0.003356 -0.000697 0.073598 0.025224 -0.024776
# 5 -0.004034 -0.003701 -0.010443 0.025224 0.040056 -0.018182
# 6 0.012351 0.003839 0.005418 -0.024776 -0.018182 0.045054
#
#
# Mechanical properties :
#
#
# Convention : Reuss Voigt Hill
#
# Bulk Modulus (GPa) = 32.25582 64.51259 48.38421
# Shear Modulus (GPa) = 18.90521 31.69934 25.30227
#
# Velocity S-wave (km/s) = 2.99071 3.87265 3.45990
# Velocity P-wave (km/s) = 5.21407 7.10764 6.23318
#
# Compressibility (1/GPa) = 0.03100215
#
# Stress axis : x y z
#
# Youngs Moduli (GPa) = 40.28573 43.31756 65.31382
#
# Poissons Ratio (x) = 0.48495 0.48771
# Poissons Ratio (y) = 0.45101 -0.16683
# Poissons Ratio (z) = 0.30082 -0.11064
#
# Static dielectric constant tensor:
#      x y z
#    x 1.793120 -0.022740 -0.046130 
#    y -0.022740 1.804700 0.029270 
#    z -0.046130 0.029270 1.805900 
# 
# From -- ./inp_files/39415.got.cif
#   From: 2010.05.17/outbox.cif.g08.bks.cpg/sg2_20_cif.got.tgz:39415.got - 2010.06.03 11:33:40.
