data_PCOD9014828
_publ_section_title
;
Structure prediction by ZEFSAII (Michael W. Deem and Ramdas Pophale) SiO2 
 PCOD9014828
Probable space group: P -1
;
_chemical_formula_sum "Si O2"
_cell_formula_units_Z 12
_cell_length_a 11.985110
_cell_length_b 8.895975
_cell_length_c 9.880258
_cell_angle_alpha 63.265249
_cell_angle_beta 86.145278
_cell_angle_gamma 127.671908
_cell_volume 651.635406
_symmetry_space_group_name_H-M "P -1"
_symmetry_group_IT_number 2
_symmetry_cell_setting 'triclinic'
loop_
_space_group_symop_operation_xyz
x,y,z
-x,-y,-z
loop_
_atom_site_type_symbol
_atom_site_label
_atom_site_fract_x
_atom_site_fract_y
_atom_site_fract_z
Si Si1 0.629549 0.911112 0.109614
Si Si2 0.442784 0.423886 0.188869
Si Si3 0.650122 0.053887 0.522540
Si Si4 0.885324 0.733281 0.674819
Si Si5 0.299206 0.749732 0.267908
Si Si6 0.109701 0.759133 0.817706
O O1 0.570901 0.663417 0.171964
O O2 0.472833 0.844962 0.200746
O O3 0.760719 0.044008 0.161994
O O4 0.694598 0.086869 0.903619
O O5 0.279640 0.354865 0.237782
O O6 0.410805 0.200289 0.332043
O O7 0.500000 0.500000 0.000000
O O8 0.715838 0.205574 0.595175
O O9 0.788137 0.190205 0.341955
O O10 0.500000 0.000000 0.500000
O O11 0.835066 0.527969 0.659957
O O12 0.983567 0.761583 0.778735
O O13 0.000000 0.000000 0.500000
O O14 0.000000 0.500000 0.000000
#
# Coordination Sequence:
#
# PCOD9014828 Si02
#       6
#     2   2   2   2   2   2
#     4  10  21  41  69  95 130 180 214 260 332 397
#     4  11  24  43  70  94 132 175 224 263 321 400
#     4  12  25  42  70 102 129 169 229 273 319 394
#     4  11  24  44  66  96 135 175 214 270 333 384
#     4  10  21  41  69  94 131 178 217 258 333 399
#     4  12  25  43  66  98 136 170 218 277 329 379
#
# _framework density 18.415206000000001
#
# number of rings (size 3 to 8) (size 9 to 14) (size 15 to 20)
#    0.000    1.000    6.667    0.000    2.333    2.667 
#    3.000    0.833    0.000    0.000    0.000    0.000 
#    0.000    0.000    0.000    0.000    0.000    0.000 
#
# Total GULP energy -67031.673878 kJ/mol
# GULP energy per Si atom -5585.972823 kJ/mol
# Density = 1.837329 g / cm^3
# Si number density = 18.415206 Si / 1000 Ang^3
#
#
#
# Elastic Constant Matrix: (Units=GPa)
#
#
# Indices 1 2 3 4 5 6 
#
# 1 92.0191 63.7719 46.8880 1.0109 23.8228 6.9322
# 2 63.7719 175.8352 79.4849 3.8544 3.9134 13.1785
# 3 46.8880 79.4849 148.7730 -4.7525 5.3908 -9.2976
# 4 1.0109 3.8544 -4.7525 37.6823 -2.9619 4.3780
# 5 23.8228 3.9134 5.3908 -2.9619 37.1818 4.4775
# 6 6.9322 13.1785 -9.2976 4.3780 4.4775 33.9505
#
#
#
# Elastic Compliance Matrix: (Units=1/GPa)
#
#
# Indices 1 2 3 4 5 6 
#
# 1 0.018908 -0.005213 -0.002870 -0.001091 -0.011115 -0.001017
# 2 -0.005213 0.009568 -0.003863 -0.000591 0.003336 -0.004071
# 3 -0.002870 -0.003863 0.010006 0.001223 0.000335 0.004624
# 4 -0.001091 -0.000591 0.001223 0.027396 0.003147 -0.003161
# 5 -0.011115 0.003336 0.000335 0.003147 0.034333 -0.003868
# 6 -0.001017 -0.004071 0.004624 -0.003161 -0.003868 0.033426
#
#
# Mechanical properties :
#
#
# Convention : Reuss Voigt Hill
#
# Bulk Modulus (GPa) = 68.53768 88.54633 78.54200
# Shear Modulus (GPa) = 30.78954 36.86174 33.82564
#
# Velocity S-wave (km/s) = 4.09340 4.47889 4.29048
# Velocity P-wave (km/s) = 7.72269 8.65650 8.20289
#
# Compressibility (1/GPa) = 0.01459051
#
# Stress axis : x y z
#
# Youngs Moduli (GPa) = 52.88677 104.51631 99.94067
#
# Poissons Ratio (x) = 0.54483 0.28681
# Poissons Ratio (y) = 0.27569 0.38608
# Poissons Ratio (z) = 0.15177 0.40376
#
# Static dielectric constant tensor:
#      x y z
#    x 1.605370 -0.014480 -0.015940 
#    y -0.014480 1.629030 0.004940 
#    z -0.015940 0.004940 1.599560 
# 
# From -- ./inp_files/144383.got.cif
#   From: 2010.05.17/outbox.cif.g08.bks.cpg/sg2_73_cif.got.tgz:144383.got - 2010.06.03 11:33:40.
