data_PCOD9014969
_publ_section_title
;
Structure prediction by ZEFSAII (Michael W. Deem and Ramdas Pophale) SiO2 
 PCOD9014969
Probable space group: P -1
;
_chemical_formula_sum "Si O2"
_cell_formula_units_Z 16
_cell_length_a 18.272542
_cell_length_b 10.461228
_cell_length_c 9.391104
_cell_angle_alpha 109.913101
_cell_angle_beta 38.610783
_cell_angle_gamma 137.899810
_cell_volume 616.180019
_symmetry_space_group_name_H-M "P -1"
_symmetry_group_IT_number 2
_symmetry_cell_setting 'triclinic'
loop_
_space_group_symop_operation_xyz
x,y,z
-x,-y,-z
loop_
_atom_site_type_symbol
_atom_site_label
_atom_site_fract_x
_atom_site_fract_y
_atom_site_fract_z
Si Si1 0.857331 0.779808 0.432433
Si Si2 0.849671 0.596286 0.628407
Si Si3 0.176760 0.737173 0.118555
Si Si4 0.455634 0.045154 0.227119
Si Si5 0.380047 0.167000 0.156171
Si Si6 0.679376 0.083040 0.325326
Si Si7 0.441786 0.584956 0.461891
Si Si8 0.212096 0.277797 0.975743
O O1 0.943881 0.788118 0.442565
O O2 0.722966 0.784015 0.681086
O O3 0.714372 0.541440 0.474897
O O4 0.033265 0.000476 0.146267
O O5 0.955113 0.549497 0.445698
O O6 0.618169 0.384076 0.857959
O O7 0.867896 0.676819 0.786987
O O8 0.287552 0.973354 0.110509
O O9 0.325581 0.756420 0.950176
O O10 0.158739 0.738545 0.975685
O O11 0.365305 0.096900 0.315005
O O12 0.305172 0.861288 0.512538
O O13 0.500000 0.000000 0.000000
O O14 0.591025 0.847593 0.370380
O O15 0.500000 0.000000 0.500000
O O16 0.303034 0.411052 0.739380
O O17 0.593955 0.606727 0.199915
#
# Coordination Sequence:
#
# PCOD9014969 Si02
#       8
#     2   2   2   2   2   2   2   2
#     4  12  24  39  62  98 137 173 214 270 327 390
#     4  12  23  38  63  96 129 175 217 264 326 391
#     4  10  22  41  65  92 128 173 218 267 325 382
#     4   9  21  42  68  93 120 173 219 267 324 382
#     4  11  22  39  64  92 134 169 218 270 322 385
#     4  10  21  41  70  92 128 169 217 273 326 381
#     4  11  24  42  64  97 133 177 218 268 329 389
#     4  11  24  40  63  95 136 177 218 263 328 393
#
# _framework density 25.966438
#
# number of rings (size 3 to 8) (size 9 to 14) (size 15 to 20)
#    0.000    1.250    2.500    3.375    3.500    0.500 
#    2.250    0.000    0.000   12.750    0.000    0.000 
#    0.000    0.000    0.000    0.000    0.000    0.000 
#
# Total GULP energy -89432.914644 kJ/mol
# GULP energy per Si atom -5589.557165 kJ/mol
# Density = 2.590734 g / cm^3
# Si number density = 25.966438 Si / 1000 Ang^3
#
#
#
# Elastic Constant Matrix: (Units=GPa)
#
#
# Indices 1 2 3 4 5 6 
#
# 1 121.5834 3.8526 33.8621 7.1021 10.9036 4.4421
# 2 3.8526 60.5037 -1.9923 1.5037 -2.1101 17.2949
# 3 33.8621 -1.9923 106.7859 13.4764 7.0074 9.3792
# 4 7.1021 1.5037 13.4764 29.9161 -2.0663 -4.7158
# 5 10.9036 -2.1101 7.0074 -2.0663 50.6238 3.0039
# 6 4.4421 17.2949 9.3792 -4.7158 3.0039 32.7405
#
#
#
# Elastic Compliance Matrix: (Units=1/GPa)
#
#
# Indices 1 2 3 4 5 6 
#
# 1 0.009209 -0.000668 -0.002674 -0.001085 -0.001678 -0.000133
# 2 -0.000668 0.020118 0.001976 -0.003504 0.001261 -0.011723
# 3 -0.002674 0.001976 0.011394 -0.005388 -0.000863 -0.004642
# 4 -0.001085 -0.003504 -0.005388 0.037806 0.001853 0.008817
# 5 -0.001678 0.001261 -0.000863 0.001853 0.020470 -0.001802
# 6 -0.000133 -0.011723 -0.004642 0.008817 -0.001802 0.039519
#
#
# Mechanical properties :
#
#
# Convention : Reuss Voigt Hill
#
# Bulk Modulus (GPa) = 26.32354 40.03530 33.17942
# Shear Modulus (GPa) = 32.48660 39.53280 36.00970
#
# Velocity S-wave (km/s) = 3.54093 3.90610 3.72799
# Velocity P-wave (km/s) = 5.18431 5.98290 5.59786
#
# Compressibility (1/GPa) = 0.03798881
#
# Stress axis : x y z
#
# Youngs Moduli (GPa) = 108.58445 49.70790 87.76733
#
# Poissons Ratio (x) = 0.03321 0.23470
# Poissons Ratio (y) = 0.07254 -0.17344
# Poissons Ratio (z) = 0.29037 -0.09823
#
# Static dielectric constant tensor:
#      x y z
#    x 2.067670 -0.078350 0.046790 
#    y -0.078350 2.208850 -0.001290 
#    z 0.046790 -0.001290 2.115860 
# 
# From -- ./inp_files/333327.got.cif
#   From: 2010.05.17/outbox.cif.g08.bks.cpg/sg2_167_cif.got.tgz:333327.got - 2010.06.03 11:33:40.
