data_PCOD9014595
_publ_section_title
;
Structure prediction by ZEFSAII (Michael W. Deem and Ramdas Pophale) SiO2 
 PCOD9014595
Probable space group: P -1
;
_chemical_formula_sum "Si O2"
_cell_formula_units_Z 14
_cell_length_a 8.605950
_cell_length_b 21.964744
_cell_length_c 9.394706
_cell_angle_alpha 151.917250
_cell_angle_beta 121.773962
_cell_angle_gamma 46.498853
_cell_volume 589.182883
_symmetry_space_group_name_H-M "P -1"
_symmetry_group_IT_number 2
_symmetry_cell_setting 'triclinic'
loop_
_space_group_symop_operation_xyz
x,y,z
-x,-y,-z
loop_
_atom_site_type_symbol
_atom_site_label
_atom_site_fract_x
_atom_site_fract_y
_atom_site_fract_z
Si Si1 0.697959 0.823945 0.241774
Si Si2 0.401657 0.569426 0.367173
Si Si3 0.972246 0.679510 0.548619
Si Si4 0.312434 0.304621 0.319094
Si Si5 0.374481 0.289356 0.761272
Si Si6 0.684572 0.054896 0.211890
Si Si7 0.948468 0.136325 0.368946
O O1 0.636874 0.726698 0.109837
O O2 0.864354 0.841501 0.450871
O O3 0.500000 0.000000 0.500000
O O4 0.751050 0.759118 0.975683
O O5 0.601968 0.593089 0.496625
O O6 0.228430 0.617241 0.516730
O O7 0.236076 0.699669 0.445212
O O8 0.454705 0.402662 0.003017
O O9 0.897045 0.617655 0.515630
O O10 0.859234 0.651067 0.301992
O O11 0.825431 0.868988 0.881584
O O12 0.515919 0.161648 0.219426
O O13 0.541756 0.122709 0.424572
O O14 0.863450 0.096775 0.384486
O O15 0.000000 0.000000 0.000000
#
# Coordination Sequence:
#
# PCOD9014595 Si02
#       7
#     2   2   2   2   2   2   2
#     4  12  23  40  64  98 135 167 212 275 335 387
#     4  11  23  42  70  94 131 175 223 273 319 391
#     4  11  20  41  70  94 125 177 226 264 318 392
#     4  10  24  39  62  95 134 166 212 274 334 373
#     4  11  23  41  67  97 129 170 227 269 326 385
#     4  10  21  41  68  94 125 174 226 272 311 394
#     4  11  21  40  68  98 127 171 226 268 318 390
#
# _framework density 23.761723
#
# number of rings (size 3 to 8) (size 9 to 14) (size 15 to 20)
#    0.000    1.143    2.857    5.571    0.000    5.714 
#    2.571    2.143    0.000    0.000    0.000    0.000 
#    0.000    0.000    0.000    0.000    0.000    0.000 
#
# Total GULP energy -78110.403096 kJ/mol
# GULP energy per Si atom -5579.314507 kJ/mol
# Density = 2.370764 g / cm^3
# Si number density = 23.761723 Si / 1000 Ang^3
#
#
#
# Elastic Constant Matrix: (Units=GPa)
#
#
# Indices 1 2 3 4 5 6 
#
# 1 162.4719 13.9453 31.9851 3.4945 13.6595 18.7110
# 2 13.9453 43.4664 25.0113 -7.6669 0.1092 13.9095
# 3 31.9851 25.0113 95.6453 16.7560 9.3594 1.0582
# 4 3.4945 -7.6669 16.7560 28.2553 7.7800 -4.8075
# 5 13.6595 0.1092 9.3594 7.7800 49.4114 -0.8266
# 6 18.7110 13.9095 1.0582 -4.8075 -0.8266 26.1533
#
#
#
# Elastic Compliance Matrix: (Units=1/GPa)
#
#
# Indices 1 2 3 4 5 6 
#
# 1 0.007363 0.001001 -0.002561 0.000384 -0.001708 -0.005680
# 2 0.001001 0.038376 -0.012735 0.014966 -0.000605 -0.017879
# 3 -0.002561 -0.012735 0.016717 -0.011955 -0.000452 0.005717
# 4 0.000384 0.014966 -0.011955 0.048151 -0.005441 0.000929
# 5 -0.001708 -0.000605 -0.000452 -0.005441 0.021675 0.001247
# 6 -0.005680 -0.017879 0.005717 0.000929 0.001247 0.051787
#
#
# Mechanical properties :
#
#
# Convention : Reuss Voigt Hill
#
# Bulk Modulus (GPa) = 29.52829 49.27412 39.40120
# Shear Modulus (GPa) = 22.32665 36.14013 29.23339
#
# Velocity S-wave (km/s) = 3.06862 3.90415 3.51133
# Velocity P-wave (km/s) = 5.00091 6.41132 5.74952
#
# Compressibility (1/GPa) = 0.03386583
#
# Stress axis : x y z
#
# Youngs Moduli (GPa) = 135.82081 26.05813 59.81767
#
# Poissons Ratio (x) = -0.02609 0.15321
# Poissons Ratio (y) = -0.13599 0.76178
# Poissons Ratio (z) = 0.34787 0.33185
#
# Static dielectric constant tensor:
#      x y z
#    x 1.989060 0.059200 -0.051870 
#    y 0.059200 1.959310 0.017640 
#    z -0.051870 0.017640 1.841730 
# 
# From -- ./inp_files/224394.got.cif
#   From: 2010.05.17/outbox.cif.g08.bks.cpg/sg2_113_cif.got.tgz:224394.got - 2010.06.03 11:33:40.
