data_PCOD9014760
_publ_section_title
;
Structure prediction by ZEFSAII (Michael W. Deem and Ramdas Pophale) SiO2 
 PCOD9014760
Probable space group: P -1
;
_chemical_formula_sum "Si O2"
_cell_formula_units_Z 16
_cell_length_a 8.305052
_cell_length_b 11.675599
_cell_length_c 13.875986
_cell_angle_alpha 115.698021
_cell_angle_beta 139.701655
_cell_angle_gamma 83.853160
_cell_volume 724.120998
_symmetry_space_group_name_H-M "P -1"
_symmetry_group_IT_number 2
_symmetry_cell_setting 'triclinic'
loop_
_space_group_symop_operation_xyz
x,y,z
-x,-y,-z
loop_
_atom_site_type_symbol
_atom_site_label
_atom_site_fract_x
_atom_site_fract_y
_atom_site_fract_z
Si Si1 0.299453 0.563336 0.617158
Si Si2 0.069439 0.007866 0.779954
Si Si3 0.890029 0.847189 0.346218
Si Si4 0.704665 0.234250 0.967599
Si Si5 0.836352 0.511124 0.835167
Si Si6 0.748942 0.972379 0.805779
Si Si7 0.273911 0.687543 0.462491
Si Si8 0.335488 0.823009 0.842563
O O1 0.544987 0.514747 0.729505
O O2 0.263787 0.569437 0.488779
O O3 0.380539 0.711763 0.755292
O O4 0.000000 0.500000 0.500000
O O5 0.076487 0.108165 0.734194
O O6 0.088971 0.863039 0.705636
O O7 0.359727 0.063657 0.984475
O O8 0.846765 0.002523 0.751848
O O9 0.575605 0.751155 0.180476
O O10 0.061227 0.756617 0.414372
O O11 0.000000 0.000000 0.500000
O O12 0.639660 0.083123 0.836971
O O13 0.725522 0.223614 0.089816
O O14 0.967195 0.350601 0.082399
O O15 0.777798 0.380110 0.690749
O O16 0.000000 0.500000 0.000000
O O17 0.554351 0.814121 0.655426
O O18 0.000000 0.000000 0.000000
#
# Coordination Sequence:
#
# PCOD9014760 Si02
#       8
#     2   2   2   2   2   2   2   2
#     4  12  28  48  75 102 145 194 252 303 366 442
#     4  10  22  36  68 101 146 177 237 284 374 428
#     4  11  24  44  68 111 146 186 238 309 370 436
#     4  11  24  44  74 100 151 190 244 304 373 434
#     4  12  31  51  74 108 147 201 254 306 371 442
#     4  12  23  42  74 110 143 192 239 309 369 443
#     4  12  28  48  75 107 151 193 250 305 372 443
#     4  10  21  41  69 104 136 188 235 298 359 442
#
# _framework density 22.095756000000002
#
# number of rings (size 3 to 8) (size 9 to 14) (size 15 to 20)
#    0.000    0.750    2.500    4.125   10.500    2.000 
#    0.000    0.000    0.000    0.000    0.000    0.000 
#    0.000    0.000    0.000    0.000    0.000    0.000 
#
# Total GULP energy -89278.337919 kJ/mol
# GULP energy per Si atom -5579.896120 kJ/mol
# Density = 2.204547 g / cm^3
# Si number density = 22.095756 Si / 1000 Ang^3
#
#
#
# Elastic Constant Matrix: (Units=GPa)
#
#
# Indices 1 2 3 4 5 6 
#
# 1 92.9960 16.2399 34.8963 -9.8682 -6.5969 4.7674
# 2 16.2399 51.5566 28.5234 -19.0739 -0.8285 -0.1200
# 3 34.8963 28.5234 102.4940 -3.9869 6.8640 1.5367
# 4 -9.8682 -19.0739 -3.9869 37.5373 -8.3829 9.0818
# 5 -6.5969 -0.8285 6.8640 -8.3829 36.6859 14.5049
# 6 4.7674 -0.1200 1.5367 9.0818 14.5049 33.7591
#
#
#
# Elastic Compliance Matrix: (Units=1/GPa)
#
#
# Indices 1 2 3 4 5 6 
#
# 1 0.014289 0.001364 -0.005394 0.007477 0.008206 -0.007305
# 2 0.001364 0.031737 -0.009107 0.020471 0.011310 -0.010032
# 3 -0.005394 -0.009107 0.014269 -0.007570 -0.007724 0.005435
# 4 0.007477 0.020471 -0.007570 0.049482 0.024148 -0.024325
# 5 0.008206 0.011310 -0.007724 0.024148 0.046769 -0.027358
# 6 -0.007305 -0.010032 0.005435 -0.024325 -0.027358 0.048669
#
#
# Mechanical properties :
#
#
# Convention : Reuss Voigt Hill
#
# Bulk Modulus (GPa) = 29.39393 45.15176 37.27284
# Shear Modulus (GPa) = 20.59068 32.75560 26.67314
#
# Velocity S-wave (km/s) = 3.05599 3.85442 3.47819
# Velocity P-wave (km/s) = 5.07779 6.34726 5.74768
#
# Compressibility (1/GPa) = 0.03402063
#
# Stress axis : x y z
#
# Youngs Moduli (GPa) = 69.98460 31.50911 70.08243
#
# Poissons Ratio (x) = -0.04298 0.37801
# Poissons Ratio (y) = -0.09546 0.63826
# Poissons Ratio (z) = 0.37748 0.28696
#
# Static dielectric constant tensor:
#      x y z
#    x 1.902240 -0.116140 -0.046200 
#    y -0.116140 1.986880 0.085090 
#    z -0.046200 0.085090 1.901370 
# 
# From -- ./inp_files/500619.got.cif
#   From: 2010.05.17/outbox.cif.g08.bks.cpg/sg2_251_cif.got.tgz:500619.got - 2010.06.03 11:33:40.
