data_PCOD9014774
_publ_section_title
;
Structure prediction by ZEFSAII (Michael W. Deem and Ramdas Pophale) SiO2 
 PCOD9014774
Probable space group: P -1
;
_chemical_formula_sum "Si O2"
_cell_formula_units_Z 12
_cell_length_a 10.113319
_cell_length_b 5.190117
_cell_length_c 15.865878
_cell_angle_alpha 120.138213
_cell_angle_beta 42.979841
_cell_angle_gamma 100.101024
_cell_volume 464.248977
_symmetry_space_group_name_H-M "P -1"
_symmetry_group_IT_number 2
_symmetry_cell_setting 'triclinic'
loop_
_space_group_symop_operation_xyz
x,y,z
-x,-y,-z
loop_
_atom_site_type_symbol
_atom_site_label
_atom_site_fract_x
_atom_site_fract_y
_atom_site_fract_z
Si Si1 0.532037 0.690138 0.682338
Si Si2 0.865419 0.286099 0.051728
Si Si3 0.938491 0.214835 0.339661
Si Si4 0.404351 0.882177 0.604576
Si Si5 0.483902 0.761588 0.897661
Si Si6 0.123589 0.769547 0.328663
O O1 0.336505 0.570607 0.770453
O O2 0.470532 0.942336 0.677179
O O3 0.556328 0.836969 0.784324
O O4 0.641311 0.419353 0.789852
O O5 0.748887 0.216563 0.011722
O O6 0.000000 0.500000 0.000000
O O7 0.000000 0.000000 0.000000
O O8 0.834284 0.059358 0.291820
O O9 0.739718 0.413243 0.520753
O O10 0.028526 0.484784 0.313263
O O11 0.084898 0.965142 0.292862
O O12 0.500000 0.500000 0.500000
O O13 0.500000 0.000000 0.500000
O O14 0.500000 0.000000 0.000000
O O15 0.000000 0.000000 0.500000
#
# Coordination Sequence:
#
# PCOD9014774 Si02
#       6
#     2   2   2   2   2   2
#     4   9  22  44  77 108 161 194 260 325 401 450
#     4  10  24  46  75 105 149 212 268 314 386 466
#     4  11  23  42  74 112 149 195 256 322 401 466
#     4  10  21  41  69 111 148 197 251 319 396 468
#     4  10  25  50  78 115 162 210 268 325 393 475
#     4  12  24  44  76 109 154 203 255 324 400 472
#
# _framework density 25.848199999999999
#
# number of rings (size 3 to 8) (size 9 to 14) (size 15 to 20)
#    1.000    0.667    1.667    2.500    0.000    8.000 
#    0.000    6.667    0.000    0.000    0.000    0.000 
#    0.000    0.000    0.000    0.000    0.000    0.000 
#
# Total GULP energy -67148.640420 kJ/mol
# GULP energy per Si atom -5595.720035 kJ/mol
# Density = 2.578937 g / cm^3
# Si number density = 25.848200 Si / 1000 Ang^3
#
#
#
# Elastic Constant Matrix: (Units=GPa)
#
#
# Indices 1 2 3 4 5 6 
#
# 1 231.2130 97.3691 53.7578 2.0844 -2.0418 -29.0742
# 2 97.3691 189.7051 70.8687 -25.1029 -10.8318 -30.6581
# 3 53.7578 70.8687 101.3541 9.2506 -17.8677 -14.1138
# 4 2.0844 -25.1029 9.2506 49.0056 -1.0308 -4.0480
# 5 -2.0418 -10.8318 -17.8677 -1.0308 63.1357 -3.2038
# 6 -29.0742 -30.6581 -14.1138 -4.0480 -3.2038 53.2649
#
#
#
# Elastic Compliance Matrix: (Units=1/GPa)
#
#
# Indices 1 2 3 4 5 6 
#
# 1 0.005831 -0.002576 -0.001088 -0.001267 -0.000517 0.001285
# 2 -0.002576 0.010273 -0.005899 0.006779 0.000297 0.003477
# 3 -0.001088 -0.005899 0.015672 -0.005872 0.003288 -0.000085
# 4 -0.001267 0.006779 -0.005872 0.025338 0.000056 0.003583
# 5 -0.000517 0.000297 0.003288 0.000056 0.016895 0.001780
# 6 0.001285 0.003477 -0.000085 0.003583 0.001780 0.021833
#
#
# Mechanical properties :
#
#
# Convention : Reuss Voigt Hill
#
# Bulk Modulus (GPa) = 79.05366 107.36259 93.20813
# Shear Modulus (GPa) = 41.95144 53.09970 47.52557
#
# Velocity S-wave (km/s) = 4.03301 4.53734 4.29259
# Velocity P-wave (km/s) = 7.23444 8.31120 7.79144
#
# Compressibility (1/GPa) = 0.01264964
#
# Stress axis : x y z
#
# Youngs Moduli (GPa) = 171.49036 97.34165 63.80790
#
# Poissons Ratio (x) = 0.25075 0.06944
# Poissons Ratio (y) = 0.44175 0.37641
# Poissons Ratio (z) = 0.18663 0.57423
#
# Static dielectric constant tensor:
#      x y z
#    x 2.224230 0.069870 0.016460 
#    y 0.069870 2.053830 0.045310 
#    z 0.016460 0.045310 2.121240 
# 
# From -- ./inp_files/552529.got.cif
#   From: 2010.05.17/outbox.cif.g08.bks.cpg/sg2_277_cif.got.tgz:552529.got - 2010.06.03 11:33:40.
