data_PCOD9014216
_publ_section_title
;
Structure prediction by ZEFSAII (Michael W. Deem and Ramdas Pophale) SiO2 
 PCOD9014216
Probable space group: P -1
;
_chemical_formula_sum "Si O2"
_cell_formula_units_Z 16
_cell_length_a 9.368157
_cell_length_b 21.054453
_cell_length_c 6.872491
_cell_angle_alpha 42.216925
_cell_angle_beta 49.916244
_cell_angle_gamma 43.913086
_cell_volume 613.753668
_symmetry_space_group_name_H-M "P -1"
_symmetry_group_IT_number 2
_symmetry_cell_setting 'triclinic'
loop_
_space_group_symop_operation_xyz
x,y,z
-x,-y,-z
loop_
_atom_site_type_symbol
_atom_site_label
_atom_site_fract_x
_atom_site_fract_y
_atom_site_fract_z
Si Si1 0.174721 0.982524 0.045660
Si Si2 0.978883 0.778497 0.459555
Si Si3 0.590088 0.567509 0.389335
Si Si4 0.319997 0.979842 0.311717
Si Si5 0.378563 0.115239 0.238387
Si Si6 0.460299 0.265964 0.275913
Si Si7 0.715688 0.318242 0.256436
Si Si8 0.024577 0.634007 0.398244
O O1 0.141590 0.104077 0.791681
O O2 0.410964 0.885403 0.021125
O O3 0.164861 0.972622 0.305929
O O4 0.000000 0.000000 0.000000
O O5 0.469744 0.594715 0.641212
O O6 0.147910 0.764511 0.505755
O O7 0.072830 0.694839 0.395560
O O8 0.500000 0.500000 0.500000
O O9 0.554613 0.665261 0.057949
O O10 0.839764 0.491417 0.385002
O O11 0.437015 0.861450 0.571598
O O12 0.237640 0.082344 0.292408
O O13 0.500000 0.000000 0.000000
O O14 0.216436 0.220544 0.252541
O O15 0.500000 0.000000 0.500000
O O16 0.611059 0.280536 0.267282
O O17 0.229646 0.312793 0.478104
O O18 0.875247 0.349592 0.926617
#
# Coordination Sequence:
#
# PCOD9014216 Si02
#       8
#     2   2   2   2   2   2   2   2
#     4  10  21  41  67 105 153 201 255 315 379 455
#     4  11  24  45  70 109 152 205 251 316 391 454
#     4  12  26  56  78 114 161 202 256 338 402 470
#     4  10  22  45  74 110 157 206 261 318 382 470
#     4   9  20  41  65  98 150 199 248 309 379 448
#     4  12  27  49  83 119 152 205 270 321 395 474
#     4  12  27  49  80 113 161 202 267 324 398 466
#     4  12  27  50  82 113 156 207 260 329 400 470
#
# _framework density 26.069089999999999
#
# number of rings (size 3 to 8) (size 9 to 14) (size 15 to 20)
#    0.000    1.000    2.500    3.750    5.250    1.500 
#   20.250    3.125    0.000    0.000    0.000    0.000 
#    0.000    0.000    0.000    0.000    0.000    0.000 
#
# Total GULP energy -89338.564830 kJ/mol
# GULP energy per Si atom -5583.660302 kJ/mol
# Density = 2.600976 g / cm^3
# Si number density = 26.069090 Si / 1000 Ang^3
#
#
#
# Elastic Constant Matrix: (Units=GPa)
#
#
# Indices 1 2 3 4 5 6 
#
# 1 129.1476 18.9436 29.2079 7.0785 15.4274 -0.8084
# 2 18.9436 150.5356 49.9160 21.2899 1.4892 -11.3033
# 3 29.2079 49.9160 144.0224 -1.8302 3.5067 -3.2034
# 4 7.0785 21.2899 -1.8302 45.4615 -6.8606 0.1484
# 5 15.4274 1.4892 3.5067 -6.8606 38.9753 -1.5821
# 6 -0.8084 -11.3033 -3.2034 0.1484 -1.5821 44.1736
#
#
#
# Elastic Compliance Matrix: (Units=1/GPa)
#
#
# Indices 1 2 3 4 5 6 
#
# 1 0.008676 -0.000278 -0.001602 -0.001829 -0.003608 -0.000152
# 2 -0.000278 0.008342 -0.002830 -0.004073 -0.000593 0.001917
# 3 -0.001602 -0.002830 0.008262 0.001959 0.000338 -0.000149
# 4 -0.001829 -0.004073 0.001959 0.025037 0.005077 -0.000836
# 5 -0.003608 -0.000593 0.000338 0.005077 0.028003 0.000793
# 6 -0.000152 0.001917 -0.000149 -0.000836 0.000793 0.023146
#
#
# Mechanical properties :
#
#
# Convention : Reuss Voigt Hill
#
# Bulk Modulus (GPa) = 63.04326 68.87117 65.95721
# Shear Modulus (GPa) = 43.03931 47.43128 45.23529
#
# Velocity S-wave (km/s) = 4.06762 4.27012 4.17010
# Velocity P-wave (km/s) = 6.80414 7.12657 6.96722
#
# Compressibility (1/GPa) = 0.01586212
#
# Stress axis : x y z
#
# Youngs Moduli (GPa) = 115.25494 119.87558 121.03096
#
# Poissons Ratio (x) = 0.03327 0.19391
# Poissons Ratio (y) = 0.03199 0.34247
# Poissons Ratio (z) = 0.18466 0.33920
#
# Static dielectric constant tensor:
#      x y z
#    x 2.357180 -0.116960 -0.321930 
#    y -0.116960 2.168270 0.285350 
#    z -0.321930 0.285350 2.674610 
# 
# From -- ./inp_files/220643.got.cif
#   From: 2010.05.17/outbox.cif.g08.bks.cpg/sg2_111_cif.got.tgz:220643.got - 2010.06.03 11:33:40.
