data_PCOD9014359
_publ_section_title
;
Structure prediction by ZEFSAII (Michael W. Deem and Ramdas Pophale) SiO2 
 PCOD9014359
Probable space group: P -1
;
_chemical_formula_sum "Si O2"
_cell_formula_units_Z 16
_cell_length_a 14.703643
_cell_length_b 8.943865
_cell_length_c 10.152204
_cell_angle_alpha 122.853336
_cell_angle_beta 107.823779
_cell_angle_gamma 40.331238
_cell_volume 711.559660
_symmetry_space_group_name_H-M "P -1"
_symmetry_group_IT_number 2
_symmetry_cell_setting 'triclinic'
loop_
_space_group_symop_operation_xyz
x,y,z
-x,-y,-z
loop_
_atom_site_type_symbol
_atom_site_label
_atom_site_fract_x
_atom_site_fract_y
_atom_site_fract_z
Si Si1 0.607784 0.913912 0.289062
Si Si2 0.733869 0.309591 0.218903
Si Si3 0.057039 0.920604 0.260500
Si Si4 0.674759 0.469414 0.985452
Si Si5 0.664687 0.784279 0.530423
Si Si6 0.096488 0.460716 0.132031
Si Si7 0.023929 0.596693 0.435127
Si Si8 0.613430 0.112263 0.119306
O O1 0.704599 0.626637 0.129972
O O2 0.668206 0.895355 0.449173
O O3 0.465356 0.015666 0.331330
O O4 0.577076 0.082295 0.232822
O O5 0.675121 0.359816 0.069044
O O6 0.665130 0.580546 0.381334
O O7 0.683826 0.205643 0.223046
O O8 0.904691 0.105221 0.206046
O O9 0.089185 0.685872 0.229368
O O10 0.189546 0.776754 0.155782
O O11 0.043158 0.115195 0.437873
O O12 0.530545 0.675372 0.932287
O O13 0.806283 0.610797 0.590444
O O14 0.006326 0.531382 0.256260
O O15 0.000000 0.500000 0.000000
O O16 0.260348 0.171294 0.037194
O O17 0.000000 0.500000 0.500000
#
# Coordination Sequence:
#
# PCOD9014359 Si02
#       8
#     2   2   2   2   2   2   2   2
#     4  10  21  41  67  95 132 187 229 284 355 417
#     4  10  23  42  65  99 138 187 234 288 349 418
#     4  11  24  46  70 101 143 187 230 294 348 420
#     4  11  23  40  67 100 138 184 234 288 354 411
#     4   9  22  44  67  92 140 179 230 290 350 417
#     4  12  26  45  73 105 143 186 237 290 349 424
#     4  11  27  45  72 103 138 186 237 290 351 418
#     4  12  24  40  69 102 138 181 242 288 343 421
#
# _framework density 22.485814999999999
#
# number of rings (size 3 to 8) (size 9 to 14) (size 15 to 20)
#    0.000    1.250    2.500    2.250    5.250    1.500 
#    6.750    0.000    0.000    0.000    0.000    0.000 
#    0.000    0.000    0.000    0.000    0.000    0.000 
#
# Total GULP energy -89274.856197 kJ/mol
# GULP energy per Si atom -5579.678512 kJ/mol
# Density = 2.243464 g / cm^3
# Si number density = 22.485815 Si / 1000 Ang^3
#
#
#
# Elastic Constant Matrix: (Units=GPa)
#
#
# Indices 1 2 3 4 5 6 
#
# 1 58.2218 26.0214 32.3511 -0.3438 -5.4446 10.3416
# 2 26.0214 88.0159 36.0870 2.8719 -6.6218 -13.3251
# 3 32.3511 36.0870 126.1422 -21.3990 -17.3075 -4.4402
# 4 -0.3438 2.8719 -21.3990 22.2200 2.7963 -10.8712
# 5 -5.4446 -6.6218 -17.3075 2.7963 25.7182 -4.8423
# 6 10.3416 -13.3251 -4.4402 -10.8712 -4.8423 30.8075
#
#
#
# Elastic Compliance Matrix: (Units=1/GPa)
#
#
# Indices 1 2 3 4 5 6 
#
# 1 0.029349 -0.007706 -0.009738 -0.017946 -0.004443 -0.021620
# 2 -0.007706 0.016083 -0.001730 0.000639 0.003162 0.010016
# 3 -0.009738 -0.001730 0.016209 0.021315 0.008671 0.013741
# 4 -0.017946 0.000639 0.021315 0.083769 0.009204 0.040379
# 5 -0.004443 0.003162 0.008671 0.009204 0.046348 0.014642
# 6 -0.021620 0.010016 0.013741 0.040379 0.014642 0.062580
#
#
# Mechanical properties :
#
#
# Convention : Reuss Voigt Hill
#
# Bulk Modulus (GPa) = 42.93017 51.25543 47.09280
# Shear Modulus (GPa) = 16.64173 27.61049 22.12611
#
# Velocity S-wave (km/s) = 2.72343 3.50795 3.14029
# Velocity P-wave (km/s) = 5.38730 6.26512 5.84272
#
# Compressibility (1/GPa) = 0.02329364
#
# Stress axis : x y z
#
# Youngs Moduli (GPa) = 34.07225 62.17911 61.69404
#
# Poissons Ratio (x) = 0.47918 0.60075
# Poissons Ratio (y) = 0.26257 0.10672
# Poissons Ratio (z) = 0.33178 0.10755
#
# Static dielectric constant tensor:
#      x y z
#    x 1.841240 0.022770 -0.032890 
#    y 0.022770 1.905970 -0.074480 
#    z -0.032890 -0.074480 1.863340 
# 
# From -- ./inp_files/299242.got.cif
#   From: 2010.05.17/outbox.cif.g08.bks.cpg/sg2_150_cif.got.tgz:299242.got - 2010.06.03 11:33:40.
