data_PCOD9014002
_publ_section_title
;
Structure prediction by ZEFSAII (Michael W. Deem and Ramdas Pophale) SiO2 
 PCOD9014002
Probable space group: P -1
;
_chemical_formula_sum "Si O2"
_cell_formula_units_Z 12
_cell_length_a 11.318997
_cell_length_b 25.409188
_cell_length_c 7.054631
_cell_angle_alpha 127.323893
_cell_angle_beta 54.601208
_cell_angle_gamma 160.711872
_cell_volume 532.771258
_symmetry_space_group_name_H-M "P -1"
_symmetry_group_IT_number 2
_symmetry_cell_setting 'triclinic'
loop_
_space_group_symop_operation_xyz
x,y,z
-x,-y,-z
loop_
_atom_site_type_symbol
_atom_site_label
_atom_site_fract_x
_atom_site_fract_y
_atom_site_fract_z
Si Si1 0.704371 0.279985 0.895326
Si Si2 0.033370 0.181003 0.816602
Si Si3 0.517257 0.842863 0.582825
Si Si4 0.412244 0.677002 0.570985
Si Si5 0.888716 0.255528 0.968099
Si Si6 0.550946 0.465342 0.220454
O O1 0.518384 0.192612 0.678350
O O2 0.643008 0.191530 0.901753
O O3 0.133649 0.454848 0.844659
O O4 0.595920 0.299331 0.155963
O O5 0.359463 0.291913 0.622903
O O6 0.821875 0.151264 0.842829
O O7 0.203331 0.282784 0.071074
O O8 0.786927 0.016043 0.729832
O O9 0.591198 0.809651 0.567474
O O10 0.154758 0.721818 0.747776
O O11 0.000000 0.500000 0.500000
O O12 0.272814 0.425294 0.886472
O O13 0.500000 0.500000 0.500000
#
# Coordination Sequence:
#
# PCOD9014002 Si02
#       6
#     2   2   2   2   2   2
#     4   9  22  42  64  91 128 171 212 255 321 384
#     4  12  22  40  68  99 128 172 210 274 316 372
#     4  11  23  43  66  95 135 166 214 264 327 375
#     4  11  23  46  64  90 136 172 215 262 319 384
#     4   9  22  42  66  89 136 164 212 265 315 377
#     4  10  21  41  66  94 122 169 223 253 313 385
#
# _framework density 22.523736
#
# number of rings (size 3 to 8) (size 9 to 14) (size 15 to 20)
#    1.000    0.667    1.667    2.500    0.000    3.333 
#    9.000    0.000    0.000    0.000    0.000    0.000 
#    0.000    0.000    0.000    0.000    0.000    0.000 
#
# Total GULP energy -66994.622882 kJ/mol
# GULP energy per Si atom -5582.885240 kJ/mol
# Density = 2.247247 g / cm^3
# Si number density = 22.523736 Si / 1000 Ang^3
#
#
#
# Elastic Constant Matrix: (Units=GPa)
#
#
# Indices 1 2 3 4 5 6 
#
# 1 59.0637 1.0789 34.6725 -9.8244 -15.5295 -5.8795
# 2 1.0789 65.2774 36.9544 12.2487 7.3284 -16.0565
# 3 34.6725 36.9544 216.2131 4.8756 -6.9773 7.1590
# 4 -9.8244 12.2487 4.8756 18.9746 10.7734 -11.7738
# 5 -15.5295 7.3284 -6.9773 10.7734 27.3771 -4.6059
# 6 -5.8795 -16.0565 7.1590 -11.7738 -4.6059 26.7456
#
#
#
# Elastic Compliance Matrix: (Units=1/GPa)
#
#
# Indices 1 2 3 4 5 6 
#
# 1 0.028496 0.002897 -0.006000 0.022674 0.008479 0.021051
# 2 0.002897 0.021939 -0.004736 -0.001242 -0.002578 0.014085
# 3 -0.006000 -0.004736 0.006951 -0.008551 0.001395 -0.009546
# 4 0.022674 -0.001242 -0.008551 0.114291 -0.025126 0.052513
# 5 0.008479 -0.002578 0.001395 -0.025126 0.051903 -0.002180
# 6 0.021051 0.014085 -0.009546 0.052513 -0.002180 0.075770
#
#
# Mechanical properties :
#
#
# Convention : Reuss Voigt Hill
#
# Bulk Modulus (GPa) = 23.97553 53.99618 38.98585
# Shear Modulus (GPa) = 15.20082 32.47603 23.83842
#
# Velocity S-wave (km/s) = 2.60066 3.80130 3.25679
# Velocity P-wave (km/s) = 4.43685 6.57963 5.61147
#
# Compressibility (1/GPa) = 0.04170919
#
# Stress axis : x y z
#
# Youngs Moduli (GPa) = 35.09246 45.57993 143.87391
#
# Poissons Ratio (x) = -0.13205 0.86318
# Poissons Ratio (y) = -0.10166 0.68138
# Poissons Ratio (z) = 0.21054 0.21586
#
# Static dielectric constant tensor:
#      x y z
#    x 1.871180 0.032460 -0.011290 
#    y 0.032460 1.887480 -0.043090 
#    z -0.011290 -0.043090 1.809420 
# 
# From -- ./inp_files/84885.got.cif
#   From: 2010.05.17/outbox.cif.g08.bks.cpg/sg2_43_cif.got.tgz:84885.got - 2010.06.03 11:33:40.
