data_PCOD9014311
_publ_section_title
;
Structure prediction by ZEFSAII (Michael W. Deem and Ramdas Pophale) SiO2 
 PCOD9014311
Probable space group: P -1
;
_chemical_formula_sum "Si O2"
_cell_formula_units_Z 15
_cell_length_a 8.525336
_cell_length_b 17.478355
_cell_length_c 6.812293
_cell_angle_alpha 48.817978
_cell_angle_beta 56.617358
_cell_angle_gamma 51.127631
_cell_volume 578.309799
_symmetry_space_group_name_H-M "P -1"
_symmetry_group_IT_number 2
_symmetry_cell_setting 'triclinic'
loop_
_space_group_symop_operation_xyz
x,y,z
-x,-y,-z
loop_
_atom_site_type_symbol
_atom_site_label
_atom_site_fract_x
_atom_site_fract_y
_atom_site_fract_z
Si Si1 0.671870 0.601094 0.024561
Si Si2 0.117089 0.266586 0.832737
Si Si3 0.540051 0.665690 0.404821
Si Si4 0.072928 0.142995 0.458916
Si Si5 0.064105 0.642147 0.564821
Si Si6 0.283991 0.910433 0.298226
Si Si7 0.407659 0.065317 0.686473
Si Si8 0.500000 0.500000 0.000000
O O1 0.514942 0.677138 0.167636
O O2 0.789349 0.480351 0.253119
O O3 0.574249 0.585034 0.920061
O O4 0.839361 0.647409 0.771082
O O5 0.229052 0.341821 0.706134
O O6 0.259449 0.170348 0.747715
O O7 0.924099 0.344412 0.700801
O O8 0.077790 0.202828 0.150022
O O9 0.395321 0.777507 0.427700
O O10 0.505520 0.562444 0.683640
O O11 0.933231 0.249597 0.513468
O O12 0.952442 0.064603 0.633412
O O13 0.295856 0.089837 0.509020
O O14 0.366269 0.943451 0.388086
O O15 0.375725 0.961963 0.978484
#
# Coordination Sequence:
#
# PCOD9014311 Si02
#       8
#     2   2   2   2   2   2   2   1
#     4  11  23  40  64  89 128 173 223 266 328 388
#     4  10  21  41  67  93 134 171 217 275 333 383
#     4  11  23  41  63  93 133 178 214 270 326 396
#     4  11  21  41  70  96 130 177 218 272 331 396
#     4  10  22  40  62  92 125 171 219 274 322 387
#     4  10  22  43  69  99 138 172 219 274 330 390
#     4   9  22  44  67  99 139 168 218 279 324 392
#     4  12  24  40  60  94 132 168 216 272 320 390
#
# _framework density 25.937656
#
# number of rings (size 3 to 8) (size 9 to 14) (size 15 to 20)
#    0.000    1.600    2.667    1.600    0.000    3.200 
#    0.000   16.667    0.000    0.000    0.000    0.000 
#    0.000    0.000    0.000    0.000    0.000    0.000 
#
# Total GULP energy -83716.426587 kJ/mol
# GULP energy per Si atom -5581.095106 kJ/mol
# Density = 2.587862 g / cm^3
# Si number density = 25.937656 Si / 1000 Ang^3
#
#
#
# Elastic Constant Matrix: (Units=GPa)
#
#
# Indices 1 2 3 4 5 6 
#
# 1 185.4343 48.5244 74.1448 7.5686 -1.5429 39.9858
# 2 48.5244 42.9566 9.8756 -0.5051 -1.8683 12.0657
# 3 74.1448 9.8756 133.0167 -5.4411 13.4753 10.3564
# 4 7.5686 -0.5051 -5.4411 40.6712 12.9862 9.5142
# 5 -1.5429 -1.8683 13.4753 12.9862 49.8414 -2.0011
# 6 39.9858 12.0657 10.3564 9.5142 -2.0011 52.5684
#
#
#
# Elastic Compliance Matrix: (Units=1/GPa)
#
#
# Indices 1 2 3 4 5 6 
#
# 1 0.011427 -0.010255 -0.005539 -0.002507 0.001931 -0.004720
# 2 -0.010255 0.034467 0.003506 0.003444 -0.000929 -0.001460
# 3 -0.005539 0.003506 0.010856 0.003669 -0.003913 0.000457
# 4 -0.002507 0.003444 0.003669 0.029667 -0.008884 -0.005314
# 5 0.001931 -0.000929 -0.003913 -0.008884 0.023542 0.002020
# 6 -0.004720 -0.001460 0.000457 -0.005314 0.002020 0.023897
#
#
# Mechanical properties :
#
#
# Convention : Reuss Voigt Hill
#
# Bulk Modulus (GPa) = 31.08025 69.61080 50.34553
# Shear Modulus (GPa) = 29.55848 43.87373 36.71610
#
# Velocity S-wave (km/s) = 3.37945 4.11726 3.76646
# Velocity P-wave (km/s) = 5.21884 7.03551 6.19414
#
# Compressibility (1/GPa) = 0.03217477
#
# Stress axis : x y z
#
# Youngs Moduli (GPa) = 87.51254 29.01305 92.11597
#
# Poissons Ratio (x) = 0.29751 0.51021
# Poissons Ratio (y) = 0.89740 -0.32293
# Poissons Ratio (z) = 0.48472 -0.10171
#
# Static dielectric constant tensor:
#      x y z
#    x 2.112110 -0.054760 0.017570 
#    y -0.054760 2.042770 0.039230 
#    z 0.017570 0.039230 1.956820 
# 
# From -- ./inp_files/43008.got.cif
#   From: 2010.05.17/outbox.cif.g08.bks.cpg/sg2_22_cif.got.tgz:43008.got - 2010.06.03 11:33:40.
