data_PCOD9014964
_publ_section_title
;
Structure prediction by ZEFSAII (Michael W. Deem and Ramdas Pophale) SiO2 
 PCOD9014964
Probable space group: P -1
;
_chemical_formula_sum "Si O2"
_cell_formula_units_Z 15
_cell_length_a 11.933703
_cell_length_b 7.171244
_cell_length_c 15.983170
_cell_angle_alpha 87.133400
_cell_angle_beta 128.443185
_cell_angle_gamma 53.404249
_cell_volume 639.310918
_symmetry_space_group_name_H-M "P -1"
_symmetry_group_IT_number 2
_symmetry_cell_setting 'triclinic'
loop_
_space_group_symop_operation_xyz
x,y,z
-x,-y,-z
loop_
_atom_site_type_symbol
_atom_site_label
_atom_site_fract_x
_atom_site_fract_y
_atom_site_fract_z
Si Si1 0.513337 0.200411 0.529226
Si Si2 0.367673 0.278947 0.141120
Si Si3 0.831969 0.312322 0.508442
Si Si4 0.387606 0.223302 0.863471
Si Si5 0.125024 0.124786 0.422653
Si Si6 0.000000 0.500000 0.500000
Si Si7 0.155523 0.190564 0.154639
Si Si8 0.573116 0.337826 0.827527
O O1 0.272651 0.520908 0.453286
O O2 0.500000 0.000000 0.500000
O O3 0.629104 0.177946 0.503662
O O4 0.713481 0.014047 0.697631
O O5 0.285727 0.247400 0.185673
O O6 0.407352 0.459065 0.160171
O O7 0.580484 0.942434 0.200920
O O8 0.126513 0.496687 0.969400
O O9 0.986340 0.315043 0.544688
O O10 0.623102 0.503547 0.338404
O O11 0.966486 0.977414 0.585008
O O12 0.509293 0.288644 0.883982
O O13 0.105695 0.551376 0.739530
O O14 0.500000 0.000000 0.000000
O O15 0.173510 0.223123 0.514220
O O16 0.195855 0.003405 0.100487
#
# Coordination Sequence:
#
# PCOD9014964 Si02
#       8
#     2   2   2   2   2   1   2   2
#     4  11  23  44  68 101 142 181 220 282 348 407
#     4  10  21  41  70  91 134 176 228 283 332 402
#     4  11  25  44  71 104 137 179 234 285 339 412
#     4  11  25  43  63  96 137 180 225 279 339 408
#     4  12  26  43  70 102 140 180 230 280 346 404
#     4  12  24  44  70 100 138 178 226 280 344 408
#     4   9  21  41  65  99 131 176 223 280 341 401
#     4  10  22  39  68 100 126 175 233 281 341 403
#
# _framework density 23.462764
#
# number of rings (size 3 to 8) (size 9 to 14) (size 15 to 20)
#    0.000    1.333    2.667    2.000    3.733    0.533 
#    0.000    1.333    2.933    0.000    0.000    0.000 
#    0.000    0.000    0.000    0.000    0.000    0.000 
#
# Total GULP energy -83574.063951 kJ/mol
# GULP energy per Si atom -5571.604263 kJ/mol
# Density = 2.340936 g / cm^3
# Si number density = 23.462764 Si / 1000 Ang^3
#
#
#
# Elastic Constant Matrix: (Units=GPa)
#
#
# Indices 1 2 3 4 5 6 
#
# 1 108.9798 43.0296 6.6847 13.2024 -1.9734 13.6773
# 2 43.0296 94.6434 -1.0327 2.0503 -5.3298 19.7587
# 3 6.6847 -1.0327 44.1931 -6.1701 -0.1501 0.1137
# 4 13.2024 2.0503 -6.1701 27.3516 -0.0249 1.8355
# 5 -1.9734 -5.3298 -0.1501 -0.0249 32.1885 -1.0150
# 6 13.6773 19.7587 0.1137 1.8355 -1.0150 55.5372
#
#
#
# Elastic Compliance Matrix: (Units=1/GPa)
#
#
# Indices 1 2 3 4 5 6 
#
# 1 0.012300 -0.005305 -0.002837 -0.006117 -0.000172 -0.000937
# 2 -0.005305 0.013814 0.001433 0.002095 0.001855 -0.003646
# 3 -0.002837 0.001433 0.024025 0.006687 0.000178 -0.000078
# 4 -0.006117 0.002095 0.006687 0.040905 0.000016 -0.000604
# 5 -0.000172 0.001855 0.000178 0.000016 0.031363 -0.000045
# 6 -0.000937 -0.003646 -0.000078 -0.000604 -0.000045 0.019553
#
#
# Mechanical properties :
#
#
# Convention : Reuss Voigt Hill
#
# Bulk Modulus (GPa) = 27.23104 38.35326 32.79215
# Shear Modulus (GPa) = 29.82983 36.29109 33.06046
#
# Velocity S-wave (km/s) = 3.56949 3.93714 3.75782
# Velocity P-wave (km/s) = 5.34973 6.08688 5.73017
#
# Compressibility (1/GPa) = 0.03672279
#
# Stress axis : x y z
#
# Youngs Moduli (GPa) = 81.30083 72.39165 41.62338
#
# Poissons Ratio (x) = 0.38401 0.11807
# Poissons Ratio (y) = 0.43127 -0.05966
# Poissons Ratio (z) = 0.23062 -0.10376
#
# Static dielectric constant tensor:
#      x y z
#    x 1.897210 0.009740 0.047940 
#    y 0.009740 1.788900 -0.086760 
#    z 0.047940 -0.086760 1.889110 
# 
# From -- ./inp_files/442007.got.cif
#   From: 2010.05.17/outbox.cif.g08.bks.cpg/sg2_222_cif.got.tgz:442007.got - 2010.06.03 11:33:40.
