data_PCOD9014588
_publ_section_title
;
Structure prediction by ZEFSAII (Michael W. Deem and Ramdas Pophale) SiO2 
 PCOD9014588
Probable space group: P -1
;
_chemical_formula_sum "Si O2"
_cell_formula_units_Z 12
_cell_length_a 13.115136
_cell_length_b 11.698171
_cell_length_c 13.166538
_cell_angle_alpha 32.867152
_cell_angle_beta 147.333993
_cell_angle_gamma 149.536282
_cell_volume 502.232113
_symmetry_space_group_name_H-M "P -1"
_symmetry_group_IT_number 2
_symmetry_cell_setting 'triclinic'
loop_
_space_group_symop_operation_xyz
x,y,z
-x,-y,-z
loop_
_atom_site_type_symbol
_atom_site_label
_atom_site_fract_x
_atom_site_fract_y
_atom_site_fract_z
Si Si1 0.160755 0.796300 0.396398
Si Si2 0.653183 0.356515 0.505388
Si Si3 0.781530 0.715359 0.891042
Si Si4 0.404782 0.170898 0.651647
Si Si5 0.841583 0.295770 0.320303
Si Si6 0.808754 0.557334 0.812071
O O1 0.295112 0.815368 0.394332
O O2 0.264994 0.859838 0.550279
O O3 0.000000 0.500000 0.500000
O O4 0.093815 0.000662 0.181024
O O5 0.478762 0.385273 0.269850
O O6 0.560762 0.277900 0.600726
O O7 0.897382 0.604469 0.536329
O O8 0.858102 0.688073 0.864645
O O9 0.813982 0.530247 0.124389
O O10 0.569029 0.301086 0.786343
O O11 0.229922 0.260871 0.428303
O O12 0.276590 0.877490 0.746423
O O13 0.000000 0.500000 0.000000
#
# Coordination Sequence:
#
# PCOD9014588 Si02
#       6
#     2   2   2   2   2   2
#     4  10  22  43  67  95 134 170 211 273 322 376
#     4  10  22  42  65  94 133 167 213 269 312 386
#     4  11  23  42  66  98 129 169 224 259 323 394
#     4  10  22  42  65  94 133 169 211 271 319 375
#     4  11  23  41  66  98 131 170 214 261 326 383
#     4  10  21  41  68  93 130 171 214 268 317 383
#
# _framework density 23.893336000000001
#
# number of rings (size 3 to 8) (size 9 to 14) (size 15 to 20)
#    0.000    1.667    3.333    1.500    0.000    5.333 
#    6.000   11.667    0.000    0.000    0.000    0.000 
#    0.000    0.000    0.000    0.000    0.000    0.000 
#
# Total GULP energy -66933.812779 kJ/mol
# GULP energy per Si atom -5577.817732 kJ/mol
# Density = 2.383895 g / cm^3
# Si number density = 23.893336 Si / 1000 Ang^3
#
#
#
# Elastic Constant Matrix: (Units=GPa)
#
#
# Indices 1 2 3 4 5 6 
#
# 1 95.9611 25.3257 34.8152 -4.1273 22.2480 -16.7866
# 2 25.3257 124.5479 39.7923 -20.8446 15.0494 -12.1669
# 3 34.8152 39.7923 142.1833 -12.9009 16.4876 -5.6257
# 4 -4.1273 -20.8446 -12.9009 40.4964 -9.8815 8.5307
# 5 22.2480 15.0494 16.4876 -9.8815 42.4228 -3.9293
# 6 -16.7866 -12.1669 -5.6257 8.5307 -3.9293 42.9592
#
#
#
# Elastic Compliance Matrix: (Units=1/GPa)
#
#
# Indices 1 2 3 4 5 6 
#
# 1 0.013692 -0.001271 -0.002344 -0.002433 -0.005957 0.004621
# 2 -0.001271 0.009775 -0.001911 0.003786 -0.001068 0.001172
# 3 -0.002344 -0.001911 0.008361 0.001325 -0.001101 -0.000726
# 4 -0.002433 0.003786 0.001325 0.029277 0.005775 -0.004990
# 5 -0.005957 -0.001068 -0.001101 0.005775 0.028728 -0.001294
# 6 0.004621 0.001172 -0.000726 -0.004990 -0.001294 0.026193
#
#
# Mechanical properties :
#
#
# Convention : Reuss Voigt Hill
#
# Bulk Modulus (GPa) = 48.13167 62.50652 55.31910
# Shear Modulus (GPa) = 37.31252 42.69296 40.00274
#
# Velocity S-wave (km/s) = 3.95603 4.23166 4.09616
# Velocity P-wave (km/s) = 6.40742 7.07767 6.75087
#
# Compressibility (1/GPa) = 0.02077634
#
# Stress axis : x y z
#
# Youngs Moduli (GPa) = 73.03731 102.30040 119.60184
#
# Poissons Ratio (x) = 0.13003 0.28034
# Poissons Ratio (y) = 0.09284 0.22853
# Poissons Ratio (z) = 0.17119 0.19547
#
# Static dielectric constant tensor:
#      x y z
#    x 1.936290 0.013910 -0.000080 
#    y 0.013910 2.092490 0.032840 
#    z -0.000080 0.032840 1.918280 
# 
# From -- ./inp_files/503692.got.cif
#   From: 2010.05.17/outbox.cif.g08.bks.cpg/sg2_252_cif.got.tgz:503692.got - 2010.06.03 11:33:40.
