data_PCOD9014239
_publ_section_title
;
Structure prediction by ZEFSAII (Michael W. Deem and Ramdas Pophale) SiO2 
 PCOD9014239
Probable space group: P -1
;
_chemical_formula_sum "Si O2"
_cell_formula_units_Z 12
_cell_length_a 7.358166
_cell_length_b 13.928081
_cell_length_c 8.753599
_cell_angle_alpha 49.343666
_cell_angle_beta 119.823392
_cell_angle_gamma 137.490112
_cell_volume 459.624149
_symmetry_space_group_name_H-M "P -1"
_symmetry_group_IT_number 2
_symmetry_cell_setting 'triclinic'
loop_
_space_group_symop_operation_xyz
x,y,z
-x,-y,-z
loop_
_atom_site_type_symbol
_atom_site_label
_atom_site_fract_x
_atom_site_fract_y
_atom_site_fract_z
Si Si1 0.409822 0.951433 0.189446
Si Si2 0.403449 0.223379 0.990712
Si Si3 0.198003 0.488085 0.373728
Si Si4 0.257004 0.311550 0.110212
Si Si5 0.327977 0.641800 0.567772
Si Si6 0.149733 0.774999 0.725810
O O1 0.284735 0.042812 0.077068
O O2 0.635700 0.035964 0.335269
O O3 0.287544 0.766540 0.349618
O O4 0.500000 0.000000 0.000000
O O5 0.211358 0.231692 0.010053
O O6 0.658090 0.274181 0.148169
O O7 0.565281 0.359943 0.785773
O O8 0.322508 0.531804 0.549390
O O9 0.057839 0.315865 0.406793
O O10 0.933693 0.473036 0.316325
O O11 0.384593 0.257854 0.335307
O O12 0.018895 0.287553 0.124099
O O13 0.500000 0.500000 0.000000
#
# Coordination Sequence:
#
# PCOD9014239 Si02
#       6
#     2   2   2   2   2   2
#     4  10  22  42  67  91 130 169 206 262 323 371
#     4  10  21  41  67  88 129 165 209 260 313 371
#     4  11  20  39  65  96 124 163 215 262 304 374
#     4  12  23  38  66  97 127 168 211 260 315 374
#     4  11  23  38  67  97 126 167 216 255 317 380
#     4  10  22  38  66  90 127 169 208 256 317 369
#
# _framework density 26.10829
#
# number of rings (size 3 to 8) (size 9 to 14) (size 15 to 20)
#    1.000    0.333    5.000    1.500    0.000    4.000 
#    0.000    0.833    0.000    0.000    0.000    0.000 
#    0.000    0.000    0.000    0.000    0.000    0.000 
#
# Total GULP energy -66855.200969 kJ/mol
# GULP energy per Si atom -5571.266747 kJ/mol
# Density = 2.604887 g / cm^3
# Si number density = 26.108290 Si / 1000 Ang^3
#
#
#
# Elastic Constant Matrix: (Units=GPa)
#
#
# Indices 1 2 3 4 5 6 
#
# 1 39.8412 43.0545 19.3815 7.8215 -9.4129 -21.9507
# 2 43.0545 177.9812 41.3903 9.2206 -7.6481 -35.4854
# 3 19.3815 41.3903 72.0502 -1.8323 2.3399 -19.1702
# 4 7.8215 9.2206 -1.8323 34.6412 -16.5726 -3.0431
# 5 -9.4129 -7.6481 2.3399 -16.5726 24.7375 10.6153
# 6 -21.9507 -35.4854 -19.1702 -3.0431 10.6153 46.0560
#
#
#
# Elastic Compliance Matrix: (Units=1/GPa)
#
#
# Indices 1 2 3 4 5 6 
#
# 1 0.043582 -0.006491 -0.005254 -0.003738 0.007598 0.011585
# 2 -0.006491 0.008240 -0.002263 -0.001498 -0.001844 0.002639
# 3 -0.005254 -0.002263 0.018065 0.000115 -0.006368 0.004747
# 4 -0.003738 -0.001498 0.000115 0.044205 0.030745 -0.007053
# 5 0.007598 -0.001844 -0.006368 0.030745 0.070210 -0.014601
# 6 0.011585 0.002639 0.004747 -0.007053 -0.014601 0.034143
#
#
# Mechanical properties :
#
#
# Convention : Reuss Voigt Hill
#
# Bulk Modulus (GPa) = 23.88338 55.28056 39.58197
# Shear Modulus (GPa) = 19.19990 33.49004 26.34497
#
# Velocity S-wave (km/s) = 2.71476 3.58542 3.18003
# Velocity P-wave (km/s) = 4.35824 6.19353 5.35509
#
# Compressibility (1/GPa) = 0.04187012
#
# Stress axis : x y z
#
# Youngs Moduli (GPa) = 22.94542 121.36563 55.35427
#
# Poissons Ratio (x) = 0.78776 0.29084
# Poissons Ratio (y) = 0.14893 0.12529
# Poissons Ratio (z) = 0.12056 0.27470
#
# Static dielectric constant tensor:
#      x y z
#    x 2.044000 0.073340 0.033580 
#    y 0.073340 2.095700 0.087500 
#    z 0.033580 0.087500 2.136890 
# 
# From -- ./inp_files/153145.got.cif
#   From: 2010.05.17/outbox.cif.g08.bks.cpg/sg2_77_cif.got.tgz:153145.got - 2010.06.03 11:33:40.
