data_PCOD9014872
_publ_section_title
;
Structure prediction by ZEFSAII (Michael W. Deem and Ramdas Pophale) SiO2 
 PCOD9014872
Probable space group: P -1
;
_chemical_formula_sum "Si O2"
_cell_formula_units_Z 15
_cell_length_a 14.714292
_cell_length_b 10.797405
_cell_length_c 5.178972
_cell_angle_alpha 82.661501
_cell_angle_beta 78.484363
_cell_angle_gamma 123.972298
_cell_volume 638.985832
_symmetry_space_group_name_H-M "P -1"
_symmetry_group_IT_number 2
_symmetry_cell_setting 'triclinic'
loop_
_space_group_symop_operation_xyz
x,y,z
-x,-y,-z
loop_
_atom_site_type_symbol
_atom_site_label
_atom_site_fract_x
_atom_site_fract_y
_atom_site_fract_z
Si Si1 0.401592 0.581978 0.527631
Si Si2 0.059153 0.105457 0.688603
Si Si3 0.192608 0.672152 0.321840
Si Si4 0.441252 0.893558 0.312319
Si Si5 0.187794 0.449734 0.011714
Si Si6 0.287337 0.306636 0.290128
Si Si7 0.500000 0.500000 0.000000
Si Si8 0.993131 0.654055 0.212695
O O1 0.455892 0.755884 0.367713
O O2 0.391601 0.480453 0.310684
O O3 0.452342 0.557799 0.758165
O O4 0.267590 0.503755 0.698505
O O5 0.196982 0.183461 0.578956
O O6 0.036277 0.235243 0.680685
O O7 0.000000 0.000000 0.500000
O O8 0.000000 0.000000 0.000000
O O9 0.302538 0.805453 0.386197
O O10 0.235870 0.599762 0.119169
O O11 0.123036 0.718827 0.183559
O O12 0.093702 0.523155 0.585695
O O13 0.500000 0.000000 0.500000
O O14 0.500000 0.000000 0.000000
O O15 0.206886 0.332705 0.164606
O O16 0.053766 0.368624 0.046817
O O17 0.379928 0.309058 0.071515
#
# Coordination Sequence:
#
# PCOD9014872 Si02
#       8
#     2   2   2   2   2   2   1   2
#     4  10  21  41  69  97 135 183 249 298 353 429
#     4  12  25  44  69 100 150 198 230 288 384 451
#     4  11  23  42  71 106 137 180 256 302 349 429
#     4  12  25  44  69 101 150 195 224 288 385 451
#     4  12  17  39  74 102 134 182 242 309 366 420
#     4  10  21  41  69  97 137 184 251 297 352 430
#     4   8  20  42  68  96 126 170 262 310 332 402
#     4  11  23  42  71 103 136 185 249 310 345 427
#
# _framework density 23.474696999999999
#
# number of rings (size 3 to 8) (size 9 to 14) (size 15 to 20)
#    0.800    0.267    5.333    2.000    0.000    0.533 
#    2.400    0.000    2.933    0.000    0.000    0.000 
#    0.000    0.000    0.000    0.000    0.000    0.000 
#
# Total GULP energy -83628.069822 kJ/mol
# GULP energy per Si atom -5575.204655 kJ/mol
# Density = 2.342127 g / cm^3
# Si number density = 23.474697 Si / 1000 Ang^3
#
#
#
# Elastic Constant Matrix: (Units=GPa)
#
#
# Indices 1 2 3 4 5 6 
#
# 1 130.8109 35.9654 36.1315 -3.5788 10.5363 45.5548
# 2 35.9654 132.7529 41.3791 10.7066 2.8854 28.7021
# 3 36.1315 41.3791 140.1720 -8.8814 6.5136 20.1852
# 4 -3.5788 10.7066 -8.8814 43.6156 10.2674 -2.5557
# 5 10.5363 2.8854 6.5136 10.2674 44.4872 6.2501
# 6 45.5548 28.7021 20.1852 -2.5557 6.2501 33.1181
#
#
#
# Elastic Compliance Matrix: (Units=1/GPa)
#
#
# Indices 1 2 3 4 5 6 
#
# 1 0.014863 0.000753 -0.001118 -0.000271 -0.000484 -0.020346
# 2 0.000753 0.010287 -0.002226 -0.003847 0.001662 -0.009205
# 3 -0.001118 -0.002226 0.008472 0.002387 -0.001202 -0.001284
# 4 -0.000271 -0.003847 0.002387 0.026284 -0.006886 0.005580
# 5 -0.000484 0.001662 -0.001202 -0.006886 0.024994 -0.005290
# 6 -0.020346 -0.009205 -0.001284 0.005580 -0.005290 0.068370
#
#
# Mechanical properties :
#
#
# Convention : Reuss Voigt Hill
#
# Bulk Modulus (GPa) = 35.16332 70.07640 52.61986
# Shear Modulus (GPa) = 29.77385 43.59482 36.68433
#
# Velocity S-wave (km/s) = 3.56524 4.31408 3.95741
# Velocity P-wave (km/s) = 5.65329 7.39809 6.58375
#
# Compressibility (1/GPa) = 0.02843873
#
# Stress axis : x y z
#
# Youngs Moduli (GPa) = 67.27934 97.20980 118.04028
#
# Poissons Ratio (x) = -0.07321 0.13202
# Poissons Ratio (y) = -0.05067 0.26280
# Poissons Ratio (z) = 0.07525 0.21642
#
# Static dielectric constant tensor:
#      x y z
#    x 2.008860 0.011480 -0.078330 
#    y 0.011480 1.946300 0.021390 
#    z -0.078330 0.021390 2.081790 
# 
# From -- ./inp_files/94649.got.cif
#   From: 2010.05.17/outbox.cif.g08.bks.cpg/sg2_48_cif.got.tgz:94649.got - 2010.06.03 11:33:40.
