data_PCOD9014189
_publ_section_title
;
Structure prediction by ZEFSAII (Michael W. Deem and Ramdas Pophale) SiO2 
 PCOD9014189
Probable space group: P -1
;
_chemical_formula_sum "Si O2"
_cell_formula_units_Z 16
_cell_length_a 12.161890
_cell_length_b 8.213036
_cell_length_c 10.507881
_cell_angle_alpha 138.770785
_cell_angle_beta 67.955480
_cell_angle_gamma 97.377534
_cell_volume 620.512100
_symmetry_space_group_name_H-M "P -1"
_symmetry_group_IT_number 2
_symmetry_cell_setting 'triclinic'
loop_
_space_group_symop_operation_xyz
x,y,z
-x,-y,-z
loop_
_atom_site_type_symbol
_atom_site_label
_atom_site_fract_x
_atom_site_fract_y
_atom_site_fract_z
Si Si1 0.345253 0.574286 0.344023
Si Si2 0.973756 0.886955 0.128507
Si Si3 0.440587 0.842066 0.104466
Si Si4 0.051252 0.276394 0.691289
Si Si5 0.800103 0.093478 0.083200
Si Si6 0.360875 0.085548 0.779626
Si Si7 0.261574 0.356438 0.481941
Si Si8 0.769835 0.372673 0.852395
O O1 0.249385 0.476246 0.417177
O O2 0.286139 0.628404 0.263828
O O3 0.373009 0.826955 0.544123
O O4 0.467586 0.346833 0.139853
O O5 0.913495 0.890866 0.294742
O O6 0.883418 0.017644 0.131722
O O7 0.024434 0.583168 0.905613
O O8 0.098097 0.985751 0.117334
O O9 0.516182 0.822444 0.193709
O O10 0.315795 0.753532 0.100587
O O11 0.389411 0.145855 0.296796
O O12 0.155114 0.240680 0.518091
O O13 0.086349 0.745714 0.286875
O O14 0.739747 0.395766 0.285550
O O15 0.690719 0.963523 0.085665
O O16 0.261822 0.331673 0.915128
#
# Coordination Sequence:
#
# PCOD9014189 Si02
#       8
#     2   2   2   2   2   2   2   2
#     4  10  23  45  71  99 132 182 232 281 341 400
#     4   9  18  38  65 105 136 174 223 276 338 413
#     4  11  25  45  65  97 144 173 234 286 330 409
#     4  10  21  41  67 101 143 173 221 287 341 404
#     4   9  18  37  69 102 133 174 231 268 337 417
#     4  10  21  43  73  98 131 180 229 280 343 399
#     4  10  23  42  65  99 137 182 228 278 341 408
#     4  11  24  44  68 102 138 178 227 284 341 409
#
# _framework density 25.785152
#
# number of rings (size 3 to 8) (size 9 to 14) (size 15 to 20)
#    0.000    2.000    1.250    1.875    0.000    7.000 
#   15.750    0.000    0.000    0.000    0.000    0.000 
#    0.000    0.000    0.000    0.000    0.000    0.000 
#
# Total GULP energy -89360.028178 kJ/mol
# GULP energy per Si atom -5585.001761 kJ/mol
# Density = 2.572646 g / cm^3
# Si number density = 25.785152 Si / 1000 Ang^3
#
#
#
# Elastic Constant Matrix: (Units=GPa)
#
#
# Indices 1 2 3 4 5 6 
#
# 1 98.6545 31.3337 38.0888 -6.0995 -9.7337 17.4539
# 2 31.3337 74.5632 45.4804 -11.8290 -10.9251 14.6385
# 3 38.0888 45.4804 155.9451 11.6550 -15.8042 -0.3966
# 4 -6.0995 -11.8290 11.6550 40.1822 -0.0778 -7.3885
# 5 -9.7337 -10.9251 -15.8042 -0.0778 39.7006 -0.2803
# 6 17.4539 14.6385 -0.3966 -7.3885 -0.2803 36.8872
#
#
#
# Elastic Compliance Matrix: (Units=1/GPa)
#
#
# Indices 1 2 3 4 5 6 
#
# 1 0.012956 -0.002714 -0.002306 0.000942 0.001479 -0.004878
# 2 -0.002714 0.020366 -0.005473 0.006146 0.002733 -0.005605
# 3 -0.002306 -0.005473 0.009042 -0.004112 0.001538 0.002548
# 4 0.000942 0.006146 -0.004112 0.028546 0.000361 0.002791
# 5 0.001479 0.002733 0.001538 0.000361 0.026905 -0.001491
# 6 -0.004878 -0.005605 0.002548 0.002791 -0.001491 0.032217
#
#
# Mechanical properties :
#
#
# Convention : Reuss Voigt Hill
#
# Bulk Modulus (GPa) = 46.77882 62.10761 54.44322
# Shear Modulus (GPa) = 31.61659 37.63800 34.62730
#
# Velocity S-wave (km/s) = 3.50545 3.82472 3.66856
# Velocity P-wave (km/s) = 5.87923 6.60632 6.25335
#
# Compressibility (1/GPa) = 0.02137719
#
# Stress axis : x y z
#
# Youngs Moduli (GPa) = 77.18520 49.10055 110.59928
#
# Poissons Ratio (x) = 0.13326 0.25502
# Poissons Ratio (y) = 0.20949 0.60536
# Poissons Ratio (z) = 0.17797 0.26875
#
# Static dielectric constant tensor:
#      x y z
#    x 2.042470 0.028980 0.012880 
#    y 0.028980 2.086040 0.003350 
#    z 0.012880 0.003350 2.058570 
# 
# From -- ./inp_files/446460.got.cif
#   From: 2010.05.17/outbox.cif.g08.bks.cpg/sg2_224_cif.got.tgz:446460.got - 2010.06.03 11:33:40.
