data_PCOD9014319
_publ_section_title
;
Structure prediction by ZEFSAII (Michael W. Deem and Ramdas Pophale) SiO2 
 PCOD9014319
Probable space group: P -1
;
_chemical_formula_sum "Si O2"
_cell_formula_units_Z 16
_cell_length_a 14.859668
_cell_length_b 8.726290
_cell_length_c 12.817313
_cell_angle_alpha 114.416441
_cell_angle_beta 44.131657
_cell_angle_gamma 137.712303
_cell_volume 753.749450
_symmetry_space_group_name_H-M "P -1"
_symmetry_group_IT_number 2
_symmetry_cell_setting 'triclinic'
loop_
_space_group_symop_operation_xyz
x,y,z
-x,-y,-z
loop_
_atom_site_type_symbol
_atom_site_label
_atom_site_fract_x
_atom_site_fract_y
_atom_site_fract_z
Si Si1 0.862041 0.868338 0.171414
Si Si2 0.459360 0.483685 0.405185
Si Si3 0.425283 0.934839 0.821016
Si Si4 0.864045 0.278321 0.814887
Si Si5 0.878944 0.532462 0.166385
Si Si6 0.068988 0.721974 0.649941
Si Si7 0.595117 0.210840 0.562582
Si Si8 0.773459 0.040598 0.618411
O O1 0.659849 0.650765 0.237848
O O2 0.913336 0.754093 0.166195
O O3 0.872141 0.054557 0.276178
O O4 0.000000 0.000000 0.000000
O O5 0.500000 0.500000 0.500000
O O6 0.390052 0.600173 0.456350
O O7 0.316602 0.215571 0.412910
O O8 0.319821 0.698924 0.772287
O O9 0.608527 0.022689 0.737314
O O10 0.475388 0.117759 0.742483
O O11 0.295373 0.862458 0.005783
O O12 0.048775 0.421149 0.764841
O O13 0.894218 0.479657 0.781505
O O14 0.835398 0.110165 0.705020
O O15 0.000000 0.500000 0.000000
O O16 0.226459 0.726283 0.532318
O O17 0.068790 0.767172 0.540429
O O18 0.500000 0.000000 0.500000
#
# Coordination Sequence:
#
# PCOD9014319 Si02
#       8
#     2   2   2   2   2   2   2   2
#     4  12  24  40  66 102 130 165 224 278 320 379
#     4  12  24  42  68  97 131 171 222 271 324 391
#     4  10  21  41  67  94 127 172 223 267 314 392
#     4  11  24  41  66  97 134 172 217 269 334 383
#     4  10  22  38  64  96 131 164 211 265 326 373
#     4  11  24  41  65  94 133 174 218 269 325 394
#     4  11  22  39  67  96 128 168 221 271 326 379
#     4  11  23  44  64  95 134 176 216 266 328 397
#
# _framework density 21.227212999999999
#
# number of rings (size 3 to 8) (size 9 to 14) (size 15 to 20)
#    0.000    1.000    3.750    3.750    5.250    0.000 
#    0.000    5.625    0.000    0.000    0.000    0.000 
#    0.000    0.000    0.000    0.000    0.000    0.000 
#
# Total GULP energy -89354.875088 kJ/mol
# GULP energy per Si atom -5584.679693 kJ/mol
# Density = 2.117890 g / cm^3
# Si number density = 21.227213 Si / 1000 Ang^3
#
#
#
# Elastic Constant Matrix: (Units=GPa)
#
#
# Indices 1 2 3 4 5 6 
#
# 1 71.0160 41.2681 43.9795 16.5076 17.3258 -9.8795
# 2 41.2681 114.0116 35.6730 14.5799 25.3663 -12.7381
# 3 43.9795 35.6730 143.1316 -8.7664 30.5391 -10.9705
# 4 16.5076 14.5799 -8.7664 26.8578 4.2094 6.4934
# 5 17.3258 25.3663 30.5391 4.2094 37.8991 4.1161
# 6 -9.8795 -12.7381 -10.9705 6.4934 4.1161 45.7017
#
#
#
# Elastic Compliance Matrix: (Units=1/GPa)
#
#
# Indices 1 2 3 4 5 6 
#
# 1 0.026139 -0.003884 -0.007234 -0.017302 -0.002195 0.005487
# 2 -0.003884 0.012778 -0.000688 -0.004731 -0.006107 0.003779
# 3 -0.007234 -0.000688 0.011356 0.009490 -0.006459 0.000204
# 4 -0.017302 -0.004731 0.009490 0.056368 -0.001676 -0.010639
# 5 -0.002195 -0.006107 -0.006459 -0.001676 0.037615 -0.006877
# 6 0.005487 0.003779 0.000204 -0.010639 -0.006877 0.026300
#
#
# Mechanical properties :
#
#
# Convention : Reuss Voigt Hill
#
# Bulk Modulus (GPa) = 37.50950 63.33339 50.42145
# Shear Modulus (GPa) = 24.62375 35.90760 30.26568
#
# Velocity S-wave (km/s) = 3.40958 4.11735 3.78007
# Velocity P-wave (km/s) = 5.76274 7.24597 6.54650
#
# Compressibility (1/GPa) = 0.02665991
#
# Stress axis : x y z
#
# Youngs Moduli (GPa) = 38.25679 78.25788 88.05967
#
# Poissons Ratio (x) = 0.30395 0.63706
# Poissons Ratio (y) = 0.14859 0.06062
# Poissons Ratio (z) = 0.27677 0.05387
#
# Static dielectric constant tensor:
#      x y z
#    x 1.682580 0.008930 0.025370 
#    y 0.008930 1.771990 -0.037760 
#    z 0.025370 -0.037760 1.853110 
# 
# From -- ./inp_files/447804.got.cif
#   From: 2010.05.17/outbox.cif.g08.bks.cpg/sg2_224_cif.got.tgz:447804.got - 2010.06.03 11:33:40.
