data_PCOD9014293
_publ_section_title
;
Structure prediction by ZEFSAII (Michael W. Deem and Ramdas Pophale) SiO2 
 PCOD9014293
Probable space group: P -1
;
_chemical_formula_sum "Si O2"
_cell_formula_units_Z 12
_cell_length_a 17.078610
_cell_length_b 6.696419
_cell_length_c 5.292726
_cell_angle_alpha 70.624791
_cell_angle_beta 92.312142
_cell_angle_gamma 98.098027
_cell_volume 565.317518
_symmetry_space_group_name_H-M "P -1"
_symmetry_group_IT_number 2
_symmetry_cell_setting 'triclinic'
loop_
_space_group_symop_operation_xyz
x,y,z
-x,-y,-z
loop_
_atom_site_type_symbol
_atom_site_label
_atom_site_fract_x
_atom_site_fract_y
_atom_site_fract_z
Si Si1 0.498592 0.762401 0.002863
Si Si2 0.965056 0.255937 0.640542
Si Si3 0.366964 0.007127 0.358930
Si Si4 0.390375 0.550488 0.703461
Si Si5 0.718622 0.860882 0.203861
Si Si6 0.101546 0.950055 0.782278
O O1 0.415229 0.645308 0.945559
O O2 0.555724 0.817648 0.741651
O O3 0.544381 0.612353 0.245681
O O4 0.500000 0.000000 0.000000
O O5 0.908951 0.171146 0.435307
O O6 0.000000 0.500000 0.500000
O O7 0.920775 0.211145 0.919897
O O8 0.037758 0.116434 0.708214
O O9 0.389562 0.767491 0.458665
O O10 0.324331 0.052731 0.594320
O O11 0.312487 0.040388 0.097550
O O12 0.309381 0.393432 0.721952
O O13 0.811342 0.926545 0.220981
#
# Coordination Sequence:
#
# PCOD9014293 Si02
#       6
#     2   2   2   2   2   2
#     4  10  22  41  64  89 119 160 214 264 301 357
#     4  10  21  41  67  93 121 161 203 245 298 358
#     4  11  24  41  60  89 125 161 209 255 301 363
#     4  10  22  39  63  88 119 163 204 251 313 359
#     4  11  25  41  60  92 128 161 199 251 308 365
#     4  10  22  40  63  94 127 156 202 251 294 363
#
# _framework density 21.227008999999999
#
# number of rings (size 3 to 8) (size 9 to 14) (size 15 to 20)
#    0.000    1.667    0.000    4.000    0.000   10.667 
#    0.000    0.000    0.000    0.000    0.000    0.000 
#    0.000    0.000    0.000    0.000    0.000    0.000 
#
# Total GULP energy -67031.581836 kJ/mol
# GULP energy per Si atom -5585.965153 kJ/mol
# Density = 2.117870 g / cm^3
# Si number density = 21.227009 Si / 1000 Ang^3
#
#
#
# Elastic Constant Matrix: (Units=GPa)
#
#
# Indices 1 2 3 4 5 6 
#
# 1 80.8224 43.2670 39.1419 5.9026 1.3410 39.2972
# 2 43.2670 142.0803 61.6744 -17.4193 9.4018 25.6375
# 3 39.1419 61.6744 141.1142 -2.5965 6.4257 13.7448
# 4 5.9026 -17.4193 -2.5965 51.1138 4.5699 -1.6407
# 5 1.3410 9.4018 6.4257 4.5699 24.9767 6.5146
# 6 39.2972 25.6375 13.7448 -1.6407 6.5146 37.4198
#
#
#
# Elastic Compliance Matrix: (Units=1/GPa)
#
#
# Indices 1 2 3 4 5 6 
#
# 1 0.032749 -0.003570 -0.004996 -0.007237 0.010614 -0.032277
# 2 -0.003570 0.010522 -0.003236 0.004079 -0.003286 -0.001521
# 3 -0.004996 -0.003236 0.009568 0.000293 -0.002160 0.004339
# 4 -0.007237 0.004079 0.000293 0.022670 -0.007181 0.006942
# 5 0.010614 -0.003286 -0.002160 -0.007181 0.046899 -0.016581
# 6 -0.032277 -0.001521 0.004339 0.006942 -0.016581 0.063259
#
#
# Mechanical properties :
#
#
# Convention : Reuss Voigt Hill
#
# Bulk Modulus (GPa) = 34.20522 72.46485 53.33504
# Shear Modulus (GPa) = 22.82951 37.36431 30.09691
#
# Velocity S-wave (km/s) = 3.28303 4.20005 3.76953
# Velocity P-wave (km/s) = 5.52449 7.59821 6.64277
#
# Compressibility (1/GPa) = 0.02923530
#
# Stress axis : x y z
#
# Youngs Moduli (GPa) = 30.53489 95.04152 104.51851
#
# Poissons Ratio (x) = 0.33927 0.52222
# Poissons Ratio (y) = 0.10900 0.33818
# Poissons Ratio (z) = 0.15257 0.30752
#
# Static dielectric constant tensor:
#      x y z
#    x 1.764090 -0.021650 -0.016490 
#    y -0.021650 1.767410 0.036340 
#    z -0.016490 0.036340 1.804000 
# 
# From -- ./inp_files/102333.got.cif
#   From: 2010.05.17/outbox.cif.g08.bks.cpg/sg2_52_cif.got.tgz:102333.got - 2010.06.03 11:33:40.
