data_PCOD9014929
_publ_section_title
;
Structure prediction by ZEFSAII (Michael W. Deem and Ramdas Pophale) SiO2 
 PCOD9014929
Probable space group: P -1
;
_chemical_formula_sum "Si O2"
_cell_formula_units_Z 16
_cell_length_a 11.834824
_cell_length_b 13.264273
_cell_length_c 9.205772
_cell_angle_alpha 74.161494
_cell_angle_beta 122.039170
_cell_angle_gamma 146.406403
_cell_volume 632.284692
_symmetry_space_group_name_H-M "P -1"
_symmetry_group_IT_number 2
_symmetry_cell_setting 'triclinic'
loop_
_space_group_symop_operation_xyz
x,y,z
-x,-y,-z
loop_
_atom_site_type_symbol
_atom_site_label
_atom_site_fract_x
_atom_site_fract_y
_atom_site_fract_z
Si Si1 0.884394 0.748695 0.570937
Si Si2 0.577872 0.401136 0.683271
Si Si3 0.120659 0.819180 0.195884
Si Si4 0.497981 0.243366 0.391386
Si Si5 0.703803 0.706915 0.976030
Si Si6 0.001484 0.352055 0.526264
Si Si7 0.333723 0.155067 0.869075
Si Si8 0.514705 0.960709 0.865946
O O1 0.819994 0.621373 0.702948
O O2 0.646296 0.664312 0.432815
O O3 0.913588 0.704027 0.460894
O O4 0.125998 0.973196 0.690349
O O5 0.506907 0.274772 0.555752
O O6 0.568651 0.345996 0.857562
O O7 0.016622 0.674489 0.304806
O O8 0.911809 0.766605 0.034336
O O9 0.336854 0.034335 0.332426
O O10 0.254830 0.845842 0.148475
O O11 0.782039 0.424798 0.459265
O O12 0.390033 0.274688 0.219416
O O13 0.787220 0.837611 0.113822
O O14 0.500000 0.500000 0.000000
O O15 0.741379 0.196103 0.330969
O O16 0.424043 0.120960 0.043614
O O17 0.500000 0.000000 0.000000
#
# Coordination Sequence:
#
# PCOD9014929 Si02
#       8
#     2   2   2   2   2   2   2   2
#     4  10  21  41  70 101 142 180 232 293 352 430
#     4  10  23  38  71 105 139 183 229 295 370 417
#     4  12  25  47  79 101 144 195 230 302 373 417
#     4  11  24  44  70 111 141 183 240 291 362 433
#     4  12  26  46  76 113 147 177 238 309 370 424
#     4  11  24  48  70 103 146 190 244 295 343 432
#     4  12  24  46  69 102 143 187 233 295 360 417
#     4  12  28  48  73 103 146 197 251 293 340 435
#
# _framework density 25.305057000000001
#
# number of rings (size 3 to 8) (size 9 to 14) (size 15 to 20)
#    0.000    0.750    3.750    3.375    5.250    0.500 
#    0.000    3.750    0.000    0.000    0.000    0.000 
#    0.000    0.000    0.000    0.000    0.000    0.000 
#
# Total GULP energy -89760.123805 kJ/mol
# GULP energy per Si atom -5610.007738 kJ/mol
# Density = 2.524746 g / cm^3
# Si number density = 25.305057 Si / 1000 Ang^3
#
#
#
# Elastic Constant Matrix: (Units=GPa)
#
#
# Indices 1 2 3 4 5 6 
#
# 1 100.1389 21.8537 18.9868 2.8908 -23.1979 23.9224
# 2 21.8537 76.9950 6.3994 -6.1630 -5.9513 21.0983
# 3 18.9868 6.3994 72.2101 -9.4723 -9.4098 14.7600
# 4 2.8908 -6.1630 -9.4723 37.2487 5.1574 -8.9262
# 5 -23.1979 -5.9513 -9.4098 5.1574 46.9380 -0.6771
# 6 23.9224 21.0983 14.7600 -8.9262 -0.6771 48.4260
#
#
#
# Elastic Compliance Matrix: (Units=1/GPa)
#
#
# Indices 1 2 3 4 5 6 
#
# 1 0.013894 -0.001935 -0.001928 -0.004273 0.006616 -0.006128
# 2 -0.001935 0.015192 0.000593 0.001358 0.000859 -0.005582
# 3 -0.001928 0.000593 0.015669 0.003140 0.001869 -0.003477
# 4 -0.004273 0.001358 0.003140 0.030289 -0.004550 0.006081
# 5 0.006616 0.000859 0.001869 -0.004550 0.025490 -0.004695
# 6 -0.006128 -0.005582 -0.003477 0.006081 -0.004695 0.028224
#
#
# Mechanical properties :
#
#
# Convention : Reuss Voigt Hill
#
# Bulk Modulus (GPa) = 26.16606 38.20262 32.18434
# Shear Modulus (GPa) = 33.77569 39.99614 36.88592
#
# Velocity S-wave (km/s) = 3.65737 3.97994 3.82206
# Velocity P-wave (km/s) = 5.31017 6.02075 5.67659
#
# Compressibility (1/GPa) = 0.03821745
#
# Stress axis : x y z
#
# Youngs Moduli (GPa) = 71.97447 65.82272 63.82067
#
# Poissons Ratio (x) = 0.12735 0.12302
# Poissons Ratio (y) = 0.13925 -0.03787
# Poissons Ratio (z) = 0.13873 -0.03906
#
# Static dielectric constant tensor:
#      x y z
#    x 2.003280 0.004780 -0.003330 
#    y 0.004780 2.013950 -0.027200 
#    z -0.003330 -0.027200 2.002910 
# 
# From -- ./inp_files/272973.got.cif
#   From: 2010.05.17/outbox.cif.g08.bks.cpg/sg2_137_cif.got.tgz:272973.got - 2010.06.03 11:33:40.
