data_PCOD9014451
_publ_section_title
;
Structure prediction by ZEFSAII (Michael W. Deem and Ramdas Pophale) SiO2 
 PCOD9014451
Probable space group: P -1
;
_chemical_formula_sum "Si O2"
_cell_formula_units_Z 14
_cell_length_a 19.064177
_cell_length_b 5.179134
_cell_length_c 11.791517
_cell_angle_alpha 71.534419
_cell_angle_beta 149.867407
_cell_angle_gamma 115.238757
_cell_volume 525.179386
_symmetry_space_group_name_H-M "P -1"
_symmetry_group_IT_number 2
_symmetry_cell_setting 'triclinic'
loop_
_space_group_symop_operation_xyz
x,y,z
-x,-y,-z
loop_
_atom_site_type_symbol
_atom_site_label
_atom_site_fract_x
_atom_site_fract_y
_atom_site_fract_z
Si Si1 0.857167 0.935899 0.389826
Si Si2 0.562705 0.770809 0.353089
Si Si3 0.982689 0.661093 0.250047
Si Si4 0.090721 0.777118 0.151216
Si Si5 0.290219 0.873132 0.035091
Si Si6 0.702899 0.859881 0.766782
Si Si7 0.624303 0.446228 0.265446
O O1 0.778410 0.652100 0.393587
O O2 0.000000 0.000000 0.500000
O O3 0.918607 0.207468 0.522287
O O4 0.730611 0.939098 0.123959
O O5 0.596356 0.104477 0.303729
O O6 0.389978 0.689269 0.154855
O O7 0.622154 0.676528 0.570445
O O8 0.608990 0.599574 0.341594
O O9 0.094939 0.721997 0.295740
O O10 0.875202 0.335124 0.142794
O O11 0.854185 0.808643 0.028230
O O12 0.236212 0.863818 0.268380
O O13 0.000000 0.500000 0.000000
O O14 0.000000 0.000000 0.000000
O O15 0.361755 0.048401 0.222833
O O16 0.500000 0.500000 0.000000
#
# Coordination Sequence:
#
# PCOD9014451 Si02
#       7
#     2   2   2   2   2   2   2
#     4  12  27  49  80 117 150 207 263 326 388 456
#     4  12  30  49  85 111 156 211 261 315 389 470
#     4  11  25  44  74 111 157 198 258 323 390 454
#     4  10  21  41  67  98 145 193 240 306 375 447
#     4  12  26  47  76 111 160 205 259 322 385 470
#     4  11  25  46  71 114 152 202 254 318 390 459
#     4  12  29  57  82 112 157 207 265 319 385 467
#
# _framework density 26.657558000000002
#
# number of rings (size 3 to 8) (size 9 to 14) (size 15 to 20)
#    0.000    0.571    4.286    2.143    6.000    5.143 
#    0.000    0.000    0.000    0.000    0.000    0.000 
#    0.000    0.000    0.000    0.000    0.000    0.000 
#
# Total GULP energy -78047.137900 kJ/mol
# GULP energy per Si atom -5574.795564 kJ/mol
# Density = 2.659688 g / cm^3
# Si number density = 26.657558 Si / 1000 Ang^3
#
#
#
# Elastic Constant Matrix: (Units=GPa)
#
#
# Indices 1 2 3 4 5 6 
#
# 1 174.8301 42.5650 54.4614 12.3762 -44.9517 -2.5495
# 2 42.5650 106.5523 25.0728 2.5999 -19.8108 -20.6346
# 3 54.4614 25.0728 110.7141 -9.2876 -21.7509 1.9334
# 4 12.3762 2.5999 -9.2876 37.1086 3.4068 4.4987
# 5 -44.9517 -19.8108 -21.7509 3.4068 59.3366 10.8421
# 6 -2.5495 -20.6346 1.9334 4.4987 10.8421 33.6662
#
#
#
# Elastic Compliance Matrix: (Units=1/GPa)
#
#
# Indices 1 2 3 4 5 6 
#
# 1 0.008814 -0.002000 -0.003124 -0.003882 0.005378 -0.001592
# 2 -0.002000 0.012241 -0.001942 -0.001639 0.000585 0.007493
# 3 -0.003124 -0.001942 0.011750 0.004358 0.001628 -0.003208
# 4 -0.003882 -0.001639 0.004358 0.030273 -0.002770 -0.004702
# 5 0.005378 0.000585 0.001628 -0.002770 0.023044 -0.006379
# 6 -0.001592 0.007493 -0.003208 -0.004702 -0.006379 0.037042
#
#
# Mechanical properties :
#
#
# Convention : Reuss Voigt Hill
#
# Bulk Modulus (GPa) = 53.55012 70.69942 62.12477
# Shear Modulus (GPa) = 34.83811 44.02211 39.43011
#
# Velocity S-wave (km/s) = 3.61900 4.06814 3.85012
# Velocity P-wave (km/s) = 6.13144 6.97462 6.56658
#
# Compressibility (1/GPa) = 0.01867409
#
# Stress axis : x y z
#
# Youngs Moduli (GPa) = 113.45032 81.69506 85.10331
#
# Poissons Ratio (x) = 0.16335 0.26589
# Poissons Ratio (y) = 0.22685 0.16526
# Poissons Ratio (z) = 0.35445 0.15864
#
# Static dielectric constant tensor:
#      x y z
#    x 2.519080 -0.843770 -1.328420 
#    y -0.843770 3.929730 2.533730 
#    z -1.328420 2.533730 5.903780 
# 
# From -- ./inp_files/468329.got.cif
#   From: 2010.05.17/outbox.cif.g08.bks.cpg/sg2_235_cif.got.tgz:468329.got - 2010.06.03 11:33:40.
