data_PCOD9014027
_publ_section_title
;
Structure prediction by ZEFSAII (Michael W. Deem and Ramdas Pophale) SiO2 
 PCOD9014027
Probable space group: P -1
;
_chemical_formula_sum "Si O2"
_cell_formula_units_Z 16
_cell_length_a 8.674595
_cell_length_b 22.940975
_cell_length_c 19.169971
_cell_angle_alpha 158.641348
_cell_angle_beta 31.452213
_cell_angle_gamma 138.830592
_cell_volume 707.287465
_symmetry_space_group_name_H-M "P -1"
_symmetry_group_IT_number 2
_symmetry_cell_setting 'triclinic'
loop_
_space_group_symop_operation_xyz
x,y,z
-x,-y,-z
loop_
_atom_site_type_symbol
_atom_site_label
_atom_site_fract_x
_atom_site_fract_y
_atom_site_fract_z
Si Si1 0.708206 0.144872 0.146320
Si Si2 0.151813 0.307114 0.238649
Si Si3 0.189440 0.759524 0.044729
Si Si4 0.254071 0.437605 0.594969
Si Si5 0.253108 0.574452 0.119412
Si Si6 0.699183 0.729708 0.314001
Si Si7 0.140325 0.131596 0.448375
Si Si8 0.002044 0.789389 0.653596
O O1 0.555976 0.296675 0.325039
O O2 0.447714 0.147260 0.307544
O O3 0.000820 0.198787 0.124292
O O4 0.804239 0.952915 0.875482
O O5 0.513157 0.281677 0.066775
O O6 0.000000 0.500000 0.500000
O O7 0.083753 0.238093 0.264213
O O8 0.272059 0.626023 0.801231
O O9 0.890180 0.761390 0.208195
O O10 0.151371 0.940960 0.233141
O O11 0.071270 0.438059 0.738205
O O12 0.048236 0.373816 0.547087
O O13 0.176462 0.767460 0.349623
O O14 0.500000 0.500000 0.000000
O O15 0.300504 0.464057 0.909005
O O16 0.836474 0.792420 0.399408
O O17 0.344390 0.808928 0.537396
#
# Coordination Sequence:
#
# PCOD9014027 Si02
#       8
#     2   2   2   2   2   2   2   2
#     4  11  22  42  68  97 132 172 224 275 327 389
#     4  12  24  43  65  99 134 171 216 278 329 382
#     4  11  24  44  66  99 143 164 219 282 333 381
#     4  10  23  42  66  96 133 177 216 274 331 393
#     4  10  21  41  66  94 133 169 221 267 326 393
#     4  11  23  41  70  99 131 174 222 272 326 398
#     4  11  22  41  70  98 128 177 221 272 330 389
#     4  12  23  42  72  96 130 180 229 258 328 407
#
# _framework density 22.621635999999999
#
# number of rings (size 3 to 8) (size 9 to 14) (size 15 to 20)
#    0.000    1.000    5.000    2.250    0.000    1.500 
#    0.000    2.500    0.000    0.000    0.000    0.000 
#    0.000    0.000    0.000    0.000    0.000    0.000 
#
# Total GULP energy -89264.760205 kJ/mol
# GULP energy per Si atom -5579.047513 kJ/mol
# Density = 2.257015 g / cm^3
# Si number density = 22.621636 Si / 1000 Ang^3
#
#
#
# Elastic Constant Matrix: (Units=GPa)
#
#
# Indices 1 2 3 4 5 6 
#
# 1 66.8656 25.2507 46.1363 6.8102 -4.2025 16.3012
# 2 25.2507 78.1949 40.2101 -0.2226 -6.0148 7.6526
# 3 46.1363 40.2101 151.0050 36.6799 -25.1449 7.9046
# 4 6.8102 -0.2226 36.6799 43.2966 3.7568 5.5615
# 5 -4.2025 -6.0148 -25.1449 3.7568 35.4974 1.3976
# 6 16.3012 7.6526 7.9046 5.5615 1.3976 29.3792
#
#
#
# Elastic Compliance Matrix: (Units=1/GPa)
#
#
# Indices 1 2 3 4 5 6 
#
# 1 0.023010 -0.002912 -0.007149 0.004045 -0.002840 -0.010716
# 2 -0.002912 0.016316 -0.004791 0.005010 -0.001417 -0.002226
# 3 -0.007149 -0.004791 0.014610 -0.012546 0.009893 0.003188
# 4 0.004045 0.005010 -0.012546 0.034872 -0.011004 -0.006252
# 5 -0.002840 -0.001417 0.009893 -0.011004 0.035781 -0.000336
# 6 -0.010716 -0.002226 0.003188 -0.006252 -0.000336 0.040905
#
#
# Mechanical properties :
#
#
# Convention : Reuss Voigt Hill
#
# Bulk Modulus (GPa) = 41.26965 57.69550 49.48258
# Shear Modulus (GPa) = 24.59706 33.93253 29.26480
#
# Velocity S-wave (km/s) = 3.30104 3.87719 3.60066
# Velocity P-wave (km/s) = 5.72819 6.75303 6.26161
#
# Compressibility (1/GPa) = 0.02423088
#
# Stress axis : x y z
#
# Youngs Moduli (GPa) = 43.45940 61.29016 68.44469
#
# Poissons Ratio (x) = 0.17849 0.48933
# Poissons Ratio (y) = 0.12656 0.32793
# Poissons Ratio (z) = 0.31070 0.29365
#
# Static dielectric constant tensor:
#      x y z
#    x 1.844720 -0.006810 -0.007710 
#    y -0.006810 1.912860 0.077170 
#    z -0.007710 0.077170 1.908010 
# 
# From -- ./inp_files/591975.got.cif
#   From: 2010.05.17/outbox.cif.g08.bks.cpg/sg2_296_cif.got.tgz:591975.got - 2010.06.03 11:33:40.
