data_PCOD9014541
_publ_section_title
;
Structure prediction by ZEFSAII (Michael W. Deem and Ramdas Pophale) SiO2 
 PCOD9014541
Probable space group: P -1
;
_chemical_formula_sum "Si O2"
_cell_formula_units_Z 16
_cell_length_a 10.977244
_cell_length_b 16.263458
_cell_length_c 19.165257
_cell_angle_alpha 149.649119
_cell_angle_beta 25.028527
_cell_angle_gamma 149.771332
_cell_volume 675.331999
_symmetry_space_group_name_H-M "P -1"
_symmetry_group_IT_number 2
_symmetry_cell_setting 'triclinic'
loop_
_space_group_symop_operation_xyz
x,y,z
-x,-y,-z
loop_
_atom_site_type_symbol
_atom_site_label
_atom_site_fract_x
_atom_site_fract_y
_atom_site_fract_z
Si Si1 0.304672 0.058108 0.584748
Si Si2 0.317431 0.047068 0.788638
Si Si3 0.722185 0.351670 0.893836
Si Si4 0.283901 0.280405 0.571302
Si Si5 0.769609 0.980718 0.713700
Si Si6 0.536509 0.659170 0.189714
Si Si7 0.331276 0.178423 0.089857
Si Si8 0.105990 0.437920 0.472027
O O1 0.288574 0.233520 0.753661
O O2 0.500000 0.000000 0.500000
O O3 0.523885 0.076040 0.417792
O O4 0.963040 0.940918 0.647410
O O5 0.534677 0.154904 0.817086
O O6 0.358648 0.202303 0.825581
O O7 0.954526 0.928456 0.892358
O O8 0.083509 0.391338 0.729875
O O9 0.625761 0.494058 0.009737
O O10 0.589015 0.338130 0.031144
O O11 0.349281 0.175417 0.395389
O O12 0.592381 0.408509 0.541835
O O13 0.033474 0.141465 0.651920
O O14 0.503071 0.048555 0.926340
O O15 0.175042 0.603071 0.356861
O O16 0.186003 0.267137 0.287465
O O17 0.000000 0.500000 0.500000
#
# Coordination Sequence:
#
# PCOD9014541 Si02
#       8
#     2   2   2   2   2   2   2   2
#     4  10  21  41  68  87 129 182 218 259 325 398
#     4  11  23  44  65  94 135 177 223 269 327 412
#     4  11  23  42  66 100 130 173 221 279 335 390
#     4  10  24  40  66  96 135 171 218 281 338 382
#     4  10  22  42  64  99 133 174 221 275 331 396
#     4  11  24  41  68  95 132 180 218 269 337 395
#     4  11  25  38  69 101 129 172 226 276 332 389
#     4  12  24  42  65 101 134 173 222 277 331 398
#
# _framework density 23.692049999999998
#
# number of rings (size 3 to 8) (size 9 to 14) (size 15 to 20)
#    0.000    1.250    3.750    1.500    3.500    1.000 
#    0.000    5.625    0.000    0.000    0.000    0.000 
#    0.000    0.000    0.000    0.000    0.000    0.000 
#
# Total GULP energy -89414.308361 kJ/mol
# GULP energy per Si atom -5588.394273 kJ/mol
# Density = 2.363813 g / cm^3
# Si number density = 23.692050 Si / 1000 Ang^3
#
#
#
# Elastic Constant Matrix: (Units=GPa)
#
#
# Indices 1 2 3 4 5 6 
#
# 1 91.2764 33.0174 44.1419 8.0077 -22.0496 35.2985
# 2 33.0174 66.0035 21.6084 3.6972 -6.4845 29.1637
# 3 44.1419 21.6084 112.3902 17.1660 -30.2457 9.7858
# 4 8.0077 3.6972 17.1660 27.4805 5.5015 -2.4236
# 5 -22.0496 -6.4845 -30.2457 5.5015 32.9400 -1.6551
# 6 35.2985 29.1637 9.7858 -2.4236 -1.6551 53.0004
#
#
#
# Elastic Compliance Matrix: (Units=1/GPa)
#
#
# Indices 1 2 3 4 5 6 
#
# 1 0.021627 -0.002940 -0.002222 -0.008130 0.012595 -0.012354
# 2 -0.002940 0.021632 -0.001712 -0.001952 0.000558 -0.009701
# 3 -0.002222 -0.001712 0.016016 -0.012161 0.014882 -0.000627
# 4 -0.008130 -0.001952 -0.012161 0.052587 -0.025256 0.010350
# 5 0.012595 0.000558 0.014882 -0.025256 0.056237 -0.010842
# 6 -0.012354 -0.009701 -0.000627 0.010350 -0.010842 0.032684
#
#
# Mechanical properties :
#
#
# Convention : Reuss Voigt Hill
#
# Bulk Modulus (GPa) = 21.96412 51.91170 36.93791
# Shear Modulus (GPa) = 21.76689 34.07765 27.92227
#
# Velocity S-wave (km/s) = 3.03436 3.79668 3.43673
# Velocity P-wave (km/s) = 4.64406 6.41703 5.60114
#
# Compressibility (1/GPa) = 0.04552879
#
# Stress axis : x y z
#
# Youngs Moduli (GPa) = 46.23804 46.22739 62.43635
#
# Poissons Ratio (x) = 0.13589 0.13875
# Poissons Ratio (y) = 0.13592 0.10687
# Poissons Ratio (z) = 0.10275 0.07912
#
# Static dielectric constant tensor:
#      x y z
#    x 1.995480 -0.026240 -0.015540 
#    y -0.026240 1.890350 0.033180 
#    z -0.015540 0.033180 1.910730 
# 
# From -- ./inp_files/498900.got.cif
#   From: 2010.05.17/outbox.cif.g08.bks.cpg/sg2_250_cif.got.tgz:498900.got - 2010.06.03 11:33:40.
