data_PCOD9014365
_publ_section_title
;
Structure prediction by ZEFSAII (Michael W. Deem and Ramdas Pophale) SiO2 
 PCOD9014365
Probable space group: P -1
;
_chemical_formula_sum "Si O2"
_cell_formula_units_Z 16
_cell_length_a 15.982563
_cell_length_b 13.131811
_cell_length_c 6.689921
_cell_angle_alpha 76.128800
_cell_angle_beta 82.305352
_cell_angle_gamma 29.750303
_cell_volume 668.333788
_symmetry_space_group_name_H-M "P -1"
_symmetry_group_IT_number 2
_symmetry_cell_setting 'triclinic'
loop_
_space_group_symop_operation_xyz
x,y,z
-x,-y,-z
loop_
_atom_site_type_symbol
_atom_site_label
_atom_site_fract_x
_atom_site_fract_y
_atom_site_fract_z
Si Si1 0.999338 0.510055 0.731362
Si Si2 0.359523 0.228725 0.836714
Si Si3 0.938289 0.135007 0.767471
Si Si4 0.470740 0.778588 0.958494
Si Si5 0.867513 0.004261 0.603600
Si Si6 0.656300 0.597976 0.590711
Si Si7 0.496763 0.616284 0.354302
Si Si8 0.892247 0.786772 0.923903
O O1 0.181193 0.359785 0.819435
O O2 0.000000 0.500000 0.500000
O O3 0.867168 0.734032 0.768302
O O4 0.983492 0.411529 0.874943
O O5 0.362909 0.272613 0.586453
O O6 0.395786 0.288939 0.940374
O O7 0.500000 0.000000 0.000000
O O8 0.863858 0.119825 0.661686
O O9 0.820894 0.362967 0.750705
O O10 0.079658 0.032760 0.622388
O O11 0.000000 0.000000 0.000000
O O12 0.507864 0.749899 0.729314
O O13 0.501610 0.628800 0.110574
O O14 0.279246 0.012032 0.984070
O O15 0.684499 0.147518 0.617604
O O16 0.972076 0.806079 0.792971
O O17 0.637008 0.535041 0.448919
O O18 0.500000 0.500000 0.500000
#
# Coordination Sequence:
#
# PCOD9014365 Si02
#       8
#     2   2   2   2   2   2   2   2
#     4  11  25  44  75 101 136 179 236 288 357 416
#     4  11  24  48  70 100 139 181 231 296 345 409
#     4  11  25  41  66 100 133 182 226 277 342 415
#     4  10  24  43  69 100 137 180 231 283 346 418
#     4  10  23  43  65  91 137 174 220 285 339 402
#     4  11  25  42  71 103 136 185 234 276 349 415
#     4  10  21  41  67  95 136 175 224 283 334 395
#     4  10  23  46  66  99 139 179 225 293 350 408
#
# _framework density 23.940135999999999
#
# number of rings (size 3 to 8) (size 9 to 14) (size 15 to 20)
#    0.000    1.500    2.500    0.750    1.750   12.000 
#    0.000    0.000    0.000    0.000    0.000    0.000 
#    0.000    0.000    0.000    0.000    0.000    0.000 
#
# Total GULP energy -89083.712343 kJ/mol
# GULP energy per Si atom -5567.732021 kJ/mol
# Density = 2.388565 g / cm^3
# Si number density = 23.940136 Si / 1000 Ang^3
#
#
#
# Elastic Constant Matrix: (Units=GPa)
#
#
# Indices 1 2 3 4 5 6 
#
# 1 49.8350 8.2845 30.6091 -13.1802 -33.1734 13.0637
# 2 8.2845 89.5536 65.4849 0.4425 -20.1972 12.9393
# 3 30.6091 65.4849 186.6673 8.7013 -51.2330 9.6583
# 4 -13.1802 0.4425 8.7013 32.8749 4.2439 -2.9510
# 5 -33.1734 -20.1972 -51.2330 4.2439 54.5025 -6.9678
# 6 13.0637 12.9393 9.6583 -2.9510 -6.9678 30.4374
#
#
#
# Elastic Compliance Matrix: (Units=1/GPa)
#
#
# Indices 1 2 3 4 5 6 
#
# 1 0.043167 0.004792 -0.002390 0.013714 0.023048 -0.013200
# 2 0.004792 0.016292 -0.005510 0.002228 0.002785 -0.006380
# 3 -0.002390 -0.005510 0.009397 -0.004003 0.005818 0.001330
# 4 0.013714 0.002228 -0.004003 0.036506 0.002379 -0.001479
# 5 0.023048 0.002785 0.005818 0.002379 0.038187 -0.003950
# 6 -0.013200 -0.006380 0.001330 -0.001479 -0.003950 0.039762
#
#
# Mechanical properties :
#
#
# Convention : Reuss Voigt Hill
#
# Bulk Modulus (GPa) = 15.96478 59.42364 37.69421
# Shear Modulus (GPa) = 23.76345 38.34146 31.05246
#
# Velocity S-wave (km/s) = 3.15400 4.00629 3.60542
# Velocity P-wave (km/s) = 4.46618 6.80265 5.75425
#
# Compressibility (1/GPa) = 0.06263788
#
# Stress axis : x y z
#
# Youngs Moduli (GPa) = 23.16590 61.38145 106.41980
#
# Poissons Ratio (x) = -0.29413 0.25434
# Poissons Ratio (y) = -0.11101 0.58642
# Poissons Ratio (z) = 0.05537 0.33824
#
# Static dielectric constant tensor:
#      x y z
#    x 1.951960 0.051620 -0.071620 
#    y 0.051620 2.199190 -0.279060 
#    z -0.071620 -0.279060 2.211020 
# 
# From -- ./inp_files/110720.got.cif
#   From: 2010.05.17/outbox.cif.g08.bks.cpg/sg2_56_cif.got.tgz:110720.got - 2010.06.03 11:33:40.
