data_PCOD9014530
_publ_section_title
;
Structure prediction by ZEFSAII (Michael W. Deem and Ramdas Pophale) SiO2 
 PCOD9014530
Probable space group: P -1
;
_chemical_formula_sum "Si O2"
_cell_formula_units_Z 15
_cell_length_a 12.467695
_cell_length_b 26.968655
_cell_length_c 9.419539
_cell_angle_alpha 27.880890
_cell_angle_beta 144.449014
_cell_angle_gamma 156.722088
_cell_volume 585.292221
_symmetry_space_group_name_H-M "P -1"
_symmetry_group_IT_number 2
_symmetry_cell_setting 'triclinic'
loop_
_space_group_symop_operation_xyz
x,y,z
-x,-y,-z
loop_
_atom_site_type_symbol
_atom_site_label
_atom_site_fract_x
_atom_site_fract_y
_atom_site_fract_z
Si Si1 0.753079 0.586595 0.655244
Si Si2 0.000000 0.500000 0.000000
Si Si3 0.026864 0.881909 0.043534
Si Si4 0.049781 0.645337 0.205224
Si Si5 0.485201 0.802833 0.071357
Si Si6 0.728865 0.685853 0.666410
Si Si7 0.707765 0.944025 0.638592
Si Si8 0.793205 0.218635 0.675694
O O1 0.500000 0.500000 0.500000
O O2 0.664992 0.587150 0.712294
O O3 0.974335 0.766018 0.391655
O O4 0.853858 0.510308 0.939362
O O5 0.968303 0.379193 0.370802
O O6 0.067681 0.838339 0.049682
O O7 0.791742 0.869513 0.840315
O O8 0.291368 0.050539 0.959122
O O9 0.207557 0.735720 0.998380
O O10 0.232838 0.749241 0.275422
O O11 0.000000 0.500000 0.500000
O O12 0.802647 0.624073 0.013085
O O13 0.511786 0.689130 0.421586
O O14 0.557619 0.851897 0.859575
O O15 0.016281 0.874704 0.492510
O O16 0.492060 0.908662 0.393459
#
# Coordination Sequence:
#
# PCOD9014530 Si02
#       8
#     2   1   2   2   2   2   2   2
#     4  11  21  37  63 101 133 169 225 284 331 390
#     4  10  24  40  66  92 130 178 232 284 326 392
#     4  10  21  41  68 105 137 167 238 288 338 397
#     4  12  30  48  65  99 150 188 230 273 354 424
#     4  11  24  43  75 103 138 183 228 294 344 405
#     4  11  24  44  72 100 139 180 228 287 345 406
#     4  11  22  42  76 108 132 173 243 290 340 400
#     4  11  26  43  67 101 136 187 230 284 346 408
#
# _framework density 25.628222999999998
#
# number of rings (size 3 to 8) (size 9 to 14) (size 15 to 20)
#    0.000    1.067    2.667    3.200    5.600    5.867 
#    0.000    2.667    0.000    0.000    0.000    0.000 
#    0.000    0.000    0.000    0.000    0.000    0.000 
#
# Total GULP energy -83681.388542 kJ/mol
# GULP energy per Si atom -5578.759236 kJ/mol
# Density = 2.556989 g / cm^3
# Si number density = 25.628223 Si / 1000 Ang^3
#
#
#
# Elastic Constant Matrix: (Units=GPa)
#
#
# Indices 1 2 3 4 5 6 
#
# 1 159.7996 52.8542 46.9296 -5.9014 42.8776 -22.7991
# 2 52.8542 68.0043 8.1427 9.9314 2.5187 -31.4942
# 3 46.9296 8.1427 105.8214 -18.1743 33.9307 -15.8606
# 4 -5.9014 9.9314 -18.1743 24.2462 -6.7983 3.8905
# 5 42.8776 2.5187 33.9307 -6.7983 57.4706 -7.7089
# 6 -22.7991 -31.4942 -15.8606 3.8905 -7.7089 38.7880
#
#
#
# Elastic Compliance Matrix: (Units=1/GPa)
#
#
# Indices 1 2 3 4 5 6 
#
# 1 0.012486 -0.012712 -0.002027 0.005513 -0.007701 -0.005894
# 2 -0.012712 0.041540 0.000314 -0.022248 0.008923 0.030390
# 3 -0.002027 0.000314 0.013802 0.007765 -0.005348 0.002866
# 4 0.005513 -0.022248 0.007765 0.059570 -0.003123 -0.018245
# 5 -0.007701 0.008923 -0.005348 -0.003123 0.026358 0.006084
# 6 -0.005894 0.030390 0.002866 -0.018245 0.006084 0.051203
#
#
# Mechanical properties :
#
#
# Convention : Reuss Voigt Hill
#
# Bulk Modulus (GPa) = 25.65437 61.05316 43.35377
# Shear Modulus (GPa) = 20.25911 39.14755 29.70333
#
# Velocity S-wave (km/s) = 2.81463 3.91259 3.40811
# Velocity P-wave (km/s) = 4.53815 6.65473 5.69562
#
# Compressibility (1/GPa) = 0.03897971
#
# Stress axis : x y z
#
# Youngs Moduli (GPa) = 80.08767 24.07318 72.45181
#
# Poissons Ratio (x) = 0.30601 0.14684
# Poissons Ratio (y) = 1.01804 -0.02274
# Poissons Ratio (z) = 0.16232 -0.00755
#
# Static dielectric constant tensor:
#      x y z
#    x 2.081100 0.058440 -0.019250 
#    y 0.058440 2.080260 0.001650 
#    z -0.019250 0.001650 2.159370 
# 
# From -- ./inp_files/285127.got.cif
#   From: 2010.05.17/outbox.cif.g08.bks.cpg/sg2_143_cif.got.tgz:285127.got - 2010.06.03 11:33:40.
