data_PCOD9014398
_publ_section_title
;
Structure prediction by ZEFSAII (Michael W. Deem and Ramdas Pophale) SiO2 
 PCOD9014398
Probable space group: P -1
;
_chemical_formula_sum "Si O2"
_cell_formula_units_Z 12
_cell_length_a 11.372316
_cell_length_b 7.311681
_cell_length_c 9.276893
_cell_angle_alpha 100.641217
_cell_angle_beta 40.777572
_cell_angle_gamma 107.151266
_cell_volume 480.478648
_symmetry_space_group_name_H-M "P -1"
_symmetry_group_IT_number 2
_symmetry_cell_setting 'triclinic'
loop_
_space_group_symop_operation_xyz
x,y,z
-x,-y,-z
loop_
_atom_site_type_symbol
_atom_site_label
_atom_site_fract_x
_atom_site_fract_y
_atom_site_fract_z
Si Si1 0.687975 0.669083 0.842205
Si Si2 0.369653 0.387151 0.798861
Si Si3 0.119673 0.109407 0.773925
Si Si4 0.582449 0.197048 0.074394
Si Si5 0.418258 0.901630 0.412988
Si Si6 0.025242 0.801573 0.377326
O O1 0.599916 0.818182 0.855657
O O2 0.863416 0.646662 0.584393
O O3 0.500000 0.500000 0.000000
O O4 0.742706 0.698245 0.963132
O O5 0.263782 0.288025 0.742290
O O6 0.400919 0.614025 0.813704
O O7 0.558143 0.313224 0.630236
O O8 0.224090 0.956798 0.586544
O O9 0.014173 0.185423 0.754557
O O10 0.000000 0.000000 0.000000
O O11 0.548413 0.016584 0.184477
O O12 0.768552 0.229311 0.812070
O O13 0.500000 0.000000 0.500000
O O14 0.000000 0.000000 0.500000
#
# Coordination Sequence:
#
# PCOD9014398 Si02
#       6
#     2   2   2   2   2   2
#     4  10  23  45  65 103 138 179 232 280 345 410
#     4  10  24  44  69  98 136 182 228 281 346 404
#     4  11  23  43  65 104 138 175 235 285 345 414
#     4  11  24  45  71 101 140 177 235 282 347 413
#     4  10  21  41  67  96 137 176 223 279 346 403
#     4  12  25  42  72 101 138 187 230 284 352 411
#
# _framework density 24.975096000000001
#
# number of rings (size 3 to 8) (size 9 to 14) (size 15 to 20)
#    0.000    1.333    1.667    4.000    2.333    7.333 
#    6.000    0.000    0.000    0.000    0.000    0.000 
#    0.000    0.000    0.000    0.000    0.000    0.000 
#
# Total GULP energy -67126.178010 kJ/mol
# GULP energy per Si atom -5593.848167 kJ/mol
# Density = 2.491825 g / cm^3
# Si number density = 24.975096 Si / 1000 Ang^3
#
#
#
# Elastic Constant Matrix: (Units=GPa)
#
#
# Indices 1 2 3 4 5 6 
#
# 1 87.0000 8.3828 17.5075 -1.6751 6.6682 2.9167
# 2 8.3828 111.0321 16.3159 15.8570 -8.3239 15.2375
# 3 17.5075 16.3159 157.5346 -3.1486 -15.6048 1.7634
# 4 -1.6751 15.8570 -3.1486 37.4272 -7.4574 6.7303
# 5 6.6682 -8.3239 -15.6048 -7.4574 53.2236 5.5007
# 6 2.9167 15.2375 1.7634 6.7303 5.5007 31.7453
#
#
#
# Elastic Compliance Matrix: (Units=1/GPa)
#
#
# Indices 1 2 3 4 5 6 
#
# 1 0.012036 -0.000860 -0.001429 0.000459 -0.001959 -0.000372
# 2 -0.000860 0.010400 -0.000857 -0.003438 0.001455 -0.004388
# 3 -0.001429 -0.000857 0.006859 0.001435 0.002313 -0.000543
# 4 0.000459 -0.003438 0.001435 0.030268 0.004655 -0.005696
# 5 -0.001959 0.001455 0.002313 0.004655 0.021140 -0.005297
# 6 -0.000372 -0.004388 -0.000543 -0.005696 -0.005297 0.035797
#
#
# Mechanical properties :
#
#
# Convention : Reuss Voigt Hill
#
# Bulk Modulus (GPa) = 43.47394 48.88659 46.18027
# Shear Modulus (GPa) = 38.32611 45.36993 41.84802
#
# Velocity S-wave (km/s) = 3.92161 4.26679 4.09784
# Velocity P-wave (km/s) = 6.16037 6.62500 6.39690
#
# Compressibility (1/GPa) = 0.02300229
#
# Stress axis : x y z
#
# Youngs Moduli (GPa) = 83.08288 96.15838 145.78716
#
# Poissons Ratio (x) = 0.08271 0.20836
# Poissons Ratio (y) = 0.07146 0.12493
# Poissons Ratio (z) = 0.11874 0.08240
#
# Static dielectric constant tensor:
#      x y z
#    x 1.979750 0.000490 0.019520 
#    y 0.000490 2.090710 0.018810 
#    z 0.019520 0.018810 2.011340 
# 
# From -- ./inp_files/231414.got.cif
#   From: 2010.05.17/outbox.cif.g08.bks.cpg/sg2_116_cif.got.tgz:231414.got - 2010.06.03 11:33:40.
