data_PCOD9014976
_publ_section_title
;
Structure prediction by ZEFSAII (Michael W. Deem and Ramdas Pophale) SiO2 
 PCOD9014976
Probable space group: P -1
;
_chemical_formula_sum "Si O2"
_cell_formula_units_Z 13
_cell_length_a 15.196593
_cell_length_b 5.533110
_cell_length_c 14.686459
_cell_angle_alpha 74.184986
_cell_angle_beta 152.979949
_cell_angle_gamma 99.304754
_cell_volume 530.410444
_symmetry_space_group_name_H-M "P -1"
_symmetry_group_IT_number 2
_symmetry_cell_setting 'triclinic'
loop_
_space_group_symop_operation_xyz
x,y,z
-x,-y,-z
loop_
_atom_site_type_symbol
_atom_site_label
_atom_site_fract_x
_atom_site_fract_y
_atom_site_fract_z
Si Si1 0.874243 0.916496 0.081669
Si Si2 0.136906 0.529408 0.254746
Si Si3 0.000000 0.000000 0.500000
Si Si4 0.286265 0.572101 0.197586
Si Si5 0.819142 0.920639 0.524305
Si Si6 0.419996 0.737449 0.969515
Si Si7 0.537277 0.628831 0.797048
O O1 0.057078 0.806645 0.195068
O O2 0.978526 0.008608 0.255448
O O3 0.743850 0.709047 0.008946
O O4 0.725197 0.131927 0.867683
O O5 0.285579 0.515264 0.309409
O O6 0.206974 0.332501 0.420212
O O7 0.932586 0.462166 0.034114
O O8 0.146301 0.098254 0.548382
O O9 0.187567 0.799087 0.733065
O O10 0.438779 0.408261 0.285862
O O11 0.642453 0.152463 0.362009
O O12 0.500000 0.500000 0.000000
O O13 0.470915 0.629779 0.129420
O O14 0.500000 0.000000 0.000000
#
# Coordination Sequence:
#
# PCOD9014976 Si02
#       7
#     2   2   1   2   2   2   2
#     4  10  21  41  70  92 136 178 228 287 357 424
#     4   9  19  39  63 100 129 177 228 283 354 429
#     4  12  26  48  74 102 142 198 240 306 368 432
#     4   9  19  37  67  94 135 175 225 288 354 423
#     4  11  25  43  66  97 138 178 239 290 356 429
#     4  12  29  50  77 109 148 193 247 306 369 439
#     4  11  25  45  65 102 135 179 232 296 351 435
#
# _framework density 24.509322000000001
#
# number of rings (size 3 to 8) (size 9 to 14) (size 15 to 20)
#    0.000    1.538    1.538    3.231    4.308    6.154 
#    0.000    1.538    0.000    0.000    0.000    0.000 
#    0.000    0.000    0.000    0.000    0.000    0.000 
#
# Total GULP energy -72498.173800 kJ/mol
# GULP energy per Si atom -5576.782600 kJ/mol
# Density = 2.445354 g / cm^3
# Si number density = 24.509322 Si / 1000 Ang^3
#
#
#
# Elastic Constant Matrix: (Units=GPa)
#
#
# Indices 1 2 3 4 5 6 
#
# 1 137.5719 16.4989 56.7650 -14.6786 27.2697 7.3839
# 2 16.4989 67.7067 11.6166 -2.3208 19.0569 2.0112
# 3 56.7650 11.6166 99.9563 -17.1478 18.0989 -7.7439
# 4 -14.6786 -2.3208 -17.1478 44.3466 -8.0546 9.1151
# 5 27.2697 19.0569 18.0989 -8.0546 48.7260 -9.7599
# 6 7.3839 2.0112 -7.7439 9.1151 -9.7599 28.6037
#
#
#
# Elastic Compliance Matrix: (Units=1/GPa)
#
#
# Indices 1 2 3 4 5 6 
#
# 1 0.011192 -0.000030 -0.005595 0.001994 -0.005209 -0.006815
# 2 -0.000030 0.017048 -0.000983 0.000015 -0.007058 -0.003870
# 3 -0.005595 -0.000983 0.014159 0.002593 -0.000439 0.004370
# 4 0.001994 0.000015 0.002593 0.025944 0.000627 -0.007867
# 5 -0.005209 -0.007058 -0.000439 0.000627 0.028734 0.011326
# 6 -0.006815 -0.003870 0.004370 -0.007867 0.011326 0.044547
#
#
# Mechanical properties :
#
#
# Convention : Reuss Voigt Hill
#
# Bulk Modulus (GPa) = 34.26827 52.77732 43.52279
# Shear Modulus (GPa) = 30.38234 39.02556 34.70395
#
# Velocity S-wave (km/s) = 3.52465 3.99466 3.76699
# Velocity P-wave (km/s) = 5.52958 6.54651 6.05941
#
# Compressibility (1/GPa) = 0.02918152
#
# Stress axis : x y z
#
# Youngs Moduli (GPa) = 89.34665 58.65901 70.62542
#
# Poissons Ratio (x) = 0.00179 0.39517
# Poissons Ratio (y) = 0.00272 0.06944
# Poissons Ratio (z) = 0.49992 0.05767
#
# Static dielectric constant tensor:
#      x y z
#    x 1.911770 -0.039740 -0.029570 
#    y -0.039740 2.042250 0.021700 
#    z -0.029570 0.021700 1.932710 
# 
# From -- ./inp_files/96843.got.cif
#   From: 2010.05.17/outbox.cif.g08.bks.cpg/sg2_49_cif.got.tgz:96843.got - 2010.06.03 11:33:40.
