data_PCOD9014575
_publ_section_title
;
Structure prediction by ZEFSAII (Michael W. Deem and Ramdas Pophale) SiO2 
 PCOD9014575
Probable space group: P -1
;
_chemical_formula_sum "Si O2"
_cell_formula_units_Z 14
_cell_length_a 9.729323
_cell_length_b 11.735126
_cell_length_c 10.430247
_cell_angle_alpha 57.872532
_cell_angle_beta 138.317134
_cell_angle_gamma 109.992802
_cell_volume 667.428756
_symmetry_space_group_name_H-M "P -1"
_symmetry_group_IT_number 2
_symmetry_cell_setting 'triclinic'
loop_
_space_group_symop_operation_xyz
x,y,z
-x,-y,-z
loop_
_atom_site_type_symbol
_atom_site_label
_atom_site_fract_x
_atom_site_fract_y
_atom_site_fract_z
Si Si1 0.550645 0.170627 0.492221
Si Si2 0.017125 0.156724 0.756782
Si Si3 0.536063 0.479241 0.389794
Si Si4 0.463259 0.076057 0.213355
Si Si5 0.003484 0.549956 0.329113
Si Si6 0.875330 0.420371 0.070381
Si Si7 0.899547 0.147058 0.384734
O O1 0.529287 0.325564 0.427928
O O2 0.443969 0.154895 0.289575
O O3 0.794121 0.111942 0.674619
O O4 0.466524 0.076477 0.598823
O O5 0.026650 0.290415 0.769183
O O6 0.980997 0.179424 0.565579
O O7 0.242826 0.077787 0.986290
O O8 0.500000 0.500000 0.500000
O O9 0.768554 0.509392 0.516140
O O10 0.360339 0.575218 0.141674
O O11 0.650408 0.136589 0.231519
O O12 0.000000 0.500000 0.500000
O O13 0.864482 0.500392 0.149763
O O14 0.951324 0.265790 0.252338
O O15 0.000000 0.500000 0.000000
O O16 0.000000 0.000000 0.500000
#
# Coordination Sequence:
#
# PCOD9014575 Si02
#       7
#     2   2   2   2   2   2   2
#     4   9  21  40  64 100 131 166 224 272 326 400
#     4  10  21  42  66  98 128 174 222 273 332 399
#     4  11  24  41  66 100 133 173 223 274 337 398
#     4  10  21  41  68  92 131 177 215 275 331 395
#     4  11  23  43  70  97 136 173 227 284 327 402
#     4  12  26  45  69  97 134 181 224 280 340 396
#     4  11  27  43  63  98 136 171 224 276 334 402
#
# _framework density 20.976022
#
# number of rings (size 3 to 8) (size 9 to 14) (size 15 to 20)
#    0.000    1.429    2.857    1.286    4.000    2.286 
#    2.571    0.000    0.000    0.000    0.000    0.000 
#    0.000    0.000    0.000    0.000    0.000    0.000 
#
# Total GULP energy -78045.168478 kJ/mol
# GULP energy per Si atom -5574.654891 kJ/mol
# Density = 2.092828 g / cm^3
# Si number density = 20.976022 Si / 1000 Ang^3
#
#
#
# Elastic Constant Matrix: (Units=GPa)
#
#
# Indices 1 2 3 4 5 6 
#
# 1 82.1017 2.7261 35.9343 -10.8610 -15.6352 -4.3374
# 2 2.7261 61.3820 30.1369 -0.6044 -6.9479 -3.9325
# 3 35.9343 30.1369 116.7536 12.0058 -3.4059 -1.1916
# 4 -10.8610 -0.6044 12.0058 33.3442 1.0000 -8.4512
# 5 -15.6352 -6.9479 -3.4059 1.0000 29.3959 -4.7910
# 6 -4.3374 -3.9325 -1.1916 -8.4512 -4.7910 27.6267
#
#
#
# Elastic Compliance Matrix: (Units=1/GPa)
#
#
# Indices 1 2 3 4 5 6 
#
# 1 0.019856 0.005181 -0.008186 0.011451 0.011926 0.009073
# 2 0.005181 0.021051 -0.007370 0.006197 0.007764 0.006734
# 3 -0.008186 -0.007370 0.013703 -0.008940 -0.005077 -0.005358
# 4 0.011451 0.006197 -0.008940 0.040913 0.007761 0.016156
# 5 0.011926 0.007764 -0.005077 0.007761 0.043408 0.012660
# 6 0.009073 0.006734 -0.005358 0.016156 0.012660 0.045486
#
#
# Mechanical properties :
#
#
# Convention : Reuss Voigt Hill
#
# Bulk Modulus (GPa) = 29.53285 44.20356 36.86820
# Shear Modulus (GPa) = 23.09950 30.83603 26.96776
#
# Velocity S-wave (km/s) = 3.32208 3.83830 3.58948
# Velocity P-wave (km/s) = 5.36888 6.38455 5.89862
#
# Compressibility (1/GPa) = 0.03386060
#
# Stress axis : x y z
#
# Youngs Moduli (GPa) = 50.36272 47.50302 72.97491
#
# Poissons Ratio (x) = -0.24611 0.59734
# Poissons Ratio (y) = -0.26093 0.53786
# Poissons Ratio (z) = 0.41225 0.35012
#
# Static dielectric constant tensor:
#      x y z
#    x 1.727920 -0.003870 0.025270 
#    y -0.003870 1.676540 0.002030 
#    z 0.025270 0.002030 1.737700 
# 
# From -- ./inp_files/185459.got.cif
#   From: 2010.05.17/outbox.cif.g08.bks.cpg/sg2_93_cif.got.tgz:185459.got - 2010.06.03 11:33:40.
