data_PCOD9014158
_publ_section_title
;
Structure prediction by ZEFSAII (Michael W. Deem and Ramdas Pophale) SiO2 
 PCOD9014158
Probable space group: P -1
;
_chemical_formula_sum "Si O2"
_cell_formula_units_Z 16
_cell_length_a 8.975962
_cell_length_b 5.915156
_cell_length_c 16.793841
_cell_angle_alpha 90.662260
_cell_angle_beta 134.337791
_cell_angle_gamma 80.108030
_cell_volume 620.765625
_symmetry_space_group_name_H-M "P -1"
_symmetry_group_IT_number 2
_symmetry_cell_setting 'triclinic'
loop_
_space_group_symop_operation_xyz
x,y,z
-x,-y,-z
loop_
_atom_site_type_symbol
_atom_site_label
_atom_site_fract_x
_atom_site_fract_y
_atom_site_fract_z
Si Si1 0.262807 0.572299 0.839732
Si Si2 0.037422 0.369848 0.428167
Si Si3 0.526372 0.910781 0.421464
Si Si4 0.707774 0.543655 0.834200
Si Si5 0.083064 0.752055 0.944498
Si Si6 0.302184 0.082170 0.821166
Si Si7 0.290538 0.887360 0.655815
Si Si8 0.083410 0.828782 0.207379
O O1 0.151976 0.621103 0.885357
O O2 0.394678 0.300284 0.888036
O O3 0.091832 0.569027 0.703536
O O4 0.363764 0.801827 0.864357
O O5 0.291021 0.328118 0.508453
O O6 0.000000 0.500000 0.500000
O O7 0.943119 0.146729 0.414104
O O8 0.288117 0.929341 0.302641
O O9 0.500000 0.000000 0.500000
O O10 0.633298 0.056734 0.401045
O O11 0.458030 0.646753 0.737787
O O12 0.802019 0.412163 0.789046
O O13 0.848665 0.736183 0.889891
O O14 0.765611 0.372676 0.929637
O O15 0.065406 0.017958 0.914816
O O16 0.063850 0.150384 0.770239
O O17 0.322751 0.077084 0.733527
#
# Coordination Sequence:
#
# PCOD9014158 Si02
#       8
#     2   2   2   2   2   2   2   2
#     4  10  21  43  68  97 136 185 227 284 338 411
#     4  11  24  42  65  96 138 183 224 282 348 411
#     4  12  24  40  65  98 134 180 232 280 345 414
#     4  11  22  40  70  97 130 180 231 285 349 412
#     4  10  21  41  66  99 133 175 231 285 351 404
#     4  10  22  42  70  91 140 183 218 281 352 393
#     4  11  24  44  63 101 137 177 229 291 345 415
#     4  11  22  42  67 100 134 180 228 291 333 420
#
# _framework density 25.774625
#
# number of rings (size 3 to 8) (size 9 to 14) (size 15 to 20)
#    0.000    1.250    2.500    4.500    0.000    3.000 
#    0.000    8.125    0.000    0.000    0.000    0.000 
#    0.000    0.000    0.000    0.000    0.000    0.000 
#
# Total GULP energy -89272.503818 kJ/mol
# GULP energy per Si atom -5579.531489 kJ/mol
# Density = 2.571596 g / cm^3
# Si number density = 25.774625 Si / 1000 Ang^3
#
#
#
# Elastic Constant Matrix: (Units=GPa)
#
#
# Indices 1 2 3 4 5 6 
#
# 1 157.1602 26.9854 37.2709 3.1936 -14.7810 -11.8227
# 2 26.9854 109.6990 13.3239 6.7401 -6.0390 -13.6732
# 3 37.2709 13.3239 113.1395 -13.0410 -19.4550 -3.1780
# 4 3.1936 6.7401 -13.0410 24.1166 -7.7953 -12.4236
# 5 -14.7810 -6.0390 -19.4550 -7.7953 23.7961 10.8399
# 6 -11.8227 -13.6732 -3.1780 -12.4236 10.8399 54.3558
#
#
#
# Elastic Compliance Matrix: (Units=1/GPa)
#
#
# Indices 1 2 3 4 5 6 
#
# 1 0.007310 -0.001333 -0.001944 -0.000666 0.002138 0.000562
# 2 -0.001333 0.009907 -0.001128 -0.002600 -0.000870 0.001715
# 3 -0.001944 -0.001128 0.013302 0.012160 0.013272 0.000204
# 4 -0.000666 -0.002600 0.012160 0.061555 0.024929 0.009010
# 5 0.002138 -0.000870 0.013272 0.024929 0.064991 -0.006241
# 6 0.000562 0.001715 0.000204 0.009010 -0.006241 0.022267
#
#
# Mechanical properties :
#
#
# Convention : Reuss Voigt Hill
#
# Bulk Modulus (GPa) = 46.07066 59.46214 52.76640
# Shear Modulus (GPa) = 25.59145 40.61495 33.10320
#
# Velocity S-wave (km/s) = 3.15444 3.97391 3.58765
# Velocity P-wave (km/s) = 5.58395 6.64650 6.13826
#
# Compressibility (1/GPa) = 0.02170579
#
# Stress axis : x y z
#
# Youngs Moduli (GPa) = 136.80060 100.94321 75.17920
#
# Poissons Ratio (x) = 0.13459 0.14617
# Poissons Ratio (y) = 0.18240 0.08484
# Poissons Ratio (z) = 0.26598 0.11391
#
# Static dielectric constant tensor:
#      x y z
#    x 1.998080 0.070700 0.042540 
#    y 0.070700 2.160540 0.016140 
#    z 0.042540 0.016140 2.239310 
# 
# From -- ./inp_files/553553.got.cif
#   From: 2010.05.17/outbox.cif.g08.bks.cpg/sg2_277_cif.got.tgz:553553.got - 2010.06.03 11:33:40.
