data_PCOD9014206
_publ_section_title
;
Structure prediction by ZEFSAII (Michael W. Deem and Ramdas Pophale) SiO2 
 PCOD9014206
Probable space group: P -1
;
_chemical_formula_sum "Si O2"
_cell_formula_units_Z 16
_cell_length_a 8.387501
_cell_length_b 9.869448
_cell_length_c 20.736026
_cell_angle_alpha 136.058782
_cell_angle_beta 39.664003
_cell_angle_gamma 109.906281
_cell_volume 665.827488
_symmetry_space_group_name_H-M "P -1"
_symmetry_group_IT_number 2
_symmetry_cell_setting 'triclinic'
loop_
_space_group_symop_operation_xyz
x,y,z
-x,-y,-z
loop_
_atom_site_type_symbol
_atom_site_label
_atom_site_fract_x
_atom_site_fract_y
_atom_site_fract_z
Si Si1 0.942603 0.708836 0.371945
Si Si2 0.116801 0.430435 0.864709
Si Si3 0.381677 0.523422 0.341537
Si Si4 0.087111 0.912229 0.174900
Si Si5 0.865917 0.957559 0.615643
Si Si6 0.447988 0.248328 0.111461
Si Si7 0.573673 0.703982 0.052381
Si Si8 0.566442 0.382233 0.507283
O O1 0.877033 0.847577 0.506138
O O2 0.203763 0.458111 0.218421
O O3 0.666440 0.696550 0.433149
O O4 0.022848 0.860474 0.354322
O O5 0.421783 0.405737 0.740274
O O6 0.095309 0.204602 0.785760
O O7 0.905528 0.586759 0.926683
O O8 0.000000 0.500000 0.000000
O O9 0.076487 0.744268 0.517524
O O10 0.375555 0.331595 0.235605
O O11 0.466547 0.463674 0.368507
O O12 0.368508 0.851850 0.109241
O O13 0.876071 0.171700 0.328981
O O14 0.237827 0.794309 0.020600
O O15 0.547470 0.116244 0.790608
O O16 0.500000 0.000000 0.000000
O O17 0.500000 0.500000 0.000000
O O18 0.500000 0.500000 0.500000
#
# Coordination Sequence:
#
# PCOD9014206 Si02
#       8
#     2   2   2   2   2   2   2   2
#     4  10  23  39  70  98 135 176 228 285 351 410
#     4  11  23  40  71 109 143 168 225 293 352 412
#     4  11  25  45  71 102 138 183 233 291 359 410
#     4  11  23  43  67 101 142 177 226 287 351 409
#     4  10  21  41  67 104 136 174 222 288 360 422
#     4  11  24  47  68  97 141 193 233 280 338 429
#     4  10  22  37  62 102 144 175 212 272 357 417
#     4  12  27  47  67  98 140 187 241 287 335 416
#
# _framework density 24.030249999999999
#
# number of rings (size 3 to 8) (size 9 to 14) (size 15 to 20)
#    0.000    1.250    2.500    3.000   10.500    1.000 
#    2.250    4.375    0.000    0.000    0.000    0.000 
#    0.000    0.000    0.000    0.000    0.000    0.000 
#
# Total GULP energy -89240.330239 kJ/mol
# GULP energy per Si atom -5577.520640 kJ/mol
# Density = 2.397556 g / cm^3
# Si number density = 24.030250 Si / 1000 Ang^3
#
#
#
# Elastic Constant Matrix: (Units=GPa)
#
#
# Indices 1 2 3 4 5 6 
#
# 1 84.7940 17.3240 36.4752 20.1651 1.9080 -14.0590
# 2 17.3240 62.9002 31.0078 23.8458 11.1672 1.0657
# 3 36.4752 31.0078 168.4758 25.4173 7.0558 -3.4484
# 4 20.1651 23.8458 25.4173 31.5239 3.1431 -0.2586
# 5 1.9080 11.1672 7.0558 3.1431 23.5258 -7.2027
# 6 -14.0590 1.0657 -3.4484 -0.2586 -7.2027 30.2521
#
#
#
# Elastic Compliance Matrix: (Units=1/GPa)
#
#
# Indices 1 2 3 4 5 6 
#
# 1 0.016064 -0.001089 -0.002035 -0.008080 0.003354 0.008001
# 2 -0.001089 0.024923 -0.001609 -0.015854 -0.010422 -0.004184
# 3 -0.002035 -0.001609 0.007184 -0.003187 -0.000895 -0.000311
# 4 -0.008080 -0.015854 -0.003187 0.051287 0.001434 -0.002780
# 5 0.003354 -0.010422 -0.000895 0.001434 0.051581 0.014117
# 6 0.008001 -0.004184 -0.000311 -0.002780 0.014117 0.040223
#
#
# Mechanical properties :
#
#
# Convention : Reuss Voigt Hill
#
# Bulk Modulus (GPa) = 25.83606 53.97600 39.90603
# Shear Modulus (GPa) = 23.40510 32.48456 27.94483
#
# Velocity S-wave (km/s) = 3.12426 3.68070 3.41383
# Velocity P-wave (km/s) = 4.87745 6.36976 5.67289
#
# Compressibility (1/GPa) = 0.03870559
#
# Stress axis : x y z
#
# Youngs Moduli (GPa) = 62.25177 40.12405 139.19402
#
# Poissons Ratio (x) = 0.04369 0.28328
# Poissons Ratio (y) = 0.06778 0.22390
# Poissons Ratio (z) = 0.12669 0.06454
#
# Static dielectric constant tensor:
#      x y z
#    x 2.020470 -0.062340 0.077090 
#    y -0.062340 2.091110 -0.157070 
#    z 0.077090 -0.157070 1.989060 
# 
# From -- ./inp_files/607583.got.cif
#   From: 2010.05.17/outbox.cif.g08.bks.cpg/sg2_304_cif.got.tgz:607583.got - 2010.06.03 11:33:40.
