data_PCOD9014308
_publ_section_title
;
Structure prediction by ZEFSAII (Michael W. Deem and Ramdas Pophale) SiO2 
 PCOD9014308
Probable space group: P -1
;
_chemical_formula_sum "Si O2"
_cell_formula_units_Z 16
_cell_length_a 5.482091
_cell_length_b 20.844540
_cell_length_c 16.795753
_cell_angle_alpha 157.138076
_cell_angle_beta 95.036550
_cell_angle_gamma 94.178966
_cell_volume 681.637900
_symmetry_space_group_name_H-M "P -1"
_symmetry_group_IT_number 2
_symmetry_cell_setting 'triclinic'
loop_
_space_group_symop_operation_xyz
x,y,z
-x,-y,-z
loop_
_atom_site_type_symbol
_atom_site_label
_atom_site_fract_x
_atom_site_fract_y
_atom_site_fract_z
Si Si1 0.459320 0.788848 0.156018
Si Si2 0.312065 0.453917 0.016052
Si Si3 0.312951 0.710558 0.438839
Si Si4 0.895805 0.835789 0.652799
Si Si5 0.838474 0.116219 0.595430
Si Si6 0.027378 0.392148 0.180256
Si Si7 0.794830 0.566165 0.487790
Si Si8 0.763614 0.763596 0.869068
O O1 0.318118 0.841048 0.286674
O O2 0.674501 0.989876 0.374074
O O3 0.587639 0.656193 0.042425
O O4 0.250428 0.693191 0.972106
O O5 0.303105 0.626461 0.255914
O O6 0.500000 0.500000 0.000000
O O7 0.042439 0.314028 0.810784
O O8 0.621293 0.841243 0.615885
O O9 0.068304 0.767891 0.518990
O O10 0.237508 0.533772 0.291046
O O11 0.785541 0.696505 0.564361
O O12 0.124531 0.024707 0.903973
O O13 0.000000 0.000000 0.500000
O O14 0.013566 0.503235 0.385071
O O15 0.104366 0.239201 0.044459
O O16 0.853216 0.682736 0.702166
O O17 0.539859 0.379853 0.286959
#
# Coordination Sequence:
#
# PCOD9014308 Si02
#       8
#     2   2   2   2   2   2   2   2
#     4  10  21  41  67  93 132 179 238 284 357 420
#     4  11  23  43  66  95 137 188 233 295 362 425
#     4  11  24  47  69 102 143 193 240 298 366 430
#     4  11  25  48  71 107 147 190 240 302 360 426
#     4   9  20  40  63  94 124 172 232 287 348 415
#     4  11  22  43  72  97 140 190 237 297 361 436
#     4  10  23  45  70 105 143 190 236 298 363 427
#     4  11  24  43  72 107 141 187 244 293 362 438
#
# _framework density 23.472874999999998
#
# number of rings (size 3 to 8) (size 9 to 14) (size 15 to 20)
#    0.000    1.500    2.500    2.250    1.750    0.500 
#    9.000    1.875    0.000    0.000    0.000    0.000 
#    0.000    0.000    0.000    0.000    0.000    0.000 
#
# Total GULP energy -89211.326864 kJ/mol
# GULP energy per Si atom -5575.707929 kJ/mol
# Density = 2.341945 g / cm^3
# Si number density = 23.472875 Si / 1000 Ang^3
#
#
#
# Elastic Constant Matrix: (Units=GPa)
#
#
# Indices 1 2 3 4 5 6 
#
# 1 64.5885 19.7152 24.1966 -16.3946 1.1731 2.8581
# 2 19.7152 45.6851 23.2952 -15.0252 3.0459 30.0594
# 3 24.1966 23.2952 124.6104 -7.5520 11.1089 21.1413
# 4 -16.3946 -15.0252 -7.5520 31.4689 14.2632 -4.9839
# 5 1.1731 3.0459 11.1089 14.2632 29.7007 -3.2056
# 6 2.8581 30.0594 21.1413 -4.9839 -3.2056 38.1097
#
#
#
# Elastic Compliance Matrix: (Units=1/GPa)
#
#
# Indices 1 2 3 4 5 6 
#
# 1 0.021810 -0.013364 -0.003351 0.005935 0.000160 0.011554
# 2 -0.013364 0.084280 0.003498 0.039949 -0.035645 -0.065189
# 3 -0.003351 0.003498 0.010308 0.004275 -0.007026 -0.008258
# 4 0.005935 0.039949 0.004275 0.069671 -0.042496 -0.028790
# 5 0.000160 -0.035645 -0.007026 -0.042496 0.063787 0.031809
# 6 0.011554 -0.065189 -0.008258 -0.028790 0.031809 0.080284
#
#
# Mechanical properties :
#
#
# Convention : Reuss Voigt Hill
#
# Bulk Modulus (GPa) = 11.11560 41.03309 26.07435
# Shear Modulus (GPa) = 12.93450 31.03432 21.98441
#
# Velocity S-wave (km/s) = 2.34997 3.64006 3.06369
# Velocity P-wave (km/s) = 3.47979 5.93176 4.86285
#
# Compressibility (1/GPa) = 0.08996363
#
# Stress axis : x y z
#
# Youngs Moduli (GPa) = 45.85117 11.86517 97.00848
#
# Poissons Ratio (x) = 0.15857 0.32512
# Poissons Ratio (y) = 0.61275 -0.33933
# Poissons Ratio (z) = 0.15367 -0.04150
#
# Static dielectric constant tensor:
#      x y z
#    x 2.056760 -0.076720 0.031190 
#    y -0.076720 1.909180 0.044900 
#    z 0.031190 0.044900 1.893290 
# 
# From -- ./inp_files/112959.got.cif
#   From: 2010.05.17/outbox.cif.g08.bks.cpg/sg2_57_cif.got.tgz:112959.got - 2010.06.03 11:33:40.
