data_PCOD9014564
_publ_section_title
;
Structure prediction by ZEFSAII (Michael W. Deem and Ramdas Pophale) SiO2 
 PCOD9014564
Probable space group: P -1
;
_chemical_formula_sum "Si O2"
_cell_formula_units_Z 12
_cell_length_a 7.187002
_cell_length_b 8.807118
_cell_length_c 8.700360
_cell_angle_alpha 82.498426
_cell_angle_beta 75.462296
_cell_angle_gamma 107.618116
_cell_volume 495.174689
_symmetry_space_group_name_H-M "P -1"
_symmetry_group_IT_number 2
_symmetry_cell_setting 'triclinic'
loop_
_space_group_symop_operation_xyz
x,y,z
-x,-y,-z
loop_
_atom_site_type_symbol
_atom_site_label
_atom_site_fract_x
_atom_site_fract_y
_atom_site_fract_z
Si Si1 0.702262 0.721497 0.847777
Si Si2 0.783198 0.369802 0.494935
Si Si3 0.906232 0.347736 0.154276
Si Si4 0.840791 0.044754 0.635165
Si Si5 0.278551 0.854456 0.058667
Si Si6 0.483633 0.624220 0.188787
O O1 0.542665 0.555291 0.838426
O O2 0.917846 0.697750 0.787481
O O3 0.680519 0.866817 0.733193
O O4 0.679458 0.735643 0.035692
O O5 0.783686 0.394779 0.309809
O O6 0.774660 0.183923 0.551896
O O7 0.582662 0.380890 0.621054
O O8 0.000000 0.500000 0.500000
O O9 0.792666 0.191978 0.092741
O O10 0.000000 0.500000 0.000000
O O11 0.883106 0.111229 0.795156
O O12 0.000000 0.000000 0.500000
O O13 0.316283 0.693829 0.138678
O O14 0.500000 0.000000 0.000000
#
# Coordination Sequence:
#
# PCOD9014564 Si02
#       6
#     2   2   2   2   2   2
#     4  11  21  39  69  97 126 171 222 262 329 382
#     4  11  21  41  66  98 131 174 215 266 332 387
#     4  12  23  41  67  98 128 172 223 267 325 398
#     4  11  21  39  66  94 129 168 217 267 321 387
#     4  11  23  42  64  91 135 175 212 266 335 378
#     4  10  21  41  68  91 130 174 212 267 329 389
#
# _framework density 24.233874
#
# number of rings (size 3 to 8) (size 9 to 14) (size 15 to 20)
#    0.000    1.000    6.667    1.000    0.000    0.667 
#    0.000    5.833    0.000    0.000    0.000    0.000 
#    0.000    0.000    0.000    0.000    0.000    0.000 
#
# Total GULP energy -66887.977188 kJ/mol
# GULP energy per Si atom -5573.998099 kJ/mol
# Density = 2.417872 g / cm^3
# Si number density = 24.233874 Si / 1000 Ang^3
#
#
#
# Elastic Constant Matrix: (Units=GPa)
#
#
# Indices 1 2 3 4 5 6 
#
# 1 39.2473 12.0411 18.1550 4.8127 -2.1305 0.3547
# 2 12.0411 137.1389 54.2620 -16.9386 3.0027 -11.4341
# 3 18.1550 54.2620 224.5536 17.5459 -33.0751 -0.1414
# 4 4.8127 -16.9386 17.5459 56.5189 -12.2780 1.1229
# 5 -2.1305 3.0027 -33.0751 -12.2780 41.7492 9.2862
# 6 0.3547 -11.4341 -0.1414 1.1229 9.2862 28.6247
#
#
#
# Elastic Compliance Matrix: (Units=1/GPa)
#
#
# Indices 1 2 3 4 5 6 
#
# 1 0.027152 -0.002192 -0.001490 -0.002515 -0.000137 -0.001076
# 2 -0.002192 0.009438 -0.002806 0.003111 -0.003140 0.004680
# 3 -0.001490 -0.002806 0.006121 -0.001443 0.005148 -0.002686
# 4 -0.002515 0.003111 -0.001443 0.020334 0.004722 -0.001063
# 5 -0.000137 -0.003140 0.005148 0.004722 0.032282 -0.011885
# 6 -0.001076 0.004680 -0.002686 -0.001063 -0.011885 0.040701
#
#
# Mechanical properties :
#
#
# Convention : Reuss Voigt Hill
#
# Bulk Modulus (GPa) = 33.63014 63.31734 48.47374
# Shear Modulus (GPa) = 31.46322 46.47734 38.97028
#
# Velocity S-wave (km/s) = 3.60712 4.38410 4.01445
# Velocity P-wave (km/s) = 5.59070 7.19801 6.44466
#
# Compressibility (1/GPa) = 0.02973523
#
# Stress axis : x y z
#
# Youngs Moduli (GPa) = 36.82998 105.95749 163.36900
#
# Poissons Ratio (x) = 0.23223 0.24342
# Poissons Ratio (y) = 0.08072 0.45841
# Poissons Ratio (z) = 0.05488 0.29731
#
# Static dielectric constant tensor:
#      x y z
#    x 1.944280 -0.005030 -0.044150 
#    y -0.005030 1.983520 0.005600 
#    z -0.044150 0.005600 2.069900 
# 
# From -- ./inp_files/154557.got.cif
#   From: 2010.05.17/outbox.cif.g08.bks.cpg/sg2_78_cif.got.tgz:154557.got - 2010.06.03 11:33:40.
