data_PCOD9014551
_publ_section_title
;
Structure prediction by ZEFSAII (Michael W. Deem and Ramdas Pophale) SiO2 
 PCOD9014551
Probable space group: P -1
;
_chemical_formula_sum "Si O2"
_cell_formula_units_Z 14
_cell_length_a 24.600112
_cell_length_b 4.888990
_cell_length_c 13.376868
_cell_angle_alpha 104.801933
_cell_angle_beta 160.272361
_cell_angle_gamma 70.758532
_cell_volume 505.106707
_symmetry_space_group_name_H-M "P -1"
_symmetry_group_IT_number 2
_symmetry_cell_setting 'triclinic'
loop_
_space_group_symop_operation_xyz
x,y,z
-x,-y,-z
loop_
_atom_site_type_symbol
_atom_site_label
_atom_site_fract_x
_atom_site_fract_y
_atom_site_fract_z
Si Si1 0.772773 0.202780 0.876521
Si Si2 0.052766 0.411252 0.739001
Si Si3 0.960486 0.251954 0.041833
Si Si4 0.408501 0.200052 0.269106
Si Si5 0.456571 0.824273 0.999378
Si Si6 0.223560 0.200991 0.347989
Si Si7 0.181879 0.000874 0.696595
O O1 0.941701 0.348960 0.136888
O O2 0.567940 0.290073 0.509742
O O3 0.821340 0.042678 0.828523
O O4 0.837366 0.914693 0.034127
O O5 0.958338 0.694390 0.526012
O O6 0.899770 0.259116 0.445396
O O7 0.253875 0.477041 0.065873
O O8 0.825034 0.514562 0.777630
O O9 0.142756 0.309275 0.327987
O O10 0.000000 0.000000 0.000000
O O11 0.500000 0.000000 0.500000
O O12 0.310675 0.041261 0.009662
O O13 0.275617 0.925699 0.745400
O O14 0.500000 0.500000 0.000000
O O15 0.580839 0.877066 0.304581
O O16 0.500000 0.000000 0.000000
#
# Coordination Sequence:
#
# PCOD9014551 Si02
#       7
#     2   2   2   2   2   2   2
#     4   9  21  41  70  99 135 172 225 279 327 402
#     4  10  24  43  66 102 130 178 224 270 336 401
#     4  10  21  41  68  90 130 167 215 269 332 384
#     4   9  21  44  67 101 135 175 224 273 341 396
#     4  12  27  43  67  98 134 174 226 272 329 398
#     4  10  23  42  61  96 126 171 215 270 326 392
#     4  12  24  44  70  95 138 181 215 281 337 404
#
# _framework density 27.716916999999999
#
# number of rings (size 3 to 8) (size 9 to 14) (size 15 to 20)
#    0.857    0.857    0.000    3.429    4.000    2.286 
#    0.000    5.714    0.000    0.000    0.000    0.000 
#    0.000    0.000    0.000    0.000    0.000    0.000 
#
# Total GULP energy -77988.015061 kJ/mol
# GULP energy per Si atom -5570.572504 kJ/mol
# Density = 2.765383 g / cm^3
# Si number density = 27.716917 Si / 1000 Ang^3
#
#
#
# Elastic Constant Matrix: (Units=GPa)
#
#
# Indices 1 2 3 4 5 6 
#
# 1 -268.3460 -341.2905 -331.5206 -111.4446 -440.9173 255.3530
# 2 -341.2905 -94.5274 -270.1270 -72.7496 -446.1044 255.0297
# 3 -331.5206 -270.1270 -145.2514 -74.0627 -398.4975 235.6806
# 4 -111.4446 -72.7496 -74.0627 30.3232 -128.6409 61.8318
# 5 -440.9173 -446.1044 -398.4975 -128.6409 -485.2887 319.6543
# 6 255.3530 255.0297 235.6806 61.8318 319.6543 -128.9703
#
#
#
# Elastic Compliance Matrix: (Units=1/GPa)
#
#
# Indices 1 2 3 4 5 6 
#
# 1 0.009317 -0.001551 -0.000534 0.001856 -0.004713 0.003613
# 2 -0.001551 0.004304 -0.001624 -0.002013 -0.000494 0.000282
# 3 -0.000534 -0.001624 0.006883 -0.001926 -0.002691 0.000719
# 4 0.001856 -0.002013 -0.001926 0.019384 -0.000330 0.004649
# 5 -0.004713 -0.000494 -0.002691 -0.000330 0.008158 0.004836
# 6 0.003613 0.000282 0.000719 0.004649 0.004836 0.015487
#
#
# Mechanical properties :
#
#
# Convention : Reuss Voigt Hill
#
# Bulk Modulus (GPa) = 76.41030 -266.00012 -94.79491
# Shear Modulus (GPa) = 66.39107 -87.79959 -10.70426
#
# Velocity S-wave (km/s) = 4.89952 -5.63436 -1.96733
# Velocity P-wave (km/s) = 7.72237 11.76889 6.27980
#
# Compressibility (1/GPa) = 0.01308724
#
# Stress axis : x y z
#
# Youngs Moduli (GPa) = 107.33025 232.36037 145.28310
#
# Poissons Ratio (x) = 0.36036 0.07751
# Poissons Ratio (y) = 0.16645 0.23592
# Poissons Ratio (z) = 0.05727 0.37733
#
# Static dielectric constant tensor:
#      x y z
#    x 2.079950 -0.022530 -0.031360 
#    y -0.022530 2.039800 -0.061470 
#    z -0.031360 -0.061470 2.252700 
# 
# From -- ./inp_files/543591.got.cif
#   From: 2010.05.17/outbox.cif.g08.bks.cpg/sg2_272_cif.got.tgz:543591.got - 2010.06.03 11:33:40.
