data_PCOD9014470
_publ_section_title
;
Structure prediction by ZEFSAII (Michael W. Deem and Ramdas Pophale) SiO2 
 PCOD9014470
Probable space group: P -1
;
_chemical_formula_sum "Si O2"
_cell_formula_units_Z 14
_cell_length_a 20.239968
_cell_length_b 9.105525
_cell_length_c 8.389864
_cell_angle_alpha 122.460799
_cell_angle_beta 136.225738
_cell_angle_gamma 38.625839
_cell_volume 666.397023
_symmetry_space_group_name_H-M "P -1"
_symmetry_group_IT_number 2
_symmetry_cell_setting 'triclinic'
loop_
_space_group_symop_operation_xyz
x,y,z
-x,-y,-z
loop_
_atom_site_type_symbol
_atom_site_label
_atom_site_fract_x
_atom_site_fract_y
_atom_site_fract_z
Si Si1 0.605074 0.139706 0.374969
Si Si2 0.330466 0.593169 0.201855
Si Si3 0.111692 0.378540 0.991855
Si Si4 0.732775 0.664113 0.491663
Si Si5 0.004658 0.190625 0.554688
Si Si6 0.939122 0.246667 0.116731
Si Si7 0.553127 0.583301 0.029153
O O1 0.465791 0.335070 0.334449
O O2 0.683113 0.215769 0.607131
O O3 0.563942 0.190003 0.147600
O O4 0.675817 0.883590 0.408171
O O5 0.354969 0.601455 0.061887
O O6 0.208963 0.620146 0.025138
O O7 0.064120 0.580492 0.899923
O O8 0.116128 0.180328 0.810230
O O9 0.235345 0.297824 0.256283
O O10 0.000000 0.500000 0.000000
O O11 0.867673 0.436707 0.517539
O O12 0.633346 0.626915 0.291786
O O13 0.010320 0.189155 0.373704
O O14 0.000000 0.000000 0.500000
O O15 0.000000 0.000000 0.000000
O O16 0.500000 0.500000 0.000000
#
# Coordination Sequence:
#
# PCOD9014470 Si02
#       7
#     2   2   2   2   2   2   2
#     4   9  21  42  69  90 141 175 220 276 338 406
#     4   9  22  42  66  98 135 173 228 264 343 404
#     4  10  25  42  65  99 132 175 232 279 339 400
#     4  11  22  41  71  94 140 172 225 284 341 404
#     4  11  24  46  66  98 137 177 236 284 332 409
#     4  12  24  43  73  95 140 184 224 281 347 400
#     4  10  21  41  68 100 133 172 226 275 340 399
#
# _framework density 21.008497999999999
#
# number of rings (size 3 to 8) (size 9 to 14) (size 15 to 20)
#    0.857    0.857    1.429    2.571    8.000    0.000 
#    0.000    5.714    0.000    0.000    0.000    0.000 
#    0.000    0.000    0.000    0.000    0.000    0.000 
#
# Total GULP energy -78162.500390 kJ/mol
# GULP energy per Si atom -5583.035742 kJ/mol
# Density = 2.096068 g / cm^3
# Si number density = 21.008498 Si / 1000 Ang^3
#
#
#
# Elastic Constant Matrix: (Units=GPa)
#
#
# Indices 1 2 3 4 5 6 
#
# 1 111.5266 39.1925 52.9297 0.0478 -4.6336 32.0216
# 2 39.1925 98.6583 35.3200 5.6190 1.9403 27.9050
# 3 52.9297 35.3200 206.2306 12.9015 -2.3127 29.0004
# 4 0.0478 5.6190 12.9015 19.7996 6.3297 -4.8181
# 5 -4.6336 1.9403 -2.3127 6.3297 23.7888 -3.0670
# 6 32.0216 27.9050 29.0004 -4.8181 -3.0670 26.0534
#
#
#
# Elastic Compliance Matrix: (Units=1/GPa)
#
#
# Indices 1 2 3 4 5 6 
#
# 1 0.014471 -0.000497 -0.001040 -0.003775 0.001622 -0.016603
# 2 -0.000497 0.016084 0.000631 -0.009204 -0.001372 -0.019182
# 3 -0.001040 0.000631 0.006532 -0.006695 0.001161 -0.007770
# 4 -0.003775 -0.009204 -0.006695 0.070389 -0.015085 0.033191
# 5 0.001622 -0.001372 0.001161 -0.015085 0.046706 0.000892
# 6 -0.016603 -0.019182 -0.007770 0.033191 0.000892 0.094227
#
#
# Mechanical properties :
#
#
# Convention : Reuss Voigt Hill
#
# Bulk Modulus (GPa) = 28.34866 74.58887 51.46877
# Shear Modulus (GPa) = 19.08542 33.19323 26.13933
#
# Velocity S-wave (km/s) = 3.01734 3.97922 3.53119
# Velocity P-wave (km/s) = 5.06580 7.52951 6.41700
#
# Compressibility (1/GPa) = 0.03527504
#
# Stress axis : x y z
#
# Youngs Moduli (GPa) = 69.10509 62.17209 153.08624
#
# Poissons Ratio (x) = 0.03091 0.15917
# Poissons Ratio (y) = 0.03436 -0.09655
# Poissons Ratio (z) = 0.07185 -0.03921
#
# Static dielectric constant tensor:
#      x y z
#    x 1.622170 0.065670 0.022610 
#    y 0.065670 1.678250 -0.009170 
#    z 0.022610 -0.009170 1.834330 
# 
# From -- ./inp_files/343065.got.cif
#   From: 2010.05.17/outbox.cif.g08.bks.cpg/sg2_172_cif.got.tgz:343065.got - 2010.06.03 11:33:40.
