data_PCOD9014567
_publ_section_title
;
Structure prediction by ZEFSAII (Michael W. Deem and Ramdas Pophale) SiO2 
 PCOD9014567
Probable space group: P -1
;
_chemical_formula_sum "Si O2"
_cell_formula_units_Z 16
_cell_length_a 7.957646
_cell_length_b 20.227585
_cell_length_c 8.338519
_cell_angle_alpha 147.763992
_cell_angle_beta 87.589505
_cell_angle_gamma 92.986890
_cell_volume 714.962991
_symmetry_space_group_name_H-M "P -1"
_symmetry_group_IT_number 2
_symmetry_cell_setting 'triclinic'
loop_
_space_group_symop_operation_xyz
x,y,z
-x,-y,-z
loop_
_atom_site_type_symbol
_atom_site_label
_atom_site_fract_x
_atom_site_fract_y
_atom_site_fract_z
Si Si1 0.851529 0.382922 0.095979
Si Si2 0.833148 0.127023 0.429384
Si Si3 0.488863 0.387450 0.144843
Si Si4 0.240744 0.778764 0.731004
Si Si5 0.523609 0.000103 0.809857
Si Si6 0.609957 0.876754 0.282377
Si Si7 0.816943 0.477347 0.659571
Si Si8 0.049450 0.083845 0.821446
O O1 0.663643 0.394275 0.055554
O O2 0.836218 0.421888 0.363567
O O3 0.998674 0.469197 0.192968
O O4 0.892647 0.239975 0.772614
O O5 0.813068 0.179696 0.359775
O O6 0.649573 0.073138 0.379589
O O7 0.940644 0.006846 0.211394
O O8 0.500000 0.500000 0.500000
O O9 0.315629 0.412478 0.112621
O O10 0.480127 0.256693 0.968960
O O11 0.254055 0.633034 0.453356
O O12 0.409470 0.858917 0.936152
O O13 0.089488 0.817840 0.933766
O O14 0.661715 0.917002 0.545660
O O15 0.500000 0.000000 0.000000
O O16 0.765806 0.863548 0.129104
O O17 0.500000 0.000000 0.500000
O O18 0.000000 0.000000 0.500000
#
# Coordination Sequence:
#
# PCOD9014567 Si02
#       8
#     2   2   2   2   2   2   2   2
#     4  10  21  41  68  91 132 171 227 281 336 397
#     4  11  23  43  65  92 136 178 213 281 348 400
#     4  10  23  39  65  98 134 169 220 285 341 393
#     4  11  25  42  62  95 138 173 222 276 344 406
#     4  10  22  41  65  93 134 171 212 272 338 398
#     4  12  23  41  69  98 127 172 224 275 339 395
#     4  10  24  41  66  95 131 177 227 282 333 407
#     4  12  24  36  66  98 126 165 223 275 330 399
#
# _framework density 22.378782999999999
#
# number of rings (size 3 to 8) (size 9 to 14) (size 15 to 20)
#    0.000    1.250    3.750    1.125   10.500    0.500 
#    0.000    0.625    0.000    0.000    0.000    0.000 
#    0.000    0.000    0.000    0.000    0.000    0.000 
#
# Total GULP energy -89185.665986 kJ/mol
# GULP energy per Si atom -5574.104124 kJ/mol
# Density = 2.232785 g / cm^3
# Si number density = 22.378783 Si / 1000 Ang^3
#
#
#
# Elastic Constant Matrix: (Units=GPa)
#
#
# Indices 1 2 3 4 5 6 
#
# 1 101.4106 32.9775 30.0138 26.0402 4.1443 29.0225
# 2 32.9775 102.4833 30.9323 18.0842 2.1567 13.6061
# 3 30.0138 30.9323 82.8307 26.8034 6.5814 10.2822
# 4 26.0402 18.0842 26.8034 40.7406 7.3896 3.6817
# 5 4.1443 2.1567 6.5814 7.3896 38.3442 8.5129
# 6 29.0225 13.6061 10.2822 3.6817 8.5129 29.8613
#
#
#
# Elastic Compliance Matrix: (Units=1/GPa)
#
#
# Indices 1 2 3 4 5 6 
#
# 1 0.017335 -0.001677 -0.001147 -0.008820 0.003586 -0.015624
# 2 -0.001677 0.011911 -0.002831 -0.002290 0.001070 -0.002845
# 3 -0.001147 -0.002831 0.016660 -0.008701 -0.000425 -0.002138
# 4 -0.008820 -0.002290 -0.008701 0.037260 -0.006817 0.009961
# 5 0.003586 0.001070 -0.000425 -0.006817 0.029552 -0.011411
# 6 -0.015624 -0.002845 -0.002138 0.009961 -0.011411 0.052731
#
#
# Mechanical properties :
#
#
# Convention : Reuss Voigt Hill
#
# Bulk Modulus (GPa) = 28.90414 52.73022 40.81718
# Shear Modulus (GPa) = 26.55450 34.64262 30.59856
#
# Velocity S-wave (km/s) = 3.44843 3.93875 3.70172
# Velocity P-wave (km/s) = 5.36652 6.65573 6.04559
#
# Compressibility (1/GPa) = 0.03459712
#
# Stress axis : x y z
#
# Youngs Moduli (GPa) = 57.68562 83.95507 60.02254
#
# Poissons Ratio (x) = 0.14078 0.06882
# Poissons Ratio (y) = 0.09673 0.16995
# Poissons Ratio (z) = 0.06614 0.23771
#
# Static dielectric constant tensor:
#      x y z
#    x 1.926420 -0.038270 0.015110 
#    y -0.038270 1.847460 -0.075010 
#    z 0.015110 -0.075010 1.849370 
# 
# From -- ./inp_files/224360.got.cif
#   From: 2010.05.17/outbox.cif.g08.bks.cpg/sg2_113_cif.got.tgz:224360.got - 2010.06.03 11:33:40.
