data_PCOD9014173
_publ_section_title
;
Structure prediction by ZEFSAII (Michael W. Deem and Ramdas Pophale) SiO2 
 PCOD9014173
Probable space group: P -1
;
_chemical_formula_sum "Si O2"
_cell_formula_units_Z 16
_cell_length_a 12.657410
_cell_length_b 16.044003
_cell_length_c 12.805642
_cell_angle_alpha 56.592902
_cell_angle_beta 77.355462
_cell_angle_gamma 28.364000
_cell_volume 765.899318
_symmetry_space_group_name_H-M "P -1"
_symmetry_group_IT_number 2
_symmetry_cell_setting 'triclinic'
loop_
_space_group_symop_operation_xyz
x,y,z
-x,-y,-z
loop_
_atom_site_type_symbol
_atom_site_label
_atom_site_fract_x
_atom_site_fract_y
_atom_site_fract_z
Si Si1 0.198719 0.738564 0.593657
Si Si2 0.843332 0.493250 0.912915
Si Si3 0.716564 0.816710 0.678153
Si Si4 0.781538 0.482699 0.170537
Si Si5 0.847603 0.939244 0.340240
Si Si6 0.183619 0.103794 0.938304
Si Si7 0.812038 0.762755 0.351363
Si Si8 0.881502 0.196129 0.824567
O O1 0.231396 0.624849 0.753040
O O2 0.536595 0.480327 0.671173
O O3 0.044039 0.815632 0.476114
O O4 0.000000 0.000000 0.500000
O O5 0.908156 0.551327 0.827136
O O6 0.095982 0.210760 0.998849
O O7 0.505037 0.760105 0.762317
O O8 0.815034 0.500558 0.036636
O O9 0.924969 0.732609 0.684684
O O10 0.500000 0.000000 0.500000
O O11 0.513645 0.986630 0.708020
O O12 0.488391 0.780039 0.083103
O O13 0.914458 0.769082 0.398494
O O14 0.912348 0.955463 0.215469
O O15 0.196234 0.185822 0.798814
O O16 0.920646 0.258292 0.847053
O O17 0.000000 0.500000 0.500000
O O18 0.000000 0.000000 0.000000
#
# Coordination Sequence:
#
# PCOD9014173 Si02
#       8
#     2   2   2   2   2   2   2   2
#     4  12  26  43  67  98 135 181 235 285 343 403
#     4  11  22  43  68  99 133 177 219 276 344 409
#     4  11  23  42  67  96 139 175 216 281 339 405
#     4  12  24  46  65  97 136 172 230 281 333 415
#     4  10  22  43  67  97 139 174 228 281 339 409
#     4  11  23  41  69  96 132 175 227 277 339 405
#     4  10  21  41  67 100 136 175 217 274 343 409
#     4  11  21  44  69  93 134 178 224 286 337 392
#
# _framework density 20.890474000000001
#
# number of rings (size 3 to 8) (size 9 to 14) (size 15 to 20)
#    0.000    1.000    5.000    3.750    0.000    3.500 
#    6.750    2.500    0.000    0.000    0.000    0.000 
#    0.000    0.000    0.000    0.000    0.000    0.000 
#
# Total GULP energy -89403.347025 kJ/mol
# GULP energy per Si atom -5587.709189 kJ/mol
# Density = 2.084293 g / cm^3
# Si number density = 20.890474 Si / 1000 Ang^3
#
#
#
# Elastic Constant Matrix: (Units=GPa)
#
#
# Indices 1 2 3 4 5 6 
#
# 1 93.0799 46.3193 25.7103 -17.7854 -12.0049 -12.0299
# 2 46.3193 104.6076 19.8477 -11.9403 -9.7800 15.3265
# 3 25.7103 19.8477 58.4223 -13.4844 -14.1210 7.4561
# 4 -17.7854 -11.9403 -13.4844 26.6157 -2.4127 -4.7268
# 5 -12.0049 -9.7800 -14.1210 -2.4127 49.8206 -1.8691
# 6 -12.0299 15.3265 7.4561 -4.7268 -1.8691 30.8479
#
#
#
# Elastic Compliance Matrix: (Units=1/GPa)
#
#
# Indices 1 2 3 4 5 6 
#
# 1 0.021211 -0.009282 -0.005063 0.010537 0.002961 0.015901
# 2 -0.009282 0.015188 0.000147 -0.001309 0.000296 -0.011384
# 3 -0.005063 0.000147 0.023233 0.007869 0.005545 -0.006121
# 4 0.010537 -0.001309 0.007869 0.050647 0.007380 0.011066
# 5 0.002961 0.000296 0.005545 0.007380 0.022855 0.002183
# 6 0.015901 -0.011384 -0.006121 0.011066 0.002183 0.047581
#
#
# Mechanical properties :
#
#
# Convention : Reuss Voigt Hill
#
# Bulk Modulus (GPa) = 32.01363 48.87383 40.44373
# Shear Modulus (GPa) = 22.77687 32.40568 27.59127
#
# Velocity S-wave (km/s) = 3.30555 3.94282 3.63817
# Velocity P-wave (km/s) = 5.47053 6.64634 6.08689
#
# Compressibility (1/GPa) = 0.03123669
#
# Stress axis : x y z
#
# Youngs Moduli (GPa) = 47.14486 65.84334 43.04304
#
# Poissons Ratio (x) = 0.61114 0.21792
# Poissons Ratio (y) = 0.43758 -0.00634
# Poissons Ratio (z) = 0.23869 -0.00970
#
# Static dielectric constant tensor:
#      x y z
#    x 1.774020 0.012960 0.013190 
#    y 0.012960 1.728270 0.016370 
#    z 0.013190 0.016370 1.806970 
# 
# From -- ./inp_files/187238.got.cif
#   From: 2010.05.17/outbox.cif.g08.bks.cpg/sg2_94_cif.got.tgz:187238.got - 2010.06.03 11:33:40.
