data_PCOD9014218
_publ_section_title
;
Structure prediction by ZEFSAII (Michael W. Deem and Ramdas Pophale) SiO2 
 PCOD9014218
Probable space group: P -1
;
_chemical_formula_sum "Si O2"
_cell_formula_units_Z 16
_cell_length_a 18.171430
_cell_length_b 8.902528
_cell_length_c 11.665176
_cell_angle_alpha 77.383401
_cell_angle_beta 131.614951
_cell_angle_gamma 139.623188
_cell_volume 735.503603
_symmetry_space_group_name_H-M "P -1"
_symmetry_group_IT_number 2
_symmetry_cell_setting 'triclinic'
loop_
_space_group_symop_operation_xyz
x,y,z
-x,-y,-z
loop_
_atom_site_type_symbol
_atom_site_label
_atom_site_fract_x
_atom_site_fract_y
_atom_site_fract_z
Si Si1 0.561476 0.782207 0.843949
Si Si2 0.794979 0.768768 0.787531
Si Si3 0.343937 0.682980 0.443789
Si Si4 0.174873 0.919176 0.413948
Si Si5 0.024399 0.647118 0.782103
Si Si6 0.993811 0.675046 0.494979
Si Si7 0.393188 0.707584 0.900151
Si Si8 0.554071 0.433917 0.815465
O O1 0.439179 0.723885 0.642635
O O2 0.515778 0.775297 0.926257
O O3 0.508855 0.535401 0.812092
O O4 0.780451 0.093459 0.994719
O O5 0.707951 0.512116 0.671680
O O6 0.680741 0.643695 0.804992
O O7 0.792678 0.910875 0.676880
O O8 0.000000 0.000000 0.000000
O O9 0.151890 0.510329 0.311688
O O10 0.500000 0.000000 0.500000
O O11 0.042058 0.612438 0.277356
O O12 0.092695 0.879469 0.453357
O O13 0.371127 0.113147 0.627318
O O14 0.065752 0.786176 0.679817
O O15 0.791321 0.476975 0.318761
O O16 0.000000 0.500000 0.500000
O O17 0.355285 0.556983 0.999040
O O18 0.500000 0.000000 0.000000
#
# Coordination Sequence:
#
# PCOD9014218 Si02
#       8
#     2   2   2   2   2   2   2   2
#     4  12  27  48  73 109 148 190 239 300 369 421
#     4  12  27  47  71 103 142 191 242 291 367 433
#     4  12  28  47  73 108 147 190 245 296 355 437
#     4  11  23  44  70 100 142 187 235 297 359 426
#     4  11  24  46  72 104 144 187 243 298 358 426
#     4  10  21  41  67 106 139 178 235 298 352 417
#     4  12  24  44  77 106 142 190 246 297 358 436
#     4  12  26  47  71 103 148 189 239 301 364 429
#
# _framework density 21.753803000000001
#
# number of rings (size 3 to 8) (size 9 to 14) (size 15 to 20)
#    0.000    0.500    2.500    6.750    5.250    0.500 
#    0.000    1.875    0.000    0.000    0.000    0.000 
#    0.000    0.000    0.000    0.000    0.000    0.000 
#
# Total GULP energy -89528.767791 kJ/mol
# GULP energy per Si atom -5595.547987 kJ/mol
# Density = 2.170429 g / cm^3
# Si number density = 21.753803 Si / 1000 Ang^3
#
#
#
# Elastic Constant Matrix: (Units=GPa)
#
#
# Indices 1 2 3 4 5 6 
#
# 1 109.6506 41.4604 22.5115 -7.1025 -2.8772 17.5982
# 2 41.4604 101.0566 21.5296 -12.2852 -12.0872 0.8161
# 3 22.5115 21.5296 114.8757 12.2510 12.3836 -0.7581
# 4 -7.1025 -12.2852 12.2510 34.2944 3.1238 -5.0943
# 5 -2.8772 -12.0872 12.3836 3.1238 39.9847 5.7534
# 6 17.5982 0.8161 -0.7581 -5.0943 5.7534 27.7008
#
#
#
# Elastic Compliance Matrix: (Units=1/GPa)
#
#
# Indices 1 2 3 4 5 6 
#
# 1 0.012553 -0.004504 -0.001839 0.000327 0.001250 -0.008092
# 2 -0.004504 0.013279 -0.002498 0.004748 0.003733 0.002499
# 3 -0.001839 -0.002498 0.010446 -0.004413 -0.004001 0.001547
# 4 0.000327 0.004748 -0.004413 0.033424 -0.000621 0.005807
# 5 0.001250 0.003733 -0.004001 -0.000621 0.028531 -0.007054
# 6 -0.008092 0.002499 0.001547 0.005807 -0.007054 0.043743
#
#
# Mechanical properties :
#
#
# Convention : Reuss Voigt Hill
#
# Bulk Modulus (GPa) = 53.77596 55.17620 54.47608
# Shear Modulus (GPa) = 30.14675 36.40140 33.27408
#
# Velocity S-wave (km/s) = 3.72669 4.09508 3.91522
# Velocity P-wave (km/s) = 6.57963 6.91220 6.74797
#
# Compressibility (1/GPa) = 0.01859567
#
# Stress axis : x y z
#
# Youngs Moduli (GPa) = 79.66205 75.30695 95.73214
#
# Poissons Ratio (x) = 0.33916 0.17605
# Poissons Ratio (y) = 0.35877 0.23918
# Poissons Ratio (z) = 0.14650 0.18815
#
# Static dielectric constant tensor:
#      x y z
#    x 1.813620 0.054190 0.002780 
#    y 0.054190 1.596740 0.452590 
#    z 0.002780 0.452590 0.849420 
# 
# From -- ./inp_files/462149.got.cif
#   From: 2010.05.17/outbox.cif.g08.bks.cpg/sg2_232_cif.got.tgz:462149.got - 2010.06.03 11:33:40.
