data_PCOD9014177
_publ_section_title
;
Structure prediction by ZEFSAII (Michael W. Deem and Ramdas Pophale) SiO2 
 PCOD9014177
Probable space group: P -1
;
_chemical_formula_sum "Si O2"
_cell_formula_units_Z 16
_cell_length_a 4.861601
_cell_length_b 12.507186
_cell_length_c 12.690517
_cell_angle_alpha 61.829104
_cell_angle_beta 82.789415
_cell_angle_gamma 103.841769
_cell_volume 634.335711
_symmetry_space_group_name_H-M "P -1"
_symmetry_group_IT_number 2
_symmetry_cell_setting 'triclinic'
loop_
_space_group_symop_operation_xyz
x,y,z
-x,-y,-z
loop_
_atom_site_type_symbol
_atom_site_label
_atom_site_fract_x
_atom_site_fract_y
_atom_site_fract_z
Si Si1 0.932446 0.878128 0.870396
Si Si2 0.928657 0.841128 0.202680
Si Si3 0.450399 0.298670 0.401056
Si Si4 0.094935 0.375739 0.062442
Si Si5 0.191650 0.801907 0.430607
Si Si6 0.592257 0.238598 0.884856
Si Si7 0.731001 0.932295 0.625353
Si Si8 0.379886 0.503227 0.177500
O O1 0.080570 0.766749 0.905124
O O2 0.840013 0.892099 0.748333
O O3 0.102633 0.020419 0.837765
O O4 0.646979 0.830525 0.982375
O O5 0.061406 0.802105 0.320555
O O6 0.177951 0.835106 0.110554
O O7 0.614480 0.760732 0.206484
O O8 0.612106 0.282819 0.507280
O O9 0.485614 0.194232 0.363291
O O10 0.533401 0.441606 0.284864
O O11 0.103479 0.253809 0.460864
O O12 0.169826 0.381132 0.179701
O O13 0.384666 0.416782 0.957044
O O14 0.000000 0.500000 0.000000
O O15 0.374372 0.949329 0.389037
O O16 0.756969 0.390793 0.828046
O O17 0.000000 0.000000 0.500000
#
# Coordination Sequence:
#
# PCOD9014177 Si02
#       8
#     2   2   2   2   2   2   2   2
#     4  10  21  41  67 101 130 172 218 268 332 392
#     4  11  24  47  66  96 130 174 226 275 319 376
#     4  11  21  40  63  95 127 169 212 262 330 392
#     4  10  22  41  65  96 136 172 212 270 331 393
#     4  10  23  39  65  91 128 167 219 268 319 382
#     4  11  25  43  68  93 133 176 223 272 320 378
#     4   9  19  37  62  95 133 166 206 264 330 391
#     4  10  24  40  62  97 132 173 219 267 327 392
#
# _framework density 25.223237999999998
#
# number of rings (size 3 to 8) (size 9 to 14) (size 15 to 20)
#    0.000    1.750    1.250    1.875    5.250    0.000 
#    4.500   11.250    0.000    0.000    0.000    0.000 
#    0.000    0.000    0.000    0.000    0.000    0.000 
#
# Total GULP energy -89425.673151 kJ/mol
# GULP energy per Si atom -5589.104572 kJ/mol
# Density = 2.516583 g / cm^3
# Si number density = 25.223238 Si / 1000 Ang^3
#
#
#
# Elastic Constant Matrix: (Units=GPa)
#
#
# Indices 1 2 3 4 5 6 
#
# 1 75.3492 23.2971 7.8689 -2.8812 2.4802 -8.3055
# 2 23.2971 125.2858 36.0819 -3.3820 2.5697 -7.4337
# 3 7.8689 36.0819 108.2440 1.9797 20.2309 -1.4470
# 4 -2.8812 -3.3820 1.9797 26.5031 -13.7684 2.9117
# 5 2.4802 2.5697 20.2309 -13.7684 30.6461 -7.3091
# 6 -8.3055 -7.4337 -1.4470 2.9117 -7.3091 28.3720
#
#
#
# Elastic Compliance Matrix: (Units=1/GPa)
#
#
# Indices 1 2 3 4 5 6 
#
# 1 0.014464 -0.002344 -0.000379 0.001275 0.000721 0.003656
# 2 -0.002344 0.009642 -0.003766 0.002947 0.003743 0.002310
# 3 -0.000379 -0.003766 0.012907 -0.007529 -0.012229 -0.002817
# 4 0.001275 0.002947 -0.007529 0.053807 0.029469 0.002831
# 5 0.000721 0.003743 -0.012229 0.029469 0.056454 0.012087
# 6 0.003656 0.002310 -0.002817 0.002831 0.012087 0.039601
#
#
# Mechanical properties :
#
#
# Convention : Reuss Voigt Hill
#
# Bulk Modulus (GPa) = 41.60748 49.26385 45.43567
# Shear Modulus (GPa) = 24.05415 33.21296 28.63356
#
# Velocity S-wave (km/s) = 3.09147 3.63266 3.37294
# Velocity P-wave (km/s) = 5.41059 6.09659 5.76381
#
# Compressibility (1/GPa) = 0.02403414
#
# Stress axis : x y z
#
# Youngs Moduli (GPa) = 69.13818 103.71199 77.47761
#
# Poissons Ratio (x) = 0.24308 0.02939
# Poissons Ratio (y) = 0.16205 0.29180
# Poissons Ratio (z) = 0.02623 0.39060
#
# Static dielectric constant tensor:
#      x y z
#    x 1.993180 -0.033960 0.049180 
#    y -0.033960 2.055700 0.001220 
#    z 0.049180 0.001220 2.084130 
# 
# From -- ./inp_files/363852.got.cif
#   From: 2010.05.17/outbox.cif.g08.bks.cpg/sg2_182_cif.got.tgz:363852.got - 2010.06.03 11:33:40.
