data_PCOD9014724
_publ_section_title
;
Structure prediction by ZEFSAII (Michael W. Deem and Ramdas Pophale) SiO2 
 PCOD9014724
Probable space group: P -1
;
_chemical_formula_sum "Si O2"
_cell_formula_units_Z 16
_cell_length_a 21.530903
_cell_length_b 11.320632
_cell_length_c 9.108691
_cell_angle_alpha 111.211988
_cell_angle_beta 138.865703
_cell_angle_gamma 38.199394
_cell_volume 744.852058
_symmetry_space_group_name_H-M "P -1"
_symmetry_group_IT_number 2
_symmetry_cell_setting 'triclinic'
loop_
_space_group_symop_operation_xyz
x,y,z
-x,-y,-z
loop_
_atom_site_type_symbol
_atom_site_label
_atom_site_fract_x
_atom_site_fract_y
_atom_site_fract_z
Si Si1 0.235115 0.016748 0.145035
Si Si2 0.495275 0.446093 0.723834
Si Si3 0.125851 0.940680 0.295060
Si Si4 0.311999 0.177649 0.172454
Si Si5 0.353281 0.085252 0.861994
Si Si6 0.576426 0.599711 0.114139
Si Si7 0.935661 0.709128 0.736815
Si Si8 0.063805 0.838200 0.413549
O O1 0.407225 0.739296 0.311956
O O2 0.259741 0.098757 0.105758
O O3 0.179593 0.142458 0.255155
O O4 0.084893 0.086764 0.871174
O O5 0.316496 0.704526 0.466923
O O6 0.467574 0.385298 0.788728
O O7 0.587740 0.461625 0.971828
O O8 0.123511 0.873572 0.415659
O O9 0.072397 0.146224 0.294214
O O10 0.000000 0.000000 0.000000
O O11 0.500000 0.000000 0.500000
O O12 0.333740 0.155562 0.025408
O O13 0.136641 0.455414 0.017216
O O14 0.168142 0.278363 0.538584
O O15 0.500000 0.000000 0.000000
O O16 0.433516 0.854126 0.913934
O O17 0.769873 0.435077 0.378975
O O18 0.000000 0.000000 0.500000
#
# Coordination Sequence:
#
# PCOD9014724 Si02
#       8
#     2   2   2   2   2   2   2   2
#     4  12  25  45  74 102 141 187 238 287 351 429
#     4  10  21  42  71 101 136 183 231 282 352 426
#     4  11  24  44  67 100 146 177 221 293 358 409
#     4  12  30  51  75  98 138 198 248 288 345 426
#     4  12  27  49  72 105 141 188 237 302 356 408
#     4  10  21  41  69 100 139 180 233 285 347 428
#     4  12  28  49  70 108 147 184 238 298 355 418
#     4  11  24  39  68 106 136 183 229 279 350 429
#
# _framework density 21.480777
#
# number of rings (size 3 to 8) (size 9 to 14) (size 15 to 20)
#    0.000    0.750    5.000    1.500    7.000    1.500 
#    2.250    0.000    0.000    0.000    0.000    0.000 
#    0.000    0.000    0.000    0.000    0.000    0.000 
#
# Total GULP energy -89348.967275 kJ/mol
# GULP energy per Si atom -5584.310455 kJ/mol
# Density = 2.143189 g / cm^3
# Si number density = 21.480777 Si / 1000 Ang^3
#
#
#
# Elastic Constant Matrix: (Units=GPa)
#
#
# Indices 1 2 3 4 5 6 
#
# 1 84.3579 29.3120 12.3393 2.1433 7.0972 -12.8111
# 2 29.3120 109.6945 38.5977 -21.6319 -2.0263 -18.7718
# 3 12.3393 38.5977 119.8575 -13.2672 4.4481 -12.5220
# 4 2.1433 -21.6319 -13.2672 41.0439 -5.3150 -9.0097
# 5 7.0972 -2.0263 4.4481 -5.3150 26.5664 8.4157
# 6 -12.8111 -18.7718 -12.5220 -9.0097 8.4157 41.1231
#
#
#
# Elastic Compliance Matrix: (Units=1/GPa)
#
#
# Indices 1 2 3 4 5 6 
#
# 1 0.014255 -0.003941 0.000031 -0.002848 -0.005695 0.003193
# 2 -0.003941 0.013668 -0.002617 0.008081 0.002410 0.005492
# 3 0.000031 -0.002617 0.009782 0.002081 -0.002291 0.002719
# 4 -0.002848 0.008081 0.002081 0.032118 0.004424 0.009567
# 5 -0.005695 0.002410 -0.002291 0.004424 0.043567 -0.009318
# 6 0.003193 0.005492 0.002719 0.009567 -0.009318 0.032650
#
#
# Mechanical properties :
#
#
# Convention : Reuss Voigt Hill
#
# Bulk Modulus (GPa) = 40.56333 52.71199 46.63766
# Shear Modulus (GPa) = 29.88456 37.32406 33.60431
#
# Velocity S-wave (km/s) = 3.73396 4.17292 3.95953
# Velocity P-wave (km/s) = 6.12490 6.91449 6.53164
#
# Compressibility (1/GPa) = 0.02465281
#
# Stress axis : x y z
#
# Youngs Moduli (GPa) = 70.14891 73.16373 102.22657
#
# Poissons Ratio (x) = 0.28830 -0.00318
# Poissons Ratio (y) = 0.27642 0.26753
# Poissons Ratio (z) = -0.00218 0.19147
#
# Static dielectric constant tensor:
#      x y z
#    x 1.734850 -0.021450 0.028770 
#    y -0.021450 1.826040 -0.147200 
#    z 0.028770 -0.147200 2.616020 
# 
# From -- ./inp_files/346253.got.cif
#   From: 2010.05.17/outbox.cif.g08.bks.cpg/sg2_174_cif.got.tgz:346253.got - 2010.06.03 11:33:40.
