data_PCOD9014766
_publ_section_title
;
Structure prediction by ZEFSAII (Michael W. Deem and Ramdas Pophale) SiO2 
 PCOD9014766
Probable space group: P -1
;
_chemical_formula_sum "Si O2"
_cell_formula_units_Z 15
_cell_length_a 8.076626
_cell_length_b 8.875302
_cell_length_c 8.963077
_cell_angle_alpha 84.589539
_cell_angle_beta 104.326947
_cell_angle_gamma 87.460142
_cell_volume 618.214392
_symmetry_space_group_name_H-M "P -1"
_symmetry_group_IT_number 2
_symmetry_cell_setting 'triclinic'
loop_
_space_group_symop_operation_xyz
x,y,z
-x,-y,-z
loop_
_atom_site_type_symbol
_atom_site_label
_atom_site_fract_x
_atom_site_fract_y
_atom_site_fract_z
Si Si1 0.945233 0.446258 0.155088
Si Si2 0.546121 0.171787 0.468539
Si Si3 0.191723 0.151969 0.278617
Si Si4 0.649563 0.877196 0.995836
Si Si5 0.419254 0.646964 0.821433
Si Si6 0.517771 0.605631 0.351839
Si Si7 0.000000 0.000000 0.500000
Si Si8 0.873042 0.722206 0.314723
O O1 0.747513 0.410128 0.132704
O O2 0.976091 0.581093 0.268228
O O3 0.045986 0.285229 0.217651
O O4 0.000000 0.500000 0.000000
O O5 0.354236 0.232221 0.371029
O O6 0.643800 0.230386 0.338289
O O7 0.590185 0.243916 0.629957
O O8 0.500000 0.000000 0.500000
O O9 0.252121 0.086215 0.137295
O O10 0.130223 0.025979 0.387572
O O11 0.545170 0.731817 0.946283
O O12 0.785577 0.835379 0.158930
O O13 0.500000 0.000000 0.000000
O O14 0.520009 0.500101 0.784603
O O15 0.500000 0.500000 0.500000
O O16 0.710162 0.649918 0.360162
O O17 0.961302 0.828860 0.440327
#
# Coordination Sequence:
#
# PCOD9014766 Si02
#       8
#     2   2   2   2   2   2   1   2
#     4  11  24  48  74 105 152 198 254 309 375 457
#     4  10  21  41  69 105 147 191 245 306 371 443
#     4  11  26  46  73 108 150 194 255 309 378 459
#     4  11  26  47  73 109 147 197 254 313 377 449
#     4   9  23  42  70 101 138 195 246 309 364 438
#     4   9  19  41  66  98 138 182 236 305 359 427
#     4  12  28  46  76 112 154 202 238 316 400 456
#     4  11  25  48  73 108 150 197 254 308 377 456
#
# _framework density 24.263427
#
# number of rings (size 3 to 8) (size 9 to 14) (size 15 to 20)
#    0.000    1.600    2.667    0.000    7.467    4.267 
#    2.400    2.667    0.000    0.000    0.000    0.000 
#    0.000    0.000    0.000    0.000    0.000    0.000 
#
# Total GULP energy -83569.947366 kJ/mol
# GULP energy per Si atom -5571.329824 kJ/mol
# Density = 2.420820 g / cm^3
# Si number density = 24.263427 Si / 1000 Ang^3
#
#
#
# Elastic Constant Matrix: (Units=GPa)
#
#
# Indices 1 2 3 4 5 6 
#
# 1 73.7633 24.6508 43.5800 -9.6127 -34.7206 12.9590
# 2 24.6508 130.0281 37.3776 20.6999 -22.3028 16.9225
# 3 43.5800 37.3776 101.4912 1.6078 -41.8609 3.5420
# 4 -9.6127 20.6999 1.6078 42.1183 4.9300 -17.0666
# 5 -34.7206 -22.3028 -41.8609 4.9300 49.4857 -5.1725
# 6 12.9590 16.9225 3.5420 -17.0666 -5.1725 47.6999
#
#
#
# Elastic Compliance Matrix: (Units=1/GPa)
#
#
# Indices 1 2 3 4 5 6 
#
# 1 0.022897 -0.001289 -0.004915 0.003602 0.010659 -0.002954
# 2 -0.001289 0.011147 -0.002181 -0.008497 0.002472 -0.006215
# 3 -0.004915 -0.002181 0.016932 -0.001281 0.010176 0.001497
# 4 0.003602 -0.008497 -0.001281 0.035057 -0.004394 0.014198
# 5 0.010659 0.002472 0.010176 -0.004394 0.037635 -0.002019
# 6 -0.002954 -0.006215 0.001497 0.014198 -0.002019 0.028721
#
#
# Mechanical properties :
#
#
# Convention : Reuss Voigt Hill
#
# Bulk Modulus (GPa) = 29.23375 57.38881 43.31128
# Shear Modulus (GPa) = 27.69149 41.17239 34.43194
#
# Velocity S-wave (km/s) = 3.38196 4.12380 3.77117
# Velocity P-wave (km/s) = 5.22731 6.81014 6.07054
#
# Compressibility (1/GPa) = 0.03420704
#
# Stress axis : x y z
#
# Youngs Moduli (GPa) = 43.67403 89.70684 59.06063
#
# Poissons Ratio (x) = 0.11561 0.29027
# Poissons Ratio (y) = 0.05629 0.12881
# Poissons Ratio (z) = 0.21465 0.19565
#
# Static dielectric constant tensor:
#      x y z
#    x 2.387640 -0.166160 0.167210 
#    y -0.166160 2.046460 -0.035640 
#    z 0.167210 -0.035640 2.082000 
# 
# From -- ./inp_files/158696.got.cif
#   From: 2010.05.17/outbox.cif.g08.bks.cpg/sg2_80_cif.got.tgz:158696.got - 2010.06.03 11:33:40.
