data_PCOD9014079
_publ_section_title
;
Structure prediction by ZEFSAII (Michael W. Deem and Ramdas Pophale) SiO2 
 PCOD9014079
Probable space group: P -1
;
_chemical_formula_sum "Si O2"
_cell_formula_units_Z 14
_cell_length_a 11.508996
_cell_length_b 9.126312
_cell_length_c 8.913450
_cell_angle_alpha 115.378432
_cell_angle_beta 127.058356
_cell_angle_gamma 73.383304
_cell_volume 674.527596
_symmetry_space_group_name_H-M "P -1"
_symmetry_group_IT_number 2
_symmetry_cell_setting 'triclinic'
loop_
_space_group_symop_operation_xyz
x,y,z
-x,-y,-z
loop_
_atom_site_type_symbol
_atom_site_label
_atom_site_fract_x
_atom_site_fract_y
_atom_site_fract_z
Si Si1 0.577080 0.152926 0.702601
Si Si2 0.596320 0.638522 0.565879
Si Si3 0.492706 0.052510 0.188293
Si Si4 0.969088 0.742451 0.474876
Si Si5 0.822861 0.059571 0.456540
Si Si6 0.081739 0.865513 0.110259
Si Si7 0.073230 0.400531 0.290033
O O1 0.491004 0.302039 0.625001
O O2 0.748466 0.148696 0.807345
O O3 0.500000 0.000000 0.500000
O O4 0.549999 0.112428 0.835303
O O5 0.500000 0.500000 0.500000
O O6 0.603198 0.793873 0.753903
O O7 0.759033 0.583317 0.619404
O O8 0.656169 0.103164 0.377423
O O9 0.500000 0.000000 0.000000
O O10 0.940074 0.700732 0.607978
O O11 0.112753 0.842493 0.589057
O O12 0.993055 0.572714 0.334891
O O13 0.842401 0.865347 0.369037
O O14 0.916051 0.095307 0.694315
O O15 0.006345 0.699229 0.942632
O O16 0.000000 0.000000 0.000000
#
# Coordination Sequence:
#
# PCOD9014079 Si02
#       7
#     2   2   2   2   2   2   2
#     4  10  21  41  66  96 132 176 219 269 333 399
#     4  11  23  46  70  94 134 179 220 277 339 399
#     4  11  24  42  70  97 130 175 228 277 330 397
#     4  10  24  41  64  95 136 170 210 283 328 386
#     4  11  22  43  66  97 132 172 227 272 332 392
#     4  12  22  39  70 100 128 177 228 269 328 402
#     4  11  24  42  67  96 134 173 222 270 341 386
#
# _framework density 20.755267
#
# number of rings (size 3 to 8) (size 9 to 14) (size 15 to 20)
#    0.000    1.143    4.286    3.429    2.000    2.857 
#    2.571    0.714    0.000    0.000    0.000    0.000 
#    0.000    0.000    0.000    0.000    0.000    0.000 
#
# Total GULP energy -78142.029814 kJ/mol
# GULP energy per Si atom -5581.573558 kJ/mol
# Density = 2.070803 g / cm^3
# Si number density = 20.755267 Si / 1000 Ang^3
#
#
#
# Elastic Constant Matrix: (Units=GPa)
#
#
# Indices 1 2 3 4 5 6 
#
# 1 126.1961 18.7916 37.5009 1.4712 -1.0349 15.7709
# 2 18.7916 80.4335 29.5699 17.1847 -10.5609 17.2942
# 3 37.5009 29.5699 89.3602 0.6038 -5.9363 -2.2080
# 4 1.4712 17.1847 0.6038 18.4541 -0.1163 -4.6052
# 5 -1.0349 -10.5609 -5.9363 -0.1163 42.3838 -3.2904
# 6 15.7709 17.2942 -2.2080 -4.6052 -3.2904 42.7429
#
#
#
# Elastic Compliance Matrix: (Units=1/GPa)
#
#
# Indices 1 2 3 4 5 6 
#
# 1 0.009713 0.000782 -0.004464 -0.002468 -0.000545 -0.004439
# 2 0.000782 0.023857 -0.008118 -0.025179 0.003765 -0.012784
# 3 -0.004464 -0.008118 0.015900 0.009092 0.000647 0.006783
# 4 -0.002468 -0.025179 0.009092 0.082558 -0.003265 0.020212
# 5 -0.000545 0.003765 0.000647 -0.003265 0.024620 0.000254
# 6 -0.004439 -0.012784 0.006783 0.020212 0.000254 0.032754
#
#
# Mechanical properties :
#
#
# Convention : Reuss Voigt Hill
#
# Bulk Modulus (GPa) = 38.65634 51.96828 45.31231
# Shear Modulus (GPa) = 22.56055 34.72465 28.64260
#
# Velocity S-wave (km/s) = 3.30051 4.09473 3.71889
# Velocity P-wave (km/s) = 5.76106 6.88831 6.34975
#
# Compressibility (1/GPa) = 0.02586898
#
# Stress axis : x y z
#
# Youngs Moduli (GPa) = 102.95093 41.91639 62.89454
#
# Poissons Ratio (x) = -0.03278 0.28078
# Poissons Ratio (y) = -0.08051 0.51059
# Poissons Ratio (z) = 0.45960 0.34029
#
# Static dielectric constant tensor:
#      x y z
#    x 1.749950 0.019650 -0.041460 
#    y 0.019650 1.782940 -0.023170 
#    z -0.041460 -0.023170 1.749490 
# 
# From -- ./inp_files/185659.got.cif
#   From: 2010.05.17/outbox.cif.g08.bks.cpg/sg2_93_cif.got.tgz:185659.got - 2010.06.03 11:33:40.
