data_PCOD9014237
_publ_section_title
;
Structure prediction by ZEFSAII (Michael W. Deem and Ramdas Pophale) SiO2 
 PCOD9014237
Probable space group: P -1
;
_chemical_formula_sum "Si O2"
_cell_formula_units_Z 14
_cell_length_a 8.559075
_cell_length_b 7.566907
_cell_length_c 11.855670
_cell_angle_alpha 58.509522
_cell_angle_beta 88.900491
_cell_angle_gamma 68.055952
_cell_volume 592.091704
_symmetry_space_group_name_H-M "P -1"
_symmetry_group_IT_number 2
_symmetry_cell_setting 'triclinic'
loop_
_space_group_symop_operation_xyz
x,y,z
-x,-y,-z
loop_
_atom_site_type_symbol
_atom_site_label
_atom_site_fract_x
_atom_site_fract_y
_atom_site_fract_z
Si Si1 0.703505 0.848310 0.540527
Si Si2 0.899239 0.854162 0.098640
Si Si3 0.744772 0.480940 0.034744
Si Si4 0.661183 0.400694 0.616029
Si Si5 0.593152 0.271468 0.908650
Si Si6 0.971543 0.762863 0.389166
Si Si7 0.919590 0.672373 0.812455
O O1 0.704785 0.605217 0.591300
O O2 0.804752 0.820714 0.664420
O O3 0.814651 0.909350 0.425809
O O4 0.500000 0.000000 0.500000
O O5 0.913671 0.830316 0.240228
O O6 0.989195 0.593471 0.141617
O O7 0.699181 0.002839 0.021430
O O8 0.000000 0.000000 0.000000
O O9 0.603734 0.594181 0.095127
O O10 0.920199 0.292366 0.150544
O O11 0.678997 0.382849 0.962314
O O12 0.794698 0.671823 0.914343
O O13 0.500000 0.500000 0.500000
O O14 0.620590 0.304061 0.765207
O O15 0.839269 0.239002 0.604129
O O16 0.000000 0.500000 0.500000
#
# Coordination Sequence:
#
# PCOD9014237 Si02
#       7
#     2   2   2   2   2   2   2
#     4  11  24  44  63  90 130 175 222 267 318 396
#     4  12  20  40  69  95 128 167 220 271 320 384
#     4  10  23  40  66  93 135 169 206 276 333 385
#     4  11  23  44  65  94 131 169 217 273 329 390
#     4  11  23  42  67  99 132 166 218 275 333 382
#     4  10  21  41  67  88 128 179 210 263 336 381
#     4  11  22  44  62  94 130 174 219 266 328 388
#
# _framework density 23.644984000000001
#
# number of rings (size 3 to 8) (size 9 to 14) (size 15 to 20)
#    0.000    1.143    7.143    0.000    4.000    0.571 
#    7.714    0.714    0.000    0.000    0.000    0.000 
#    0.000    0.000    0.000    0.000    0.000    0.000 
#
# Total GULP energy -78253.393270 kJ/mol
# GULP energy per Si atom -5589.528091 kJ/mol
# Density = 2.359117 g / cm^3
# Si number density = 23.644984 Si / 1000 Ang^3
#
#
#
# Elastic Constant Matrix: (Units=GPa)
#
#
# Indices 1 2 3 4 5 6 
#
# 1 138.0990 49.0075 80.5230 22.0002 16.7673 -31.9292
# 2 49.0075 89.1670 41.0658 1.5115 -5.6844 -18.7602
# 3 80.5230 41.0658 204.4085 26.9047 17.7269 -22.5031
# 4 22.0002 1.5115 26.9047 27.6524 -5.6770 -8.3560
# 5 16.7673 -5.6844 17.7269 -5.6770 39.6090 9.2769
# 6 -31.9292 -18.7602 -22.5031 -8.3560 9.2769 55.2022
#
#
#
# Elastic Compliance Matrix: (Units=1/GPa)
#
#
# Indices 1 2 3 4 5 6 
#
# 1 0.014387 -0.006343 -0.001763 -0.009544 -0.008866 0.005492
# 2 -0.006343 0.016299 -0.002355 0.008182 0.007024 0.000968
# 3 -0.001763 -0.002355 0.007306 -0.006117 -0.003948 0.000895
# 4 -0.009544 0.008182 -0.006117 0.052466 0.015445 0.000113
# 5 -0.008866 0.007024 -0.003948 0.015445 0.035872 -0.008041
# 6 0.005492 0.000968 0.000895 0.000113 -0.008041 0.023354
#
#
# Mechanical properties :
#
#
# Convention : Reuss Voigt Hill
#
# Bulk Modulus (GPa) = 58.58787 85.87411 72.23099
# Shear Modulus (GPa) = 28.36137 41.89793 35.12965
#
# Velocity S-wave (km/s) = 3.46709 4.21403 3.85868
# Velocity P-wave (km/s) = 6.39215 7.75077 7.10401
#
# Compressibility (1/GPa) = 0.01706838
#
# Stress axis : x y z
#
# Youngs Moduli (GPa) = 69.50631 61.35491 136.87358
#
# Poissons Ratio (x) = 0.38918 0.24137
# Poissons Ratio (y) = 0.44089 0.32235
# Poissons Ratio (z) = 0.12257 0.14450
#
# Static dielectric constant tensor:
#      x y z
#    x 1.926550 0.048630 -0.076390 
#    y 0.048630 1.960600 0.049300 
#    z -0.076390 0.049300 1.787490 
# 
# From -- ./inp_files/381343.got.cif
#   From: 2010.05.17/outbox.cif.g08.bks.cpg/sg2_191_cif.got.tgz:381343.got - 2010.06.03 11:33:40.
