data_PCOD9014511
_publ_section_title
;
Structure prediction by ZEFSAII (Michael W. Deem and Ramdas Pophale) SiO2 
 PCOD9014511
Probable space group: P -1
;
_chemical_formula_sum "Si O2"
_cell_formula_units_Z 16
_cell_length_a 9.989319
_cell_length_b 9.879855
_cell_length_c 17.034540
_cell_angle_alpha 142.683091
_cell_angle_beta 41.291311
_cell_angle_gamma 117.950526
_cell_volume 636.702584
_symmetry_space_group_name_H-M "P -1"
_symmetry_group_IT_number 2
_symmetry_cell_setting 'triclinic'
loop_
_space_group_symop_operation_xyz
x,y,z
-x,-y,-z
loop_
_atom_site_type_symbol
_atom_site_label
_atom_site_fract_x
_atom_site_fract_y
_atom_site_fract_z
Si Si1 0.558664 0.110432 0.786417
Si Si2 0.783391 0.122915 0.989221
Si Si3 0.027736 0.406835 0.354994
Si Si4 0.854841 0.247155 0.837761
Si Si5 0.675652 0.611552 0.445791
Si Si6 0.081224 0.291392 0.045725
Si Si7 0.570724 0.411681 0.596745
Si Si8 0.241338 0.784127 0.409864
O O1 0.614599 0.210783 0.725905
O O2 0.674485 0.831768 0.599464
O O3 0.346053 0.778473 0.134289
O O4 0.307156 0.150696 0.918485
O O5 0.825938 0.207800 0.923552
O O6 0.800651 0.852099 0.848457
O O7 0.972041 0.141331 0.971911
O O8 0.564186 0.312052 0.203653
O O9 0.120369 0.593508 0.359477
O O10 0.000000 0.500000 0.500000
O O11 0.791080 0.383634 0.440666
O O12 0.884676 0.496741 0.922449
O O13 0.060206 0.036649 0.618624
O O14 0.500000 0.500000 0.500000
O O15 0.905793 0.420213 0.246579
O O16 0.583792 0.691607 0.434650
O O17 0.628786 0.291063 0.600578
#
# Coordination Sequence:
#
# PCOD9014511 Si02
#       8
#     2   2   2   2   2   2   2   2
#     4  12  27  47  73 104 144 191 234 295 360 416
#     4  11  23  46  72 107 141 182 242 296 343 423
#     4  10  21  41  68 102 142 179 234 286 351 407
#     4  12  24  46  73 106 146 187 237 298 355 418
#     4  11  27  48  75 103 144 186 236 293 356 428
#     4  11  26  49  72 106 139 190 240 287 359 422
#     4  10  23  44  73 106 136 191 238 290 352 410
#     4  11  24  43  72 105 142 189 235 293 350 421
#
# _framework density 25.129472
#
# number of rings (size 3 to 8) (size 9 to 14) (size 15 to 20)
#    0.000    1.000    3.750    2.625    1.750    4.000 
#    2.250    2.500    0.000    0.000    0.000    0.000 
#    0.000    0.000    0.000    0.000    0.000    0.000 
#
# Total GULP energy -89770.269660 kJ/mol
# GULP energy per Si atom -5610.641854 kJ/mol
# Density = 2.507228 g / cm^3
# Si number density = 25.129472 Si / 1000 Ang^3
#
#
#
# Elastic Constant Matrix: (Units=GPa)
#
#
# Indices 1 2 3 4 5 6 
#
# 1 114.5329 -0.1066 8.1321 -12.4907 -10.0521 -1.1918
# 2 -0.1066 89.0413 25.9882 -4.7135 8.2035 3.0679
# 3 8.1321 25.9882 112.8824 -1.1279 -13.6767 -4.6774
# 4 -12.4907 -4.7135 -1.1279 54.8710 7.6900 4.3252
# 5 -10.0521 8.2035 -13.6767 7.6900 39.1785 5.9335
# 6 -1.1918 3.0679 -4.6774 4.3252 5.9335 16.9993
#
#
#
# Elastic Compliance Matrix: (Units=1/GPa)
#
#
# Indices 1 2 3 4 5 6 
#
# 1 0.009126 0.000090 -0.000456 0.001860 0.001895 -0.000637
# 2 0.000090 0.012783 -0.003498 0.001775 -0.003865 -0.002366
# 3 -0.000456 -0.003498 0.010271 -0.000938 0.004044 0.002252
# 4 0.001860 0.001775 -0.000938 0.019595 -0.003426 -0.004238
# 5 0.001895 -0.003865 0.004044 -0.003426 0.030067 -0.007680
# 6 -0.000637 -0.002366 0.002252 -0.004238 -0.007680 0.063587
#
#
# Mechanical properties :
#
#
# Convention : Reuss Voigt Hill
#
# Bulk Modulus (GPa) = 40.89738 42.72047 41.80892
# Shear Modulus (GPa) = 30.99645 41.03931 36.01788
#
# Velocity S-wave (km/s) = 3.51589 4.04557 3.78999
# Velocity P-wave (km/s) = 5.72643 6.23371 5.98545
#
# Compressibility (1/GPa) = 0.02445144
#
# Stress axis : x y z
#
# Youngs Moduli (GPa) = 109.57509 78.22678 97.36259
#
# Poissons Ratio (x) = -0.00704 0.04444
# Poissons Ratio (y) = -0.00986 0.34058
# Poissons Ratio (z) = 0.05001 0.27364
#
# Static dielectric constant tensor:
#      x y z
#    x 2.048980 -0.048710 -0.021080 
#    y -0.048710 1.958290 -0.001380 
#    z -0.021080 -0.001380 1.941940 
# 
# From -- ./inp_files/611986.got.cif
#   From: 2010.05.17/outbox.cif.g08.bks.cpg/sg2_306_cif.got.tgz:611986.got - 2010.06.03 11:33:40.
