data_PCOD9014194
_publ_section_title
;
Structure prediction by ZEFSAII (Michael W. Deem and Ramdas Pophale) SiO2 
 PCOD9014194
Probable space group: P -1
;
_chemical_formula_sum "Si O2"
_cell_formula_units_Z 14
_cell_length_a 13.389935
_cell_length_b 8.959988
_cell_length_c 20.196696
_cell_angle_alpha 147.999364
_cell_angle_beta 154.636372
_cell_angle_gamma 34.842914
_cell_volume 533.997312
_symmetry_space_group_name_H-M "P -1"
_symmetry_group_IT_number 2
_symmetry_cell_setting 'triclinic'
loop_
_space_group_symop_operation_xyz
x,y,z
-x,-y,-z
loop_
_atom_site_type_symbol
_atom_site_label
_atom_site_fract_x
_atom_site_fract_y
_atom_site_fract_z
Si Si1 0.243164 0.201586 0.485252
Si Si2 0.881840 0.843194 0.074334
Si Si3 0.614508 0.624897 0.493837
Si Si4 0.260540 0.228394 0.174812
Si Si5 0.258496 0.351078 0.951294
Si Si6 0.089542 0.270958 0.682961
Si Si7 0.380224 0.280911 0.733394
O O1 0.298805 0.428642 0.550824
O O2 0.190924 0.271962 0.557698
O O3 0.497163 0.963974 0.555226
O O4 0.063852 0.031676 0.279019
O O5 0.720704 0.824976 0.034606
O O6 0.762189 0.950045 0.973075
O O7 0.000000 0.500000 0.000000
O O8 0.414570 0.459348 0.333574
O O9 0.847730 0.520981 0.638925
O O10 0.991141 0.394880 0.095606
O O11 0.423065 0.016583 0.244900
O O12 0.216113 0.193858 0.799457
O O13 0.476842 0.494160 0.122758
O O14 0.251222 0.357321 0.754977
O O15 0.000000 0.000000 0.500000
#
# Coordination Sequence:
#
# PCOD9014194 Si02
#       7
#     2   2   2   2   2   2   2
#     4  11  24  43  74 105 130 175 230 285 334 394
#     4  10  21  41  67 102 136 166 218 286 340 387
#     4  11  24  42  72 101 137 169 231 276 342 389
#     4  11  23  43  71 103 134 174 226 288 336 390
#     4  11  24  43  67  98 139 176 229 278 334 398
#     4  12  26  45  67  98 143 184 222 273 337 410
#     4  12  26  43  70  99 139 181 225 273 342 403
#
# _framework density 26.217361
#
# number of rings (size 3 to 8) (size 9 to 14) (size 15 to 20)
#    0.000    0.857    4.286    3.429    8.000    1.714 
#    0.000    0.714    0.000    0.000    0.000    0.000 
#    0.000    0.000    0.000    0.000    0.000    0.000 
#
# Total GULP energy -78469.162623 kJ/mol
# GULP energy per Si atom -5604.940187 kJ/mol
# Density = 2.615769 g / cm^3
# Si number density = 26.217361 Si / 1000 Ang^3
#
#
#
# Elastic Constant Matrix: (Units=GPa)
#
#
# Indices 1 2 3 4 5 6 
#
# 1 141.8387 3.7686 68.8721 1.2912 -7.8667 14.9358
# 2 3.7686 82.7230 19.3678 -8.1811 -2.0473 11.8224
# 3 68.8721 19.3678 113.7196 -3.3528 -12.4992 18.6941
# 4 1.2912 -8.1811 -3.3528 38.4116 14.0852 2.6371
# 5 -7.8667 -2.0473 -12.4992 14.0852 63.8272 -15.9057
# 6 14.9358 11.8224 18.6941 2.6371 -15.9057 47.8851
#
#
#
# Elastic Compliance Matrix: (Units=1/GPa)
#
#
# Indices 1 2 3 4 5 6 
#
# 1 0.010127 0.001070 -0.006173 -0.000564 -0.000051 -0.000999
# 2 0.001070 0.013391 -0.002439 0.003386 -0.001504 -0.003374
# 3 -0.006173 -0.002439 0.013481 0.000644 0.001056 -0.002420
# 4 -0.000564 0.003386 0.000644 0.030021 -0.007740 -0.005135
# 5 -0.000051 -0.001504 0.001056 -0.007740 0.019218 0.006785
# 6 -0.000999 -0.003374 -0.002420 -0.005135 0.006785 0.025509
#
#
# Mechanical properties :
#
#
# Convention : Reuss Voigt Hill
#
# Bulk Modulus (GPa) = 45.63706 58.03313 51.83509
# Shear Modulus (GPa) = 37.27550 46.44296 41.85923
#
# Velocity S-wave (km/s) = 3.77475 4.21344 4.00011
# Velocity P-wave (km/s) = 6.03683 6.77157 6.41473
#
# Compressibility (1/GPa) = 0.02191202
#
# Stress axis : x y z
#
# Youngs Moduli (GPa) = 98.74680 74.67857 74.18064
#
# Poissons Ratio (x) = -0.07988 0.45795
# Poissons Ratio (y) = -0.10563 0.18095
# Poissons Ratio (z) = 0.60961 0.18217
#
# Static dielectric constant tensor:
#      x y z
#    x 2.135070 -0.086890 -0.070620 
#    y -0.086890 2.104380 0.005730 
#    z -0.070620 0.005730 2.010410 
# 
# From -- ./inp_files/567085.got.cif
#   From: 2010.05.17/outbox.cif.g08.bks.cpg/sg2_284_cif.got.tgz:567085.got - 2010.06.03 11:33:40.
