data_PCOD9014880
_publ_section_title
;
Structure prediction by ZEFSAII (Michael W. Deem and Ramdas Pophale) SiO2 
 PCOD9014880
Probable space group: P -1
;
_chemical_formula_sum "Si O2"
_cell_formula_units_Z 12
_cell_length_a 10.125154
_cell_length_b 11.855012
_cell_length_c 8.591113
_cell_angle_alpha 77.162219
_cell_angle_beta 59.845277
_cell_angle_gamma 38.605539
_cell_volume 527.896093
_symmetry_space_group_name_H-M "P -1"
_symmetry_group_IT_number 2
_symmetry_cell_setting 'triclinic'
loop_
_space_group_symop_operation_xyz
x,y,z
-x,-y,-z
loop_
_atom_site_type_symbol
_atom_site_label
_atom_site_fract_x
_atom_site_fract_y
_atom_site_fract_z
Si Si1 0.274714 0.991938 0.402714
Si Si2 0.750468 0.683294 0.998302
Si Si3 0.539579 0.518739 0.711804
Si Si4 0.103715 0.860251 0.687603
Si Si5 0.366325 0.743038 0.058315
Si Si6 0.028392 0.362065 0.431818
O O1 0.188901 0.163230 0.482069
O O2 0.063288 0.090030 0.367684
O O3 0.256924 0.886171 0.548979
O O4 0.538821 0.848451 0.198868
O O5 0.839624 0.708149 0.793602
O O6 0.610911 0.665075 0.992399
O O7 0.000000 0.500000 0.000000
O O8 0.307140 0.647219 0.693667
O O9 0.668909 0.324159 0.756277
O O10 0.748997 0.480926 0.542441
O O11 0.418793 0.645539 0.899566
O O12 0.880171 0.030860 0.884129
O O13 0.000000 0.500000 0.500000
#
# Coordination Sequence:
#
# PCOD9014880 Si02
#       6
#     2   2   2   2   2   2
#     4  10  23  43  65 100 136 167 229 281 320 407
#     4  11  24  43  67  98 134 178 219 272 344 397
#     4  11  22  40  69  94 132 177 219 273 337 392
#     4  10  21  41  69  98 127 173 226 277 333 384
#     4  10  22  42  63  99 134 167 225 277 321 404
#     4  12  24  44  65  96 137 179 216 277 335 391
#
# _framework density 22.731745
#
# number of rings (size 3 to 8) (size 9 to 14) (size 15 to 20)
#    0.000    1.333    3.333    2.000    2.333    0.667 
#    0.000    5.000    0.000    0.000    0.000    0.000 
#    0.000    0.000    0.000    0.000    0.000    0.000 
#
# Total GULP energy -67004.172003 kJ/mol
# GULP energy per Si atom -5583.681000 kJ/mol
# Density = 2.268001 g / cm^3
# Si number density = 22.731745 Si / 1000 Ang^3
#
#
#
# Elastic Constant Matrix: (Units=GPa)
#
#
# Indices 1 2 3 4 5 6 
#
# 1 48.4373 34.6726 14.9969 4.0193 -15.0764 -1.7321
# 2 34.6726 80.3323 22.7859 27.1366 -0.1991 -10.9847
# 3 14.9969 22.7859 103.4857 20.4866 -26.2314 -6.2277
# 4 4.0193 27.1366 20.4866 34.5960 7.1979 -4.0704
# 5 -15.0764 -0.1991 -26.2314 7.1979 33.6596 8.4319
# 6 -1.7321 -10.9847 -6.2277 -4.0704 8.4319 40.3461
#
#
#
# Elastic Compliance Matrix: (Units=1/GPa)
#
#
# Indices 1 2 3 4 5 6 
#
# 1 0.040634 -0.020895 0.002592 0.004912 0.020905 -0.007418
# 2 -0.020895 0.028314 -0.001900 -0.015998 -0.008948 0.006775
# 3 0.002592 -0.001900 0.016371 -0.012416 0.017249 -0.002736
# 4 0.004912 -0.015998 -0.012416 0.052729 -0.019692 0.003374
# 5 0.020905 -0.008948 0.017249 -0.019692 0.060032 -0.013409
# 6 -0.007418 0.006775 -0.002736 0.003374 -0.013409 0.029032
#
#
# Mechanical properties :
#
#
# Convention : Reuss Voigt Hill
#
# Bulk Modulus (GPa) = 22.26474 41.90736 32.08605
# Shear Modulus (GPa) = 17.69980 32.37368 25.03674
#
# Velocity S-wave (km/s) = 2.79344 3.77790 3.32233
# Velocity P-wave (km/s) = 4.49669 6.12419 5.37242
#
# Compressibility (1/GPa) = 0.04491406
#
# Stress axis : x y z
#
# Youngs Moduli (GPa) = 24.61006 35.31799 61.08240
#
# Poissons Ratio (x) = 0.73798 -0.15834
# Poissons Ratio (y) = 0.51423 0.11604
# Poissons Ratio (z) = -0.06380 0.06709
#
# Static dielectric constant tensor:
#      x y z
#    x 1.834930 0.075650 0.013740 
#    y 0.075650 1.903680 -0.027930 
#    z 0.013740 -0.027930 1.946240 
# 
# From -- ./inp_files/77278.got.cif
#   From: 2010.05.17/outbox.cif.g08.bks.cpg/sg2_39_cif.got.tgz:77278.got - 2010.06.03 11:33:40.
