data_PCOD9014891
_publ_section_title
;
Structure prediction by ZEFSAII (Michael W. Deem and Ramdas Pophale) SiO2 
 PCOD9014891
Probable space group: P -1
;
_chemical_formula_sum "Si O2"
_cell_formula_units_Z 8
_cell_length_a 11.014174
_cell_length_b 7.847319
_cell_length_c 4.888506
_cell_angle_alpha 123.192593
_cell_angle_beta 120.312527
_cell_angle_gamma 60.566358
_cell_volume 291.396546
_symmetry_space_group_name_H-M "P -1"
_symmetry_group_IT_number 2
_symmetry_cell_setting 'triclinic'
loop_
_space_group_symop_operation_xyz
x,y,z
-x,-y,-z
loop_
_atom_site_type_symbol
_atom_site_label
_atom_site_fract_x
_atom_site_fract_y
_atom_site_fract_z
Si Si1 0.180195 0.977980 0.404251
Si Si2 0.339144 0.256256 0.471410
Si Si3 0.528542 0.261595 0.208720
Si Si4 0.083828 0.658619 0.614368
O O1 0.255746 0.103845 0.386185
O O2 0.041710 0.162401 0.532769
O O3 0.300982 0.860230 0.656641
O O4 0.132824 0.797800 0.024720
O O5 0.424706 0.175398 0.219919
O O6 0.224302 0.488947 0.493345
O O7 0.462726 0.273943 0.843635
O O8 0.500000 0.500000 0.500000
O O9 0.000000 0.500000 0.500000
#
# Coordination Sequence:
#
# PCOD9014891 Si02
#       4
#     2   2   2   2
#     4  10  21  41  69  98 133 175 218 270 329 389
#     4  11  24  45  68  99 133 172 219 271 327 391
#     4  12  24  43  70  99 134 172 218 273 329 387
#     4   9  20  42  69  96 134 173 222 268 326 389
#
# _framework density 27.453997000000001
#
# number of rings (size 3 to 8) (size 9 to 14) (size 15 to 20)
#    0.000    1.500    2.500    2.250    0.000    0.000 
#    0.000   15.000    0.000    0.000    0.000    0.000 
#    0.000    0.000    0.000    0.000    0.000    0.000 
#
# Total GULP energy -44928.676321 kJ/mol
# GULP energy per Si atom -5616.084540 kJ/mol
# Density = 2.739151 g / cm^3
# Si number density = 27.453997 Si / 1000 Ang^3
#
#
#
# Elastic Constant Matrix: (Units=GPa)
#
#
# Indices 1 2 3 4 5 6 
#
# 1 111.4095 95.5761 49.1913 -20.0105 -7.8241 -23.0478
# 2 95.5761 216.0071 68.0670 -7.5778 22.0886 -44.2973
# 3 49.1913 68.0670 129.9430 15.8376 16.0022 -11.5887
# 4 -20.0105 -7.5778 15.8376 47.5689 2.1069 21.9258
# 5 -7.8241 22.0886 16.0022 2.1069 49.9620 7.6834
# 6 -23.0478 -44.2973 -11.5887 21.9258 7.6834 91.5389
#
#
#
# Elastic Compliance Matrix: (Units=1/GPa)
#
#
# Indices 1 2 3 4 5 6 
#
# 1 0.020753 -0.008401 -0.006062 0.010319 0.008905 -0.002826
# 2 -0.008401 0.009771 -0.000456 -0.003339 -0.005941 0.003854
# 3 -0.006062 -0.000456 0.011832 -0.007219 -0.004519 0.001859
# 4 0.010319 -0.003339 -0.007219 0.030546 0.005299 -0.007693
# 5 0.008905 -0.005941 -0.004519 0.005299 0.025976 -0.004655
# 6 -0.002826 0.003854 0.001859 -0.007693 -0.004655 0.014546
#
#
# Mechanical properties :
#
#
# Convention : Reuss Voigt Hill
#
# Bulk Modulus (GPa) = 79.88314 98.11428 88.99871
# Shear Modulus (GPa) = 33.91346 54.11564 44.01455
#
# Velocity S-wave (km/s) = 3.51847 4.44457 4.00836
# Velocity P-wave (km/s) = 6.75770 7.88379 7.34236
#
# Compressibility (1/GPa) = 0.01251829
#
# Stress axis : x y z
#
# Youngs Moduli (GPa) = 48.18471 102.34538 84.51982
#
# Poissons Ratio (x) = 0.85977 0.51239
# Poissons Ratio (y) = 0.40478 0.03852
# Poissons Ratio (z) = 0.29211 0.04664
#
# Static dielectric constant tensor:
#      x y z
#    x 2.170450 0.047220 0.087130 
#    y 0.047220 2.213000 0.041120 
#    z 0.087130 0.041120 2.030290 
# 
# From -- ./inp_files/57073.got.cif
#   From: 2010.05.17/outbox.cif.g08.bks.cpg/sg2_29_cif.got.tgz:57073.got - 2010.06.03 11:33:40.
