data_PCOD9014082
_publ_section_title
;
Structure prediction by ZEFSAII (Michael W. Deem and Ramdas Pophale) SiO2 
 PCOD9014082
Probable space group: P -1
;
_chemical_formula_sum "Si O2"
_cell_formula_units_Z 12
_cell_length_a 9.007855
_cell_length_b 7.690332
_cell_length_c 13.149860
_cell_angle_alpha 63.846405
_cell_angle_beta 95.027413
_cell_angle_gamma 47.793242
_cell_volume 494.604666
_symmetry_space_group_name_H-M "P -1"
_symmetry_group_IT_number 2
_symmetry_cell_setting 'triclinic'
loop_
_space_group_symop_operation_xyz
x,y,z
-x,-y,-z
loop_
_atom_site_type_symbol
_atom_site_label
_atom_site_fract_x
_atom_site_fract_y
_atom_site_fract_z
Si Si1 0.798735 0.592145 0.398235
Si Si2 0.738409 0.388786 0.767390
Si Si3 0.755659 0.232713 0.026937
Si Si4 0.762853 0.778854 0.116177
Si Si5 0.733164 0.827692 0.677314
Si Si6 0.682951 0.287526 0.470257
O O1 0.775593 0.703921 0.254877
O O2 0.849351 0.306761 0.475480
O O3 0.000000 0.500000 0.500000
O O4 0.525077 0.895266 0.351877
O O5 0.732076 0.619831 0.673422
O O6 0.494250 0.530050 0.684576
O O7 0.746148 0.382244 0.891698
O O8 0.981032 0.027555 0.833750
O O9 0.777820 0.992278 0.049397
O O10 0.500000 0.500000 0.000000
O O11 0.015432 0.433460 0.174244
O O12 0.500000 0.000000 0.000000
O O13 0.768003 0.979308 0.569624
O O14 0.500000 0.500000 0.500000
#
# Coordination Sequence:
#
# PCOD9014082 Si02
#       6
#     2   2   2   2   2   2
#     4  11  26  44  68 104 135 176 228 276 340 406
#     4  10  21  41  66  96 134 174 223 269 342 393
#     4  10  22  39  66  96 130 175 218 275 331 400
#     4  11  25  44  67 100 135 177 230 274 339 402
#     4  10  24  44  69  97 142 176 216 290 333 397
#     4  10  23  41  67  99 132 179 220 277 338 401
#
# _framework density 24.261800999999998
#
# number of rings (size 3 to 8) (size 9 to 14) (size 15 to 20)
#    0.000    1.667    0.000    2.500   11.667    4.000 
#    3.000    0.000    0.000    0.000    0.000    0.000 
#    0.000    0.000    0.000    0.000    0.000    0.000 
#
# Total GULP energy -67034.523428 kJ/mol
# GULP energy per Si atom -5586.210286 kJ/mol
# Density = 2.420658 g / cm^3
# Si number density = 24.261801 Si / 1000 Ang^3
#
#
#
# Elastic Constant Matrix: (Units=GPa)
#
#
# Indices 1 2 3 4 5 6 
#
# 1 188.2313 43.6754 73.5889 -4.9363 1.9717 -6.8489
# 2 43.6754 84.7674 43.5601 -21.6345 1.3276 -29.6194
# 3 73.5889 43.5601 129.5413 -17.3765 13.7497 0.6174
# 4 -4.9363 -21.6345 -17.3765 38.6273 -13.3158 3.9759
# 5 1.9717 1.3276 13.7497 -13.3158 48.6831 -4.8055
# 6 -6.8489 -29.6194 0.6174 3.9759 -4.8055 49.0378
#
#
#
# Elastic Compliance Matrix: (Units=1/GPa)
#
#
# Indices 1 2 3 4 5 6 
#
# 1 0.007214 -0.002499 -0.003543 -0.001971 0.000210 -0.000277
# 2 -0.002499 0.023305 -0.005615 0.010647 0.005292 0.013454
# 3 -0.003543 -0.005615 0.012148 0.001208 -0.003244 -0.004455
# 4 -0.001971 0.010647 0.001208 0.034958 0.009428 0.004230
# 5 0.000210 0.005292 -0.003244 0.009428 0.024366 0.004890
# 6 -0.000277 0.013454 -0.004455 0.004230 0.004890 0.028672
#
#
# Mechanical properties :
#
#
# Convention : Reuss Voigt Hill
#
# Bulk Modulus (GPa) = 51.67058 80.46542 66.06800
# Shear Modulus (GPa) = 31.16693 43.38401 37.27547
#
# Velocity S-wave (km/s) = 3.58803 4.23325 3.92393
# Velocity P-wave (km/s) = 6.20553 7.55853 6.91520
#
# Compressibility (1/GPa) = 0.01935337
#
# Stress axis : x y z
#
# Youngs Moduli (GPa) = 138.62717 42.90844 82.32082
#
# Poissons Ratio (x) = 0.10724 0.29164
# Poissons Ratio (y) = 0.34646 0.46220
# Poissons Ratio (z) = 0.49113 0.24091
#
# Static dielectric constant tensor:
#      x y z
#    x 1.970430 -0.038280 0.093230 
#    y -0.038280 2.012450 -0.093140 
#    z 0.093230 -0.093140 2.009850 
# 
# From -- ./inp_files/233828.got.cif
#   From: 2010.05.17/outbox.cif.g08.bks.cpg/sg2_117_cif.got.tgz:233828.got - 2010.06.03 11:33:40.
