data_PCOD9014414
_publ_section_title
;
Structure prediction by ZEFSAII (Michael W. Deem and Ramdas Pophale) SiO2 
 PCOD9014414
Probable space group: P -1
;
_chemical_formula_sum "Si O2"
_cell_formula_units_Z 16
_cell_length_a 8.673407
_cell_length_b 11.500750
_cell_length_c 20.413523
_cell_angle_alpha 45.772387
_cell_angle_beta 94.632655
_cell_angle_gamma 132.950743
_cell_volume 703.800847
_symmetry_space_group_name_H-M "P -1"
_symmetry_group_IT_number 2
_symmetry_cell_setting 'triclinic'
loop_
_space_group_symop_operation_xyz
x,y,z
-x,-y,-z
loop_
_atom_site_type_symbol
_atom_site_label
_atom_site_fract_x
_atom_site_fract_y
_atom_site_fract_z
Si Si1 0.248189 0.928210 0.659673
Si Si2 0.756232 0.136605 0.161430
Si Si3 0.122453 0.257799 0.947788
Si Si4 0.396597 0.746585 0.664706
Si Si5 0.663827 0.771572 0.564159
Si Si6 0.741830 0.078188 0.828511
Si Si7 0.480703 0.793798 0.071419
Si Si8 0.988118 0.999529 0.169238
O O1 0.282912 0.911649 0.742702
O O2 0.419183 0.942907 0.619057
O O3 0.864311 0.583512 0.770929
O O4 0.371671 0.206097 0.521563
O O5 0.430943 0.921242 0.206735
O O6 0.882534 0.068376 0.176450
O O7 0.000000 0.500000 0.000000
O O8 0.360176 0.587552 0.786343
O O9 0.780027 0.026387 0.035989
O O10 0.225303 0.289315 0.008446
O O11 0.000000 0.000000 0.000000
O O12 0.651479 0.914124 0.556704
O O13 0.063907 0.429565 0.738271
O O14 0.354334 0.377960 0.722741
O O15 0.000000 0.000000 0.500000
O O16 0.842674 0.023555 0.803678
O O17 0.540041 0.819725 0.985411
O O18 0.500000 0.000000 0.000000
#
# Coordination Sequence:
#
# PCOD9014414 Si02
#       8
#     2   2   2   2   2   2   2   2
#     4  12  24  41  64  97 135 169 226 266 330 405
#     4  12  26  44  66 100 137 179 219 272 334 400
#     4  11  17  33  65  95 122 160 216 276 333 370
#     4  10  22  42  66  98 129 168 225 285 328 388
#     4  11  25  43  68 100 129 172 225 279 333 389
#     4  10  21  41  67  97 131 171 217 276 338 377
#     4  11  18  34  63  95 125 163 213 279 326 375
#     4  11  24  44  66  96 141 175 221 275 330 400
#
# _framework density 22.733702999999998
#
# number of rings (size 3 to 8) (size 9 to 14) (size 15 to 20)
#    0.000    1.000    7.500    2.625    1.750    1.000 
#    2.250    2.500    0.000    0.000    0.000    0.000 
#    0.000    0.000    0.000    0.000    0.000    0.000 
#
# Total GULP energy -89087.115408 kJ/mol
# GULP energy per Si atom -5567.944713 kJ/mol
# Density = 2.268196 g / cm^3
# Si number density = 22.733703 Si / 1000 Ang^3
#
#
#
# Elastic Constant Matrix: (Units=GPa)
#
#
# Indices 1 2 3 4 5 6 
#
# 1 134.6532 26.4168 14.1282 17.8538 -11.7744 -31.3857
# 2 26.4168 52.0511 10.3865 19.4751 -0.2693 -9.8985
# 3 14.1282 10.3865 70.6852 27.2296 5.9190 2.6239
# 4 17.8538 19.4751 27.2296 30.3779 5.3445 4.7297
# 5 -11.7744 -0.2693 5.9190 5.3445 40.2013 5.6726
# 6 -31.3857 -9.8985 2.6239 4.7297 5.6726 28.3157
#
#
#
# Elastic Compliance Matrix: (Units=1/GPa)
#
#
# Indices 1 2 3 4 5 6 
#
# 1 0.012599 0.000775 0.001100 -0.011817 0.002914 0.015524
# 2 0.000775 0.031162 0.005312 -0.027837 0.001142 0.015681
# 3 0.001100 0.005312 0.022657 -0.025111 -0.000380 0.005247
# 4 -0.011817 -0.027837 -0.025111 0.086638 -0.006723 -0.033627
# 5 0.002914 0.001142 -0.000380 -0.006723 0.026767 -0.000575
# 6 0.015524 0.015681 0.005247 -0.033627 -0.000575 0.063251
#
#
# Mechanical properties :
#
#
# Convention : Reuss Voigt Hill
#
# Bulk Modulus (GPa) = 12.37743 39.91696 26.14720
# Shear Modulus (GPa) = 19.55944 33.54284 26.55114
#
# Velocity S-wave (km/s) = 2.93639 3.84535 3.42119
# Velocity P-wave (km/s) = 4.11739 6.10837 5.20889
#
# Compressibility (1/GPa) = 0.08079219
#
# Stress axis : x y z
#
# Youngs Moduli (GPa) = 79.37004 32.09050 44.13586
#
# Poissons Ratio (x) = -0.02487 -0.04855
# Poissons Ratio (y) = -0.06152 -0.23445
# Poissons Ratio (z) = -0.08730 -0.17046
#
# Static dielectric constant tensor:
#      x y z
#    x 1.870280 -0.021390 -0.017580 
#    y -0.021390 1.870980 -0.013600 
#    z -0.017580 -0.013600 1.757450 
# 
# From -- ./inp_files/588651.got.cif
#   From: 2010.05.17/outbox.cif.g08.bks.cpg/sg2_295_cif.got.tgz:588651.got - 2010.06.03 11:33:40.
