data_PCOD9014899
_publ_section_title
;
Structure prediction by ZEFSAII (Michael W. Deem and Ramdas Pophale) SiO2 
 PCOD9014899
Probable space group: P -1
;
_chemical_formula_sum "Si O2"
_cell_formula_units_Z 16
_cell_length_a 8.904813
_cell_length_b 20.804654
_cell_length_c 14.883653
_cell_angle_alpha 160.412641
_cell_angle_beta 47.573363
_cell_angle_gamma 135.937605
_cell_volume 642.826600
_symmetry_space_group_name_H-M "P -1"
_symmetry_group_IT_number 2
_symmetry_cell_setting 'triclinic'
loop_
_space_group_symop_operation_xyz
x,y,z
-x,-y,-z
loop_
_atom_site_type_symbol
_atom_site_label
_atom_site_fract_x
_atom_site_fract_y
_atom_site_fract_z
Si Si1 0.197041 0.206492 0.195777
Si Si2 0.691131 0.909601 0.582683
Si Si3 0.685520 0.530392 0.860055
Si Si4 0.161153 0.382130 0.750229
Si Si5 0.652730 0.557152 0.722079
Si Si6 0.482530 0.102165 0.545108
Si Si7 0.579967 0.175476 0.125042
Si Si8 0.932905 0.337720 0.603767
O O1 0.291849 0.263730 0.134921
O O2 0.383681 0.204802 0.186065
O O3 0.074940 0.351093 0.475893
O O4 0.000000 0.000000 0.000000
O O5 0.468293 0.707000 0.405992
O O6 0.849084 0.798008 0.413726
O O7 0.690112 0.991524 0.589143
O O8 0.697203 0.084763 0.882082
O O9 0.795146 0.597314 0.807251
O O10 0.843951 0.524421 0.869576
O O11 0.561636 0.685746 0.138794
O O12 0.411771 0.511884 0.800245
O O13 0.080747 0.315980 0.596008
O O14 0.000000 0.500000 0.000000
O O15 0.670792 0.372305 0.411127
O O16 0.715026 0.153918 0.472749
O O17 0.500000 0.000000 0.500000
O O18 0.500000 0.000000 0.000000
#
# Coordination Sequence:
#
# PCOD9014899 Si02
#       8
#     2   2   2   2   2   2   2   2
#     4  12  27  44  70 102 142 187 243 299 347 428
#     4  10  21  42  71 100 139 194 232 294 364 421
#     4  10  21  41  69  98 143 189 242 288 359 432
#     4  11  21  42  74 101 140 182 238 290 356 433
#     4  11  25  45  72 106 141 199 231 288 380 427
#     4  11  24  42  68 101 144 194 246 296 355 423
#     4  12  22  46  72 104 148 186 236 296 366 436
#     4  11  22  42  64 103 135 184 237 296 353 413
#
# _framework density 24.890070999999999
#
# number of rings (size 3 to 8) (size 9 to 14) (size 15 to 20)
#    0.000    1.000    3.750    5.625    3.500    0.500 
#    0.000    1.875    2.750    0.000    0.000    0.000 
#    0.000    0.000    0.000    0.000    0.000    0.000 
#
# Total GULP energy -89261.692424 kJ/mol
# GULP energy per Si atom -5578.855777 kJ/mol
# Density = 2.483342 g / cm^3
# Si number density = 24.890071 Si / 1000 Ang^3
#
#
#
# Elastic Constant Matrix: (Units=GPa)
#
#
# Indices 1 2 3 4 5 6 
#
# 1 133.3737 50.3071 27.3428 -11.9399 -22.3245 -49.8571
# 2 50.3071 135.7982 23.0860 -16.8263 -16.4810 -32.4215
# 3 27.3428 23.0860 123.6648 -29.8539 -11.7777 -4.8741
# 4 -11.9399 -16.8263 -29.8539 26.7129 -7.5550 -0.5810
# 5 -22.3245 -16.4810 -11.7777 -7.5550 48.3394 -2.8128
# 6 -49.8571 -32.4215 -4.8741 -0.5810 -2.8128 45.3337
#
#
#
# Elastic Compliance Matrix: (Units=1/GPa)
#
#
# Indices 1 2 3 4 5 6 
#
# 1 0.018820 0.001888 0.001428 0.015509 0.013459 0.023235
# 2 0.001888 0.011515 0.001577 0.012293 0.007750 0.011119
# 3 0.001428 0.001577 0.012725 0.018048 0.007395 0.004757
# 4 0.015509 0.012293 0.018048 0.081511 0.030277 0.030711
# 5 0.013459 0.007750 0.007395 0.030277 0.037467 0.023852
# 6 0.023235 0.011119 0.004757 0.030711 0.023852 0.057949
#
#
# Mechanical properties :
#
#
# Convention : Reuss Voigt Hill
#
# Bulk Modulus (GPa) = 18.92325 66.03427 42.47876
# Shear Modulus (GPa) = 21.94755 43.55060 32.74907
#
# Velocity S-wave (km/s) = 2.97270 4.18750 3.63126
# Velocity P-wave (km/s) = 4.40475 7.06882 5.88940
#
# Compressibility (1/GPa) = 0.05284504
#
# Stress axis : x y z
#
# Youngs Moduli (GPa) = 53.13602 86.84349 78.58612
#
# Poissons Ratio (x) = -0.16393 -0.11222
# Poissons Ratio (y) = -0.10030 -0.12394
# Poissons Ratio (z) = -0.07588 -0.13696
#
# Static dielectric constant tensor:
#      x y z
#    x 2.125720 -0.069700 0.050550 
#    y -0.069700 1.857860 0.280320 
#    z 0.050550 0.280320 1.666050 
# 
# From -- ./inp_files/508163.got.cif
#   From: 2010.05.17/outbox.cif.g08.bks.cpg/sg2_255_cif.got.tgz:508163.got - 2010.06.03 11:33:40.
