data_PCOD9014312
_publ_section_title
;
Structure prediction by ZEFSAII (Michael W. Deem and Ramdas Pophale) SiO2 
 PCOD9014312
Probable space group: P -1
;
_chemical_formula_sum "Si O2"
_cell_formula_units_Z 10
_cell_length_a 15.145710
_cell_length_b 6.992118
_cell_length_c 7.518455
_cell_angle_alpha 53.130526
_cell_angle_beta 78.039932
_cell_angle_gamma 42.836439
_cell_volume 391.431300
_symmetry_space_group_name_H-M "P -1"
_symmetry_group_IT_number 2
_symmetry_cell_setting 'triclinic'
loop_
_space_group_symop_operation_xyz
x,y,z
-x,-y,-z
loop_
_atom_site_type_symbol
_atom_site_label
_atom_site_fract_x
_atom_site_fract_y
_atom_site_fract_z
Si Si1 0.563016 0.096477 0.519858
Si Si2 0.866531 0.853794 0.056593
Si Si3 0.102332 0.011570 0.415217
Si Si4 0.624527 0.068369 0.889471
Si Si5 0.678978 0.322113 0.202936
O O1 0.631175 0.917311 0.785446
O O2 0.428268 0.553298 0.350766
O O3 0.669178 0.052792 0.390630
O O4 0.500000 0.000000 0.500000
O O5 0.020940 0.425444 0.277535
O O6 0.777859 0.153015 0.085511
O O7 0.877077 0.999490 0.798406
O O8 0.773654 0.812040 0.061403
O O9 0.246613 0.707828 0.641958
O O10 0.000000 0.000000 0.500000
O O11 0.491296 0.264957 0.958801
#
# Coordination Sequence:
#
# PCOD9014312 Si02
#       5
#     2   2   2   2   2
#     4   9  18  36  67  96 135 173 206 272 342 378
#     4  11  22  43  70  91 135 176 220 276 331 390
#     4  11  25  44  64  94 136 179 221 274 328 397
#     4   9  19  40  64  98 135 163 219 284 318 394
#     4  10  21  41  67  93 136 172 214 282 326 390
#
# _framework density 25.547266
#
# number of rings (size 3 to 8) (size 9 to 14) (size 15 to 20)
#    1.200    0.800    2.000    1.200    0.000    4.000 
#    3.600    2.000    0.000    0.000    0.000    0.000 
#    0.000    0.000    0.000    0.000    0.000    0.000 
#
# Total GULP energy -55918.780319 kJ/mol
# GULP energy per Si atom -5591.878032 kJ/mol
# Density = 2.548912 g / cm^3
# Si number density = 25.547266 Si / 1000 Ang^3
#
#
#
# Elastic Constant Matrix: (Units=GPa)
#
#
# Indices 1 2 3 4 5 6 
#
# 1 114.6689 6.4870 26.3904 8.0786 -18.9889 4.9690
# 2 6.4870 112.8677 33.9899 31.6733 -24.7920 -5.0712
# 3 26.3904 33.9899 65.3992 18.1449 -8.8065 -13.1785
# 4 8.0786 31.6733 18.1449 41.2228 -16.0010 -8.0616
# 5 -18.9889 -24.7920 -8.8065 -16.0010 48.0055 -0.6860
# 6 4.9690 -5.0712 -13.1785 -8.0616 -0.6860 55.4817
#
#
#
# Elastic Compliance Matrix: (Units=1/GPa)
#
#
# Indices 1 2 3 4 5 6 
#
# 1 0.010532 0.001699 -0.004976 0.000046 0.004118 -0.001912
# 2 0.001699 0.013105 -0.005311 -0.006641 0.004236 -0.001128
# 3 -0.004976 -0.005311 0.021938 -0.004555 -0.002141 0.004483
# 4 0.000046 -0.006641 -0.004555 0.034925 0.007444 0.003474
# 5 0.004118 0.004236 -0.002141 0.007444 0.026749 0.000922
# 6 -0.001912 -0.001128 0.004483 0.003474 0.000922 0.019673
#
#
# Mechanical properties :
#
#
# Convention : Reuss Voigt Hill
#
# Bulk Modulus (GPa) = 35.21400 47.40784 41.31092
# Shear Modulus (GPa) = 32.55946 44.01322 38.28634
#
# Velocity S-wave (km/s) = 3.57386 4.15518 3.87544
# Velocity P-wave (km/s) = 5.55371 6.45120 6.01921
#
# Compressibility (1/GPa) = 0.02839779
#
# Stress axis : x y z
#
# Youngs Moduli (GPa) = 94.95270 76.30615 45.58309
#
# Poissons Ratio (x) = -0.12966 0.22684
# Poissons Ratio (y) = -0.16135 0.24211
# Poissons Ratio (z) = 0.47252 0.40529
#
# Static dielectric constant tensor:
#      x y z
#    x 1.977670 0.010200 -0.030180 
#    y 0.010200 1.980310 -0.032130 
#    z -0.030180 -0.032130 2.131480 
# 
# From -- ./inp_files/288357.got.cif
#   From: 2010.05.17/outbox.cif.g08.bks.cpg/sg2_145_cif.got.tgz:288357.got - 2010.06.03 11:33:40.
