data_PCOD9014555
_publ_section_title
;
Structure prediction by ZEFSAII (Michael W. Deem and Ramdas Pophale) SiO2 
 PCOD9014555
Probable space group: P -1
;
_chemical_formula_sum "Si O2"
_cell_formula_units_Z 12
_cell_length_a 9.882442
_cell_length_b 5.442309
_cell_length_c 18.822185
_cell_angle_alpha 68.426456
_cell_angle_beta 139.627579
_cell_angle_gamma 131.474317
_cell_volume 471.368827
_symmetry_space_group_name_H-M "P -1"
_symmetry_group_IT_number 2
_symmetry_cell_setting 'triclinic'
loop_
_space_group_symop_operation_xyz
x,y,z
-x,-y,-z
loop_
_atom_site_type_symbol
_atom_site_label
_atom_site_fract_x
_atom_site_fract_y
_atom_site_fract_z
Si Si1 0.714968 0.210822 0.266089
Si Si2 0.458867 0.130951 0.395171
Si Si3 0.531744 0.366679 0.600402
Si Si4 0.095992 0.247030 0.593692
Si Si5 0.919669 0.240276 0.929644
Si Si6 0.665121 0.356134 0.070694
O O1 0.868043 0.543523 0.343560
O O2 0.734089 0.315120 0.181548
O O3 0.804645 0.974712 0.331023
O O4 0.400138 0.980261 0.184806
O O5 0.311400 0.290664 0.327970
O O6 0.781988 0.964429 0.475779
O O7 0.500000 0.000000 0.500000
O O8 0.329012 0.798230 0.333823
O O9 0.500000 0.500000 0.500000
O O10 0.725201 0.460046 0.426174
O O11 0.085328 0.420737 0.905846
O O12 0.000000 0.500000 0.000000
O O13 0.000000 0.000000 0.000000
O O14 0.500000 0.500000 0.000000
O O15 0.500000 0.000000 0.000000
#
# Coordination Sequence:
#
# PCOD9014555 Si02
#       6
#     2   2   2   2   2   2
#     4  12  26  43  68 106 142 170 226 296 348 381
#     4  10  21  41  68  91 123 177 227 262 331 428
#     4  10  21  41  68  91 123 177 227 262 331 428
#     4  12  24  43  66 100 140 170 218 302 350 379
#     4  12  23  45  74  98 135 189 235 270 331 427
#     4  12  23  45  74  98 135 189 235 270 331 427
#
# _framework density 25.45777
#
# number of rings (size 3 to 8) (size 9 to 14) (size 15 to 20)
#    0.000    0.667    3.333    5.000    0.000    0.000 
#   18.000    0.000    0.000    0.000    0.000    0.000 
#    0.000    0.000    0.000    0.000    0.000    0.000 
#
# Total GULP energy -67056.608711 kJ/mol
# GULP energy per Si atom -5588.050726 kJ/mol
# Density = 2.539983 g / cm^3
# Si number density = 25.457770 Si / 1000 Ang^3
#
#
#
# Elastic Constant Matrix: (Units=GPa)
#
#
# Indices 1 2 3 4 5 6 
#
# 1 213.4490 130.6539 73.8337 -11.9384 -18.6711 -25.3519
# 2 130.6539 218.3221 63.0099 -23.7116 -8.2016 -36.2604
# 3 73.8337 63.0099 118.5248 -10.4021 1.0085 -17.5730
# 4 -11.9384 -23.7116 -10.4021 29.9853 6.0148 5.1939
# 5 -18.6711 -8.2016 1.0085 6.0148 47.6586 -1.5878
# 6 -25.3519 -36.2604 -17.5730 5.1939 -1.5878 120.8684
#
#
#
# Elastic Compliance Matrix: (Units=1/GPa)
#
#
# Indices 1 2 3 4 5 6 
#
# 1 0.008587 -0.004250 -0.003238 -0.001679 0.002919 0.000166
# 2 -0.004250 0.008067 -0.001087 0.004257 -0.000752 0.001178
# 3 -0.003238 -0.001087 0.011308 0.002072 -0.001939 0.000524
# 4 -0.001679 0.004257 0.002072 0.037800 -0.004755 -0.000461
# 5 0.002919 -0.000752 -0.001939 -0.004755 0.022658 0.000607
# 6 0.000166 0.001178 0.000524 -0.000461 0.000607 0.008766
#
#
# Mechanical properties :
#
#
# Convention : Reuss Voigt Hill
#
# Bulk Modulus (GPa) = 92.47310 120.58789 106.53049
# Shear Modulus (GPa) = 42.39497 58.55569 50.47533
#
# Velocity S-wave (km/s) = 4.08524 4.80115 4.45759
# Velocity P-wave (km/s) = 7.65867 8.84338 8.27226
#
# Compressibility (1/GPa) = 0.01081396
#
# Stress axis : x y z
#
# Youngs Moduli (GPa) = 116.45017 123.96229 88.43507
#
# Poissons Ratio (x) = 0.52681 0.28633
# Poissons Ratio (y) = 0.49489 0.09609
# Poissons Ratio (z) = 0.37703 0.13469
#
# Static dielectric constant tensor:
#      x y z
#    x 2.257780 -0.041470 0.027270 
#    y -0.041470 1.807850 -0.002960 
#    z 0.027270 -0.002960 1.923470 
# 
# From -- ./inp_files/616119.got.cif
#   From: 2010.05.17/outbox.cif.g08.bks.cpg/sg2_309_cif.got.tgz:616119.got - 2010.06.03 11:33:40.
