data_PCOD9014440
_publ_section_title
;
Structure prediction by ZEFSAII (Michael W. Deem and Ramdas Pophale) SiO2 
 PCOD9014440
Probable space group: P -1
;
_chemical_formula_sum "Si O2"
_cell_formula_units_Z 14
_cell_length_a 5.362517
_cell_length_b 15.361553
_cell_length_c 12.831898
_cell_angle_alpha 142.034116
_cell_angle_beta 66.304679
_cell_angle_gamma 110.808548
_cell_volume 594.078969
_symmetry_space_group_name_H-M "P -1"
_symmetry_group_IT_number 2
_symmetry_cell_setting 'triclinic'
loop_
_space_group_symop_operation_xyz
x,y,z
-x,-y,-z
loop_
_atom_site_type_symbol
_atom_site_label
_atom_site_fract_x
_atom_site_fract_y
_atom_site_fract_z
Si Si1 0.020813 0.235115 0.038199
Si Si2 0.206052 0.496241 0.362883
Si Si3 0.546021 0.157548 0.184136
Si Si4 0.330572 0.959041 0.733707
Si Si5 0.213182 0.339330 0.534859
Si Si6 0.865184 0.146650 0.773385
Si Si7 0.140426 0.862245 0.462263
O O1 0.738705 0.246493 0.157063
O O2 0.231028 0.339608 0.163586
O O3 0.982935 0.259266 0.944309
O O4 0.100489 0.072414 0.880827
O O5 0.504632 0.568006 0.405306
O O6 0.000000 0.500000 0.500000
O O7 0.038438 0.572356 0.372587
O O8 0.687095 0.139454 0.255768
O O9 0.278018 0.235896 0.330225
O O10 0.500000 0.000000 0.000000
O O11 0.324729 0.873078 0.545179
O O12 0.608504 0.058611 0.784892
O O13 0.121001 0.236297 0.548459
O O14 0.777089 0.192322 0.716207
O O15 0.084830 0.027877 0.611473
#
# Coordination Sequence:
#
# PCOD9014440 Si02
#       7
#     2   2   2   2   2   2   2
#     4  11  25  40  63  98 135 175 226 272 336 405
#     4  12  28  45  69  94 137 192 226 270 326 406
#     4  12  22  38  68 101 137 164 214 288 352 402
#     4  11  21  39  67 101 133 174 216 283 350 406
#     4  12  26  46  67 100 135 181 229 275 333 400
#     4  10  21  41  67  98 132 171 220 281 347 397
#     4  10  22  41  66  99 132 170 224 280 342 403
#
# _framework density 23.565892000000002
#
# number of rings (size 3 to 8) (size 9 to 14) (size 15 to 20)
#    0.000    0.857    4.286    3.000    4.000    0.000 
#    0.000    1.429    0.000    0.000    0.000    0.000 
#    0.000    0.000    0.000    0.000    0.000    0.000 
#
# Total GULP energy -78287.111185 kJ/mol
# GULP energy per Si atom -5591.936513 kJ/mol
# Density = 2.351225 g / cm^3
# Si number density = 23.565892 Si / 1000 Ang^3
#
#
#
# Elastic Constant Matrix: (Units=GPa)
#
#
# Indices 1 2 3 4 5 6 
#
# 1 86.5957 12.3632 16.6989 1.9485 22.8861 -4.1607
# 2 12.3632 61.4637 35.9407 -10.1914 16.0865 -4.5736
# 3 16.6989 35.9407 94.2229 -14.0809 34.3418 -5.7592
# 4 1.9485 -10.1914 -14.0809 34.8346 -3.0812 13.4445
# 5 22.8861 16.0865 34.3418 -3.0812 45.1830 4.8722
# 6 -4.1607 -4.5736 -5.7592 13.4445 4.8722 39.8163
#
#
#
# Elastic Compliance Matrix: (Units=1/GPa)
#
#
# Indices 1 2 3 4 5 6 
#
# 1 0.013838 -0.001395 0.000585 -0.002866 -0.007504 0.003257
# 2 -0.001395 0.021566 -0.006896 0.003306 -0.001549 0.000407
# 3 0.000585 -0.006896 0.017964 0.003370 -0.011495 0.002136
# 4 -0.002866 0.003306 0.003370 0.035841 0.001420 -0.011708
# 5 -0.007504 -0.001549 -0.011495 0.001420 0.036131 -0.007526
# 6 0.003257 0.000407 0.002136 -0.011708 -0.007526 0.030686
#
#
# Mechanical properties :
#
#
# Convention : Reuss Voigt Hill
#
# Bulk Modulus (GPa) = 26.34439 41.36533 33.85486
# Shear Modulus (GPa) = 27.16080 35.78541 31.47310
#
# Velocity S-wave (km/s) = 3.39860 3.90105 3.65846
# Velocity P-wave (km/s) = 5.15790 6.15484 5.67830
#
# Compressibility (1/GPa) = 0.03795875
#
# Stress axis : x y z
#
# Youngs Moduli (GPa) = 72.26249 46.36828 55.66806
#
# Poissons Ratio (x) = 0.06467 -0.03258
# Poissons Ratio (y) = 0.10078 0.38386
# Poissons Ratio (z) = -0.04230 0.31974
#
# Static dielectric constant tensor:
#      x y z
#    x 1.947210 -0.022180 0.000830 
#    y -0.022180 1.895810 0.010410 
#    z 0.000830 0.010410 1.913890 
# 
# From -- ./inp_files/60683.got.cif
#   From: 2010.05.17/outbox.cif.g08.bks.cpg/sg2_31_cif.got.tgz:60683.got - 2010.06.03 11:33:40.
