data_PCOD9014188
_publ_section_title
;
Structure prediction by ZEFSAII (Michael W. Deem and Ramdas Pophale) SiO2 
 PCOD9014188
Probable space group: P -1
;
_chemical_formula_sum "Si O2"
_cell_formula_units_Z 14
_cell_length_a 7.681906
_cell_length_b 13.518549
_cell_length_c 10.321321
_cell_angle_alpha 146.778450
_cell_angle_beta 103.755089
_cell_angle_gamma 75.218849
_cell_volume 567.210160
_symmetry_space_group_name_H-M "P -1"
_symmetry_group_IT_number 2
_symmetry_cell_setting 'triclinic'
loop_
_space_group_symop_operation_xyz
x,y,z
-x,-y,-z
loop_
_atom_site_type_symbol
_atom_site_label
_atom_site_fract_x
_atom_site_fract_y
_atom_site_fract_z
Si Si1 0.026274 0.293492 0.829673
Si Si2 0.207686 0.984700 0.161474
Si Si3 0.407087 0.294544 0.622221
Si Si4 0.221482 0.647746 0.927129
Si Si5 0.784723 0.935317 0.030370
Si Si6 0.365851 0.415640 0.479075
Si Si7 0.273360 0.967553 0.583050
O O1 0.885844 0.164769 0.602893
O O2 0.212990 0.161113 0.715650
O O3 0.000000 0.500000 0.000000
O O4 0.966328 0.311556 0.989098
O O5 0.238728 0.182551 0.436093
O O6 0.281223 0.961356 0.001967
O O7 0.298326 0.835567 0.113325
O O8 0.997215 0.958395 0.095605
O O9 0.335085 0.497838 0.873279
O O10 0.481282 0.333906 0.533904
O O11 0.552000 0.159436 0.571480
O O12 0.223269 0.555799 0.685144
O O13 0.737856 0.733640 0.771764
O O14 0.704263 0.991875 0.216623
O O15 0.500000 0.500000 0.500000
#
# Coordination Sequence:
#
# PCOD9014188 Si02
#       7
#     2   2   2   2   2   2   2
#     4  11  27  47  70  93 138 185 240 283 331 408
#     4  10  21  41  67 101 141 173 218 287 338 422
#     4   9  24  40  68 101 137 175 221 280 348 398
#     4  10  23  44  66 102 139 178 233 275 344 410
#     4  10  22  40  69 101 138 182 220 277 355 404
#     4   9  22  40  66 107 145 173 221 284 342 421
#     4  11  25  45  67 101 132 180 234 278 344 403
#
# _framework density 24.682209
#
# number of rings (size 3 to 8) (size 9 to 14) (size 15 to 20)
#    0.857    1.143    1.429    0.000    6.000    4.571 
#    0.000    1.429    0.000    0.000    0.000    0.000 
#    0.000    0.000    0.000    0.000    0.000    0.000 
#
# Total GULP energy -78112.213811 kJ/mol
# GULP energy per Si atom -5579.443844 kJ/mol
# Density = 2.462603 g / cm^3
# Si number density = 24.682209 Si / 1000 Ang^3
#
#
#
# Elastic Constant Matrix: (Units=GPa)
#
#
# Indices 1 2 3 4 5 6 
#
# 1 67.7577 35.7358 21.5425 2.3056 -5.8475 -0.3616
# 2 35.7358 126.8516 45.3042 28.2840 -2.8486 7.1131
# 3 21.5425 45.3042 104.2534 19.8847 -9.4462 8.5606
# 4 2.3056 28.2840 19.8847 54.3042 4.0446 -7.0155
# 5 -5.8475 -2.8486 -9.4462 4.0446 31.6303 5.2508
# 6 -0.3616 7.1131 8.5606 -7.0155 5.2508 43.1204
#
#
#
# Elastic Compliance Matrix: (Units=1/GPa)
#
#
# Indices 1 2 3 4 5 6 
#
# 1 0.018123 -0.005023 -0.002056 0.002685 0.001672 0.001622
# 2 -0.005023 0.011571 -0.002804 -0.005101 0.000304 -0.002261
# 3 -0.002056 -0.002804 0.012592 -0.003781 0.004138 -0.003174
# 4 0.002685 -0.005101 -0.003781 0.023505 -0.005104 0.006060
# 5 0.001672 0.000304 0.004138 -0.005104 0.034824 -0.005929
# 6 0.001622 -0.002261 -0.003174 0.006060 -0.005929 0.025915
#
#
# Mechanical properties :
#
#
# Convention : Reuss Voigt Hill
#
# Bulk Modulus (GPa) = 44.40546 56.00306 50.20426
# Shear Modulus (GPa) = 32.50892 38.89635 35.70263
#
# Velocity S-wave (km/s) = 3.63312 3.97405 3.80740
# Velocity P-wave (km/s) = 5.96904 6.61788 6.30181
#
# Compressibility (1/GPa) = 0.02251975
#
# Stress axis : x y z
#
# Youngs Moduli (GPa) = 55.17869 86.42411 79.41465
#
# Poissons Ratio (x) = 0.43413 0.16326
# Poissons Ratio (y) = 0.27718 0.22268
# Poissons Ratio (z) = 0.11343 0.24234
#
# Static dielectric constant tensor:
#      x y z
#    x 1.987640 -0.047050 -0.052450 
#    y -0.047050 2.043720 0.032440 
#    z -0.052450 0.032440 1.927730 
# 
# From -- ./inp_files/396781.got.cif
#   From: 2010.05.17/outbox.cif.g08.bks.cpg/sg2_199_cif.got.tgz:396781.got - 2010.06.03 11:33:40.
