data_PCOD9014869
_publ_section_title
;
Structure prediction by ZEFSAII (Michael W. Deem and Ramdas Pophale) SiO2 
 PCOD9014869
Probable space group: P -1
;
_chemical_formula_sum "Si O2"
_cell_formula_units_Z 16
_cell_length_a 15.175172
_cell_length_b 12.158016
_cell_length_c 7.843878
_cell_angle_alpha 74.313395
_cell_angle_beta 65.543219
_cell_angle_gamma 129.596801
_cell_volume 657.714510
_symmetry_space_group_name_H-M "P -1"
_symmetry_group_IT_number 2
_symmetry_cell_setting 'triclinic'
loop_
_space_group_symop_operation_xyz
x,y,z
-x,-y,-z
loop_
_atom_site_type_symbol
_atom_site_label
_atom_site_fract_x
_atom_site_fract_y
_atom_site_fract_z
Si Si1 0.625697 0.597775 0.695102
Si Si2 0.200782 0.015926 0.111084
Si Si3 0.147498 0.728131 0.191247
Si Si4 0.275683 0.324698 0.883520
Si Si5 0.129147 0.742310 0.799198
Si Si6 0.627252 0.388070 0.579435
Si Si7 0.927456 0.068362 0.381443
Si Si8 0.545129 0.061504 0.644902
O O1 0.666185 0.503052 0.672149
O O2 0.808697 0.860476 0.449432
O O3 0.500000 0.500000 0.000000
O O4 0.482007 0.497269 0.705856
O O5 0.181341 0.112341 0.982409
O O6 0.185251 0.036241 0.309950
O O7 0.078407 0.781595 0.292515
O O8 0.403150 0.170026 0.841214
O O9 0.000000 0.500000 0.500000
O O10 0.163497 0.779090 0.957811
O O11 0.350858 0.869924 0.984864
O O12 0.283867 0.436149 0.700588
O O13 0.134178 0.228139 0.181332
O O14 0.309320 0.895299 0.472353
O O15 0.057813 0.791669 0.771894
O O16 0.000000 0.500000 0.000000
O O17 0.655688 0.286955 0.531112
O O18 0.500000 0.000000 0.500000
#
# Coordination Sequence:
#
# PCOD9014869 Si02
#       8
#     2   2   2   2   2   2   2   2
#     4  11  23  42  69 100 137 176 223 276 344 405
#     4  10  21  42  65  93 138 174 218 275 339 404
#     4  10  22  43  70  96 131 177 222 281 337 397
#     4  11  24  42  67  98 139 177 219 278 345 395
#     4  11  24  44  65  97 135 172 232 281 332 407
#     4  10  21  41  69  97 134 172 222 281 339 404
#     4  12  25  43  67 100 137 177 226 278 334 411
#     4   9  21  42  68  94 127 178 221 270 340 393
#
# _framework density 24.326661999999999
#
# number of rings (size 3 to 8) (size 9 to 14) (size 15 to 20)
#    0.000    1.500    2.500    3.375    7.000    1.500 
#    2.250    6.875    0.000    0.000    0.000    0.000 
#    0.000    0.000    0.000    0.000    0.000    0.000 
#
# Total GULP energy -89082.967365 kJ/mol
# GULP energy per Si atom -5567.685460 kJ/mol
# Density = 2.427129 g / cm^3
# Si number density = 24.326662 Si / 1000 Ang^3
#
#
#
# Elastic Constant Matrix: (Units=GPa)
#
#
# Indices 1 2 3 4 5 6 
#
# 1 82.8157 28.2938 42.3552 7.2335 -11.4432 -30.4615
# 2 28.2938 135.8048 24.7280 12.5651 3.0584 -30.7727
# 3 42.3552 24.7280 116.7983 1.2150 -4.0519 -17.8087
# 4 7.2335 12.5651 1.2150 29.3955 -8.8994 3.3818
# 5 -11.4432 3.0584 -4.0519 -8.8994 44.3331 2.2084
# 6 -30.4615 -30.7727 -17.8087 3.3818 2.2084 33.2689
#
#
#
# Elastic Compliance Matrix: (Units=1/GPa)
#
#
# Indices 1 2 3 4 5 6 
#
# 1 0.022574 0.001317 -0.005302 -0.007304 0.002808 0.019606
# 2 0.001317 0.010498 -0.001001 -0.006788 -0.002398 0.011230
# 3 -0.005302 -0.001001 0.010649 0.001300 -0.000055 -0.000208
# 4 -0.007304 -0.006788 0.001300 0.043130 0.008217 -0.017200
# 5 0.002808 -0.002398 -0.000055 0.008217 0.025200 -0.002184
# 6 0.019606 0.011230 -0.000208 -0.017200 -0.002184 0.060179
#
#
# Mechanical properties :
#
#
# Convention : Reuss Voigt Hill
#
# Bulk Modulus (GPa) = 29.62939 58.46364 44.04652
# Shear Modulus (GPa) = 25.84629 37.40229 31.62429
#
# Velocity S-wave (km/s) = 3.26309 3.92535 3.60944
# Velocity P-wave (km/s) = 5.13841 6.68053 5.95956
#
# Compressibility (1/GPa) = 0.03375027
#
# Stress axis : x y z
#
# Youngs Moduli (GPa) = 44.29842 95.25653 93.90347
#
# Poissons Ratio (x) = -0.12549 0.49791
# Poissons Ratio (y) = -0.05836 0.09396
# Poissons Ratio (z) = 0.23489 0.09531
#
# Static dielectric constant tensor:
#      x y z
#    x 3.207840 -0.090080 -0.190450 
#    y -0.090080 2.015060 -0.039780 
#    z -0.190450 -0.039780 1.970310 
# 
# From -- ./inp_files/282731.got.cif
#   From: 2010.05.17/outbox.cif.g08.bks.cpg/sg2_142_cif.got.tgz:282731.got - 2010.06.03 11:33:40.
