data_PCOD9014148
_publ_section_title
;
Structure prediction by ZEFSAII (Michael W. Deem and Ramdas Pophale) SiO2 
 PCOD9014148
Probable space group: P -1
;
_chemical_formula_sum "Si O2"
_cell_formula_units_Z 10
_cell_length_a 8.151240
_cell_length_b 11.617694
_cell_length_c 7.027909
_cell_angle_alpha 88.827603
_cell_angle_beta 142.607350
_cell_angle_gamma 101.238873
_cell_volume 386.189143
_symmetry_space_group_name_H-M "P -1"
_symmetry_group_IT_number 2
_symmetry_cell_setting 'triclinic'
loop_
_space_group_symop_operation_xyz
x,y,z
-x,-y,-z
loop_
_atom_site_type_symbol
_atom_site_label
_atom_site_fract_x
_atom_site_fract_y
_atom_site_fract_z
Si Si1 0.237774 0.222087 0.107665
Si Si2 0.642812 0.452612 0.312976
Si Si3 0.663546 0.833975 0.360866
Si Si4 0.366821 0.924233 0.566969
Si Si5 0.054767 0.686695 0.665857
O O1 0.402616 0.360736 0.216180
O O2 0.258071 0.189420 0.348702
O O3 0.407156 0.141185 0.155621
O O4 0.913285 0.175663 0.753786
O O5 0.838819 0.376423 0.410272
O O6 0.846366 0.573382 0.589845
O O7 0.500000 0.500000 0.000000
O O8 0.869666 0.774402 0.438732
O O9 0.697902 0.974848 0.363338
O O10 0.337502 0.760504 0.029726
O O11 0.500000 0.000000 0.500000
#
# Coordination Sequence:
#
# PCOD9014148 Si02
#       5
#     2   2   2   2   2
#     4  11  24  40  72  95 126 172 213 253 324 383
#     4  11  26  47  63  89 136 177 209 258 323 381
#     4  11  21  42  67  99 123 161 218 271 309 372
#     4  10  21  41  66  99 132 160 203 270 326 373
#     4  11  24  42  67  88 135 169 209 268 319 362
#
# _framework density 25.894047
#
# number of rings (size 3 to 8) (size 9 to 14) (size 15 to 20)
#    0.000    1.200    2.000    6.000    5.600    1.600 
#    0.000    6.000    0.000    0.000    0.000    0.000 
#    0.000    0.000    0.000    0.000    0.000    0.000 
#
# Total GULP energy -56070.825439 kJ/mol
# GULP energy per Si atom -5607.082544 kJ/mol
# Density = 2.583511 g / cm^3
# Si number density = 25.894047 Si / 1000 Ang^3
#
#
#
# Elastic Constant Matrix: (Units=GPa)
#
#
# Indices 1 2 3 4 5 6 
#
# 1 71.7001 38.0803 23.2194 -3.9657 15.0776 1.3827
# 2 38.0803 119.0417 41.0090 -6.3023 9.8552 0.8306
# 3 23.2194 41.0090 164.5849 2.3659 28.3249 -2.8580
# 4 -3.9657 -6.3023 2.3659 59.8513 -2.8915 12.8319
# 5 15.0776 9.8552 28.3249 -2.8915 32.9372 -2.0055
# 6 1.3827 0.8306 -2.8580 12.8319 -2.0055 51.0935
#
#
#
# Elastic Compliance Matrix: (Units=1/GPa)
#
#
# Indices 1 2 3 4 5 6 
#
# 1 0.018192 -0.005183 -0.000152 0.000517 -0.006650 -0.000808
# 2 -0.005183 0.010769 -0.002157 0.001006 0.001072 -0.000366
# 3 -0.000152 -0.002157 0.007679 -0.000928 -0.005941 0.000469
# 4 0.000517 0.001006 -0.000928 0.017930 0.001559 -0.004524
# 5 -0.006650 0.001072 -0.005941 0.001559 0.038388 0.000945
# 6 -0.000808 -0.000366 0.000469 -0.004524 0.000945 0.020799
#
#
# Mechanical properties :
#
#
# Convention : Reuss Voigt Hill
#
# Bulk Modulus (GPa) = 46.18084 62.21601 54.19843
# Shear Modulus (GPa) = 36.77549 45.64427 41.20988
#
# Velocity S-wave (km/s) = 3.77268 4.20305 3.99366
# Velocity P-wave (km/s) = 6.07048 6.90170 6.49939
#
# Compressibility (1/GPa) = 0.02165400
#
# Stress axis : x y z
#
# Youngs Moduli (GPa) = 54.97020 92.86099 130.22807
#
# Poissons Ratio (x) = 0.48134 0.01979
# Poissons Ratio (y) = 0.28494 0.28093
# Poissons Ratio (z) = 0.00835 0.20032
#
# Static dielectric constant tensor:
#      x y z
#    x 2.153130 -0.029910 0.006590 
#    y -0.029910 2.048670 -0.001140 
#    z 0.006590 -0.001140 1.972050 
# 
# From -- ./inp_files/32889.got.cif
#   From: 2010.05.17/outbox.cif.g08.bks.cpg/sg2_17_cif.got.tgz:32889.got - 2010.06.03 11:33:40.
