data_PCOD9014639
_publ_section_title
;
Structure prediction by ZEFSAII (Michael W. Deem and Ramdas Pophale) SiO2 
 PCOD9014639
Probable space group: P -1
;
_chemical_formula_sum "Si O2"
_cell_formula_units_Z 16
_cell_length_a 14.975347
_cell_length_b 8.276503
_cell_length_c 14.233696
_cell_angle_alpha 42.827974
_cell_angle_beta 42.516067
_cell_angle_gamma 46.101187
_cell_volume 764.325094
_symmetry_space_group_name_H-M "P -1"
_symmetry_group_IT_number 2
_symmetry_cell_setting 'triclinic'
loop_
_space_group_symop_operation_xyz
x,y,z
-x,-y,-z
loop_
_atom_site_type_symbol
_atom_site_label
_atom_site_fract_x
_atom_site_fract_y
_atom_site_fract_z
Si Si1 0.449466 0.118977 0.644036
Si Si2 0.363153 0.251877 0.001839
Si Si3 0.155534 0.398930 0.800856
Si Si4 0.597506 0.676459 0.846028
Si Si5 0.942175 0.850180 0.183051
Si Si6 0.353383 0.787465 0.703731
Si Si7 0.889398 0.848120 0.869693
Si Si8 0.113616 0.617255 0.325169
O O1 0.318513 0.355296 0.678345
O O2 0.559484 0.194637 0.463299
O O3 0.511236 0.951958 0.758077
O O4 0.398371 0.933232 0.693744
O O5 0.379413 0.499301 0.834331
O O6 0.343349 0.315119 0.100124
O O7 0.228594 0.210122 0.076300
O O8 0.500000 0.000000 0.000000
O O9 0.107168 0.338529 0.762008
O O10 0.044969 0.659263 0.809045
O O11 0.145113 0.200259 0.974253
O O12 0.727888 0.567457 0.721143
O O13 0.500000 0.500000 0.000000
O O14 0.061360 0.706135 0.223227
O O15 0.810475 0.051668 0.250866
O O16 0.000000 0.000000 0.000000
O O17 0.886202 0.128856 0.733104
O O18 0.000000 0.500000 0.500000
#
# Coordination Sequence:
#
# PCOD9014639 Si02
#       8
#     2   2   2   2   2   2   2   2
#     4  10  21  41  68  99 130 175 218 280 322 392
#     4  12  25  43  66  98 136 178 219 276 336 400
#     4  10  21  41  68  96 128 166 226 271 327 386
#     4  12  23  44  70  98 134 180 229 262 327 411
#     4  11  20  40  70  96 121 173 228 268 312 400
#     4  10  22  39  67  99 132 167 227 274 329 388
#     4  11  24  42  66  99 131 173 220 280 329 396
#     4  12  26  44  69  99 134 174 221 280 337 394
#
# _framework density 20.933502000000001
#
# number of rings (size 3 to 8) (size 9 to 14) (size 15 to 20)
#    0.000    1.000    2.500    5.250    1.750    0.000 
#    2.250    2.500    0.000    0.000    0.000    0.000 
#    0.000    0.000    0.000    0.000    0.000    0.000 
#
# Total GULP energy -89460.054259 kJ/mol
# GULP energy per Si atom -5591.253391 kJ/mol
# Density = 2.088586 g / cm^3
# Si number density = 20.933502 Si / 1000 Ang^3
#
#
#
# Elastic Constant Matrix: (Units=GPa)
#
#
# Indices 1 2 3 4 5 6 
#
# 1 91.9943 8.7385 20.7622 -6.0729 -2.0760 -1.4184
# 2 8.7385 110.4673 35.5051 25.7017 -17.2139 -7.8765
# 3 20.7622 35.5051 89.9206 16.4655 -13.8811 7.9300
# 4 -6.0729 25.7017 16.4655 38.0563 -5.1377 -7.8216
# 5 -2.0760 -17.2139 -13.8811 -5.1377 28.0196 -0.9892
# 6 -1.4184 -7.8765 7.9300 -7.8216 -0.9892 27.7332
#
#
#
# Elastic Compliance Matrix: (Units=1/GPa)
#
#
# Indices 1 2 3 4 5 6 
#
# 1 0.012085 -0.000701 -0.003637 0.004475 -0.000421 0.002706
# 2 -0.000701 0.012499 -0.003169 -0.005892 0.005080 0.002940
# 3 -0.003637 -0.003169 0.015594 -0.006090 0.004141 -0.007115
# 4 0.004475 -0.005892 -0.006090 0.035833 0.000633 0.010425
# 5 -0.000421 0.005080 0.004141 0.000633 0.041013 0.001879
# 6 0.002706 0.002940 -0.007115 0.010425 0.001879 0.042073
#
#
# Mechanical properties :
#
#
# Convention : Reuss Voigt Hill
#
# Bulk Modulus (GPa) = 39.73975 46.93265 43.33620
# Shear Modulus (GPa) = 27.39759 33.92026 30.65892
#
# Velocity S-wave (km/s) = 3.62165 4.02976 3.83114
# Velocity P-wave (km/s) = 6.04264 6.64233 6.34957
#
# Compressibility (1/GPa) = 0.02516372
#
# Stress axis : x y z
#
# Youngs Moduli (GPa) = 82.74605 80.00938 64.12777
#
# Poissons Ratio (x) = 0.05608 0.23321
# Poissons Ratio (y) = 0.05799 0.20325
# Poissons Ratio (z) = 0.30091 0.25359
#
# Static dielectric constant tensor:
#      x y z
#    x 1.796960 -0.019670 -0.044240 
#    y -0.019670 1.858460 0.073870 
#    z -0.044240 0.073870 1.753210 
# 
# From -- ./inp_files/356597.got.cif
#   From: 2010.05.17/outbox.cif.g08.bks.cpg/sg2_179_cif.got.tgz:356597.got - 2010.06.03 11:33:40.
