data_PCOD9014495
_publ_section_title
;
Structure prediction by ZEFSAII (Michael W. Deem and Ramdas Pophale) SiO2 
 PCOD9014495
Probable space group: P -1
;
_chemical_formula_sum "Si O2"
_cell_formula_units_Z 14
_cell_length_a 10.047973
_cell_length_b 14.185598
_cell_length_c 13.115601
_cell_angle_alpha 41.233183
_cell_angle_beta 129.692291
_cell_angle_gamma 151.203813
_cell_volume 592.323280
_symmetry_space_group_name_H-M "P -1"
_symmetry_group_IT_number 2
_symmetry_cell_setting 'triclinic'
loop_
_space_group_symop_operation_xyz
x,y,z
-x,-y,-z
loop_
_atom_site_type_symbol
_atom_site_label
_atom_site_fract_x
_atom_site_fract_y
_atom_site_fract_z
Si Si1 0.594780 0.853535 0.836555
Si Si2 0.470075 0.888319 0.303946
Si Si3 0.096989 0.459882 0.785719
Si Si4 0.836401 0.796802 0.295813
Si Si5 0.141885 0.033498 0.440876
Si Si6 0.546167 0.516135 0.196438
Si Si7 0.240586 0.932513 0.903268
O O1 0.350915 0.715356 0.745993
O O2 0.581289 0.979763 0.801670
O O3 0.556786 0.680784 0.020058
O O4 0.887959 0.033311 0.776790
O O5 0.587961 0.882879 0.464106
O O6 0.175762 0.644259 0.312892
O O7 0.718014 0.034357 0.224733
O O8 0.226264 0.431690 0.792251
O O9 0.997612 0.305646 0.960860
O O10 0.611133 0.566157 0.308074
O O11 0.733443 0.892963 0.179712
O O12 0.931409 0.815050 0.441105
O O13 0.259058 0.245929 0.262793
O O14 0.000000 0.000000 0.500000
O O15 0.500000 0.000000 0.000000
#
# Coordination Sequence:
#
# PCOD9014495 Si02
#       7
#     2   2   2   2   2   2   2
#     4  12  24  43  77 108 129 178 241 288 339 409
#     4  11  26  46  67 102 147 176 229 292 338 408
#     4  11  22  42  71 104 137 178 231 285 349 399
#     4  12  23  45  74 100 140 182 232 284 345 410
#     4  12  28  49  67  98 145 189 227 277 350 421
#     4  12  24  43  76 102 136 183 230 285 345 410
#     4  10  21  41  68 101 143 175 221 292 343 394
#
# _framework density 23.635739999999998
#
# number of rings (size 3 to 8) (size 9 to 14) (size 15 to 20)
#    0.000    0.571    5.714    3.429    0.000    3.429 
#    5.143    0.000    0.000    0.000    0.000    0.000 
#    0.000    0.000    0.000    0.000    0.000    0.000 
#
# Total GULP energy -78283.374942 kJ/mol
# GULP energy per Si atom -5591.669639 kJ/mol
# Density = 2.358194 g / cm^3
# Si number density = 23.635740 Si / 1000 Ang^3
#
#
#
# Elastic Constant Matrix: (Units=GPa)
#
#
# Indices 1 2 3 4 5 6 
#
# 1 139.3253 13.0198 4.1847 -6.1006 -12.3323 -4.5479
# 2 13.0198 97.2325 -6.8415 28.1478 1.2203 -12.2489
# 3 4.1847 -6.8415 54.0992 20.3991 3.9359 8.8468
# 4 -6.1006 28.1478 20.3991 39.8142 2.6816 0.9039
# 5 -12.3323 1.2203 3.9359 2.6816 28.4158 11.0446
# 6 -4.5479 -12.2489 8.8468 0.9039 11.0446 30.8298
#
#
#
# Elastic Compliance Matrix: (Units=1/GPa)
#
#
# Indices 1 2 3 4 5 6 
#
# 1 0.008004 -0.002601 -0.002724 0.004219 0.003777 -0.000548
# 2 -0.002601 0.016533 0.007594 -0.015864 -0.003638 0.005774
# 3 -0.002724 0.007594 0.027975 -0.019898 -0.001892 -0.004151
# 4 0.004219 -0.015864 -0.019898 0.047111 0.001566 -0.001913
# 5 0.003777 -0.003638 -0.001892 0.001566 0.043280 -0.015896
# 6 -0.000548 0.005774 -0.004151 -0.001913 -0.015896 0.041591
#
#
# Mechanical properties :
#
#
# Convention : Reuss Voigt Hill
#
# Bulk Modulus (GPa) = 17.52882 34.59812 26.06347
# Shear Modulus (GPa) = 25.12911 38.49824 31.81367
#
# Velocity S-wave (km/s) = 3.26419 4.04024 3.67277
# Velocity P-wave (km/s) = 4.65176 6.03610 5.38857
#
# Compressibility (1/GPa) = 0.05704890
#
# Stress axis : x y z
#
# Youngs Moduli (GPa) = 124.94446 60.48595 35.74626
#
# Poissons Ratio (x) = 0.15734 0.09738
# Poissons Ratio (y) = 0.32501 -0.27146
# Poissons Ratio (z) = 0.34037 -0.45934
#
# Static dielectric constant tensor:
#      x y z
#    x 1.854620 0.017680 -0.020320 
#    y 0.017680 1.907390 0.080060 
#    z -0.020320 0.080060 2.015060 
# 
# From -- ./inp_files/392201.got.cif
#   From: 2010.05.17/outbox.cif.g08.bks.cpg/sg2_197_cif.got.tgz:392201.got - 2010.06.03 11:33:40.
