data_PCOD9014370
_publ_section_title
;
Structure prediction by ZEFSAII (Michael W. Deem and Ramdas Pophale) SiO2 
 PCOD9014370
Probable space group: P -1
;
_chemical_formula_sum "Si O2"
_cell_formula_units_Z 16
_cell_length_a 9.340447
_cell_length_b 27.395468
_cell_length_c 21.176398
_cell_angle_alpha 17.452305
_cell_angle_beta 28.911771
_cell_angle_gamma 37.291650
_cell_volume 755.967698
_symmetry_space_group_name_H-M "P -1"
_symmetry_group_IT_number 2
_symmetry_cell_setting 'triclinic'
loop_
_space_group_symop_operation_xyz
x,y,z
-x,-y,-z
loop_
_atom_site_type_symbol
_atom_site_label
_atom_site_fract_x
_atom_site_fract_y
_atom_site_fract_z
Si Si1 0.307073 0.122129 0.200482
Si Si2 0.966410 0.081085 0.255874
Si Si3 0.827724 0.099253 0.720759
Si Si4 0.859824 0.945056 0.219238
Si Si5 0.316878 0.559933 0.267457
Si Si6 0.568316 0.252696 0.129032
Si Si7 0.976446 0.353938 0.243239
Si Si8 0.620564 0.783299 0.390250
O O1 0.219166 0.136786 0.143390
O O2 0.592808 0.041794 0.200065
O O3 0.414337 0.308104 0.961143
O O4 0.000000 0.000000 0.500000
O O5 0.800975 0.225523 0.124759
O O6 0.671556 0.924351 0.581213
O O7 0.088466 0.018762 0.220693
O O8 0.851027 0.280300 0.453610
O O9 0.069363 0.112935 0.667749
O O10 0.500000 0.000000 0.000000
O O11 0.762855 0.796733 0.387954
O O12 0.164250 0.073719 0.912808
O O13 0.411022 0.395575 0.410305
O O14 0.000000 0.500000 0.500000
O O15 0.251553 0.660435 0.108118
O O16 0.329391 0.356063 0.112720
O O17 0.728257 0.204083 0.486231
O O18 0.000000 0.500000 0.000000
#
# Coordination Sequence:
#
# PCOD9014370 Si02
#       8
#     2   2   2   2   2   2   2   2
#     4  12  25  43  72 107 138 185 248 286 357 443
#     4  10  23  41  69 103 137 183 237 295 348 423
#     4  11  23  40  71 104 136 182 245 294 349 431
#     4  11  24  44  70 102 135 189 244 291 349 435
#     4  12  24  42  70 101 140 184 228 298 362 417
#     4  10  21  41  67  95 140 180 228 286 353 416
#     4  11  22  41  69  94 137 187 226 287 362 421
#     4  11  24  42  69  99 142 185 236 292 363 425
#
# _framework density 21.164926999999999
#
# number of rings (size 3 to 8) (size 9 to 14) (size 15 to 20)
#    0.000    1.000    5.000    2.250    5.250    0.000 
#    0.000    2.500    0.000    0.000    0.000    0.000 
#    0.000    0.000    0.000    0.000    0.000    0.000 
#
# Total GULP energy -89124.416855 kJ/mol
# GULP energy per Si atom -5570.276053 kJ/mol
# Density = 2.111675 g / cm^3
# Si number density = 21.164927 Si / 1000 Ang^3
#
#
#
# Elastic Constant Matrix: (Units=GPa)
#
#
# Indices 1 2 3 4 5 6 
#
# 1 194.7478 45.5760 55.2879 -14.7857 12.2694 -7.8959
# 2 45.5760 74.0969 42.1376 0.8577 1.0800 -2.4967
# 3 55.2879 42.1376 120.8178 18.2791 8.2627 7.1501
# 4 -14.7857 0.8577 18.2791 44.8142 9.6426 -2.7814
# 5 12.2694 1.0800 8.2627 9.6426 44.3603 -5.4390
# 6 -7.8959 -2.4967 7.1501 -2.7814 -5.4390 37.0446
#
#
#
# Elastic Compliance Matrix: (Units=1/GPa)
#
#
# Indices 1 2 3 4 5 6 
#
# 1 0.007108 -0.002662 -0.002926 0.004144 -0.002022 0.001915
# 2 -0.002662 0.018301 -0.005505 0.000844 0.001377 0.001994
# 3 -0.002926 -0.005505 0.012748 -0.006184 -0.000578 -0.004004
# 4 0.004144 0.000844 -0.006184 0.027603 -0.005600 0.003384
# 5 -0.002022 0.001377 -0.000578 -0.005600 0.024760 0.002988
# 6 0.001915 0.001994 -0.004004 0.003384 0.002988 0.029003
#
#
# Mechanical properties :
#
#
# Convention : Reuss Voigt Hill
#
# Bulk Modulus (GPa) = 62.61203 75.07395 68.84299
# Shear Modulus (GPa) = 34.00625 41.68787 37.84706
#
# Velocity S-wave (km/s) = 4.01275 4.44291 4.23330
# Velocity P-wave (km/s) = 7.14959 7.86557 7.51611
#
# Compressibility (1/GPa) = 0.01597137
#
# Stress axis : x y z
#
# Youngs Moduli (GPa) = 140.68205 54.64219 78.44364
#
# Poissons Ratio (x) = 0.14546 0.22955
# Poissons Ratio (y) = 0.37449 0.43180
# Poissons Ratio (z) = 0.41169 0.30078
#
# Static dielectric constant tensor:
#      x y z
#    x 1.892790 -0.154920 0.003140 
#    y -0.154920 2.139270 -0.004640 
#    z 0.003140 -0.004640 1.780880 
# 
# From -- ./inp_files/592112.got.cif
#   From: 2010.05.17/outbox.cif.g08.bks.cpg/sg2_297_cif.got.tgz:592112.got - 2010.06.03 11:33:40.
