data_PCOD9014594
_publ_section_title
;
Structure prediction by ZEFSAII (Michael W. Deem and Ramdas Pophale) SiO2 
 PCOD9014594
Probable space group: P -1
;
_chemical_formula_sum "Si O2"
_cell_formula_units_Z 16
_cell_length_a 5.499029
_cell_length_b 11.336180
_cell_length_c 13.948868
_cell_angle_alpha 128.324447
_cell_angle_beta 78.126673
_cell_angle_gamma 89.229527
_cell_volume 656.211733
_symmetry_space_group_name_H-M "P -1"
_symmetry_group_IT_number 2
_symmetry_cell_setting 'triclinic'
loop_
_space_group_symop_operation_xyz
x,y,z
-x,-y,-z
loop_
_atom_site_type_symbol
_atom_site_label
_atom_site_fract_x
_atom_site_fract_y
_atom_site_fract_z
Si Si1 0.450831 0.414749 0.658330
Si Si2 0.563587 0.969141 0.773192
Si Si3 0.861453 0.134783 0.695991
Si Si4 0.018639 0.362197 0.171743
Si Si5 0.974988 0.071407 0.933019
Si Si6 0.306076 0.908432 0.517129
Si Si7 0.791166 0.629140 0.637125
Si Si8 0.349368 0.541332 0.128487
O O1 0.554907 0.247030 0.526387
O O2 0.587175 0.534634 0.650569
O O3 0.505142 0.409864 0.765818
O O4 0.155514 0.475545 0.707498
O O5 0.658343 0.783079 0.669736
O O6 0.635020 0.059800 0.719227
O O7 0.265034 0.020975 0.845661
O O8 0.749501 0.026215 0.866022
O O9 0.855520 0.138465 0.582841
O O10 0.851965 0.309260 0.811249
O O11 0.109273 0.021019 0.652489
O O12 0.094456 0.304156 0.242878
O O13 0.243025 0.399977 0.108367
O O14 0.895840 0.251284 0.058335
O O15 0.000000 0.000000 0.000000
O O16 0.500000 0.000000 0.500000
O O17 0.000000 0.500000 0.500000
O O18 0.500000 0.500000 0.000000
#
# Coordination Sequence:
#
# PCOD9014594 Si02
#       8
#     2   2   2   2   2   2   2   2
#     4  10  23  41  66  95 130 173 224 278 343 405
#     4  12  27  46  73 105 139 183 235 286 346 415
#     4  10  23  41  64  99 133 179 233 281 344 408
#     4  11  24  42  69  97 133 180 224 285 346 411
#     4  12  26  46  73  99 142 184 231 287 346 414
#     4  10  21  41  68  93 137 179 227 286 340 410
#     4  11  25  45  68  97 136 177 229 286 346 411
#     4  10  22  41  63  94 133 171 223 281 341 408
#
# _framework density 24.382375
#
# number of rings (size 3 to 8) (size 9 to 14) (size 15 to 20)
#    0.000    1.250    1.250    3.375    7.000    4.000 
#    0.000    0.000    0.000    0.000    0.000    0.000 
#    0.000    0.000    0.000    0.000    0.000    0.000 
#
# Total GULP energy -89351.672672 kJ/mol
# GULP energy per Si atom -5584.479542 kJ/mol
# Density = 2.432688 g / cm^3
# Si number density = 24.382375 Si / 1000 Ang^3
#
#
#
# Elastic Constant Matrix: (Units=GPa)
#
#
# Indices 1 2 3 4 5 6 
#
# 1 78.5000 5.6538 37.9427 -15.1696 2.7406 -6.2416
# 2 5.6538 76.1350 42.2956 -4.2433 12.6080 -12.5383
# 3 37.9427 42.2956 117.1874 -1.8863 -0.6688 -9.2388
# 4 -15.1696 -4.2433 -1.8863 55.5331 1.8470 -3.3101
# 5 2.7406 12.6080 -0.6688 1.8470 39.0654 -8.0866
# 6 -6.2416 -12.5383 -9.2388 -3.3101 -8.0866 27.8519
#
#
#
# Elastic Compliance Matrix: (Units=1/GPa)
#
#
# Indices 1 2 3 4 5 6 
#
# 1 0.016839 0.003410 -0.006362 0.004901 -0.001958 0.003213
# 2 0.003410 0.019032 -0.007524 0.002644 -0.005485 0.005558
# 3 -0.006362 -0.007524 0.013321 -0.001950 0.003261 0.000321
# 4 0.004901 0.002644 -0.001950 0.019742 -0.001424 0.003575
# 5 -0.001958 -0.005485 0.003261 -0.001424 0.028956 0.006412
# 6 0.003213 0.005558 0.000321 0.003575 0.006412 0.041519
#
#
# Mechanical properties :
#
#
# Convention : Reuss Voigt Hill
#
# Bulk Modulus (GPa) = 35.40910 49.28963 42.34937
# Shear Modulus (GPa) = 29.45073 36.88543 33.16808
#
# Velocity S-wave (km/s) = 3.47921 3.89368 3.69227
# Velocity P-wave (km/s) = 5.54020 6.36188 5.96520
#
# Compressibility (1/GPa) = 0.02824133
#
# Stress axis : x y z
#
# Youngs Moduli (GPa) = 59.38545 52.54292 75.06780
#
# Poissons Ratio (x) = -0.17918 0.47758
# Poissons Ratio (y) = -0.20252 0.56480
# Poissons Ratio (z) = 0.37781 0.39532
#
# Static dielectric constant tensor:
#      x y z
#    x 2.007210 -0.060550 0.029510 
#    y -0.060550 1.995310 0.057230 
#    z 0.029510 0.057230 1.981390 
# 
# From -- ./inp_files/68570.got.cif
#   From: 2010.05.17/outbox.cif.g08.bks.cpg/sg2_35_cif.got.tgz:68570.got - 2010.06.03 11:33:40.
