data_PCOD9014527
_publ_section_title
;
Structure prediction by ZEFSAII (Michael W. Deem and Ramdas Pophale) SiO2 
 PCOD9014527
Probable space group: P -1
;
_chemical_formula_sum "Si O2"
_cell_formula_units_Z 16
_cell_length_a 10.235949
_cell_length_b 21.445280
_cell_length_c 13.385683
_cell_angle_alpha 29.993902
_cell_angle_beta 147.041433
_cell_angle_gamma 151.786484
_cell_volume 657.663352
_symmetry_space_group_name_H-M "P -1"
_symmetry_group_IT_number 2
_symmetry_cell_setting 'triclinic'
loop_
_space_group_symop_operation_xyz
x,y,z
-x,-y,-z
loop_
_atom_site_type_symbol
_atom_site_label
_atom_site_fract_x
_atom_site_fract_y
_atom_site_fract_z
Si Si1 0.353405 0.960652 0.068300
Si Si2 0.643019 0.720264 0.139792
Si Si3 0.765123 0.870002 0.796568
Si Si4 0.168682 0.762541 0.503508
Si Si5 0.773473 0.344297 0.517409
Si Si6 0.133511 0.406356 0.252581
Si Si7 0.213622 0.782473 0.881200
Si Si8 0.722222 0.666540 0.869403
O O1 0.210248 0.785350 0.241876
O O2 0.596555 0.048963 0.187503
O O3 0.002109 0.686615 0.970671
O O4 0.104856 0.994954 0.863597
O O5 0.478924 0.536984 0.290848
O O6 0.973507 0.814309 0.260390
O O7 0.642863 0.769519 0.958206
O O8 0.449773 0.749803 0.045921
O O9 0.505964 0.887851 0.574526
O O10 0.790371 0.782166 0.841546
O O11 0.169483 0.661066 0.556219
O O12 0.993007 0.662541 0.625271
O O13 0.451342 0.307708 0.362632
O O14 0.000000 0.500000 0.500000
O O15 0.997618 0.267610 0.280304
O O16 0.000000 0.500000 0.000000
O O17 0.500000 0.000000 0.000000
O O18 0.500000 0.500000 0.000000
#
# Coordination Sequence:
#
# PCOD9014527 Si02
#       8
#     2   2   2   2   2   2   2   2
#     4  12  26  51  72 107 157 199 249 317 382 446
#     4  11  23  44  74 107 149 192 251 300 381 449
#     4  11  22  46  70 101 151 195 241 317 367 442
#     4  11  23  44  71 111 145 193 250 313 364 451
#     4  11  27  45  78 110 143 198 264 303 373 457
#     4  10  21  41  68 104 148 189 242 303 367 439
#     4  11  25  44  73 106 149 202 241 303 384 440
#     4  11  24  43  77 108 148 196 250 315 376 436
#
# _framework density 24.328558000000001
#
# number of rings (size 3 to 8) (size 9 to 14) (size 15 to 20)
#    0.000    1.000    5.000    1.875    7.000    1.000 
#    2.250    1.250    0.000    0.000    0.000    0.000 
#    0.000    0.000    0.000    0.000    0.000    0.000 
#
# Total GULP energy -89448.466534 kJ/mol
# GULP energy per Si atom -5590.529158 kJ/mol
# Density = 2.427319 g / cm^3
# Si number density = 24.328558 Si / 1000 Ang^3
#
#
#
# Elastic Constant Matrix: (Units=GPa)
#
#
# Indices 1 2 3 4 5 6 
#
# 1 160.7162 48.9788 25.3128 20.1541 3.4177 0.6269
# 2 48.9788 112.9720 21.4704 11.5943 -7.4822 -12.3722
# 3 25.3128 21.4704 77.6812 34.0639 2.4656 1.9393
# 4 20.1541 11.5943 34.0639 30.5817 1.9952 6.6361
# 5 3.4177 -7.4822 2.4656 1.9952 36.4454 12.3131
# 6 0.6269 -12.3722 1.9393 6.6361 12.3131 40.5226
#
#
#
# Elastic Compliance Matrix: (Units=1/GPa)
#
#
# Indices 1 2 3 4 5 6 
#
# 1 0.007638 -0.003008 0.000095 -0.003913 -0.001104 -0.000065
# 2 -0.003008 0.011054 -0.001737 -0.001070 0.001654 0.003177
# 3 0.000095 -0.001737 0.026022 -0.029037 -0.001719 0.003500
# 4 -0.003913 -0.001070 -0.029037 0.070282 0.001976 -0.010987
# 5 -0.001104 0.001654 -0.001719 0.001976 0.030975 -0.009131
# 6 -0.000065 0.003177 0.003500 -0.010987 -0.009131 0.030055
#
#
# Mechanical properties :
#
#
# Convention : Reuss Voigt Hill
#
# Bulk Modulus (GPa) = 28.23797 60.32147 44.27972
# Shear Modulus (GPa) = 25.36381 38.55042 31.95712
#
# Velocity S-wave (km/s) = 3.23236 3.98499 3.62824
# Velocity P-wave (km/s) = 5.05599 6.78394 5.98268
#
# Compressibility (1/GPa) = 0.03541331
#
# Stress axis : x y z
#
# Youngs Moduli (GPa) = 130.91717 90.46889 38.42848
#
# Poissons Ratio (x) = 0.27216 -0.00365
# Poissons Ratio (y) = 0.39384 0.06676
# Poissons Ratio (z) = -0.01245 0.15717
#
# Static dielectric constant tensor:
#      x y z
#    x 1.917060 0.002830 0.059790 
#    y 0.002830 2.039070 0.041610 
#    z 0.059790 0.041610 2.029350 
# 
# From -- ./inp_files/402922.got.cif
#   From: 2010.05.17/outbox.cif.g08.bks.cpg/sg2_202_cif.got.tgz:402922.got - 2010.06.03 11:33:40.
