data_PCOD9014730
_publ_section_title
;
Structure prediction by ZEFSAII (Michael W. Deem and Ramdas Pophale) SiO2 
 PCOD9014730
Probable space group: P -1
;
_chemical_formula_sum "Si O2"
_cell_formula_units_Z 14
_cell_length_a 23.739461
_cell_length_b 11.376988
_cell_length_c 8.101263
_cell_angle_alpha 50.991935
_cell_angle_beta 143.621898
_cell_angle_gamma 154.764484
_cell_volume 509.248954
_symmetry_space_group_name_H-M "P -1"
_symmetry_group_IT_number 2
_symmetry_cell_setting 'triclinic'
loop_
_space_group_symop_operation_xyz
x,y,z
-x,-y,-z
loop_
_atom_site_type_symbol
_atom_site_label
_atom_site_fract_x
_atom_site_fract_y
_atom_site_fract_z
Si Si1 0.638452 0.008508 0.497023
Si Si2 0.290939 0.772402 0.214405
Si Si3 0.615720 0.621170 0.000350
Si Si4 0.351729 0.637285 0.873531
Si Si5 0.751230 0.761821 0.669564
Si Si6 0.114958 0.382432 0.846886
Si Si7 0.916169 0.147314 0.024002
O O1 0.664812 0.022753 0.744779
O O2 0.830747 0.193332 0.729986
O O3 0.490356 0.753879 0.234462
O O4 0.587364 0.115873 0.267052
O O5 0.500000 0.000000 0.500000
O O6 0.196338 0.630819 0.933319
O O7 0.135157 0.467962 0.226157
O O8 0.643156 0.480192 0.154125
O O9 0.462858 0.482233 0.635388
O O10 0.822570 0.966645 0.133268
O O11 0.500000 0.500000 0.000000
O O12 0.179327 0.454954 0.746038
O O13 0.835552 0.912713 0.914753
O O14 0.791981 0.642372 0.829294
O O15 0.891727 0.055660 0.628194
#
# Coordination Sequence:
#
# PCOD9014730 Si02
#       7
#     2   2   2   2   2   2   2
#     4  11  24  42  66  97 144 184 222 273 348 408
#     4  11  24  41  70 104 135 180 232 280 337 416
#     4  12  26  43  71 104 135 177 233 288 338 398
#     4  11  23  44  66  99 141 181 220 289 342 403
#     4  10  21  41  71  98 133 177 231 278 346 410
#     4  10  21  41  69 101 130 181 227 281 344 404
#     4  11  23  46  70  99 137 184 228 283 341 408
#
# _framework density 27.491461999999999
#
# number of rings (size 3 to 8) (size 9 to 14) (size 15 to 20)
#    0.000    1.143    4.286    1.714    2.000    1.143 
#    0.000    5.714    0.000    0.000    0.000    0.000 
#    0.000    0.000    0.000    0.000    0.000    0.000 
#
# Total GULP energy -78042.630826 kJ/mol
# GULP energy per Si atom -5574.473630 kJ/mol
# Density = 2.742889 g / cm^3
# Si number density = 27.491462 Si / 1000 Ang^3
#
#
#
# Elastic Constant Matrix: (Units=GPa)
#
#
# Indices 1 2 3 4 5 6 
#
# 1 197.7811 50.8782 14.7899 3.8360 -4.2873 13.7079
# 2 50.8782 87.4187 24.4363 17.8009 5.7370 17.1985
# 3 14.7899 24.4363 98.5601 28.7762 5.4596 -6.0498
# 4 3.8360 17.8009 28.7762 55.0555 -0.0264 12.7170
# 5 -4.2873 5.7370 5.4596 -0.0264 35.7250 -2.1093
# 6 13.7079 17.1985 -6.0498 12.7170 -2.1093 58.3852
#
#
#
# Elastic Compliance Matrix: (Units=1/GPa)
#
#
# Indices 1 2 3 4 5 6 
#
# 1 0.006066 -0.003599 -0.000456 0.001121 0.001341 -0.000607
# 2 -0.003599 0.015694 -0.002657 -0.002608 -0.002760 -0.003585
# 3 -0.000456 -0.002657 0.013180 -0.006853 -0.001429 0.003696
# 4 0.001121 -0.002608 -0.006853 0.023742 0.001303 -0.005329
# 5 0.001341 -0.002760 -0.001429 0.001303 0.028881 0.001110
# 6 -0.000607 -0.003585 0.003696 -0.005329 0.001110 0.019910
#
#
# Mechanical properties :
#
#
# Convention : Reuss Voigt Hill
#
# Bulk Modulus (GPa) = 46.47950 62.66320 54.57135
# Shear Modulus (GPa) = 39.04156 49.41018 44.22587
#
# Velocity S-wave (km/s) = 3.77255 4.24405 4.01523
# Velocity P-wave (km/s) = 5.99331 6.84537 6.43346
#
# Compressibility (1/GPa) = 0.02151486
#
# Stress axis : x y z
#
# Youngs Moduli (GPa) = 164.86614 63.71800 75.87232
#
# Poissons Ratio (x) = 0.22934 0.03463
# Poissons Ratio (y) = 0.59341 0.20156
# Poissons Ratio (z) = 0.07525 0.16927
#
# Static dielectric constant tensor:
#      x y z
#    x 2.228080 0.019410 -0.114310 
#    y 0.019410 2.420950 -0.021640 
#    z -0.114310 -0.021640 2.136070 
# 
# From -- ./inp_files/353443.got.cif
#   From: 2010.05.17/outbox.cif.g08.bks.cpg/sg2_177_cif.got.tgz:353443.got - 2010.06.03 11:33:40.
