data_PCOD9014358
_publ_section_title
;
Structure prediction by ZEFSAII (Michael W. Deem and Ramdas Pophale) SiO2 
 PCOD9014358
Probable space group: P -1
;
_chemical_formula_sum "Si O2"
_cell_formula_units_Z 16
_cell_length_a 13.392845
_cell_length_b 13.938557
_cell_length_c 9.252351
_cell_angle_alpha 151.056405
_cell_angle_beta 56.884774
_cell_angle_gamma 125.585326
_cell_volume 676.750087
_symmetry_space_group_name_H-M "P -1"
_symmetry_group_IT_number 2
_symmetry_cell_setting 'triclinic'
loop_
_space_group_symop_operation_xyz
x,y,z
-x,-y,-z
loop_
_atom_site_type_symbol
_atom_site_label
_atom_site_fract_x
_atom_site_fract_y
_atom_site_fract_z
Si Si1 0.387407 0.184889 0.272397
Si Si2 0.600164 0.818921 0.403940
Si Si3 0.357190 0.579256 0.650134
Si Si4 0.335216 0.537373 0.284709
Si Si5 0.215301 0.859661 0.476167
Si Si6 0.811903 0.154105 0.187422
Si Si7 0.014568 0.036482 0.366743
Si Si8 0.140047 0.489256 0.875672
O O1 0.366107 0.159498 0.425927
O O2 0.374143 0.408471 0.525725
O O3 0.532760 0.215917 0.163170
O O4 0.300912 0.999357 0.009899
O O5 0.453570 0.717250 0.376540
O O6 0.653463 0.021207 0.535029
O O7 0.666126 0.655031 0.065927
O O8 0.359966 0.491826 0.372078
O O9 0.223829 0.607370 0.834512
O O10 0.215726 0.624316 0.498227
O O11 0.194534 0.907620 0.721076
O O12 0.109756 0.928688 0.558517
O O13 0.197417 0.616993 0.140128
O O14 0.934869 0.130921 0.980980
O O15 0.122384 0.248416 0.551015
O O16 0.000000 0.000000 0.500000
O O17 0.000000 0.500000 0.000000
#
# Coordination Sequence:
#
# PCOD9014358 Si02
#       8
#     2   2   2   2   2   2   2   2
#     4  10  22  39  69  94 134 178 221 275 337 400
#     4  10  23  46  64  99 139 177 224 274 340 391
#     4  10  21  41  67  95 132 174 225 275 336 392
#     4  10  25  41  68  99 138 178 222 280 331 403
#     4  11  26  43  69  97 137 179 221 279 330 404
#     4  12  25  42  65 103 133 177 227 272 335 402
#     4  11  25  48  72  96 133 175 227 282 338 397
#     4  10  24  43  69  94 130 174 223 275 337 397
#
# _framework density 23.642405
#
# number of rings (size 3 to 8) (size 9 to 14) (size 15 to 20)
#    0.000    1.500    1.250    1.875    8.750    2.500 
#    0.000    1.250    0.000    0.000    0.000    0.000 
#    0.000    0.000    0.000    0.000    0.000    0.000 
#
# Total GULP energy -89495.697578 kJ/mol
# GULP energy per Si atom -5593.481099 kJ/mol
# Density = 2.358859 g / cm^3
# Si number density = 23.642405 Si / 1000 Ang^3
#
#
#
# Elastic Constant Matrix: (Units=GPa)
#
#
# Indices 1 2 3 4 5 6 
#
# 1 46.8996 13.1862 17.3775 -12.0679 6.9715 -8.9374
# 2 13.1862 66.5079 6.7893 -29.5236 9.9605 9.5153
# 3 17.3775 6.7893 113.7471 -22.7723 -5.3921 0.9663
# 4 -12.0679 -29.5236 -22.7723 43.4957 -1.9001 4.7578
# 5 6.9715 9.9605 -5.3921 -1.9001 43.9534 -3.8460
# 6 -8.9374 9.5153 0.9663 4.7578 -3.8460 39.4784
#
#
#
# Elastic Compliance Matrix: (Units=1/GPa)
#
#
# Indices 1 2 3 4 5 6 
#
# 1 0.026031 -0.004786 -0.003641 0.001208 -0.002851 0.006712
# 2 -0.004786 0.026287 0.002796 0.018883 -0.004935 -0.010244
# 3 -0.003641 0.002796 0.010620 0.006773 0.001326 -0.002445
# 4 0.001208 0.018883 0.006773 0.040621 -0.002724 -0.009605
# 5 -0.002851 -0.004935 0.001326 -0.002724 0.024650 0.003241
# 6 0.006712 -0.010244 -0.002445 -0.009605 0.003241 0.030852
#
#
# Mechanical properties :
#
#
# Convention : Reuss Voigt Hill
#
# Bulk Modulus (GPa) = 19.35202 33.54007 26.44605
# Shear Modulus (GPa) = 26.65947 38.03895 32.34921
#
# Velocity S-wave (km/s) = 3.36164 4.01550 3.70303
# Velocity P-wave (km/s) = 4.82396 5.97630 5.43078
#
# Compressibility (1/GPa) = 0.05167419
#
# Stress axis : x y z
#
# Youngs Moduli (GPa) = 38.41575 38.04211 94.15755
#
# Poissons Ratio (x) = 0.18208 0.34287
# Poissons Ratio (y) = 0.18387 -0.26325
# Poissons Ratio (z) = 0.13989 -0.10636
#
# Static dielectric constant tensor:
#      x y z
#    x 1.974560 0.009280 -0.082610 
#    y 0.009280 1.898920 0.012460 
#    z -0.082610 0.012460 1.930990 
# 
# From -- ./inp_files/316172.got.cif
#   From: 2010.05.17/outbox.cif.g08.bks.cpg/sg2_159_cif.got.tgz:316172.got - 2010.06.03 11:33:40.
