data_PCOD9014303
_publ_section_title
;
Structure prediction by ZEFSAII (Michael W. Deem and Ramdas Pophale) SiO2 
 PCOD9014303
Probable space group: P -1
;
_chemical_formula_sum "Si O2"
_cell_formula_units_Z 16
_cell_length_a 9.339837
_cell_length_b 10.939554
_cell_length_c 20.962202
_cell_angle_alpha 29.580800
_cell_angle_beta 116.297113
_cell_angle_gamma 134.360395
_cell_volume 668.209275
_symmetry_space_group_name_H-M "P -1"
_symmetry_group_IT_number 2
_symmetry_cell_setting 'triclinic'
loop_
_space_group_symop_operation_xyz
x,y,z
-x,-y,-z
loop_
_atom_site_type_symbol
_atom_site_label
_atom_site_fract_x
_atom_site_fract_y
_atom_site_fract_z
Si Si1 0.815625 0.316409 0.378719
Si Si2 0.273379 0.609827 0.107551
Si Si3 0.911598 0.131659 0.701330
Si Si4 0.493254 0.392302 0.288846
Si Si5 0.095892 0.349850 0.325007
Si Si6 0.855217 0.082602 0.138568
Si Si7 0.678449 0.349934 0.551463
Si Si8 0.473361 0.603564 0.364760
O O1 0.958035 0.587616 0.341951
O O2 0.621162 0.294803 0.331805
O O3 0.973325 0.439274 0.294413
O O4 0.702397 0.943560 0.553810
O O5 0.375712 0.447693 0.190470
O O6 0.102424 0.380520 0.237160
O O7 0.500000 0.000000 0.000000
O O8 0.154911 0.655367 0.012013
O O9 0.925174 0.855101 0.846707
O O10 0.084857 0.339216 0.580611
O O11 0.689738 0.062948 0.683308
O O12 0.679350 0.736045 0.213799
O O13 0.352332 0.614575 0.279007
O O14 0.000000 0.000000 0.500000
O O15 0.733805 0.950022 0.244145
O O16 0.483922 0.312801 0.498123
O O17 0.648740 0.427032 0.582206
#
# Coordination Sequence:
#
# PCOD9014303 Si02
#       8
#     2   2   2   2   2   2   2   2
#     4  10  18  29  47  71 103 132 163 208 251 292
#     4  10  18  32  48  72 109 141 162 193 253 316
#     4   9  17  30  47  72  98 129 168 218 248 286
#     4   9  17  30  46  70 102 137 160 192 254 307
#     4  12  20  31  50  80 108 129 169 207 246 304
#     4   9  17  31  49  70 105 134 164 199 252 310
#     4   9  18  29  47  72  96 128 173 214 252 278
#     4  10  17  30  48  73 101 130 165 213 251 288
#
# _framework density 23.944592
#
# number of rings (size 3 to 8) (size 9 to 14) (size 15 to 20)
#    0.000    2.250    5.000    0.000    0.000    0.000 
#    0.000    6.875    0.000    0.000    0.000   33.250 
#    0.000    0.000    0.000    0.000    0.000    0.000 
#
# Total GULP energy -89199.874463 kJ/mol
# GULP energy per Si atom -5574.992154 kJ/mol
# Density = 2.389009 g / cm^3
# Si number density = 23.944592 Si / 1000 Ang^3
#
#
#
# Elastic Constant Matrix: (Units=GPa)
#
#
# Indices 1 2 3 4 5 6 
#
# 1 218.9573 26.2665 65.9376 28.7723 30.8914 7.6169
# 2 26.2665 77.0372 24.4342 21.3880 10.0797 6.1897
# 3 65.9376 24.4342 101.3707 23.8880 32.7123 -2.3088
# 4 28.7723 21.3880 23.8880 48.8140 6.7481 8.9279
# 5 30.8914 10.0797 32.7123 6.7481 49.6434 10.3168
# 6 7.6169 6.1897 -2.3088 8.9279 10.3168 29.9141
#
#
#
# Elastic Compliance Matrix: (Units=1/GPa)
#
#
# Indices 1 2 3 4 5 6 
#
# 1 0.005927 -0.000418 -0.003008 -0.001525 -0.001255 -0.000767
# 2 -0.000418 0.015402 -0.002128 -0.005113 -0.000445 -0.001565
# 3 -0.003008 -0.002128 0.016952 -0.005631 -0.009666 0.007529
# 4 -0.001525 -0.005113 -0.005631 0.027412 0.003729 -0.008455
# 5 -0.001255 -0.000445 -0.009666 0.003729 0.029276 -0.011544
# 6 -0.000767 -0.001565 0.007529 -0.008455 -0.011544 0.041034
#
#
# Mechanical properties :
#
#
# Convention : Reuss Voigt Hill
#
# Bulk Modulus (GPa) = 36.80086 70.07132 53.43609
# Shear Modulus (GPa) = 32.01692 44.38940 38.20316
#
# Velocity S-wave (km/s) = 3.66064 4.31029 3.99868
# Velocity P-wave (km/s) = 5.76798 7.35520 6.60941
#
# Compressibility (1/GPa) = 0.02717328
#
# Stress axis : x y z
#
# Youngs Moduli (GPa) = 168.71652 64.92846 58.99076
#
# Poissons Ratio (x) = 0.02712 0.17744
# Poissons Ratio (y) = 0.07048 0.12553
# Poissons Ratio (z) = 0.50749 0.13817
#
# Static dielectric constant tensor:
#      x y z
#    x 1.936980 0.040390 0.036510 
#    y 0.040390 2.147720 -0.054560 
#    z 0.036510 -0.054560 1.968450 
# 
# From -- ./inp_files/213343.got.cif
#   From: 2010.05.17/outbox.cif.g08.bks.cpg/sg2_107_cif.got.tgz:213343.got - 2010.06.03 11:33:40.
