data_PCOD9014240
_publ_section_title
;
Structure prediction by ZEFSAII (Michael W. Deem and Ramdas Pophale) SiO2 
 PCOD9014240
Probable space group: P -1
;
_chemical_formula_sum "Si O2"
_cell_formula_units_Z 16
_cell_length_a 16.296187
_cell_length_b 7.932572
_cell_length_c 9.771573
_cell_angle_alpha 95.141817
_cell_angle_beta 120.573672
_cell_angle_gamma 48.634878
_cell_volume 754.497650
_symmetry_space_group_name_H-M "P -1"
_symmetry_group_IT_number 2
_symmetry_cell_setting 'triclinic'
loop_
_space_group_symop_operation_xyz
x,y,z
-x,-y,-z
loop_
_atom_site_type_symbol
_atom_site_label
_atom_site_fract_x
_atom_site_fract_y
_atom_site_fract_z
Si Si1 0.107835 0.981750 0.350579
Si Si2 0.394516 0.060675 0.803702
Si Si3 0.151422 0.882425 0.787844
Si Si4 0.323556 0.508845 0.679191
Si Si5 0.126958 0.215011 0.597085
Si Si6 0.598906 0.730878 0.720355
Si Si7 0.781053 0.175925 0.853263
Si Si8 0.569975 0.151508 0.682862
O O1 0.215617 0.713320 0.490449
O O2 0.112229 0.967288 0.190514
O O3 0.151067 0.105751 0.459194
O O4 0.958397 0.126831 0.290380
O O5 0.319876 0.313032 0.684454
O O6 0.270926 0.108266 0.761199
O O7 0.486267 0.851411 0.752720
O O8 0.500000 0.000000 0.000000
O O9 0.282639 0.648654 0.797715
O O10 0.091521 0.106638 0.659721
O O11 0.174222 0.919736 0.961961
O O12 0.475913 0.343786 0.739821
O O13 0.000000 0.500000 0.500000
O O14 0.718682 0.444327 0.824193
O O15 0.530818 0.768646 0.520990
O O16 0.634351 0.886925 0.760393
O O17 0.670154 0.172381 0.724014
#
# Coordination Sequence:
#
# PCOD9014240 Si02
#       8
#     2   2   2   2   2   2   2   2
#     4  11  23  45  65  91 125 180 221 258 320 405
#     4  11  23  38  64 102 135 165 214 285 335 376
#     4  11  25  41  66  95 127 169 222 274 324 382
#     4  10  21  41  67  88 131 165 218 265 321 393
#     4  11  24  44  70  92 127 178 226 262 327 407
#     4  10  22  39  62  95 137 169 213 267 330 391
#     4  12  24  41  67  95 138 167 214 273 340 380
#     4  10  22  39  63  99 124 177 216 257 327 409
#
# _framework density 21.206161000000002
#
# number of rings (size 3 to 8) (size 9 to 14) (size 15 to 20)
#    0.000    1.250    1.250    5.250    7.000    0.500 
#    2.250    0.625    0.000    0.000    0.000    0.000 
#    0.000    0.000    0.000    0.000    0.000    0.000 
#
# Total GULP energy -89380.958254 kJ/mol
# GULP energy per Si atom -5586.309891 kJ/mol
# Density = 2.115789 g / cm^3
# Si number density = 21.206161 Si / 1000 Ang^3
#
#
#
# Elastic Constant Matrix: (Units=GPa)
#
#
# Indices 1 2 3 4 5 6 
#
# 1 72.5259 31.1338 6.3044 11.2746 -1.6225 -20.5487
# 2 31.1338 109.3346 43.4686 9.6093 -9.9382 -9.1700
# 3 6.3044 43.4686 67.2446 25.6900 -10.8808 -13.5609
# 4 11.2746 9.6093 25.6900 20.5646 -5.8928 -8.8973
# 5 -1.6225 -9.9382 -10.8808 -5.8928 32.8645 6.6684
# 6 -20.5487 -9.1700 -13.5609 -8.8973 6.6684 20.9839
#
#
#
# Elastic Compliance Matrix: (Units=1/GPa)
#
#
# Indices 1 2 3 4 5 6 
#
# 1 0.027733 -0.011208 0.017424 -0.022101 -0.005467 0.025886
# 2 -0.011208 0.017717 -0.018568 0.018398 0.003702 -0.008608
# 3 0.017424 -0.018568 0.049992 -0.056048 -0.001926 0.018104
# 4 -0.022101 0.018398 -0.056048 0.124705 0.008185 0.000451
# 5 -0.005467 0.003702 -0.001926 0.008185 0.034648 -0.012520
# 6 0.025886 -0.008608 0.018104 0.000451 -0.012520 0.085113
#
#
# Mechanical properties :
#
#
# Convention : Reuss Voigt Hill
#
# Bulk Modulus (GPa) = 14.13648 45.65762 29.89705
# Shear Modulus (GPa) = 12.88028 26.09580 19.48804
#
# Velocity S-wave (km/s) = 2.46719 3.51176 3.03476
# Velocity P-wave (km/s) = 3.84665 6.16607 5.13893
#
# Compressibility (1/GPa) = 0.07073895
#
# Stress axis : x y z
#
# Youngs Moduli (GPa) = 36.05858 56.44149 20.00329
#
# Poissons Ratio (x) = 0.63259 -0.34854
# Poissons Ratio (y) = 0.40414 0.37142
# Poissons Ratio (z) = -0.62830 1.04800
#
# Static dielectric constant tensor:
#      x y z
#    x 1.795720 -0.001250 0.035490 
#    y -0.001250 1.762940 0.025070 
#    z 0.035490 0.025070 1.979250 
# 
# From -- ./inp_files/329195.got.cif
#   From: 2010.05.17/outbox.cif.g08.bks.cpg/sg2_165_cif.got.tgz:329195.got - 2010.06.03 11:33:40.
