data_PCOD9014557
_publ_section_title
;
Structure prediction by ZEFSAII (Michael W. Deem and Ramdas Pophale) SiO2 
 PCOD9014557
Probable space group: P -1
;
_chemical_formula_sum "Si O2"
_cell_formula_units_Z 16
_cell_length_a 7.155938
_cell_length_b 14.596806
_cell_length_c 7.744217
_cell_angle_alpha 81.319616
_cell_angle_beta 125.685754
_cell_angle_gamma 84.446414
_cell_volume 632.056719
_symmetry_space_group_name_H-M "P -1"
_symmetry_group_IT_number 2
_symmetry_cell_setting 'triclinic'
loop_
_space_group_symop_operation_xyz
x,y,z
-x,-y,-z
loop_
_atom_site_type_symbol
_atom_site_label
_atom_site_fract_x
_atom_site_fract_y
_atom_site_fract_z
Si Si1 0.840962 0.867525 0.197980
Si Si2 0.367212 0.416010 0.487975
Si Si3 0.999188 0.198910 0.350836
Si Si4 0.509111 0.807757 0.782460
Si Si5 0.107731 0.939609 0.908296
Si Si6 0.623701 0.596596 0.881536
Si Si7 0.348620 0.791247 0.322871
Si Si8 0.879183 0.412774 0.283595
O O1 0.828411 0.816142 0.388085
O O2 0.082593 0.809749 0.251762
O O3 0.640418 0.871852 0.946055
O O4 0.850605 0.976174 0.214214
O O5 0.500000 0.500000 0.500000
O O6 0.264754 0.407414 0.244628
O O7 0.551120 0.316869 0.651832
O O8 0.135926 0.426589 0.479954
O O9 0.759186 0.175065 0.302975
O O10 0.936487 0.310639 0.244239
O O11 0.055403 0.123418 0.248884
O O12 0.630194 0.698696 0.932340
O O13 0.496759 0.811165 0.565638
O O14 0.324173 0.862858 0.128936
O O15 0.000000 0.000000 0.000000
O O16 0.341143 0.598823 0.710015
O O17 0.754866 0.505032 0.081553
#
# Coordination Sequence:
#
# PCOD9014557 Si02
#       8
#     2   2   2   2   2   2   2   2
#     4  10  21  41  68  91 126 184 215 287 339 385
#     4  11  24  38  63 100 134 176 222 276 339 406
#     4  10  22  41  62  95 132 165 230 274 335 415
#     4   9  20  40  65  90 131 176 220 276 337 402
#     4  10  22  40  65  93 128 173 223 284 341 398
#     4   9  21  43  63  97 134 177 229 271 333 407
#     4   9  22  41  59  96 133 168 227 274 335 410
#     4  10  22  42  66  94 134 182 219 281 335 395
#
# _framework density 25.314184000000001
#
# number of rings (size 3 to 8) (size 9 to 14) (size 15 to 20)
#    0.000    2.250    0.000    1.500    3.500    6.500 
#    4.500    2.500    0.000    0.000    0.000    0.000 
#    0.000    0.000    0.000    0.000    0.000    0.000 
#
# Total GULP energy -89366.697762 kJ/mol
# GULP energy per Si atom -5585.418610 kJ/mol
# Density = 2.525657 g / cm^3
# Si number density = 25.314184 Si / 1000 Ang^3
#
#
#
# Elastic Constant Matrix: (Units=GPa)
#
#
# Indices 1 2 3 4 5 6 
#
# 1 78.0888 35.7841 29.3261 4.0358 23.6690 -6.5469
# 2 35.7841 125.6617 26.0534 -19.5418 11.8903 4.8690
# 3 29.3261 26.0534 83.8277 -8.9030 12.6080 5.3145
# 4 4.0358 -19.5418 -8.9030 49.0566 5.2673 -1.5838
# 5 23.6690 11.8903 12.6080 5.2673 49.9031 3.2567
# 6 -6.5469 4.8690 5.3145 -1.5838 3.2567 28.3596
#
#
#
# Elastic Compliance Matrix: (Units=1/GPa)
#
#
# Indices 1 2 3 4 5 6 
#
# 1 0.019826 -0.004706 -0.005224 -0.003471 -0.007052 0.006980
# 2 -0.004706 0.010267 -0.000897 0.004267 -0.000281 -0.002411
# 3 -0.005224 -0.000897 0.014714 0.002746 -0.001085 -0.003531
# 4 -0.003471 0.004267 0.002746 0.023118 -0.002473 -0.000473
# 5 -0.007052 -0.000281 -0.001085 -0.002473 0.024266 -0.004301
# 6 0.006980 -0.002411 -0.003531 -0.000473 -0.004301 0.038416
#
#
# Mechanical properties :
#
#
# Convention : Reuss Voigt Hill
#
# Bulk Modulus (GPa) = 43.18715 52.21171 47.69943
# Shear Modulus (GPa) = 31.25411 38.55818 34.90614
#
# Velocity S-wave (km/s) = 3.51757 3.90703 3.71740
# Velocity P-wave (km/s) = 5.79614 6.40496 6.10814
#
# Compressibility (1/GPa) = 0.02315504
#
# Stress axis : x y z
#
# Youngs Moduli (GPa) = 50.43861 97.39651 67.96174
#
# Poissons Ratio (x) = 0.45832 0.35503
# Poissons Ratio (y) = 0.23735 0.06093
# Poissons Ratio (z) = 0.26349 0.08732
#
# Static dielectric constant tensor:
#      x y z
#    x 2.095570 -0.022980 -0.004070 
#    y -0.022980 2.002690 0.045380 
#    z -0.004070 0.045380 1.995590 
# 
# From -- ./inp_files/207455.got.cif
#   From: 2010.05.17/outbox.cif.g08.bks.cpg/sg2_104_cif.got.tgz:207455.got - 2010.06.03 11:33:40.
