data_PCOD9014944
_publ_section_title
;
Structure prediction by ZEFSAII (Michael W. Deem and Ramdas Pophale) SiO2 
 PCOD9014944
Probable space group: P -1
;
_chemical_formula_sum "Si O2"
_cell_formula_units_Z 16
_cell_length_a 11.632103
_cell_length_b 7.574796
_cell_length_c 11.133834
_cell_angle_alpha 128.184102
_cell_angle_beta 62.003893
_cell_angle_gamma 105.175571
_cell_volume 680.297234
_symmetry_space_group_name_H-M "P -1"
_symmetry_group_IT_number 2
_symmetry_cell_setting 'triclinic'
loop_
_space_group_symop_operation_xyz
x,y,z
-x,-y,-z
loop_
_atom_site_type_symbol
_atom_site_label
_atom_site_fract_x
_atom_site_fract_y
_atom_site_fract_z
Si Si1 0.207217 0.524716 0.788833
Si Si2 0.282298 0.838285 0.655060
Si Si3 0.516631 0.552494 0.375174
Si Si4 0.936470 0.443794 0.787991
Si Si5 0.335715 0.289348 0.939386
Si Si6 0.000710 0.858689 0.807383
Si Si7 0.471729 0.729452 0.961721
Si Si8 0.198487 0.889899 0.157044
O O1 0.242212 0.683136 0.724470
O O2 0.335933 0.363600 0.673965
O O3 0.065953 0.427743 0.800012
O O4 0.197312 0.681806 0.975827
O O5 0.391432 0.708626 0.467844
O O6 0.140567 0.903584 0.699571
O O7 0.345179 0.058979 0.767151
O O8 0.500000 0.500000 0.500000
O O9 0.511639 0.321324 0.207385
O O10 0.873932 0.201934 0.727714
O O11 0.991768 0.588799 0.712896
O O12 0.813203 0.616924 0.949150
O O13 0.420181 0.488123 0.930008
O O14 0.396557 0.235155 0.017269
O O15 0.885114 0.931414 0.804146
O O16 0.000000 0.000000 0.000000
O O17 0.351324 0.906442 0.117008
#
# Coordination Sequence:
#
# PCOD9014944 Si02
#       8
#     2   2   2   2   2   2   2   2
#     4   9  16  29  48  74 102 133 169 213 259 312
#     4  10  18  31  52  76 104 134 169 220 263 307
#     4   9  19  34  50  71 106 140 173 212 266 317
#     4  10  18  29  51  75 102 133 171 222 265 305
#     4  10  18  34  53  79 105 136 178 220 265 310
#     4  11  18  29  49  80 105 127 173 230 261 303
#     4   9  21  34  52  75 107 143 176 213 263 325
#     4  10  17  30  49  73 102 136 171 215 270 304
#
# _framework density 23.519131999999999
#
# number of rings (size 3 to 8) (size 9 to 14) (size 15 to 20)
#    0.000    2.250    3.750    0.375    0.000    1.500 
#    0.000   10.000    0.000    8.250    0.000    5.250 
#    0.000    0.000    0.000    2.250    0.000    0.000 
#
# Total GULP energy -89097.008335 kJ/mol
# GULP energy per Si atom -5568.563021 kJ/mol
# Density = 2.346560 g / cm^3
# Si number density = 23.519132 Si / 1000 Ang^3
#
#
#
# Elastic Constant Matrix: (Units=GPa)
#
#
# Indices 1 2 3 4 5 6 
#
# 1 151.0784 31.1054 46.3346 0.1888 -40.4618 -2.4426
# 2 31.1054 78.4123 12.4569 -2.2946 4.6144 -3.0504
# 3 46.3346 12.4569 11.8246 -9.7460 -22.2944 13.4141
# 4 0.1888 -2.2946 -9.7460 9.2095 -3.8991 0.3749
# 5 -40.4618 4.6144 -22.2944 -3.8991 34.3891 -8.2238
# 6 -2.4426 -3.0504 13.4141 0.3749 -8.2238 35.1054
#
#
#
# Elastic Compliance Matrix: (Units=1/GPa)
#
#
# Indices 1 2 3 4 5 6 
#
# 1 0.011677 -0.006174 0.005223 0.012103 0.020004 0.002837
# 2 -0.006174 0.014931 0.004548 0.006134 -0.006195 -0.002387
# 3 0.005223 0.004548 -0.039764 -0.051427 -0.023442 0.011011
# 4 0.012103 0.006134 -0.051427 0.050532 -0.009846 0.018180
# 5 0.020004 -0.006195 -0.023442 -0.009846 0.041849 0.019720
# 6 0.002837 -0.002387 0.011011 0.018180 0.019720 0.028694
#
#
# Mechanical properties :
#
#
# Convention : Reuss Voigt Hill
#
# Bulk Modulus (GPa) = -167.70219 46.78991 -60.45614
# Shear Modulus (GPa) = 50.63976 25.83535 38.23755
#
# Velocity S-wave (km/s) = 4.64522 3.31793 4.03650
# Velocity P-wave (km/s) = 6.53366 5.88352 2.00908
#
# Compressibility (1/GPa) = -0.00596295
#
# Stress axis : x y z
#
# Youngs Moduli (GPa) = 85.64110 66.97419 -25.14824
#
# Poissons Ratio (x) = 0.41353 0.13135
# Poissons Ratio (y) = 0.52878 0.11438
# Poissons Ratio (z) = -0.44731 -0.30460
#
# Static dielectric constant tensor:
#      x y z
#    x 1.990390 -0.049360 -0.035120 
#    y -0.049360 2.001280 -0.048420 
#    z -0.035120 -0.048420 1.919650 
# 
# From -- ./inp_files/418375.got.cif
#   From: 2010.05.17/outbox.cif.g08.bks.cpg/sg2_210_cif.got.tgz:418375.got - 2010.06.03 11:33:40.
