data_PCOD9014732
_publ_section_title
;
Structure prediction by ZEFSAII (Michael W. Deem and Ramdas Pophale) SiO2 
 PCOD9014732
Probable space group: P -1
;
_chemical_formula_sum "Si O2"
_cell_formula_units_Z 16
_cell_length_a 8.901755
_cell_length_b 14.500093
_cell_length_c 12.111044
_cell_angle_alpha 142.416880
_cell_angle_beta 52.539583
_cell_angle_gamma 105.143738
_cell_volume 673.565325
_symmetry_space_group_name_H-M "P -1"
_symmetry_group_IT_number 2
_symmetry_cell_setting 'triclinic'
loop_
_space_group_symop_operation_xyz
x,y,z
-x,-y,-z
loop_
_atom_site_type_symbol
_atom_site_label
_atom_site_fract_x
_atom_site_fract_y
_atom_site_fract_z
Si Si1 0.567795 0.930990 0.027770
Si Si2 0.239135 0.883537 0.739046
Si Si3 0.885890 0.849615 0.132047
Si Si4 0.883578 0.013810 0.678699
Si Si5 0.906723 0.699357 0.511891
Si Si6 0.288169 0.531374 0.687843
Si Si7 0.469874 0.487896 0.804533
Si Si8 0.343445 0.372096 0.976929
O O1 0.374305 0.900438 0.129474
O O2 0.609332 0.066563 0.206878
O O3 0.795131 0.771073 0.748248
O O4 0.500000 0.000000 0.000000
O O5 0.327389 0.682351 0.494939
O O6 0.000000 0.000000 0.000000
O O7 0.224181 0.975665 0.718116
O O8 0.096477 0.676822 0.839783
O O9 0.710120 0.784000 0.157664
O O10 0.007634 0.892840 0.213780
O O11 0.929792 0.840828 0.560793
O O12 0.000000 0.000000 0.500000
O O13 0.759968 0.628936 0.450353
O O14 0.134463 0.540756 0.266438
O O15 0.500000 0.500000 0.500000
O O16 0.319384 0.556325 0.828715
O O17 0.501725 0.631260 0.996465
O O18 0.394526 0.409743 0.866198
#
# Coordination Sequence:
#
# PCOD9014732 Si02
#       8
#     2   2   2   2   2   2   2   2
#     4  10  21  41  69 101 135 184 236 285 351 421
#     4  12  24  44  73 101 143 185 232 298 357 425
#     4  11  26  42  64 103 138 177 237 285 354 415
#     4  11  24  40  67 102 142 184 236 292 348 422
#     4  10  22  44  68  97 140 182 234 286 359 419
#     4  11  24  43  72 103 139 182 238 294 354 432
#     4  11  24  45  70  97 140 185 239 283 372 417
#     4  10  25  44  68  97 138 189 230 300 349 436
#
# _framework density 23.754192
#
# number of rings (size 3 to 8) (size 9 to 14) (size 15 to 20)
#    0.000    1.250    0.000    6.000    5.250    3.500 
#    2.250    3.125    0.000    0.000    0.000    0.000 
#    0.000    0.000    0.000    0.000    0.000    0.000 
#
# Total GULP energy -89227.098206 kJ/mol
# GULP energy per Si atom -5576.693638 kJ/mol
# Density = 2.370013 g / cm^3
# Si number density = 23.754192 Si / 1000 Ang^3
#
#
#
# Elastic Constant Matrix: (Units=GPa)
#
#
# Indices 1 2 3 4 5 6 
#
# 1 108.6142 34.2528 12.9654 -4.9012 26.2783 15.5794
# 2 34.2528 92.1057 22.1908 -4.7197 11.0989 13.5822
# 3 12.9654 22.1908 58.1291 -12.2676 6.7611 3.7034
# 4 -4.9012 -4.7197 -12.2676 41.1974 -1.6030 -6.7889
# 5 26.2783 11.0989 6.7611 -1.6030 27.1127 18.9331
# 6 15.5794 13.5822 3.7034 -6.7889 18.9331 44.6692
#
#
#
# Elastic Compliance Matrix: (Units=1/GPa)
#
#
# Indices 1 2 3 4 5 6 
#
# 1 0.013157 -0.003617 -0.000006 0.000989 -0.012613 0.002008
# 2 -0.003617 0.013553 -0.004449 -0.000666 0.001189 -0.003096
# 3 -0.000006 -0.004449 0.020521 0.005835 -0.004720 0.002541
# 4 0.000989 -0.000666 0.005835 0.026749 -0.004206 0.005222
# 5 -0.012613 0.001189 -0.004720 -0.004206 0.066622 -0.024448
# 6 0.002008 -0.003096 0.002541 0.005222 -0.024448 0.033573
#
#
# Mechanical properties :
#
#
# Convention : Reuss Voigt Hill
#
# Bulk Modulus (GPa) = 32.16694 44.18524 38.17609
# Shear Modulus (GPa) = 24.91516 35.22521 30.07019
#
# Velocity S-wave (km/s) = 3.24215 3.85503 3.56179
# Velocity P-wave (km/s) = 5.25227 6.20132 5.74642
#
# Compressibility (1/GPa) = 0.03108782
#
# Stress axis : x y z
#
# Youngs Moduli (GPa) = 76.00804 73.78405 48.72976
#
# Poissons Ratio (x) = 0.26686 0.00029
# Poissons Ratio (y) = 0.27491 0.21679
# Poissons Ratio (z) = 0.00045 0.32826
#
# Static dielectric constant tensor:
#      x y z
#    x 1.863650 0.122780 -0.094450 
#    y 0.122780 1.741770 0.080630 
#    z -0.094450 0.080630 1.993700 
# 
# From -- ./inp_files/399741.got.cif
#   From: 2010.05.17/outbox.cif.g08.bks.cpg/sg2_200_cif.got.tgz:399741.got - 2010.06.03 11:33:40.
