data_PCOD9014298
_publ_section_title
;
Structure prediction by ZEFSAII (Michael W. Deem and Ramdas Pophale) SiO2 
 PCOD9014298
Probable space group: P -1
;
_chemical_formula_sum "Si O2"
_cell_formula_units_Z 16
_cell_length_a 15.420288
_cell_length_b 9.842716
_cell_length_c 23.213101
_cell_angle_alpha 55.153948
_cell_angle_beta 163.006971
_cell_angle_gamma 116.502831
_cell_volume 767.800330
_symmetry_space_group_name_H-M "P -1"
_symmetry_group_IT_number 2
_symmetry_cell_setting 'triclinic'
loop_
_space_group_symop_operation_xyz
x,y,z
-x,-y,-z
loop_
_atom_site_type_symbol
_atom_site_label
_atom_site_fract_x
_atom_site_fract_y
_atom_site_fract_z
Si Si1 0.622925 0.594788 0.261272
Si Si2 0.690814 0.864387 0.813646
Si Si3 0.389086 0.403748 0.259060
Si Si4 0.486728 0.696502 0.926730
Si Si5 0.670241 0.950910 0.181846
Si Si6 0.629860 0.293038 0.273973
Si Si7 0.625566 0.237962 0.680248
Si Si8 0.204445 0.636896 0.357872
O O1 0.531063 0.518177 0.280160
O O2 0.533275 0.808984 0.156343
O O3 0.476572 0.507977 0.139948
O O4 0.000000 0.500000 0.500000
O O5 0.576887 0.773763 0.712002
O O6 0.633503 0.777809 0.856791
O O7 0.504253 0.079707 0.644611
O O8 0.077632 0.811393 0.073429
O O9 0.584287 0.360605 0.452942
O O10 0.000000 0.500000 0.000000
O O11 0.844025 0.676195 0.139890
O O12 0.500000 0.500000 0.000000
O O13 0.271629 0.746665 0.719710
O O14 0.376616 0.862757 0.861269
O O15 0.057489 0.824904 0.459688
O O16 0.500000 0.000000 0.000000
O O17 0.357845 0.433988 0.478367
O O18 0.754401 0.240214 0.696849
#
# Coordination Sequence:
#
# PCOD9014298 Si02
#       8
#     2   2   2   2   2   2   2   2
#     4   9  22  42  70  90 132 173 217 269 336 387
#     4  10  21  41  67  93 127 170 213 261 332 390
#     4  11  23  41  66  99 129 171 217 272 327 392
#     4  12  27  41  65  97 133 172 223 271 326 390
#     4  11  25  43  64  96 129 174 220 270 331 393
#     4  10  22  44  65  93 128 169 220 270 328 391
#     4  10  22  43  66  93 130 169 209 268 326 391
#     4  11  25  42  65  94 132 166 222 267 323 389
#
# _framework density 20.838750000000001
#
# number of rings (size 3 to 8) (size 9 to 14) (size 15 to 20)
#    0.000    1.500    2.500    1.125   10.500    2.500 
#    2.250    0.000    0.000    0.000    0.000    0.000 
#    0.000    0.000    0.000    0.000    0.000    0.000 
#
# Total GULP energy -89168.494459 kJ/mol
# GULP energy per Si atom -5573.030904 kJ/mol
# Density = 2.079132 g / cm^3
# Si number density = 20.838750 Si / 1000 Ang^3
#
#
#
# Elastic Constant Matrix: (Units=GPa)
#
#
# Indices 1 2 3 4 5 6 
#
# 1 64.3143 40.9513 7.8069 15.2822 -8.0593 -14.3281
# 2 40.9513 161.1099 4.7161 -11.7051 -16.1781 1.3255
# 3 7.8069 4.7161 52.8313 16.6407 -7.5182 -9.4819
# 4 15.2822 -11.7051 16.6407 23.1694 -7.9107 2.1970
# 5 -8.0593 -16.1781 -7.5182 -7.9107 32.7209 9.1871
# 6 -14.3281 1.3255 -9.4819 2.1970 9.1871 28.6867
#
#
#
# Elastic Compliance Matrix: (Units=1/GPa)
#
#
# Indices 1 2 3 4 5 6 
#
# 1 0.053375 -0.022801 0.023725 -0.077070 -0.025216 0.049533
# 2 -0.022801 0.017339 -0.013403 0.041638 0.017037 -0.025265
# 3 0.023725 -0.013403 0.039401 -0.059515 -0.015995 0.035173
# 4 -0.077070 0.041638 -0.059515 0.186892 0.059339 -0.093407
# 5 -0.025216 0.017037 -0.015995 0.059339 0.054900 -0.040795
# 6 0.049533 -0.025265 0.035173 -0.093407 -0.040795 0.092611
#
#
# Mechanical properties :
#
#
# Convention : Reuss Voigt Hill
#
# Bulk Modulus (GPa) = 11.74295 42.80045 27.27170
# Shear Modulus (GPa) = 10.04295 31.90083 20.97189
#
# Velocity S-wave (km/s) = 2.19769 3.91684 3.17581
# Velocity P-wave (km/s) = 3.47666 6.40617 5.15394
#
# Compressibility (1/GPa) = 0.08515750
#
# Stress axis : x y z
#
# Youngs Moduli (GPa) = 18.73532 57.67490 25.37987
#
# Poissons Ratio (x) = 1.31502 -0.60214
# Poissons Ratio (y) = 0.42717 0.34017
# Poissons Ratio (z) = -0.44450 0.77304
#
# Static dielectric constant tensor:
#      x y z
#    x 1.802120 0.006880 0.025620 
#    y 0.006880 1.829320 0.032780 
#    z 0.025620 0.032780 1.775560 
# 
# From -- ./inp_files/187298.got.cif
#   From: 2010.05.17/outbox.cif.g08.bks.cpg/sg2_94_cif.got.tgz:187298.got - 2010.06.03 11:33:40.
