data_PCOD9014003
_publ_section_title
;
Structure prediction by ZEFSAII (Michael W. Deem and Ramdas Pophale) SiO2 
 PCOD9014003
Probable space group: P -1
;
_chemical_formula_sum "Si O2"
_cell_formula_units_Z 16
_cell_length_a 12.302452
_cell_length_b 18.265121
_cell_length_c 14.312827
_cell_angle_alpha 161.413292
_cell_angle_beta 142.153270
_cell_angle_gamma 42.103103
_cell_volume 628.614171
_symmetry_space_group_name_H-M "P -1"
_symmetry_group_IT_number 2
_symmetry_cell_setting 'triclinic'
loop_
_space_group_symop_operation_xyz
x,y,z
-x,-y,-z
loop_
_atom_site_type_symbol
_atom_site_label
_atom_site_fract_x
_atom_site_fract_y
_atom_site_fract_z
Si Si1 0.562973 0.939333 0.828017
Si Si2 0.202835 0.276008 0.710895
Si Si3 0.181779 0.410961 0.470490
Si Si4 0.413754 0.838262 0.092634
Si Si5 0.984437 0.015390 0.639833
Si Si6 0.257350 0.625061 0.316008
Si Si7 0.668448 0.671205 0.324829
Si Si8 0.739920 0.770424 0.018613
O O1 0.755774 0.821683 0.824314
O O2 0.428177 0.723635 0.495249
O O3 0.559120 0.061141 0.871100
O O4 0.442207 0.132991 0.031849
O O5 0.407444 0.248261 0.844890
O O6 0.109209 0.033828 0.384249
O O7 0.194303 0.372157 0.717439
O O8 0.144562 0.467039 0.975921
O O9 0.274405 0.359149 0.568360
O O10 0.000000 0.500000 0.500000
O O11 0.268677 0.632905 0.746852
O O12 0.363329 0.059713 0.385711
O O13 0.833269 0.942457 0.370692
O O14 0.140634 0.833317 0.519908
O O15 0.097848 0.240205 0.957471
O O16 0.299989 0.463439 0.236330
O O17 0.500000 0.500000 0.000000
#
# Coordination Sequence:
#
# PCOD9014003 Si02
#       8
#     2   2   2   2   2   2   2   2
#     4  10  17  30  53  72 103 142 181 222 276 321
#     4  11  17  32  49  76 114 145 178 223 276 330
#     4  11  24  40  56  80 110 148 197 238 276 330
#     4  11  20  36  55  79 109 149 185 231 279 329
#     4   9  18  26  44  75 113 148 174 220 277 335
#     4  10  17  30  47  78 115 146 180 219 278 337
#     4  11  23  37  56  83 109 151 189 228 284 340
#     4   9  15  27  41  69 106 140 175 212 271 327
#
# _framework density 25.452817
#
# number of rings (size 3 to 8) (size 9 to 14) (size 15 to 20)
#    0.000    1.750    5.000    2.625    0.000    2.000 
#    2.250    0.000    0.000    0.000    0.000    3.500 
#    0.000   13.000    0.000    0.000    0.000    0.000 
#
# Total GULP energy -89173.475639 kJ/mol
# GULP energy per Si atom -5573.342227 kJ/mol
# Density = 2.539488 g / cm^3
# Si number density = 25.452817 Si / 1000 Ang^3
#
#
#
# Elastic Constant Matrix: (Units=GPa)
#
#
# Indices 1 2 3 4 5 6 
#
# 1 128.3879 9.1659 38.8282 -2.5952 48.0659 4.4834
# 2 9.1659 92.8557 39.2076 23.0209 3.9091 -20.6337
# 3 38.8282 39.2076 81.0335 18.2980 24.1006 -0.0679
# 4 -2.5952 23.0209 18.2980 33.1966 0.3125 -0.9338
# 5 48.0659 3.9091 24.1006 0.3125 53.5128 11.6737
# 6 4.4834 -20.6337 -0.0679 -0.9338 11.6737 53.8021
#
#
#
# Elastic Compliance Matrix: (Units=1/GPa)
#
#
# Indices 1 2 3 4 5 6 
#
# 1 0.012713 0.000385 -0.004014 0.003069 -0.009940 0.001293
# 2 0.000385 0.016845 -0.006575 -0.007851 0.000064 0.006270
# 3 -0.004014 -0.006575 0.020463 -0.007023 -0.004820 -0.001238
# 4 0.003069 -0.007851 -0.007023 0.039585 0.001378 -0.002888
# 5 -0.009940 0.000064 -0.004820 0.001378 0.031053 -0.005867
# 6 0.001293 0.006270 -0.001238 -0.002888 -0.005867 0.022105
#
#
# Mechanical properties :
#
#
# Convention : Reuss Voigt Hill
#
# Bulk Modulus (GPa) = 33.76903 52.96450 43.36677
# Shear Modulus (GPa) = 28.89432 42.44066 35.66749
#
# Velocity S-wave (km/s) = 3.37294 4.08784 3.74748
# Velocity P-wave (km/s) = 5.33527 6.56770 5.98330
#
# Compressibility (1/GPa) = 0.02961293
#
# Stress axis : x y z
#
# Youngs Moduli (GPa) = 78.65675 59.36528 48.86771
#
# Poissons Ratio (x) = -0.02283 0.19614
# Poissons Ratio (y) = -0.03025 0.32132
# Poissons Ratio (z) = 0.31570 0.39034
#
# Static dielectric constant tensor:
#      x y z
#    x 2.235840 -0.124560 -0.153810 
#    y -0.124560 2.090060 0.094190 
#    z -0.153810 0.094190 2.138360 
# 
# From -- ./inp_files/570626.got.cif
#   From: 2010.05.17/outbox.cif.g08.bks.cpg/sg2_286_cif.got.tgz:570626.got - 2010.06.03 11:33:40.
