data_PCOD9014771
_publ_section_title
;
Structure prediction by ZEFSAII (Michael W. Deem and Ramdas Pophale) SiO2 
 PCOD9014771
Probable space group: P -1
;
_chemical_formula_sum "Si O2"
_cell_formula_units_Z 11
_cell_length_a 4.950478
_cell_length_b 14.456050
_cell_length_c 7.129047
_cell_angle_alpha 65.522198
_cell_angle_beta 70.581511
_cell_angle_gamma 57.102786
_cell_volume 386.002581
_symmetry_space_group_name_H-M "P -1"
_symmetry_group_IT_number 2
_symmetry_cell_setting 'triclinic'
loop_
_space_group_symop_operation_xyz
x,y,z
-x,-y,-z
loop_
_atom_site_type_symbol
_atom_site_label
_atom_site_fract_x
_atom_site_fract_y
_atom_site_fract_z
Si Si1 0.183197 0.829775 0.699908
Si Si2 0.764639 0.872979 0.421868
Si Si3 0.502298 0.579364 0.695703
Si Si4 0.192630 0.425336 0.761367
Si Si5 0.500000 0.000000 0.000000
Si Si6 0.714976 0.189844 0.904180
O O1 0.063925 0.865115 0.912482
O O2 0.279767 0.697264 0.753635
O O3 0.065140 0.778673 0.310824
O O4 0.932648 0.899611 0.536433
O O5 0.511941 0.836413 0.590400
O O6 0.609231 0.971436 0.220834
O O7 0.807761 0.482853 0.819476
O O8 0.686352 0.605273 0.457076
O O9 0.296545 0.520346 0.716613
O O10 0.395908 0.307337 0.927046
O O11 0.607690 0.106163 0.895187
#
# Coordination Sequence:
#
# PCOD9014771 Si02
#       6
#     2   2   2   2   1   2
#     4  12  28  47  81 111 154 190 252 297 380 435
#     4  12  27  53  73 112 150 192 247 319 356 454
#     4  10  21  41  69 109 143 200 230 301 358 443
#     4  10  22  39  73 100 153 189 243 290 372 423
#     4  12  28  54  80 104 152 196 250 310 388 418
#     4  12  29  49  79 111 148 202 245 314 365 447
#
# _framework density 28.497219999999999
#
# number of rings (size 3 to 8) (size 9 to 14) (size 15 to 20)
#    0.000    0.727    3.636    1.636   10.182    2.909 
#    0.000    0.000    0.000    0.000    0.000    0.000 
#    0.000    0.000    0.000    0.000    0.000    0.000 
#
# Total GULP energy -61638.704450 kJ/mol
# GULP energy per Si atom -5603.518586 kJ/mol
# Density = 2.843236 g / cm^3
# Si number density = 28.497220 Si / 1000 Ang^3
#
#
#
# Elastic Constant Matrix: (Units=GPa)
#
#
# Indices 1 2 3 4 5 6 
#
# 1 194.9222 22.5774 57.2851 4.2479 10.4734 9.1133
# 2 22.5774 120.0188 23.6337 -1.6961 9.4849 13.6759
# 3 57.2851 23.6337 151.4561 17.9964 12.0017 3.9488
# 4 4.2479 -1.6961 17.9964 49.7121 -4.7637 5.7395
# 5 10.4734 9.4849 12.0017 -4.7637 61.7697 -9.5390
# 6 9.1133 13.6759 3.9488 5.7395 -9.5390 52.5794
#
#
#
# Elastic Compliance Matrix: (Units=1/GPa)
#
#
# Indices 1 2 3 4 5 6 
#
# 1 0.005878 -0.000541 -0.002101 0.000280 -0.000617 -0.000863
# 2 -0.000541 0.009072 -0.001144 0.000929 -0.001399 -0.002535
# 3 -0.002101 -0.001144 0.008013 -0.002895 -0.001224 0.000154
# 4 0.000280 0.000929 -0.002895 0.021580 0.001710 -0.002118
# 5 -0.000617 -0.001399 -0.001224 0.001710 0.017425 0.003537
# 6 -0.000863 -0.002535 0.000154 -0.002118 0.003537 0.020689
#
#
# Mechanical properties :
#
#
# Convention : Reuss Voigt Hill
#
# Bulk Modulus (GPa) = 64.97683 74.82106 69.89894
# Shear Modulus (GPa) = 52.43414 57.00565 54.71989
#
# Velocity S-wave (km/s) = 4.29415 4.47743 4.38674
# Velocity P-wave (km/s) = 6.88744 7.28302 7.08799
#
# Compressibility (1/GPa) = 0.01539010
#
# Stress axis : x y z
#
# Youngs Moduli (GPa) = 170.13653 110.23336 124.80186
#
# Poissons Ratio (x) = 0.05964 0.26216
# Poissons Ratio (y) = 0.09204 0.14282
# Poissons Ratio (z) = 0.35739 0.12615
#
# Static dielectric constant tensor:
#      x y z
#    x 1.926270 0.201400 0.118250 
#    y 0.201400 1.774900 -0.049630 
#    z 0.118250 -0.049630 2.173450 
# 
# From -- ./inp_files/139767.got.cif
#   From: 2010.05.17/outbox.cif.g08.bks.cpg/sg2_70_cif.got.tgz:139767.got - 2010.06.03 11:33:40.
