data_PCOD9014933
_publ_section_title
;
Structure prediction by ZEFSAII (Michael W. Deem and Ramdas Pophale) SiO2 
 PCOD9014933
Probable space group: P -1
;
_chemical_formula_sum "Si O2"
_cell_formula_units_Z 16
_cell_length_a 15.375536
_cell_length_b 6.614940
_cell_length_c 18.420064
_cell_angle_alpha 43.117187
_cell_angle_beta 35.745200
_cell_angle_gamma 45.201283
_cell_volume 717.923720
_symmetry_space_group_name_H-M "P -1"
_symmetry_group_IT_number 2
_symmetry_cell_setting 'triclinic'
loop_
_space_group_symop_operation_xyz
x,y,z
-x,-y,-z
loop_
_atom_site_type_symbol
_atom_site_label
_atom_site_fract_x
_atom_site_fract_y
_atom_site_fract_z
Si Si1 0.155848 0.354153 0.746909
Si Si2 0.619084 0.378989 0.544930
Si Si3 0.170373 0.278114 0.924757
Si Si4 0.095929 0.305025 0.274233
Si Si5 0.162304 0.629219 0.461289
Si Si6 0.647404 0.226503 0.303617
Si Si7 0.551711 0.765800 0.706675
Si Si8 0.632131 0.401921 0.996261
O O1 0.271756 0.567736 0.607163
O O2 0.163118 0.225150 0.856526
O O3 0.990564 0.553486 0.778163
O O4 0.218102 0.089533 0.713040
O O5 0.727655 0.326893 0.557080
O O6 0.479609 0.691141 0.568205
O O7 0.550061 0.096094 0.653056
O O8 0.278800 0.491359 0.817386
O O9 0.000000 0.500000 0.000000
O O10 0.245017 0.943039 0.997986
O O11 0.260863 0.369818 0.143814
O O12 0.983798 0.448841 0.381112
O O13 0.108668 0.947446 0.370292
O O14 0.271337 0.388054 0.396615
O O15 0.548930 0.222775 0.299585
O O16 0.470322 0.590965 0.864088
O O17 0.500000 0.500000 0.000000
#
# Coordination Sequence:
#
# PCOD9014933 Si02
#       8
#     2   2   2   2   2   2   2   2
#     4  11  24  43  69 101 136 184 226 283 346 411
#     4  10  21  41  70 102 136 171 232 285 345 409
#     4  12  28  45  66 101 146 184 234 289 342 421
#     4  10  23  44  72  99 142 182 232 280 350 418
#     4   9  22  45  70 102 136 181 228 290 339 415
#     4  11  22  42  68  97 135 178 225 285 344 406
#     4  11  23  42  72 101 139 179 226 290 349 407
#     4  12  26  46  71 103 140 185 233 289 345 419
#
# _framework density 22.286490000000001
#
# number of rings (size 3 to 8) (size 9 to 14) (size 15 to 20)
#    0.000    1.250    2.500    1.875    3.500    8.500 
#    0.000   10.000    0.000    0.000    0.000    0.000 
#    0.000    0.000    0.000    0.000    0.000    0.000 
#
# Total GULP energy -89384.771529 kJ/mol
# GULP energy per Si atom -5586.548221 kJ/mol
# Density = 2.223576 g / cm^3
# Si number density = 22.286490 Si / 1000 Ang^3
#
#
#
# Elastic Constant Matrix: (Units=GPa)
#
#
# Indices 1 2 3 4 5 6 
#
# 1 90.0571 21.8339 23.7706 -1.1366 5.9200 -12.5595
# 2 21.8339 82.1736 14.7725 18.9609 11.4098 -11.4421
# 3 23.7706 14.7725 102.3114 9.7771 -3.9799 10.0580
# 4 -1.1366 18.9609 9.7771 35.2624 -5.2527 1.5308
# 5 5.9200 11.4098 -3.9799 -5.2527 25.0529 -13.5101
# 6 -12.5595 -11.4421 10.0580 1.5308 -13.5101 28.8745
#
#
#
# Elastic Compliance Matrix: (Units=1/GPa)
#
#
# Indices 1 2 3 4 5 6 
#
# 1 0.013635 -0.002992 -0.003613 0.003029 0.001809 0.006690
# 2 -0.002992 0.017045 -0.001373 -0.010180 -0.007916 0.002767
# 3 -0.003613 -0.001373 0.011641 -0.002419 -0.000585 -0.006316
# 4 0.003029 -0.010180 -0.002419 0.036333 0.012177 0.001898
# 5 0.001809 -0.007916 -0.000585 0.012177 0.058913 0.024773
# 6 0.006690 0.002767 -0.006316 0.001898 0.024773 0.052329
#
#
# Mechanical properties :
#
#
# Convention : Reuss Voigt Hill
#
# Bulk Modulus (GPa) = 37.92880 43.92180 40.92530
# Shear Modulus (GPa) = 23.29486 32.11562 27.70524
#
# Velocity S-wave (km/s) = 3.23653 3.80022 3.52964
# Velocity P-wave (km/s) = 5.56979 6.24549 5.91729
#
# Compressibility (1/GPa) = 0.02636519
#
# Stress axis : x y z
#
# Youngs Moduli (GPa) = 73.33887 58.66960 85.90364
#
# Poissons Ratio (x) = 0.17555 0.31034
# Poissons Ratio (y) = 0.21945 0.11794
# Poissons Ratio (z) = 0.26495 0.08055
#
# Static dielectric constant tensor:
#      x y z
#    x 1.820180 -0.016370 -0.000050 
#    y -0.016370 1.892230 0.046240 
#    z -0.000050 0.046240 1.865740 
# 
# From -- ./inp_files/571587.got.cif
#   From: 2010.05.17/outbox.cif.g08.bks.cpg/sg2_286_cif.got.tgz:571587.got - 2010.06.03 11:33:40.
