data_PCOD9014276
_publ_section_title
;
Structure prediction by ZEFSAII (Michael W. Deem and Ramdas Pophale) SiO2 
 PCOD9014276
Probable space group: P -1
;
_chemical_formula_sum "Si O2"
_cell_formula_units_Z 16
_cell_length_a 11.252998
_cell_length_b 11.142484
_cell_length_c 20.621115
_cell_angle_alpha 37.501209
_cell_angle_beta 149.861324
_cell_angle_gamma 123.397527
_cell_volume 708.242522
_symmetry_space_group_name_H-M "P -1"
_symmetry_group_IT_number 2
_symmetry_cell_setting 'triclinic'
loop_
_space_group_symop_operation_xyz
x,y,z
-x,-y,-z
loop_
_atom_site_type_symbol
_atom_site_label
_atom_site_fract_x
_atom_site_fract_y
_atom_site_fract_z
Si Si1 0.773240 0.427291 0.917381
Si Si2 0.806119 0.737414 0.194373
Si Si3 0.908402 0.216481 0.933604
Si Si4 0.561928 0.059529 0.753056
Si Si5 0.192544 0.970600 0.815901
Si Si6 0.748689 0.313277 0.382511
Si Si7 0.966509 0.514572 0.721362
Si Si8 0.727592 0.219155 0.268145
O O1 0.801695 0.312963 0.911184
O O2 0.487686 0.629617 0.703891
O O3 0.805374 0.253586 0.063253
O O4 0.000000 0.500000 0.000000
O O5 0.826488 0.514407 0.333053
O O6 0.948120 0.649570 0.230282
O O7 0.899616 0.862330 0.237685
O O8 0.495365 0.903417 0.969012
O O9 0.718492 0.120143 0.855894
O O10 0.911973 0.397382 0.807237
O O11 0.215290 0.037590 0.156207
O O12 0.303038 0.273234 0.517076
O O13 0.472994 0.872677 0.812279
O O14 0.998037 0.089691 0.614515
O O15 0.644364 0.306544 0.264388
O O16 0.186161 0.605873 0.798738
O O17 0.000000 0.000000 0.500000
#
# Coordination Sequence:
#
# PCOD9014276 Si02
#       8
#     2   2   2   2   2   2   2   2
#     4  11  26  43  61  92 132 169 222 260 302 393
#     4   9  21  39  62  99 128 153 215 268 317 382
#     4  11  25  41  64  94 127 176 211 260 326 372
#     4  10  23  41  62  94 129 162 217 266 314 385
#     4  10  22  40  64  92 128 166 208 265 319 379
#     4  10  21  41  67  92 124 174 206 258 329 375
#     4  10  22  40  67  95 127 167 209 269 323 381
#     4   9  20  41  65  98 125 158 214 271 316 380
#
# _framework density 22.591131000000001
#
# number of rings (size 3 to 8) (size 9 to 14) (size 15 to 20)
#    0.000    2.000    0.000    1.500    5.250    7.000 
#    6.750    0.000    0.000    0.000    0.000    0.000 
#    0.000    0.000    0.000    0.000    0.000    0.000 
#
# Total GULP energy -89508.798597 kJ/mol
# GULP energy per Si atom -5594.299912 kJ/mol
# Density = 2.253971 g / cm^3
# Si number density = 22.591131 Si / 1000 Ang^3
#
#
#
# Elastic Constant Matrix: (Units=GPa)
#
#
# Indices 1 2 3 4 5 6 
#
# 1 82.3902 27.4661 37.8104 -0.5283 7.5741 -1.7127
# 2 27.4661 110.6787 22.0970 6.3342 -1.3016 20.6588
# 3 37.8104 22.0970 107.4942 -6.9806 5.0420 9.9168
# 4 -0.5283 6.3342 -6.9806 31.4098 0.8654 9.7803
# 5 7.5741 -1.3016 5.0420 0.8654 30.2309 -7.5867
# 6 -1.7127 20.6588 9.9168 9.7803 -7.5867 36.5759
#
#
#
# Elastic Compliance Matrix: (Units=1/GPa)
#
#
# Indices 1 2 3 4 5 6 
#
# 1 0.016054 -0.003655 -0.005266 -0.001397 -0.002218 0.004157
# 2 -0.003655 0.011234 -0.000471 -0.000474 -0.000084 -0.006279
# 3 -0.005266 -0.000471 0.012067 0.004242 -0.002042 -0.004810
# 4 -0.001397 -0.000474 0.004242 0.036595 -0.004345 -0.011634
# 5 -0.002218 -0.000084 -0.002042 -0.004345 0.036407 0.009211
# 6 0.004157 -0.006279 -0.004810 -0.011634 0.009211 0.037408
#
#
# Mechanical properties :
#
#
# Convention : Reuss Voigt Hill
#
# Bulk Modulus (GPa) = 48.61094 52.81224 50.71159
# Shear Modulus (GPa) = 28.50545 33.85596 31.18071
#
# Velocity S-wave (km/s) = 3.55603 3.87543 3.71916
# Velocity P-wave (km/s) = 6.19878 6.59192 6.39837
#
# Compressibility (1/GPa) = 0.02057150
#
# Stress axis : x y z
#
# Youngs Moduli (GPa) = 62.29152 89.01169 82.87136
#
# Poissons Ratio (x) = 0.32531 0.43637
# Poissons Ratio (y) = 0.22765 0.03907
# Poissons Ratio (z) = 0.32800 0.04196
#
# Static dielectric constant tensor:
#      x y z
#    x 1.847460 -0.022150 0.025760 
#    y -0.022150 1.863970 -0.033360 
#    z 0.025760 -0.033360 1.863280 
# 
# From -- ./inp_files/595103.got.cif
#   From: 2010.05.17/outbox.cif.g08.bks.cpg/sg2_298_cif.got.tgz:595103.got - 2010.06.03 11:33:40.
