data_PCOD9014492
_publ_section_title
;
Structure prediction by ZEFSAII (Michael W. Deem and Ramdas Pophale) SiO2 
 PCOD9014492
Probable space group: P -1
;
_chemical_formula_sum "Si O2"
_cell_formula_units_Z 12
_cell_length_a 8.625034
_cell_length_b 7.908443
_cell_length_c 11.724288
_cell_angle_alpha 74.723526
_cell_angle_beta 40.559832
_cell_angle_gamma 80.333766
_cell_volume 500.973526
_symmetry_space_group_name_H-M "P -1"
_symmetry_group_IT_number 2
_symmetry_cell_setting 'triclinic'
loop_
_space_group_symop_operation_xyz
x,y,z
-x,-y,-z
loop_
_atom_site_type_symbol
_atom_site_label
_atom_site_fract_x
_atom_site_fract_y
_atom_site_fract_z
Si Si1 0.561179 0.883842 0.355223
Si Si2 0.222025 0.590271 0.724214
Si Si3 0.818766 0.861598 0.562089
Si Si4 0.966774 0.741155 0.267325
Si Si5 0.501863 0.707554 0.963671
Si Si6 0.719801 0.693858 0.081523
O O1 0.396575 0.729084 0.536403
O O2 0.805103 0.896792 0.287755
O O3 0.659033 0.827893 0.188860
O O4 0.395839 0.042812 0.397676
O O5 0.132055 0.436454 0.711842
O O6 0.337569 0.492572 0.786024
O O7 0.989689 0.677324 0.889750
O O8 0.941086 0.744518 0.418305
O O9 0.696350 0.761460 0.752874
O O10 0.000000 0.000000 0.500000
O O11 0.240075 0.769969 0.074174
O O12 0.500000 0.500000 0.000000
O O13 0.573909 0.751649 0.044126
#
# Coordination Sequence:
#
# PCOD9014492 Si02
#       6
#     2   2   2   2   2   2
#     4  11  25  45  72 104 141 184 231 292 346 417
#     4  10  22  42  74 103 135 183 236 290 340 408
#     4  12  29  48  70 104 147 188 227 290 357 415
#     4  11  25  45  73 105 137 189 235 287 348 415
#     4  12  27  44  71 105 140 185 234 285 347 417
#     4  10  21  41  68 101 139 176 233 283 346 406
#
# _framework density 23.953361999999998
#
# number of rings (size 3 to 8) (size 9 to 14) (size 15 to 20)
#    0.000    1.000    1.667    4.500    4.667    5.333 
#    0.000    1.667    0.000    0.000    0.000    0.000 
#    0.000    0.000    0.000    0.000    0.000    0.000 
#
# Total GULP energy -67132.041724 kJ/mol
# GULP energy per Si atom -5594.336810 kJ/mol
# Density = 2.389884 g / cm^3
# Si number density = 23.953362 Si / 1000 Ang^3
#
#
#
# Elastic Constant Matrix: (Units=GPa)
#
#
# Indices 1 2 3 4 5 6 
#
# 1 145.1307 30.2481 47.6437 -2.8325 25.1897 0.0015
# 2 30.2481 68.8952 51.0883 0.8486 5.9326 3.0734
# 3 47.6437 51.0883 174.1103 0.0936 25.7206 23.6360
# 4 -2.8325 0.8486 0.0936 52.8880 2.1895 8.7958
# 5 25.1897 5.9326 25.7206 2.1895 46.0489 15.7992
# 6 0.0015 3.0734 23.6360 8.7958 15.7992 26.1805
#
#
#
# Elastic Compliance Matrix: (Units=1/GPa)
#
#
# Indices 1 2 3 4 5 6 
#
# 1 0.008850 -0.002473 -0.001582 -0.000089 -0.005340 0.004971
# 2 -0.002473 0.019510 -0.005532 -0.000864 0.001189 0.002277
# 3 -0.001582 -0.005532 0.008926 0.001231 -0.000986 -0.007227
# 4 -0.000089 -0.000864 0.001231 0.020306 0.001506 -0.008741
# 5 -0.005340 0.001189 -0.000986 0.001506 0.031375 -0.018689
# 6 0.004971 0.002277 -0.007227 -0.008741 -0.018689 0.058668
#
#
# Mechanical properties :
#
#
# Convention : Reuss Voigt Hill
#
# Bulk Modulus (GPa) = 55.21545 71.78848 63.50197
# Shear Modulus (GPa) = 28.92728 42.30058 35.61393
#
# Velocity S-wave (km/s) = 3.47890 4.20689 3.86009
# Velocity P-wave (km/s) = 6.26404 7.32341 6.81434
#
# Compressibility (1/GPa) = 0.01811087
#
# Stress axis : x y z
#
# Youngs Moduli (GPa) = 112.99148 51.25667 112.03538
#
# Poissons Ratio (x) = 0.12678 0.17722
# Poissons Ratio (y) = 0.27948 0.61979
# Poissons Ratio (z) = 0.17874 0.28356
#
# Static dielectric constant tensor:
#      x y z
#    x 1.857480 -0.038410 -0.021510 
#    y -0.038410 1.925990 -0.005510 
#    z -0.021510 -0.005510 1.848300 
# 
# From -- ./inp_files/378113.got.cif
#   From: 2010.05.17/outbox.cif.g08.bks.cpg/sg2_190_cif.got.tgz:378113.got - 2010.06.03 11:33:40.
