data_PCOD9014787
_publ_section_title
;
Structure prediction by ZEFSAII (Michael W. Deem and Ramdas Pophale) SiO2 
 PCOD9014787
Probable space group: P -1
;
_chemical_formula_sum "Si O2"
_cell_formula_units_Z 14
_cell_length_a 10.632782
_cell_length_b 15.593838
_cell_length_c 9.007953
_cell_angle_alpha 35.642748
_cell_angle_beta 119.564169
_cell_angle_gamma 132.423785
_cell_volume 637.228223
_symmetry_space_group_name_H-M "P -1"
_symmetry_group_IT_number 2
_symmetry_cell_setting 'triclinic'
loop_
_space_group_symop_operation_xyz
x,y,z
-x,-y,-z
loop_
_atom_site_type_symbol
_atom_site_label
_atom_site_fract_x
_atom_site_fract_y
_atom_site_fract_z
Si Si1 0.043091 0.349438 0.389896
Si Si2 0.739603 0.591827 0.852478
Si Si3 0.256888 0.446785 0.646754
Si Si4 0.369399 0.819226 0.096474
Si Si5 0.322986 0.914262 0.608316
Si Si6 0.589835 0.713455 0.820395
Si Si7 0.999898 0.371872 0.849921
O O1 0.189784 0.403924 0.274107
O O2 0.127976 0.315732 0.629134
O O3 0.854700 0.215382 0.400494
O O4 0.024879 0.503647 0.229815
O O5 0.626746 0.664262 0.748907
O O6 0.615045 0.390781 0.119544
O O7 0.913103 0.702476 0.892575
O O8 0.377493 0.646284 0.374223
O O9 0.135313 0.464182 0.668644
O O10 0.341742 0.358392 0.908854
O O11 0.184088 0.770350 0.116628
O O12 0.355282 0.839996 0.882347
O O13 0.500000 0.000000 0.000000
O O14 0.500000 0.000000 0.500000
O O15 0.316547 0.081985 0.409736
#
# Coordination Sequence:
#
# PCOD9014787 Si02
#       7
#     2   2   2   2   2   2   2
#     4  11  22  41  70  97 133 177 229 268 324 401
#     4  10  21  41  69  90 130 185 225 259 328 416
#     4  10  25  45  69  99 135 181 217 270 340 395
#     4  11  25  41  66 102 132 171 221 277 329 385
#     4  12  28  43  67 103 134 173 224 283 329 389
#     4  10  25  45  65  96 138 178 215 276 344 391
#     4  10  21  43  69  97 133 181 219 267 335 401
#
# _framework density 21.970151000000001
#
# number of rings (size 3 to 8) (size 9 to 14) (size 15 to 20)
#    0.000    1.429    1.429    3.000   16.000    1.714 
#    0.000    0.000    0.000    0.000    0.000    0.000 
#    0.000    0.000    0.000    0.000    0.000    0.000 
#
# Total GULP energy -77971.584125 kJ/mol
# GULP energy per Si atom -5569.398866 kJ/mol
# Density = 2.192015 g / cm^3
# Si number density = 21.970151 Si / 1000 Ang^3
#
#
#
# Elastic Constant Matrix: (Units=GPa)
#
#
# Indices 1 2 3 4 5 6 
#
# 1 97.0992 40.9969 30.7476 8.7188 -27.6720 -5.5666
# 2 40.9969 156.5656 43.1672 -4.8504 -16.0207 8.1811
# 3 30.7476 43.1672 103.5658 9.8278 -8.8393 -4.6223
# 4 8.7188 -4.8504 9.8278 42.5303 0.8577 -1.9535
# 5 -27.6720 -16.0207 -8.8393 0.8577 29.7031 7.3839
# 6 -5.5666 8.1811 -4.6223 -1.9535 7.3839 38.5559
#
#
#
# Elastic Compliance Matrix: (Units=1/GPa)
#
#
# Indices 1 2 3 4 5 6 
#
# 1 0.016053 -0.002294 -0.002385 -0.003274 0.013144 -0.000165
# 2 -0.002294 0.008185 -0.002857 0.001898 0.002045 -0.002706
# 3 -0.002385 -0.002857 0.011814 -0.002478 -0.000589 0.001665
# 4 -0.003274 0.001898 -0.002478 0.025084 -0.003688 0.000805
# 5 0.013144 0.002045 -0.000589 -0.003688 0.048977 -0.008174
# 6 -0.000165 -0.002706 0.001665 0.000805 -0.008174 0.028293
#
#
# Mechanical properties :
#
#
# Convention : Reuss Voigt Hill
#
# Bulk Modulus (GPa) = 47.66324 65.22823 56.44574
# Shear Modulus (GPa) = 31.15851 38.31246 34.73549
#
# Velocity S-wave (km/s) = 3.77001 4.18046 3.98053
# Velocity P-wave (km/s) = 6.37905 7.28393 6.84646
#
# Compressibility (1/GPa) = 0.02098053
#
# Stress axis : x y z
#
# Youngs Moduli (GPa) = 62.29506 122.17594 84.64764
#
# Poissons Ratio (x) = 0.28025 0.20185
# Poissons Ratio (y) = 0.14289 0.24183
# Poissons Ratio (z) = 0.14855 0.34904
#
# Static dielectric constant tensor:
#      x y z
#    x 1.880510 0.049220 -0.008680 
#    y 0.049220 1.914170 0.012370 
#    z -0.008680 0.012370 1.929820 
# 
# From -- ./inp_files/271596.got.cif
#   From: 2010.05.17/outbox.cif.g08.bks.cpg/sg2_136_cif.got.tgz:271596.got - 2010.06.03 11:33:40.
