data_PCOD9014049
_publ_section_title
;
Structure prediction by ZEFSAII (Michael W. Deem and Ramdas Pophale) SiO2 
 PCOD9014049
Probable space group: P -1
;
_chemical_formula_sum "Si O2"
_cell_formula_units_Z 16
_cell_length_a 11.086954
_cell_length_b 11.996022
_cell_length_c 6.943860
_cell_angle_alpha 131.171086
_cell_angle_beta 86.170028
_cell_angle_gamma 92.332453
_cell_volume 693.624581
_symmetry_space_group_name_H-M "P -1"
_symmetry_group_IT_number 2
_symmetry_cell_setting 'triclinic'
loop_
_space_group_symop_operation_xyz
x,y,z
-x,-y,-z
loop_
_atom_site_type_symbol
_atom_site_label
_atom_site_fract_x
_atom_site_fract_y
_atom_site_fract_z
Si Si1 0.594574 0.397472 0.488653
Si Si2 0.677035 0.885083 0.846338
Si Si3 0.806808 0.605255 0.607266
Si Si4 0.672363 0.295666 0.741036
Si Si5 0.445964 0.873863 0.090476
Si Si6 0.895991 0.426581 0.054812
Si Si7 0.985432 0.814422 0.013233
Si Si8 0.137124 0.901161 0.741534
O O1 0.500000 0.500000 0.500000
O O2 0.720532 0.482732 0.564633
O O3 0.577697 0.365117 0.678518
O O4 0.600173 0.242331 0.199041
O O5 0.725641 0.720946 0.624397
O O6 0.606151 0.964710 0.772009
O O7 0.588255 0.880363 0.036390
O O8 0.788087 0.989599 0.003193
O O9 0.893928 0.520565 0.357236
O O10 0.872544 0.704302 0.871910
O O11 0.600860 0.194123 0.784577
O O12 0.768667 0.196620 0.497529
O O13 0.760180 0.414631 0.971076
O O14 0.931573 0.258696 0.917581
O O15 0.000000 0.500000 0.000000
O O16 0.052360 0.812123 0.795604
O O17 0.942194 0.982421 0.241236
#
# Coordination Sequence:
#
# PCOD9014049 Si02
#       8
#     2   2   2   2   2   2   2   2
#     4  12  24  46  68  96 137 178 217 276 335 395
#     4  10  22  43  68  94 134 178 220 271 332 389
#     4  11  22  42  69  96 133 182 215 271 334 392
#     4  12  25  41  70  99 133 177 223 271 333 398
#     4  11  23  44  68  97 133 175 224 273 329 393
#     4  12  24  39  61 100 136 169 222 276 324 395
#     4  10  22  41  68  94 133 177 219 272 331 384
#     4  10  21  41  66  95 130 175 220 269 331 390
#
# _framework density 23.067231
#
# number of rings (size 3 to 8) (size 9 to 14) (size 15 to 20)
#    0.000    1.000    3.750    3.375    0.000    2.500 
#    0.000    0.000    0.000    0.000    0.000    0.000 
#    0.000    0.000    0.000    0.000    0.000    0.000 
#
# Total GULP energy -89478.414324 kJ/mol
# GULP energy per Si atom -5592.400895 kJ/mol
# Density = 2.301473 g / cm^3
# Si number density = 23.067231 Si / 1000 Ang^3
#
#
#
# Elastic Constant Matrix: (Units=GPa)
#
#
# Indices 1 2 3 4 5 6 
#
# 1 71.2521 38.2112 1.1918 -14.0374 -0.2825 3.9462
# 2 38.2112 125.7467 20.8870 -16.2313 -4.2424 -10.2023
# 3 1.1918 20.8870 36.9958 -4.1697 2.9692 -6.5295
# 4 -14.0374 -16.2313 -4.1697 36.8015 2.7795 1.0896
# 5 -0.2825 -4.2424 2.9692 2.7795 26.9489 -0.5772
# 6 3.9462 -10.2023 -6.5295 1.0896 -0.5772 50.4797
#
#
#
# Elastic Compliance Matrix: (Units=1/GPa)
#
#
# Indices 1 2 3 4 5 6 
#
# 1 0.018064 -0.005561 0.002835 0.004945 -0.001557 -0.002294
# 2 -0.005561 0.011059 -0.005686 0.001893 0.002155 0.001918
# 3 0.002835 -0.005686 0.031230 0.002376 -0.004496 0.002566
# 4 0.004945 0.001893 0.002376 0.030405 -0.003056 -0.000388
# 5 -0.001557 0.002155 -0.004496 -0.003056 0.038251 0.000479
# 6 -0.002294 0.001918 0.002566 -0.000388 0.000479 0.020723
#
#
# Mechanical properties :
#
#
# Convention : Reuss Voigt Hill
#
# Bulk Modulus (GPa) = 22.97209 39.39716 31.18462
# Shear Modulus (GPa) = 27.61421 34.42633 31.02027
#
# Velocity S-wave (km/s) = 3.46369 3.86740 3.67110
# Velocity P-wave (km/s) = 5.09672 6.08758 5.61406
#
# Compressibility (1/GPa) = 0.04353109
#
# Stress axis : x y z
#
# Youngs Moduli (GPa) = 55.35786 90.42156 32.02011
#
# Poissons Ratio (x) = 0.50279 -0.09077
# Poissons Ratio (y) = 0.30782 0.18206
# Poissons Ratio (z) = -0.15693 0.51412
#
# Static dielectric constant tensor:
#      x y z
#    x 1.901850 -0.070120 0.011990 
#    y -0.070120 1.899940 -0.004020 
#    z 0.011990 -0.004020 1.842720 
# 
# From -- ./inp_files/72300.got.cif
#   From: 2010.05.17/outbox.cif.g08.bks.cpg/sg2_37_cif.got.tgz:72300.got - 2010.06.03 11:33:40.
