data_PCOD9014099
_publ_section_title
;
Structure prediction by ZEFSAII (Michael W. Deem and Ramdas Pophale) SiO2 
 PCOD9014099
Probable space group: P -1
;
_chemical_formula_sum "Si O2"
_cell_formula_units_Z 14
_cell_length_a 10.645647
_cell_length_b 7.648676
_cell_length_c 13.715190
_cell_angle_alpha 42.221828
_cell_angle_beta 43.183342
_cell_angle_gamma 59.656765
_cell_volume 512.097495
_symmetry_space_group_name_H-M "P -1"
_symmetry_group_IT_number 2
_symmetry_cell_setting 'triclinic'
loop_
_space_group_symop_operation_xyz
x,y,z
-x,-y,-z
loop_
_atom_site_type_symbol
_atom_site_label
_atom_site_fract_x
_atom_site_fract_y
_atom_site_fract_z
Si Si1 0.660817 0.639546 0.579150
Si Si2 0.939476 0.731315 0.855296
Si Si3 0.747319 0.983836 0.557674
Si Si4 0.314926 0.515426 0.695193
Si Si5 0.126018 0.206123 0.783549
Si Si6 0.320305 0.857768 0.106642
Si Si7 0.218468 0.498712 0.138308
O O1 0.624193 0.827822 0.610575
O O2 0.481347 0.539905 0.663204
O O3 0.785865 0.820882 0.359690
O O4 0.743384 0.387495 0.685367
O O5 0.794070 0.536233 0.957009
O O6 0.123352 0.572773 0.836131
O O7 0.825676 0.921056 0.907705
O O8 0.047508 0.947162 0.630775
O O9 0.746012 0.788224 0.727149
O O10 0.670991 0.263386 0.488730
O O11 0.282786 0.266510 0.749650
O O12 0.991777 0.438261 0.746841
O O13 0.000000 0.000000 0.000000
O O14 0.334512 0.711243 0.053281
O O15 0.500000 0.000000 0.000000
#
# Coordination Sequence:
#
# PCOD9014099 Si02
#       7
#     2   2   2   2   2   2   2
#     4  11  22  42  66  96 137 174 218 284 333 394
#     4   9  20  39  66  93 132 175 218 276 330 396
#     4   9  19  38  68  94 123 170 227 266 335 391
#     4   9  22  40  64  98 129 175 219 272 339 398
#     4  11  24  40  66  98 132 177 224 270 337 405
#     4  11  25  41  68 101 133 178 227 279 334 398
#     4  10  21  41  66  97 130 173 228 275 328 404
#
# _framework density 27.338545
#
# number of rings (size 3 to 8) (size 9 to 14) (size 15 to 20)
#    0.857    1.143    0.000    3.000    4.000    2.857 
#    0.000   10.000    0.000    0.000    0.000    0.000 
#    0.000    0.000    0.000    0.000    0.000    0.000 
#
# Total GULP energy -78178.061900 kJ/mol
# GULP energy per Si atom -5584.147279 kJ/mol
# Density = 2.727632 g / cm^3
# Si number density = 27.338545 Si / 1000 Ang^3
#
#
#
# Elastic Constant Matrix: (Units=GPa)
#
#
# Indices 1 2 3 4 5 6 
#
# 1 146.9142 25.8942 26.3111 -7.4445 -7.9547 26.8997
# 2 25.8942 62.1380 17.2902 -11.5005 0.0281 10.6240
# 3 26.3111 17.2902 58.0351 7.8511 -10.3449 -5.4692
# 4 -7.4445 -11.5005 7.8511 36.8348 4.9194 -3.5128
# 5 -7.9547 0.0281 -10.3449 4.9194 42.7192 -14.2856
# 6 26.8997 10.6240 -5.4692 -3.5128 -14.2856 58.3912
#
#
#
# Elastic Compliance Matrix: (Units=1/GPa)
#
#
# Indices 1 2 3 4 5 6 
#
# 1 0.008658 -0.001252 -0.004442 0.002046 -0.001148 -0.004335
# 2 -0.001252 0.021236 -0.008176 0.008306 -0.004761 -0.004718
# 3 -0.004442 -0.008176 0.025227 -0.009296 0.008868 0.007507
# 4 0.002046 0.008306 -0.009296 0.032739 -0.006642 -0.002980
# 5 -0.001148 -0.004761 0.008868 -0.006642 0.029102 0.008946
# 6 -0.004335 -0.004718 0.007507 -0.002980 0.008946 0.022694
#
#
# Mechanical properties :
#
#
# Convention : Reuss Voigt Hill
#
# Bulk Modulus (GPa) = 36.52257 45.11980 40.82118
# Shear Modulus (GPa) = 28.32490 40.76182 34.54336
#
# Velocity S-wave (km/s) = 3.22231 3.86554 3.55849
# Velocity P-wave (km/s) = 5.21850 6.03847 5.64340
#
# Compressibility (1/GPa) = 0.02738033
#
# Stress axis : x y z
#
# Youngs Moduli (GPa) = 115.49933 47.08982 39.64058
#
# Poissons Ratio (x) = 0.05894 0.17609
# Poissons Ratio (y) = 0.14456 0.32411
# Poissons Ratio (z) = 0.51307 0.38502
#
# Static dielectric constant tensor:
#      x y z
#    x 2.226520 0.009750 0.046660 
#    y 0.009750 2.184010 -0.043860 
#    z 0.046660 -0.043860 2.266570 
# 
# From -- ./inp_files/515012.got.cif
#   From: 2010.05.17/outbox.cif.g08.bks.cpg/sg2_258_cif.got.tgz:515012.got - 2010.06.03 11:33:40.
