data_PCOD9014805
_publ_section_title
;
Structure prediction by ZEFSAII (Michael W. Deem and Ramdas Pophale) SiO2 
 PCOD9014805
Probable space group: P -1
;
_chemical_formula_sum "Si O2"
_cell_formula_units_Z 14
_cell_length_a 9.919747
_cell_length_b 18.059168
_cell_length_c 6.832879
_cell_angle_alpha 127.962810
_cell_angle_beta 136.489536
_cell_angle_gamma 44.247064
_cell_volume 576.262740
_symmetry_space_group_name_H-M "P -1"
_symmetry_group_IT_number 2
_symmetry_cell_setting 'triclinic'
loop_
_space_group_symop_operation_xyz
x,y,z
-x,-y,-z
loop_
_atom_site_type_symbol
_atom_site_label
_atom_site_fract_x
_atom_site_fract_y
_atom_site_fract_z
Si Si1 0.752766 0.472725 0.705559
Si Si2 0.308320 0.010965 0.967359
Si Si3 0.689961 0.845999 0.338813
Si Si4 0.530473 0.743842 0.328639
Si Si5 0.177121 0.350146 0.148776
Si Si6 0.180720 0.734899 0.665470
Si Si7 0.841398 0.156956 0.574643
O O1 0.500000 0.500000 0.500000
O O2 0.762923 0.573182 0.793136
O O3 0.861025 0.365916 0.508802
O O4 0.904886 0.422497 0.976899
O O5 0.187440 0.937166 0.711856
O O6 0.471522 0.958572 0.237015
O O7 0.086894 0.124499 0.866384
O O8 0.500000 0.000000 0.000000
O O9 0.631199 0.802820 0.401244
O O10 0.932479 0.839247 0.610612
O O11 0.730266 0.762736 0.060385
O O12 0.720041 0.665378 0.553226
O O13 0.328448 0.815407 0.380701
O O14 0.397052 0.710817 0.980261
O O15 0.226082 0.752022 0.514716
#
# Coordination Sequence:
#
# PCOD9014805 Si02
#       7
#     2   2   2   2   2   2   2
#     4  10  21  41  69  93 124 173 217 257 318 386
#     4  11  22  43  70  90 127 175 217 263 321 380
#     4  11  23  43  65  94 134 173 215 267 322 379
#     4  12  23  41  66  97 134 168 211 269 323 380
#     4  10  23  43  65  92 132 172 211 264 322 379
#     4  11  24  42  66  97 132 169 215 266 322 385
#     4  11  24  42  67  94 130 173 213 266 323 377
#
# _framework density 24.294474999999998
#
# number of rings (size 3 to 8) (size 9 to 14) (size 15 to 20)
#    0.000    1.143    4.286    1.714    0.000    5.714 
#    0.000   12.857    0.000    0.000    0.000    0.000 
#    0.000    0.000    0.000    0.000    0.000    0.000 
#
# Total GULP energy -78094.387364 kJ/mol
# GULP energy per Si atom -5578.170526 kJ/mol
# Density = 2.423918 g / cm^3
# Si number density = 24.294475 Si / 1000 Ang^3
#
#
#
# Elastic Constant Matrix: (Units=GPa)
#
#
# Indices 1 2 3 4 5 6 
#
# 1 99.8868 17.5862 45.1538 -28.0564 12.2511 -0.7091
# 2 17.5862 85.4897 78.7318 -38.5295 -2.3917 9.2270
# 3 45.1538 78.7318 168.9035 -53.6458 11.9533 4.7320
# 4 -28.0564 -38.5295 -53.6458 52.8480 -6.0718 15.5116
# 5 12.2511 -2.3917 11.9533 -6.0718 46.4008 -14.3556
# 6 -0.7091 9.2270 4.7320 15.5116 -14.3556 33.5489
#
#
#
# Elastic Compliance Matrix: (Units=1/GPa)
#
#
# Indices 1 2 3 4 5 6 
#
# 1 0.013210 0.003841 -0.001949 0.009279 -0.003523 -0.006300
# 2 0.003841 0.028530 -0.007622 0.019744 0.000126 -0.015765
# 3 -0.001949 -0.007622 0.012670 0.007208 -0.003627 -0.004617
# 4 0.009279 0.019744 0.007208 0.054920 -0.006791 -0.034550
# 5 -0.003523 0.000126 -0.003627 -0.006791 0.027235 0.015196
# 6 -0.006300 -0.015765 -0.004617 -0.034550 0.015196 0.057138
#
#
# Mechanical properties :
#
#
# Convention : Reuss Voigt Hill
#
# Bulk Modulus (GPa) = 23.28289 70.80262 47.04276
# Shear Modulus (GPa) = 22.78112 40.74675 31.76394
#
# Velocity S-wave (km/s) = 3.06552 4.09981 3.61980
# Velocity P-wave (km/s) = 4.70471 7.18457 6.07258
#
# Compressibility (1/GPa) = 0.04294999
#
# Stress axis : x y z
#
# Youngs Moduli (GPa) = 75.70154 35.05029 78.92832
#
# Poissons Ratio (x) = -0.13462 0.15381
# Poissons Ratio (y) = -0.29076 0.60160
# Poissons Ratio (z) = 0.14752 0.26716
#
# Static dielectric constant tensor:
#      x y z
#    x 1.915320 -0.086830 -0.018430 
#    y -0.086830 2.091980 0.051900 
#    z -0.018430 0.051900 2.066890 
# 
# From -- ./inp_files/46916.got.cif
#   From: 2010.05.17/outbox.cif.g08.bks.cpg/sg2_24_cif.got.tgz:46916.got - 2010.06.03 11:33:40.
