data_PCOD9014372
_publ_section_title
;
Structure prediction by ZEFSAII (Michael W. Deem and Ramdas Pophale) SiO2 
 PCOD9014372
Probable space group: P -1
;
_chemical_formula_sum "Si O2"
_cell_formula_units_Z 12
_cell_length_a 23.779434
_cell_length_b 7.835308
_cell_length_c 21.410610
_cell_angle_alpha 138.494087
_cell_angle_beta 10.688469
_cell_angle_gamma 138.691743
_cell_volume 486.511295
_symmetry_space_group_name_H-M "P -1"
_symmetry_group_IT_number 2
_symmetry_cell_setting 'triclinic'
loop_
_space_group_symop_operation_xyz
x,y,z
-x,-y,-z
loop_
_atom_site_type_symbol
_atom_site_label
_atom_site_fract_x
_atom_site_fract_y
_atom_site_fract_z
Si Si1 0.761689 0.235799 0.395406
Si Si2 0.612770 0.449947 0.740173
Si Si3 0.563325 0.660653 0.644336
Si Si4 0.073195 0.018988 0.252269
Si Si5 0.099480 0.773108 0.373001
Si Si6 0.605808 0.778569 0.368805
O O1 0.806069 0.328829 0.442717
O O2 0.559124 0.438143 0.640547
O O3 0.625410 0.932243 0.454673
O O4 0.061688 0.261183 0.031538
O O5 0.831459 0.542178 0.584321
O O6 0.335816 0.232527 0.999341
O O7 0.432508 0.683203 0.974913
O O8 0.589487 0.497168 0.506925
O O9 0.837177 0.883508 0.422312
O O10 0.256016 0.791965 0.016706
O O11 0.912964 0.144516 0.518980
O O12 0.000000 0.000000 0.500000
O O13 0.500000 0.000000 0.500000
#
# Coordination Sequence:
#
# PCOD9014372 Si02
#       6
#     2   2   2   2   2   2
#     4  10  21  41  67  96 123 166 219 263 311 369
#     4  12  26  42  65  97 131 166 206 264 320 374
#     4  11  21  41  66  93 123 173 212 255 307 382
#     4  12  24  42  64  93 136 169 204 258 323 373
#     4  12  25  44  66  96 125 170 217 259 303 378
#     4   9  20  38  70  92 125 161 218 267 310 363
#
# _framework density 24.665410999999999
#
# number of rings (size 3 to 8) (size 9 to 14) (size 15 to 20)
#    0.000    1.000    1.667    5.500    4.667    0.000 
#    0.000    1.667    0.000    0.000    0.000    0.000 
#    0.000    0.000    0.000    0.000    0.000    0.000 
#
# Total GULP energy -67128.646002 kJ/mol
# GULP energy per Si atom -5594.053833 kJ/mol
# Density = 2.460927 g / cm^3
# Si number density = 24.665411 Si / 1000 Ang^3
#
#
#
# Elastic Constant Matrix: (Units=GPa)
#
#
# Indices 1 2 3 4 5 6 
#
# 1 9.9881 45.4142 21.5790 6.8483 -26.4442 -20.5755
# 2 45.4142 155.3109 31.5172 -8.8211 5.4209 50.6618
# 3 21.5790 31.5172 94.8393 13.9508 -20.7017 13.3487
# 4 6.8483 -8.8211 13.9508 50.2353 5.0161 -4.9582
# 5 -26.4442 5.4209 -20.7017 5.0161 26.6718 -26.0247
# 6 -20.5755 50.6618 13.3487 -4.9582 -26.0247 3.2218
#
#
#
# Elastic Compliance Matrix: (Units=1/GPa)
#
#
# Indices 1 2 3 4 5 6 
#
# 1 0.016517 0.003864 -0.003598 -0.001918 -0.009949 -0.023681
# 2 0.003864 0.004390 -0.001875 0.000633 0.004851 0.003574
# 3 -0.003598 -0.001875 0.014529 -0.004773 0.007348 -0.001681
# 4 -0.001918 0.000633 -0.004773 0.022611 -0.003138 0.007020
# 5 -0.009949 0.004851 0.007348 -0.003138 0.020040 -0.013216
# 6 -0.023681 0.003574 -0.001681 0.007020 -0.013216 0.013953
#
#
# Mechanical properties :
#
#
# Convention : Reuss Voigt Hill
#
# Bulk Modulus (GPa) = 31.04101 50.79544 40.91823
# Shear Modulus (GPa) = 47.17075 26.80097 36.98586
#
# Velocity S-wave (km/s) = 4.37787 3.29991 3.87654
# Velocity P-wave (km/s) = 6.17790 5.92939 6.05492
#
# Compressibility (1/GPa) = 0.03221544
#
# Stress axis : x y z
#
# Youngs Moduli (GPa) = 60.54499 227.78160 68.82942
#
# Poissons Ratio (x) = -0.88009 0.24768
# Poissons Ratio (y) = -0.23393 0.12908
# Poissons Ratio (z) = 0.21787 0.42717
#
# Static dielectric constant tensor:
#      x y z
#    x 1.986520 0.046650 -0.024640 
#    y 0.046650 2.106510 -0.012030 
#    z -0.024640 -0.012030 1.950640 
# 
# From -- ./inp_files/23619.got.cif
#   From: 2010.05.17/outbox.cif.g08.bks.cpg/sg2_12_cif.got.tgz:23619.got - 2010.06.03 11:33:40.
