data_PCOD9014713
_publ_section_title
;
Structure prediction by ZEFSAII (Michael W. Deem and Ramdas Pophale) SiO2 
 PCOD9014713
Probable space group: P -1
;
_chemical_formula_sum "Si O2"
_cell_formula_units_Z 12
_cell_length_a 5.072014
_cell_length_b 15.747301
_cell_length_c 13.196686
_cell_angle_alpha 37.936582
_cell_angle_beta 103.555591
_cell_angle_gamma 126.981179
_cell_volume 451.596193
_symmetry_space_group_name_H-M "P -1"
_symmetry_group_IT_number 2
_symmetry_cell_setting 'triclinic'
loop_
_space_group_symop_operation_xyz
x,y,z
-x,-y,-z
loop_
_atom_site_type_symbol
_atom_site_label
_atom_site_fract_x
_atom_site_fract_y
_atom_site_fract_z
Si Si1 0.768069 0.750250 0.997818
Si Si2 0.738558 0.720264 0.350558
Si Si3 0.829543 0.582828 0.872062
Si Si4 0.345132 0.744065 0.125399
Si Si5 0.706943 0.283936 0.517579
Si Si6 0.799255 0.033475 0.376379
O O1 0.417558 0.523744 0.151529
O O2 0.582836 0.813404 0.978424
O O3 0.077653 0.782490 0.064550
O O4 0.970725 0.863187 0.805659
O O5 0.500000 0.500000 0.500000
O O6 0.628873 0.802784 0.185238
O O7 0.601204 0.736136 0.429683
O O8 0.146245 0.794135 0.329074
O O9 0.163588 0.810814 0.705642
O O10 0.500000 0.500000 0.000000
O O11 0.000000 0.500000 0.000000
O O12 0.045054 0.511418 0.318042
O O13 0.574992 0.172364 0.505072
O O14 0.000000 0.000000 0.500000
#
# Coordination Sequence:
#
# PCOD9014713 Si02
#       6
#     2   2   2   2   2   2
#     4  11  23  42  66  98 134 178 224 269 335 414
#     4  10  21  41  69 100 133 175 224 275 337 412
#     4  10  22  43  66  92 131 180 223 267 331 410
#     4  11  21  42  70  97 130 178 223 271 333 412
#     4  11  23  42  68 103 134 172 227 285 334 396
#     4  11  26  46  69 102 141 181 230 293 344 392
#
# _framework density 26.572413999999998
#
# number of rings (size 3 to 8) (size 9 to 14) (size 15 to 20)
#    0.000    1.333    0.000    8.000    0.000    5.333 
#    0.000   15.833    0.000    0.000    0.000    0.000 
#    0.000    0.000    0.000    0.000    0.000    0.000 
#
# Total GULP energy -67194.452829 kJ/mol
# GULP energy per Si atom -5599.537736 kJ/mol
# Density = 2.651193 g / cm^3
# Si number density = 26.572414 Si / 1000 Ang^3
#
#
#
# Elastic Constant Matrix: (Units=GPa)
#
#
# Indices 1 2 3 4 5 6 
#
# 1 138.3508 15.8581 20.8010 -6.2524 29.7163 -1.5943
# 2 15.8581 108.2450 41.2151 -11.1348 26.1592 11.5651
# 3 20.8010 41.2151 95.6543 -10.7588 19.6228 12.8716
# 4 -6.2524 -11.1348 -10.7588 54.7210 2.6043 7.7232
# 5 29.7163 26.1592 19.6228 2.6043 52.3949 5.7247
# 6 -1.5943 11.5651 12.8716 7.7232 5.7247 49.7114
#
#
#
# Elastic Compliance Matrix: (Units=1/GPa)
#
#
# Indices 1 2 3 4 5 6 
#
# 1 0.008401 0.000283 -0.001002 0.000921 -0.004670 0.000858
# 2 0.000283 0.012224 -0.003889 0.002210 -0.004739 -0.001625
# 3 -0.001002 -0.003889 0.013440 0.002227 -0.002341 -0.002684
# 4 0.000921 0.002210 0.002227 0.019950 -0.003035 -0.003811
# 5 -0.004670 -0.004739 -0.002341 -0.003035 0.025223 -0.000874
# 6 0.000858 -0.001625 -0.002684 -0.003811 -0.000874 0.021909
#
#
# Mechanical properties :
#
#
# Convention : Reuss Voigt Hill
#
# Bulk Modulus (GPa) = 40.24638 55.33317 47.78977
# Shear Modulus (GPa) = 42.14185 48.99053 45.56619
#
# Velocity S-wave (km/s) = 3.98669 4.29845 4.14550
# Velocity P-wave (km/s) = 6.03079 6.74568 6.39823
#
# Compressibility (1/GPa) = 0.02484696
#
# Stress axis : x y z
#
# Youngs Moduli (GPa) = 119.03507 81.80675 74.40637
#
# Poissons Ratio (x) = -0.02312 0.07459
# Poissons Ratio (y) = -0.03364 0.28936
# Poissons Ratio (z) = 0.11932 0.31814
#
# Static dielectric constant tensor:
#      x y z
#    x 1.995650 0.017990 -0.058140 
#    y 0.017990 2.113780 -0.044480 
#    z -0.058140 -0.044480 2.070720 
# 
# From -- ./inp_files/485185.got.cif
#   From: 2010.05.17/outbox.cif.g08.bks.cpg/sg2_243_cif.got.tgz:485185.got - 2010.06.03 11:33:40.
