data_PCOD9014544
_publ_section_title
;
Structure prediction by ZEFSAII (Michael W. Deem and Ramdas Pophale) SiO2 
 PCOD9014544
Probable space group: P -1
;
_chemical_formula_sum "Si O2"
_cell_formula_units_Z 16
_cell_length_a 16.248071
_cell_length_b 8.518198
_cell_length_c 5.595237
_cell_angle_alpha 80.839273
_cell_angle_beta 123.548105
_cell_angle_gamma 111.570664
_cell_volume 599.238247
_symmetry_space_group_name_H-M "P -1"
_symmetry_group_IT_number 2
_symmetry_cell_setting 'triclinic'
loop_
_space_group_symop_operation_xyz
x,y,z
-x,-y,-z
loop_
_atom_site_type_symbol
_atom_site_label
_atom_site_fract_x
_atom_site_fract_y
_atom_site_fract_z
Si Si1 0.798847 0.298821 0.722378
Si Si2 0.112093 0.131517 0.053134
Si Si3 0.171648 0.915809 0.802473
Si Si4 0.372061 0.600699 0.833020
Si Si5 0.499565 0.890381 0.289129
Si Si6 0.308278 0.071695 0.588918
Si Si7 0.440976 0.348546 0.261703
Si Si8 0.989299 0.350403 0.702040
O O1 0.727184 0.396215 0.475904
O O2 0.746896 0.109739 0.581668
O O3 0.916415 0.367249 0.798246
O O4 0.802243 0.246317 0.012823
O O5 0.223552 0.165997 0.359653
O O6 0.093298 0.310352 0.947794
O O7 0.128705 0.029348 0.875168
O O8 0.000000 0.000000 0.000000
O O9 0.275605 0.042858 0.825008
O O10 0.079999 0.823161 0.495905
O O11 0.470220 0.656727 0.787304
O O12 0.403684 0.732372 0.077126
O O13 0.364272 0.419571 0.972392
O O14 0.591177 0.805131 0.559434
O O15 0.500000 0.000000 0.500000
O O16 0.424238 0.048406 0.826405
O O17 0.500000 0.500000 0.500000
O O18 0.000000 0.500000 0.500000
#
# Coordination Sequence:
#
# PCOD9014544 Si02
#       8
#     2   2   2   2   2   2   2   2
#     4  10  22  40  62  93 128 175 218 263 330 401
#     4  11  20  42  68  94 124 175 221 262 332 402
#     4  10  21  41  68  88 130 173 221 265 331 396
#     4  10  22  42  67  92 131 179 221 267 340 403
#     4  11  24  42  67 102 137 167 221 286 333 395
#     4  10  23  38  65  99 128 169 224 267 331 396
#     4   9  21  41  64  87 127 177 220 268 331 394
#     4  11  24  40  63 100 132 163 216 280 334 394
#
# _framework density 26.700566999999999
#
# number of rings (size 3 to 8) (size 9 to 14) (size 15 to 20)
#    0.000    1.750    3.750    1.125    0.000   13.500 
#    0.000    5.625    0.000    0.000    0.000    0.000 
#    0.000    0.000    0.000    0.000    0.000    0.000 
#
# Total GULP energy -89127.366889 kJ/mol
# GULP energy per Si atom -5570.460431 kJ/mol
# Density = 2.663979 g / cm^3
# Si number density = 26.700567 Si / 1000 Ang^3
#
#
#
# Elastic Constant Matrix: (Units=GPa)
#
#
# Indices 1 2 3 4 5 6 
#
# 1 -35.1643 -87.5311 -171.3307 89.0616 150.3012 -96.0737
# 2 -87.5311 7.7888 -107.9392 55.0992 92.1666 -44.4618
# 3 -171.3307 -107.9392 -109.6489 86.5760 164.2677 -86.0115
# 4 89.0616 55.0992 86.5760 22.1685 -74.7769 33.2116
# 5 150.3012 92.1666 164.2677 -74.7769 -33.8881 28.7391
# 6 -96.0737 -44.4618 -86.0115 33.2116 28.7391 18.1462
#
#
#
# Elastic Compliance Matrix: (Units=1/GPa)
#
#
# Indices 1 2 3 4 5 6 
#
# 1 0.006853 -0.003533 -0.003468 0.001478 0.003376 0.003138
# 2 -0.003533 0.013138 -0.003017 0.000827 0.000699 -0.003436
# 3 -0.003468 -0.003017 0.007394 0.003746 0.002582 -0.001655
# 4 0.001478 0.000827 0.003746 0.014001 -0.000959 0.003503
# 5 0.003376 0.000699 0.002582 -0.000959 0.013006 0.012981
# 6 0.003138 -0.003436 -0.001655 0.003503 0.012981 0.028489
#
#
# Mechanical properties :
#
#
# Convention : Reuss Voigt Hill
#
# Bulk Modulus (GPa) = 136.07605 -96.73627 19.66989
# Shear Modulus (GPa) = 47.45317 16.60377 32.02847
#
# Velocity S-wave (km/s) = 4.22030 2.49640 3.46720
# Velocity P-wave (km/s) = 8.64999 5.29144 4.83854
#
# Compressibility (1/GPa) = 0.00734883
#
# Stress axis : x y z
#
# Youngs Moduli (GPa) = 145.91150 76.11547 135.24939
#
# Poissons Ratio (x) = 0.26891 0.46909
# Poissons Ratio (y) = 0.51549 0.40803
# Poissons Ratio (z) = 0.50607 0.22963
#
# Static dielectric constant tensor:
#      x y z
#    x 1.805630 -0.086420 0.313320 
#    y -0.086420 2.182600 -0.034660 
#    z 0.313320 -0.034660 2.102570 
# 
# From -- ./inp_files/116096.got.cif
#   From: 2010.05.17/outbox.cif.g08.bks.cpg/sg2_59_cif.got.tgz:116096.got - 2010.06.03 11:33:40.
