data_PCOD9014882
_publ_section_title
;
Structure prediction by ZEFSAII (Michael W. Deem and Ramdas Pophale) SiO2 
 PCOD9014882
Probable space group: P -1
;
_chemical_formula_sum "Si O2"
_cell_formula_units_Z 16
_cell_length_a 9.118337
_cell_length_b 8.256362
_cell_length_c 15.247457
_cell_angle_alpha 38.631589
_cell_angle_beta 99.508561
_cell_angle_gamma 106.251984
_cell_volume 685.266397
_symmetry_space_group_name_H-M "P -1"
_symmetry_group_IT_number 2
_symmetry_cell_setting 'triclinic'
loop_
_space_group_symop_operation_xyz
x,y,z
-x,-y,-z
loop_
_atom_site_type_symbol
_atom_site_label
_atom_site_fract_x
_atom_site_fract_y
_atom_site_fract_z
Si Si1 0.918511 0.141294 0.566029
Si Si2 0.828411 0.902047 0.984932
Si Si3 0.684707 0.957016 0.223818
Si Si4 0.016271 0.199338 0.128710
Si Si5 0.388528 0.168638 0.379142
Si Si6 0.231676 0.504249 0.468958
Si Si7 0.615789 0.263096 0.784614
Si Si8 0.577342 0.389903 0.138442
O O1 0.841264 0.330613 0.538432
O O2 0.085005 0.318327 0.481574
O O3 0.783639 0.005706 0.545728
O O4 0.946615 0.901184 0.730417
O O5 0.863986 0.859738 0.903666
O O6 0.742917 0.136232 0.893167
O O7 0.699534 0.622213 0.106177
O O8 0.000000 0.000000 0.000000
O O9 0.847752 0.021320 0.165461
O O10 0.670134 0.186126 0.193861
O O11 0.680166 0.685292 0.391288
O O12 0.550819 0.935045 0.149841
O O13 0.000000 0.500000 0.000000
O O14 0.398792 0.455759 0.300166
O O15 0.443099 0.234867 0.255847
O O16 0.500000 0.000000 0.500000
O O17 0.337527 0.694387 0.330756
O O18 0.500000 0.500000 0.000000
#
# Coordination Sequence:
#
# PCOD9014882 Si02
#       8
#     2   2   2   2   2   2   2   2
#     4  10  22  42  69  97 136 183 235 284 348 429
#     4  12  28  43  67 103 141 183 230 296 354 414
#     4  11  23  40  75  98 131 183 240 284 346 427
#     4  11  23  43  70  99 131 182 239 287 349 421
#     4  12  28  44  70 106 146 183 231 298 361 413
#     4  10  21  41  69  98 128 180 238 285 343 423
#     4  12  25  43  67 102 143 183 227 297 353 417
#     4  12  25  48  72 100 141 189 237 286 347 429
#
# _framework density 23.348583999999999
#
# number of rings (size 3 to 8) (size 9 to 14) (size 15 to 20)
#    0.000    0.750    3.750    3.375    3.500    2.000 
#    0.000    0.000    0.000    0.000    0.000    0.000 
#    0.000    0.000    0.000    0.000    0.000    0.000 
#
# Total GULP energy -89476.685778 kJ/mol
# GULP energy per Si atom -5592.292861 kJ/mol
# Density = 2.329544 g / cm^3
# Si number density = 23.348584 Si / 1000 Ang^3
#
#
#
# Elastic Constant Matrix: (Units=GPa)
#
#
# Indices 1 2 3 4 5 6 
#
# 1 104.3619 20.1845 17.4830 -0.9165 28.4575 12.5575
# 2 20.1845 86.5342 7.0746 -21.2092 23.5091 6.6790
# 3 17.4830 7.0746 80.2644 -11.2928 35.6536 -6.9983
# 4 -0.9165 -21.2092 -11.2928 29.3765 -9.8856 7.4489
# 5 28.4575 23.5091 35.6536 -9.8856 50.5803 1.4372
# 6 12.5575 6.6790 -6.9983 7.4489 1.4372 57.7002
#
#
#
# Elastic Compliance Matrix: (Units=1/GPa)
#
#
# Indices 1 2 3 4 5 6 
#
# 1 0.011815 -0.001473 -0.000172 -0.002366 -0.006248 -0.001960
# 2 -0.001473 0.016494 0.003308 0.011459 -0.006859 -0.002496
# 3 -0.000172 0.003308 0.019315 0.004580 -0.014211 0.001760
# 4 -0.002366 0.011459 0.004580 0.046265 0.001998 -0.006278
# 5 -0.006248 -0.006859 -0.014211 0.001998 0.036902 -0.000747
# 6 -0.001960 -0.002496 0.001760 -0.006278 -0.000747 0.019089
#
#
# Mechanical properties :
#
#
# Convention : Reuss Voigt Hill
#
# Bulk Modulus (GPa) = 19.62717 40.07162 29.84939
# Shear Modulus (GPa) = 30.57425 42.62596 36.60010
#
# Velocity S-wave (km/s) = 3.62258 4.27738 3.96353
# Velocity P-wave (km/s) = 5.09135 6.44936 5.81017
#
# Compressibility (1/GPa) = 0.05094979
#
# Stress axis : x y z
#
# Youngs Moduli (GPa) = 84.64118 60.62907 51.77340
#
# Poissons Ratio (x) = 0.08931 0.00891
# Poissons Ratio (y) = 0.12468 -0.17129
# Poissons Ratio (z) = 0.01457 -0.20059
#
# Static dielectric constant tensor:
#      x y z
#    x 1.875190 0.038210 -0.002080 
#    y 0.038210 1.940310 0.016900 
#    z -0.002080 0.016900 1.876520 
# 
# From -- ./inp_files/278580.got.cif
#   From: 2010.05.17/outbox.cif.g08.bks.cpg/sg2_140_cif.got.tgz:278580.got - 2010.06.03 11:33:40.
