data_PCOD9014110
_publ_section_title
;
Structure prediction by ZEFSAII (Michael W. Deem and Ramdas Pophale) SiO2 
 PCOD9014110
Probable space group: P -1
;
_chemical_formula_sum "Si O2"
_cell_formula_units_Z 16
_cell_length_a 15.282003
_cell_length_b 13.672800
_cell_length_c 19.448102
_cell_angle_alpha 25.913127
_cell_angle_beta 150.693906
_cell_angle_gamma 132.687866
_cell_volume 754.209947
_symmetry_space_group_name_H-M "P -1"
_symmetry_group_IT_number 2
_symmetry_cell_setting 'triclinic'
loop_
_space_group_symop_operation_xyz
x,y,z
-x,-y,-z
loop_
_atom_site_type_symbol
_atom_site_label
_atom_site_fract_x
_atom_site_fract_y
_atom_site_fract_z
Si Si1 0.311290 0.678695 0.705446
Si Si2 0.547135 0.435897 0.882957
Si Si3 0.957693 0.558439 0.351773
Si Si4 0.603046 0.148476 0.719584
Si Si5 0.344350 0.496964 0.568889
Si Si6 0.187441 0.231345 0.323326
Si Si7 0.395926 0.141271 0.721161
Si Si8 0.994365 0.266190 0.315833
O O1 0.390542 0.593005 0.736591
O O2 0.124415 0.622168 0.621976
O O3 0.230225 0.978473 0.471284
O O4 0.500000 0.500000 0.000000
O O5 0.480610 0.526823 0.702461
O O6 0.751627 0.453605 0.028196
O O7 0.565129 0.149949 0.076889
O O8 0.000000 0.500000 0.500000
O O9 0.152549 0.525963 0.463450
O O10 0.773785 0.849757 0.030578
O O11 0.699033 0.305216 0.648845
O O12 0.407455 0.208698 0.500172
O O13 0.505171 0.208777 0.691302
O O14 0.460261 0.219838 0.785830
O O15 0.108912 0.216977 0.353736
O O16 0.000000 0.500000 0.000000
O O17 0.144834 0.310122 0.440690
O O18 0.000000 0.000000 0.500000
#
# Coordination Sequence:
#
# PCOD9014110 Si02
#       8
#     2   2   2   2   2   2   2   2
#     4  12  23  45  78  95 135 189 236 285 346 404
#     4  11  22  42  64 103 134 178 235 284 334 419
#     4  12  25  47  69 102 138 183 243 287 337 421
#     4  11  23  48  67  99 146 183 231 287 352 415
#     4  12  25  40  67 101 142 182 223 287 351 410
#     4  11  24  45  70 104 136 175 227 293 349 404
#     4  10  21  41  66  97 135 183 231 278 343 411
#     4   9  20  38  65  94 133 170 229 280 330 407
#
# _framework density 21.214251000000001
#
# number of rings (size 3 to 8) (size 9 to 14) (size 15 to 20)
#    0.000    1.000    3.750    3.375    5.250    0.000 
#    9.000    2.500    0.000    0.000    0.000    0.000 
#    0.000    0.000    0.000    0.000    0.000    0.000 
#
# Total GULP energy -89264.560571 kJ/mol
# GULP energy per Si atom -5579.035036 kJ/mol
# Density = 2.116597 g / cm^3
# Si number density = 21.214251 Si / 1000 Ang^3
#
#
#
# Elastic Constant Matrix: (Units=GPa)
#
#
# Indices 1 2 3 4 5 6 
#
# 1 -553.1618 -543.8927 -37.4385 -267.0234 -715.5804 524.1819
# 2 -543.8927 -418.1245 -22.9201 -227.7488 -589.9725 421.9190
# 3 -37.4385 -22.9201 97.8699 -35.6913 -76.0410 47.7215
# 4 -267.0234 -227.7488 -35.6913 -71.6659 -267.6263 201.1255
# 5 -715.5804 -589.9725 -76.0410 -267.6263 -693.1177 530.9217
# 6 524.1819 421.9190 47.7215 201.1255 530.9217 -342.3440
#
#
#
# Elastic Compliance Matrix: (Units=1/GPa)
#
#
# Indices 1 2 3 4 5 6 
#
# 1 0.007632 -0.005445 -0.000952 -0.002417 -0.002206 0.000001
# 2 -0.005445 0.021421 -0.005540 0.001325 -0.007052 0.007134
# 3 -0.000952 -0.005540 0.012038 0.002595 0.002754 -0.000812
# 4 -0.002417 0.001325 0.002595 0.033061 -0.010049 0.002133
# 5 -0.002206 -0.007052 0.002754 -0.010049 0.016270 0.007643
# 6 0.000001 0.007134 -0.000812 0.002133 0.007643 0.018865
#
#
# Mechanical properties :
#
#
# Convention : Reuss Voigt Hill
#
# Bulk Modulus (GPa) = 58.08045 -231.32432 -86.62194
# Shear Modulus (GPa) = 35.99723 -239.36985 -101.68631
#
# Velocity S-wave (km/s) = 4.12374 -10.63388 -6.93088
# Velocity P-wave (km/s) = 7.07892 16.12610 10.24549
#
# Compressibility (1/GPa) = 0.01721750
#
# Stress axis : x y z
#
# Youngs Moduli (GPa) = 131.03130 46.68216 83.07074
#
# Poissons Ratio (x) = 0.25418 0.07906
# Poissons Ratio (y) = 0.71345 0.46023
# Poissons Ratio (z) = 0.12470 0.25863
#
# Static dielectric constant tensor:
#      x y z
#    x 1.752130 0.052920 -0.013250 
#    y 0.052920 1.920190 0.058740 
#    z -0.013250 0.058740 1.842350 
# 
# From -- ./inp_files/573573.got.cif
#   From: 2010.05.17/outbox.cif.g08.bks.cpg/sg2_287_cif.got.tgz:573573.got - 2010.06.03 11:33:40.
