data_PCOD9014314
_publ_section_title
;
Structure prediction by ZEFSAII (Michael W. Deem and Ramdas Pophale) SiO2 
 PCOD9014314
Probable space group: P -1
;
_chemical_formula_sum "Si O2"
_cell_formula_units_Z 16
_cell_length_a 5.528422
_cell_length_b 14.980092
_cell_length_c 8.981530
_cell_angle_alpha 88.322545
_cell_angle_beta 85.451731
_cell_angle_gamma 68.342756
_cell_volume 689.132454
_symmetry_space_group_name_H-M "P -1"
_symmetry_group_IT_number 2
_symmetry_cell_setting 'triclinic'
loop_
_space_group_symop_operation_xyz
x,y,z
-x,-y,-z
loop_
_atom_site_type_symbol
_atom_site_label
_atom_site_fract_x
_atom_site_fract_y
_atom_site_fract_z
Si Si1 0.616707 0.801453 0.972266
Si Si2 0.659968 0.895450 0.682093
Si Si3 0.812167 0.035215 0.867568
Si Si4 0.238182 0.440853 0.599484
Si Si5 0.880114 0.940851 0.400519
Si Si6 0.549132 0.395450 0.317911
Si Si7 0.117405 0.535214 0.132431
Si Si8 0.219621 0.698544 0.972261
O O1 0.612171 0.817795 0.792684
O O2 0.429432 0.742457 0.010349
O O3 0.914352 0.757538 0.010344
O O4 0.469740 0.900929 0.060025
O O5 0.807862 0.869378 0.518121
O O6 0.811225 0.943289 0.781226
O O7 0.387195 0.981608 0.654728
O O8 0.922202 0.094337 0.744074
O O9 0.000000 0.000000 0.000000
O O10 0.453384 0.369381 0.481885
O O11 0.350405 0.518394 0.654731
O O12 0.000000 0.500000 0.500000
O O13 0.110874 0.405663 0.744077
O O14 0.000000 0.000000 0.500000
O O15 0.302196 0.443290 0.218777
O O16 0.752231 0.317793 0.207322
O O17 0.271605 0.599067 0.060018
O O18 0.000000 0.500000 0.000000
#
# Coordination Sequence:
#
# PCOD9014314 Si02
#       8
#     2   2   2   2   2   2   2   2
#     4  12  27  41  63  99 141 173 212 273 351 393
#     4  10  21  41  67  94 125 173 226 270 314 394
#     4  11  21  40  70  96 125 171 224 275 315 394
#     4   9  20  37  69  94 119 158 234 269 315 370
#     4   9  20  37  69  94 119 158 234 269 315 370
#     4  10  21  41  67  94 125 173 226 270 314 394
#     4  11  21  40  70  96 125 171 224 275 315 394
#     4  12  27  41  63  99 141 173 212 273 351 393
#
# _framework density 23.217596
#
# number of rings (size 3 to 8) (size 9 to 14) (size 15 to 20)
#    0.000    1.500    2.500    2.250    7.000    0.000 
#    0.000    2.500    0.000    0.000    0.000    0.000 
#    0.000    0.000    0.000    0.000    0.000    0.000 
#
# Total GULP energy -89420.032156 kJ/mol
# GULP energy per Si atom -5588.752010 kJ/mol
# Density = 2.316475 g / cm^3
# Si number density = 23.217596 Si / 1000 Ang^3
#
#
#
# Elastic Constant Matrix: (Units=GPa)
#
#
# Indices 1 2 3 4 5 6 
#
# 1 110.9489 22.3651 48.3848 -1.4805 -7.4606 -0.3910
# 2 22.3651 38.4053 16.9581 3.2209 -11.6552 -6.6814
# 3 48.3848 16.9581 130.8095 2.0868 -22.3947 -3.0982
# 4 -1.4805 3.2209 2.0868 31.0246 -3.3175 -10.8097
# 5 -7.4606 -11.6552 -22.3947 -3.3175 64.6623 -1.5575
# 6 -0.3910 -6.6814 -3.0982 -10.8097 -1.5575 41.6232
#
#
#
# Elastic Compliance Matrix: (Units=1/GPa)
#
#
# Indices 1 2 3 4 5 6 
#
# 1 0.011772 -0.005695 -0.003816 0.001007 -0.000959 -0.000862
# 2 -0.005695 0.032271 -0.001114 -0.001332 0.004823 0.004878
# 3 -0.003816 -0.001114 0.009682 -0.000237 0.002713 0.000546
# 4 0.001007 -0.001332 -0.000237 0.035821 0.001852 0.009150
# 5 -0.000959 0.004823 0.002713 0.001852 0.017309 0.002096
# 6 -0.000862 0.004878 0.000546 0.009150 0.002096 0.027295
#
#
# Mechanical properties :
#
#
# Convention : Reuss Voigt Hill
#
# Bulk Modulus (GPa) = 30.79609 50.61997 40.70803
# Shear Modulus (GPa) = 30.07953 40.29242 35.18597
#
# Velocity S-wave (km/s) = 3.60328 4.17036 3.89715
# Velocity P-wave (km/s) = 5.53212 6.71111 6.14993
#
# Compressibility (1/GPa) = 0.03247165
#
# Stress axis : x y z
#
# Youngs Moduli (GPa) = 84.95089 30.98766 103.28415
#
# Poissons Ratio (x) = 0.17649 0.39418
# Poissons Ratio (y) = 0.48383 0.11511
# Poissons Ratio (z) = 0.32421 0.03453
#
# Static dielectric constant tensor:
#      x y z
#    x 1.954190 -0.002740 -0.051090 
#    y -0.002740 1.925310 0.005030 
#    z -0.051090 0.005030 1.910650 
# 
# From -- ./inp_files/137722.got.cif
#   From: 2010.05.17/outbox.cif.g08.bks.cpg/sg2_69_cif.got.tgz:137722.got - 2010.06.03 11:33:40.
