data_PCOD9014185
_publ_section_title
;
Structure prediction by ZEFSAII (Michael W. Deem and Ramdas Pophale) SiO2 
 PCOD9014185
Probable space group: P -1
;
_chemical_formula_sum "Si O2"
_cell_formula_units_Z 12
_cell_length_a 14.823022
_cell_length_b 5.120947
_cell_length_c 10.254992
_cell_angle_alpha 93.412308
_cell_angle_beta 37.505565
_cell_angle_gamma 84.808780
_cell_volume 460.798329
_symmetry_space_group_name_H-M "P -1"
_symmetry_group_IT_number 2
_symmetry_cell_setting 'triclinic'
loop_
_space_group_symop_operation_xyz
x,y,z
-x,-y,-z
loop_
_atom_site_type_symbol
_atom_site_label
_atom_site_fract_x
_atom_site_fract_y
_atom_site_fract_z
Si Si1 0.274635 0.071224 0.230767
Si Si2 0.902236 0.369398 0.505836
Si Si3 0.384461 0.050555 0.363767
Si Si4 0.460192 0.498455 0.696908
Si Si5 0.794105 0.737061 0.975073
Si Si6 0.891353 0.798440 0.133902
O O1 0.237604 0.376943 0.339410
O O2 0.395851 0.942590 0.199080
O O3 0.272829 0.112089 0.077564
O O4 0.150331 0.891765 0.393624
O O5 0.000000 0.500000 0.500000
O O6 0.023576 0.310059 0.249470
O O7 0.466415 0.290293 0.305745
O O8 0.211271 0.141858 0.617309
O O9 0.462146 0.797505 0.353111
O O10 0.500000 0.500000 0.500000
O O11 0.281706 0.520850 0.935414
O O12 0.772276 0.851095 0.149809
O O13 0.000000 0.500000 0.000000
O O14 0.000000 0.000000 0.000000
#
# Coordination Sequence:
#
# PCOD9014185 Si02
#       6
#     2   2   2   2   2   2
#     4  11  24  44  71 104 137 174 223 294 345 398
#     4  10  21  41  67 101 137 171 220 281 344 402
#     4  12  26  47  69 100 143 175 232 287 335 400
#     4  12  27  47  70  97 141 189 230 278 329 414
#     4  11  25  43  73  98 138 183 229 271 349 407
#     4  12  26  43  70 102 133 176 229 282 340 403
#
# _framework density 26.041765000000002
#
# number of rings (size 3 to 8) (size 9 to 14) (size 15 to 20)
#    0.000    0.667    1.667    6.500    0.000    8.000 
#    0.000    0.000    0.000    0.000    0.000    0.000 
#    0.000    0.000    0.000    0.000    0.000    0.000 
#
# Total GULP energy -67071.962111 kJ/mol
# GULP energy per Si atom -5589.330176 kJ/mol
# Density = 2.598249 g / cm^3
# Si number density = 26.041765 Si / 1000 Ang^3
#
#
#
# Elastic Constant Matrix: (Units=GPa)
#
#
# Indices 1 2 3 4 5 6 
#
# 1 188.6102 28.6704 27.4751 -36.7905 35.0642 10.9842
# 2 28.6704 153.4222 63.8796 -42.5367 -9.1564 17.9996
# 3 27.4751 63.8796 160.7481 -33.0894 18.6806 0.8621
# 4 -36.7905 -42.5367 -33.0894 58.4991 0.3675 -12.7000
# 5 35.0642 -9.1564 18.6806 0.3675 37.3079 -13.0568
# 6 10.9842 17.9996 0.8621 -12.7000 -13.0568 47.4437
#
#
#
# Elastic Compliance Matrix: (Units=1/GPa)
#
#
# Indices 1 2 3 4 5 6 
#
# 1 0.008068 -0.000920 0.000996 0.004388 -0.009381 -0.002944
# 2 -0.000920 0.009650 -0.003305 0.004325 0.004498 -0.000992
# 3 0.000996 -0.003305 0.008739 0.003212 -0.006142 0.000034
# 4 0.004388 0.004325 0.003212 0.025503 -0.003855 0.003051
# 5 -0.009381 0.004498 -0.006142 -0.003855 0.043908 0.011629
# 6 -0.002944 -0.000992 0.000034 0.003051 0.011629 0.026152
#
#
# Mechanical properties :
#
#
# Convention : Reuss Voigt Hill
#
# Bulk Modulus (GPa) = 50.00239 82.53672 66.26955
# Shear Modulus (GPa) = 36.99771 54.16717 45.58244
#
# Velocity S-wave (km/s) = 3.77332 4.56566 4.18827
# Velocity P-wave (km/s) = 6.18275 7.71728 6.99224
#
# Compressibility (1/GPa) = 0.01999904
#
# Stress axis : x y z
#
# Youngs Moduli (GPa) = 123.94415 103.62872 114.43242
#
# Poissons Ratio (x) = 0.09536 -0.11396
# Poissons Ratio (y) = 0.11406 0.37815
# Poissons Ratio (z) = -0.12344 0.34244
#
# Static dielectric constant tensor:
#      x y z
#    x 2.345170 -0.124260 -0.113310 
#    y -0.124260 2.040730 0.131080 
#    z -0.113310 0.131080 2.220660 
# 
# From -- ./inp_files/458836.got.cif
#   From: 2010.05.17/outbox.cif.g08.bks.cpg/sg2_230_cif.got.tgz:458836.got - 2010.06.03 11:33:40.
