data_PCOD9014900
_publ_section_title
;
Structure prediction by ZEFSAII (Michael W. Deem and Ramdas Pophale) SiO2 
 PCOD9014900
Probable space group: P -1
;
_chemical_formula_sum "Si O2"
_cell_formula_units_Z 16
_cell_length_a 8.534667
_cell_length_b 11.612192
_cell_length_c 9.433458
_cell_angle_alpha 85.556086
_cell_angle_beta 131.301679
_cell_angle_gamma 111.177072
_cell_volume 637.397401
_symmetry_space_group_name_H-M "P -1"
_symmetry_group_IT_number 2
_symmetry_cell_setting 'triclinic'
loop_
_space_group_symop_operation_xyz
x,y,z
-x,-y,-z
loop_
_atom_site_type_symbol
_atom_site_label
_atom_site_fract_x
_atom_site_fract_y
_atom_site_fract_z
Si Si1 0.678973 0.820124 0.305767
Si Si2 0.224617 0.652904 0.472945
Si Si3 0.879188 0.926754 0.143304
Si Si4 0.039341 0.625183 0.683070
Si Si5 0.591251 0.447636 0.926090
Si Si6 0.089270 0.294980 0.954650
Si Si7 0.619626 0.901474 0.578523
Si Si8 0.775187 0.155793 0.041011
O O1 0.889067 0.894995 0.319331
O O2 0.666144 0.862158 0.452985
O O3 0.604531 0.669647 0.257559
O O4 0.470215 0.841380 0.104578
O O5 0.137871 0.648717 0.581385
O O6 0.465517 0.770696 0.577378
O O7 0.186905 0.507261 0.434513
O O8 0.052049 0.680904 0.261583
O O9 0.792619 0.792836 0.026452
O O10 0.741944 0.012156 0.035115
O O11 0.127977 0.015178 0.222021
O O12 0.218724 0.595789 0.892631
O O13 0.059085 0.759023 0.743055
O O14 0.725920 0.569422 0.897814
O O15 0.500000 0.500000 0.000000
O O16 0.907434 0.224106 0.972267
O O17 0.500000 0.000000 0.500000
#
# Coordination Sequence:
#
# PCOD9014900 Si02
#       8
#     2   2   2   2   2   2   2   2
#     4  11  24  44  68 100 131 183 222 274 339 396
#     4  10  21  44  65  93 132 172 225 258 341 390
#     4  12  25  42  63 102 139 174 222 274 334 401
#     4   9  23  40  69  96 128 177 215 282 328 395
#     4  10  21  41  69  99 128 170 226 280 335 394
#     4  11  22  42  72  94 130 177 224 278 331 400
#     4  12  25  42  68  99 135 181 222 271 332 404
#     4  11  24  43  67 101 132 172 226 280 335 392
#
# _framework density 25.102080000000001
#
# number of rings (size 3 to 8) (size 9 to 14) (size 15 to 20)
#    0.000    1.250    3.750    1.125    3.500    3.500 
#    6.750    0.625    0.000    0.000    0.000    0.000 
#    0.000    0.000    0.000    0.000    0.000    0.000 
#
# Total GULP energy -89588.675035 kJ/mol
# GULP energy per Si atom -5599.292190 kJ/mol
# Density = 2.504495 g / cm^3
# Si number density = 25.102080 Si / 1000 Ang^3
#
#
#
# Elastic Constant Matrix: (Units=GPa)
#
#
# Indices 1 2 3 4 5 6 
#
# 1 70.1386 56.0508 8.9610 7.7229 -12.6642 4.1308
# 2 56.0508 143.4192 41.9774 -4.2913 -8.7800 30.7413
# 3 8.9610 41.9774 69.4494 15.2697 -18.6088 -0.5624
# 4 7.7229 -4.2913 15.2697 23.6811 -1.3673 -1.0145
# 5 -12.6642 -8.7800 -18.6088 -1.3673 35.5407 -4.4525
# 6 4.1308 30.7413 -0.5624 -1.0145 -4.4525 50.9987
#
#
#
# Elastic Compliance Matrix: (Units=1/GPa)
#
#
# Indices 1 2 3 4 5 6 
#
# 1 0.033197 -0.020206 0.017866 -0.024595 0.016580 0.010646
# 2 -0.020206 0.023512 -0.020061 0.022477 -0.012712 -0.013420
# 3 0.017866 -0.020061 0.036885 -0.031505 0.021047 0.012263
# 4 -0.024595 0.022477 -0.031505 0.073057 -0.018407 -0.012058
# 5 0.016580 -0.012712 0.021047 -0.018407 0.042455 0.009892
# 6 0.010646 -0.013420 0.012263 -0.012058 0.009892 0.027594
#
#
# Mechanical properties :
#
#
# Convention : Reuss Voigt Hill
#
# Bulk Modulus (GPa) = 20.49507 55.22063 37.85785
# Shear Modulus (GPa) = 16.79161 33.77863 25.28512
#
# Velocity S-wave (km/s) = 2.58918 3.67229 3.17723
# Velocity P-wave (km/s) = 4.13774 6.32670 5.34547
#
# Compressibility (1/GPa) = 0.04879223
#
# Stress axis : x y z
#
# Youngs Moduli (GPa) = 30.12286 42.53135 27.11128
#
# Poissons Ratio (x) = 0.85940 -0.48438
# Poissons Ratio (y) = 0.60867 0.54388
# Poissons Ratio (z) = -0.53818 0.85322
#
# Static dielectric constant tensor:
#      x y z
#    x 1.982510 -0.034330 0.028310 
#    y -0.034330 2.030780 0.018020 
#    z 0.028310 0.018020 2.011800 
# 
# From -- ./inp_files/186975.got.cif
#   From: 2010.05.17/outbox.cif.g08.bks.cpg/sg2_94_cif.got.tgz:186975.got - 2010.06.03 11:33:40.
