data_PCOD9014030
_publ_section_title
;
Structure prediction by ZEFSAII (Michael W. Deem and Ramdas Pophale) SiO2 
 PCOD9014030
Probable space group: P -1
;
_chemical_formula_sum "Si O2"
_cell_formula_units_Z 16
_cell_length_a 8.325188
_cell_length_b 9.611554
_cell_length_c 20.741130
_cell_angle_alpha 55.763876
_cell_angle_beta 130.256213
_cell_angle_gamma 84.721174
_cell_volume 724.441837
_symmetry_space_group_name_H-M "P -1"
_symmetry_group_IT_number 2
_symmetry_cell_setting 'triclinic'
loop_
_space_group_symop_operation_xyz
x,y,z
-x,-y,-z
loop_
_atom_site_type_symbol
_atom_site_label
_atom_site_fract_x
_atom_site_fract_y
_atom_site_fract_z
Si Si1 0.288771 0.878360 0.648655
Si Si2 0.756319 0.499262 0.058565
Si Si3 0.286893 0.610911 0.052497
Si Si4 0.636015 0.776502 0.647050
Si Si5 0.760444 0.667357 0.577236
Si Si6 0.470575 0.189154 0.904697
Si Si7 0.266475 0.095010 0.081264
Si Si8 0.720157 0.743255 0.402287
O O1 0.407703 0.674884 0.783696
O O2 0.559343 0.730176 0.705578
O O3 0.220657 0.096763 0.605562
O O4 0.000000 0.000000 0.500000
O O5 0.024544 0.344795 0.221558
O O6 0.500000 0.500000 0.000000
O O7 0.894660 0.364500 0.060399
O O8 0.657887 0.751699 0.956479
O O9 0.387205 0.743859 0.034019
O O10 0.074921 0.725186 0.029810
O O11 0.637378 0.656348 0.615331
O O12 0.370608 0.072290 0.505038
O O13 0.659446 0.693260 0.470342
O O14 0.122137 0.435585 0.732721
O O15 0.653259 0.058022 0.920559
O O16 0.500000 0.000000 0.000000
O O17 0.453276 0.911375 0.237571
O O18 0.000000 0.500000 0.500000
#
# Coordination Sequence:
#
# PCOD9014030 Si02
#       8
#     2   2   2   2   2   2   2   2
#     4  11  23  40  71 103 132 178 235 285 339 407
#     4  12  24  43  73 102 138 178 229 292 347 405
#     4  12  23  42  68 103 135 176 241 287 333 411
#     4  10  21  41  69 101 134 175 225 287 342 408
#     4  10  21  41  66  94 134 177 222 279 342 407
#     4  12  26  44  68  97 142 188 227 282 361 410
#     4  12  24  44  68 101 138 185 232 285 343 415
#     4  11  22  43  67  97 138 181 221 278 348 413
#
# _framework density 22.08597
#
# number of rings (size 3 to 8) (size 9 to 14) (size 15 to 20)
#    0.000    0.750    3.750    6.000    0.000    1.000 
#    0.000    0.000    0.000    3.000    0.000    0.000 
#    0.000    0.000    0.000    0.000    0.000    0.000 
#
# Total GULP energy -89209.931268 kJ/mol
# GULP energy per Si atom -5575.620704 kJ/mol
# Density = 2.203570 g / cm^3
# Si number density = 22.085970 Si / 1000 Ang^3
#
#
#
# Elastic Constant Matrix: (Units=GPa)
#
#
# Indices 1 2 3 4 5 6 
#
# 1 69.1181 30.7804 19.7854 -9.8659 -2.1417 -6.0697
# 2 30.7804 116.8255 26.7431 2.6214 -13.3461 -30.4488
# 3 19.7854 26.7431 129.5254 -2.4867 -7.5555 -1.9953
# 4 -9.8659 2.6214 -2.4867 35.7153 -7.1584 3.5874
# 5 -2.1417 -13.3461 -7.5555 -7.1584 26.3414 0.1819
# 6 -6.0697 -30.4488 -1.9953 3.5874 0.1819 43.9146
#
#
#
# Elastic Compliance Matrix: (Units=1/GPa)
#
#
# Indices 1 2 3 4 5 6 
#
# 1 0.017687 -0.004757 -0.001640 0.005256 -0.000005 -0.001358
# 2 -0.004757 0.013007 -0.001574 -0.002206 0.005094 0.008449
# 3 -0.001640 -0.001574 0.008391 0.000681 0.001668 -0.000999
# 4 0.005256 -0.002206 0.000681 0.031629 0.008124 -0.003390
# 5 -0.000005 0.005094 0.001668 0.008124 0.043211 0.002765
# 6 -0.001358 0.008449 -0.000999 -0.003390 0.002765 0.028662
#
#
# Mechanical properties :
#
#
# Convention : Reuss Voigt Hill
#
# Bulk Modulus (GPa) = 43.20934 52.23186 47.72060
# Shear Modulus (GPa) = 30.07668 37.07162 33.57415
#
# Velocity S-wave (km/s) = 3.69426 4.10141 3.90315
# Velocity P-wave (km/s) = 6.14845 6.79187 6.47815
#
# Compressibility (1/GPa) = 0.02314315
#
# Stress axis : x y z
#
# Youngs Moduli (GPa) = 56.53970 76.88278 119.17613
#
# Poissons Ratio (x) = 0.36572 0.19543
# Poissons Ratio (y) = 0.26895 0.18758
# Poissons Ratio (z) = 0.09272 0.12101
#
# Static dielectric constant tensor:
#      x y z
#    x 1.687470 0.176330 -0.022080 
#    y 0.176330 1.603400 -0.036160 
#    z -0.022080 -0.036160 1.873190 
# 
# From -- ./inp_files/587923.got.cif
#   From: 2010.05.17/outbox.cif.g08.bks.cpg/sg2_294_cif.got.tgz:587923.got - 2010.06.03 11:33:40.
