data_PCOD9014779
_publ_section_title
;
Structure prediction by ZEFSAII (Michael W. Deem and Ramdas Pophale) SiO2 
 PCOD9014779
Probable space group: P -1
;
_chemical_formula_sum "Si O2"
_cell_formula_units_Z 14
_cell_length_a 9.092856
_cell_length_b 9.545440
_cell_length_c 15.682355
_cell_angle_alpha 142.506779
_cell_angle_beta 66.326974
_cell_angle_gamma 104.373838
_cell_volume 752.712392
_symmetry_space_group_name_H-M "P -1"
_symmetry_group_IT_number 2
_symmetry_cell_setting 'triclinic'
loop_
_space_group_symop_operation_xyz
x,y,z
-x,-y,-z
loop_
_atom_site_type_symbol
_atom_site_label
_atom_site_fract_x
_atom_site_fract_y
_atom_site_fract_z
Si Si1 0.946274 0.858178 0.025239
Si Si2 0.641899 0.768668 0.145773
Si Si3 0.890907 0.376858 0.578269
Si Si4 0.683561 0.987811 0.423714
Si Si5 0.707590 0.224604 0.840640
Si Si6 0.019780 0.324214 0.713014
Si Si7 0.114973 0.137431 0.259827
O O1 0.754888 0.847977 0.081568
O O2 0.012979 0.979336 0.150382
O O3 0.019895 0.589424 0.871038
O O4 0.000000 0.000000 0.000000
O O5 0.692321 0.888479 0.277891
O O6 0.451246 0.821849 0.196774
O O7 0.676827 0.488890 0.009762
O O8 0.844125 0.649396 0.704245
O O9 0.979533 0.333469 0.626945
O O10 0.009200 0.261514 0.421361
O O11 0.736195 0.242246 0.543019
O O12 0.813369 0.826078 0.372582
O O13 0.500000 0.000000 0.500000
O O14 0.870505 0.221573 0.744956
O O15 0.741786 0.033858 0.814056
#
# Coordination Sequence:
#
# PCOD9014779 Si02
#       7
#     2   2   2   2   2   2   2
#     4  11  21  42  66  89 123 162 209 257 303 366
#     4  10  22  40  63  97 120 162 213 259 299 363
#     4  11  23  39  60  94 126 162 203 245 317 373
#     4  12  24  39  63  94 129 159 210 256 305 371
#     4  10  21  41  69  88 125 162 211 257 306 361
#     4  11  22  40  68  90 119 170 210 248 309 370
#     4  11  22  40  63  89 126 165 198 256 311 366
#
# _framework density 18.599401
#
# number of rings (size 3 to 8) (size 9 to 14) (size 15 to 20)
#    0.000    1.143    4.286    2.143    2.000    2.286 
#    2.571    1.429    0.000    0.000    0.000    0.000 
#    0.000    0.000    0.000    0.000    0.000    0.000 
#
# Total GULP energy -78182.199805 kJ/mol
# GULP energy per Si atom -5584.442843 kJ/mol
# Density = 1.855707 g / cm^3
# Si number density = 18.599401 Si / 1000 Ang^3
#
#
#
# Elastic Constant Matrix: (Units=GPa)
#
#
# Indices 1 2 3 4 5 6 
#
# 1 144.4809 76.6592 54.6891 14.5726 -1.9857 -2.6341
# 2 76.6592 101.9322 40.9696 15.3615 -6.3990 1.8024
# 3 54.6891 40.9696 81.0833 7.2120 17.1202 -0.3056
# 4 14.5726 15.3615 7.2120 30.9837 2.9370 6.4617
# 5 -1.9857 -6.3990 17.1202 2.9370 38.8379 -0.1549
# 6 -2.6341 1.8024 -0.3056 6.4617 -0.1549 28.3508
#
#
#
# Elastic Compliance Matrix: (Units=1/GPa)
#
#
# Indices 1 2 3 4 5 6 
#
# 1 0.013093 -0.007309 -0.005381 -0.001901 0.001989 0.002067
# 2 -0.007309 0.018413 -0.005054 -0.004852 0.005252 -0.000770
# 3 -0.005381 -0.005054 0.020570 0.001286 -0.010274 -0.000306
# 4 -0.001901 -0.004852 0.001286 0.037440 -0.004329 -0.008411
# 5 0.001989 0.005252 -0.010274 -0.004329 0.031575 0.000899
# 6 0.002067 -0.000770 -0.000306 -0.008411 0.000899 0.037432
#
#
# Mechanical properties :
#
#
# Convention : Reuss Voigt Hill
#
# Bulk Modulus (GPa) = 60.28594 74.68136 67.48365
# Shear Modulus (GPa) = 25.05747 29.97970 27.51859
#
# Velocity S-wave (km/s) = 3.67443 4.01916 3.85065
# Velocity P-wave (km/s) = 7.10529 7.85989 7.49210
#
# Compressibility (1/GPa) = 0.01658762
#
# Stress axis : x y z
#
# Youngs Moduli (GPa) = 76.37632 54.30829 48.61499
#
# Poissons Ratio (x) = 0.39695 0.26159
# Poissons Ratio (y) = 0.55825 0.24571
# Poissons Ratio (z) = 0.41098 0.27449
#
# Static dielectric constant tensor:
#      x y z
#    x 1.614160 0.027540 0.004960 
#    y 0.027540 1.695750 -0.003920 
#    z 0.004960 -0.003920 1.655230 
# 
# From -- ./inp_files/153719.got.cif
#   From: 2010.05.17/outbox.cif.g08.bks.cpg/sg2_77_cif.got.tgz:153719.got - 2010.06.03 11:33:40.
