data_PCOD9014823
_publ_section_title
;
Structure prediction by ZEFSAII (Michael W. Deem and Ramdas Pophale) SiO2 
 PCOD9014823
Probable space group: P -1
;
_chemical_formula_sum "Si O2"
_cell_formula_units_Z 16
_cell_length_a 12.220060
_cell_length_b 9.156513
_cell_length_c 14.516655
_cell_angle_alpha 81.600970
_cell_angle_beta 148.283651
_cell_angle_gamma 83.989671
_cell_volume 758.497422
_symmetry_space_group_name_H-M "P -1"
_symmetry_group_IT_number 2
_symmetry_cell_setting 'triclinic'
loop_
_space_group_symop_operation_xyz
x,y,z
-x,-y,-z
loop_
_atom_site_type_symbol
_atom_site_label
_atom_site_fract_x
_atom_site_fract_y
_atom_site_fract_z
Si Si1 0.617801 0.561819 0.999604
Si Si2 0.475739 0.493536 0.263867
Si Si3 0.403307 0.222492 0.696792
Si Si4 0.930652 0.732733 0.839612
Si Si5 0.536037 0.651506 0.551886
Si Si6 0.456293 0.841750 0.987533
Si Si7 0.005889 0.791412 0.692697
Si Si8 0.739058 0.028838 0.799342
O O1 0.499088 0.576071 0.814918
O O2 0.500000 0.500000 0.000000
O O3 0.597921 0.727322 0.014558
O O4 0.864258 0.406749 0.182742
O O5 0.615986 0.602121 0.368867
O O6 0.533992 0.350416 0.392138
O O7 0.202199 0.626387 0.066936
O O8 0.454969 0.229105 0.840574
O O9 0.187096 0.184864 0.522844
O O10 0.610508 0.082959 0.799922
O O11 0.803435 0.618139 0.741014
O O12 0.911197 0.841801 0.724041
O O13 0.774954 0.858087 0.795186
O O14 0.500000 0.500000 0.500000
O O15 0.395385 0.818528 0.379754
O O16 0.194393 0.856599 0.795090
O O17 0.500000 0.000000 0.000000
O O18 0.000000 0.000000 0.000000
#
# Coordination Sequence:
#
# PCOD9014823 Si02
#       8
#     2   2   2   2   2   2   2   2
#     4   9  19  42  69  88 126 173 217 269 341 390
#     4  11  21  41  67  98 130 178 224 278 323 395
#     4  12  22  41  71  90 134 176 222 269 341 391
#     4  11  21  42  64  91 139 177 212 272 334 397
#     4  12  23  37  61 101 130 171 235 266 314 407
#     4  11  24  45  67  97 130 165 222 287 333 395
#     4  10  21  41  69  94 125 175 223 263 337 404
#     4  12  23  40  66  95 136 187 214 266 343 391
#
# _framework density 21.094336999999999
#
# number of rings (size 3 to 8) (size 9 to 14) (size 15 to 20)
#    0.000    1.000    7.500    0.750    0.000    2.000 
#    0.000    6.250    0.000    0.000    0.000    0.000 
#    0.000    0.000    0.000    0.000    0.000    0.000 
#
# Total GULP energy -89260.968764 kJ/mol
# GULP energy per Si atom -5578.810548 kJ/mol
# Density = 2.104633 g / cm^3
# Si number density = 21.094337 Si / 1000 Ang^3
#
#
#
# Elastic Constant Matrix: (Units=GPa)
#
#
# Indices 1 2 3 4 5 6 
#
# 1 80.4378 14.5461 4.4194 10.8081 -13.4070 -12.3534
# 2 14.5461 103.8785 6.9011 26.6779 11.0489 -6.3106
# 3 4.4194 6.9011 79.0132 33.7709 0.7424 9.2086
# 4 10.8081 26.6779 33.7709 29.6733 7.8387 2.1429
# 5 -13.4070 11.0489 0.7424 7.8387 25.3796 9.3810
# 6 -12.3534 -6.3106 9.2086 2.1429 9.3810 45.0268
#
#
#
# Elastic Compliance Matrix: (Units=1/GPa)
#
#
# Indices 1 2 3 4 5 6 
#
# 1 0.016680 0.000171 0.005722 -0.016297 0.013054 0.001486
# 2 0.000171 0.015177 0.008529 -0.023505 -0.000085 0.001566
# 3 0.005722 0.008529 0.034966 -0.053603 0.016815 -0.005338
# 4 -0.016297 -0.023505 -0.053603 0.131816 -0.039420 0.005136
# 5 0.013054 -0.000085 0.016815 -0.039420 0.062055 -0.010922
# 6 0.001486 0.001566 -0.005338 0.005136 -0.010922 0.025959
#
#
# Mechanical properties :
#
#
# Convention : Reuss Voigt Hill
#
# Bulk Modulus (GPa) = 10.45284 35.00697 22.72990
# Shear Modulus (GPa) = 17.25943 35.84680 26.55312
#
# Velocity S-wave (km/s) = 2.86353 4.12680 3.55178
# Velocity P-wave (km/s) = 3.98737 6.27206 5.25537
#
# Compressibility (1/GPa) = 0.09566776
#
# Stress axis : x y z
#
# Youngs Moduli (GPa) = 59.95056 65.89065 28.59955
#
# Poissons Ratio (x) = -0.01130 -0.16364
# Poissons Ratio (y) = -0.01028 -0.24393
# Poissons Ratio (z) = -0.34303 -0.56200
#
# Static dielectric constant tensor:
#      x y z
#    x 1.900060 -0.054700 -0.013670 
#    y -0.054700 1.839030 0.010980 
#    z -0.013670 0.010980 1.797170 
# 
# From -- ./inp_files/515557.got.cif
#   From: 2010.05.17/outbox.cif.g08.bks.cpg/sg2_258_cif.got.tgz:515557.got - 2010.06.03 11:33:40.
