data_PCOD9014262
_publ_section_title
;
Structure prediction by ZEFSAII (Michael W. Deem and Ramdas Pophale) SiO2 
 PCOD9014262
Probable space group: P -1
;
_chemical_formula_sum "Si O2"
_cell_formula_units_Z 16
_cell_length_a 6.682768
_cell_length_b 16.353104
_cell_length_c 9.166225
_cell_angle_alpha 61.840588
_cell_angle_beta 85.841613
_cell_angle_gamma 61.949467
_cell_volume 764.909592
_symmetry_space_group_name_H-M "P -1"
_symmetry_group_IT_number 2
_symmetry_cell_setting 'triclinic'
loop_
_space_group_symop_operation_xyz
x,y,z
-x,-y,-z
loop_
_atom_site_type_symbol
_atom_site_label
_atom_site_fract_x
_atom_site_fract_y
_atom_site_fract_z
Si Si1 0.506871 0.569596 0.075536
Si Si2 0.126406 0.803324 0.548580
Si Si3 0.710231 0.994024 0.909874
Si Si4 0.310090 0.088764 0.332495
Si Si5 0.722177 0.399237 0.643884
Si Si6 0.856323 0.160250 0.796996
Si Si7 0.055897 0.605858 0.646879
Si Si8 0.414603 0.271920 0.256619
O O1 0.309935 0.586535 0.190980
O O2 0.749504 0.506233 0.203557
O O3 0.500000 0.500000 0.000000
O O4 0.502901 0.671007 0.914135
O O5 0.030478 0.861972 0.350783
O O6 0.138363 0.689460 0.624378
O O7 0.374173 0.786487 0.592040
O O8 0.943896 0.867665 0.626728
O O9 0.684271 0.965139 0.773158
O O10 0.699444 0.106149 0.842385
O O11 0.951247 0.900990 0.040366
O O12 0.500000 0.000000 0.000000
O O13 0.356550 0.188665 0.250002
O O14 0.500000 0.000000 0.500000
O O15 0.500000 0.500000 0.500000
O O16 0.727712 0.286986 0.715579
O O17 0.928119 0.392035 0.533825
O O18 0.809263 0.646782 0.703106
#
# Coordination Sequence:
#
# PCOD9014262 Si02
#       8
#     2   2   2   2   2   2   2   2
#     4  11  21  38  68  96 131 171 219 277 330 388
#     4  10  21  41  67  91 128 172 219 266 329 391
#     4  11  25  41  64  96 131 170 219 271 329 386
#     4  11  25  42  64  99 131 170 222 272 327 401
#     4   9  21  40  67  92 130 174 215 268 332 397
#     4  10  23  42  67  90 131 172 215 271 329 390
#     4   9  20  42  61  93 133 173 219 265 327 402
#     4  11  23  37  71  96 132 173 219 275 333 387
#
# _framework density 20.917504999999998
#
# number of rings (size 3 to 8) (size 9 to 14) (size 15 to 20)
#    0.000    1.750    1.250    1.875    3.500    5.000 
#    0.000    0.625    5.500    0.000    0.000    0.000 
#    0.000    0.000    0.000    0.000    0.000    0.000 
#
# Total GULP energy -89289.266060 kJ/mol
# GULP energy per Si atom -5580.579129 kJ/mol
# Density = 2.086990 g / cm^3
# Si number density = 20.917505 Si / 1000 Ang^3
#
#
#
# Elastic Constant Matrix: (Units=GPa)
#
#
# Indices 1 2 3 4 5 6 
#
# 1 55.4567 19.3482 26.1652 13.1479 8.1943 4.0450
# 2 19.3482 81.0760 42.8522 12.3521 0.8291 5.3168
# 3 26.1652 42.8522 129.3577 17.7634 3.3405 13.1665
# 4 13.1479 12.3521 17.7634 44.5790 5.6418 -3.8932
# 5 8.1943 0.8291 3.3405 5.6418 26.4720 -1.5637
# 6 4.0450 5.3168 13.1665 -3.8932 -1.5637 21.1268
#
#
#
# Elastic Compliance Matrix: (Units=1/GPa)
#
#
# Indices 1 2 3 4 5 6 
#
# 1 0.022381 -0.003135 -0.002419 -0.004315 -0.005795 -0.003213
# 2 -0.003135 0.015665 -0.004217 -0.001996 0.001379 -0.000980
# 3 -0.002419 -0.004217 0.010575 -0.002797 -0.000188 -0.005595
# 4 -0.004315 -0.001996 -0.002797 0.026480 -0.003438 0.007697
# 5 -0.005795 0.001379 -0.000188 -0.003438 0.040474 0.003242
# 6 -0.003213 -0.000980 -0.005595 0.007697 0.003242 0.053340
#
#
# Mechanical properties :
#
#
# Convention : Reuss Voigt Hill
#
# Bulk Modulus (GPa) = 34.38936 49.18020 41.78478
# Shear Modulus (GPa) = 25.23323 30.27053 27.75188
#
# Velocity S-wave (km/s) = 3.47698 3.80825 3.64638
# Velocity P-wave (km/s) = 5.70923 6.54978 6.14390
#
# Compressibility (1/GPa) = 0.02907876
#
# Stress axis : x y z
#
# Youngs Moduli (GPa) = 44.68084 63.83490 94.55990
#
# Poissons Ratio (x) = 0.20012 0.22876
# Poissons Ratio (y) = 0.14007 0.39878
# Poissons Ratio (z) = 0.10809 0.26921
#
# Static dielectric constant tensor:
#      x y z
#    x 1.722580 0.007750 -0.023350 
#    y 0.007750 1.812010 -0.047090 
#    z -0.023350 -0.047090 1.830990 
# 
# From -- ./inp_files/138716.got.cif
#   From: 2010.05.17/outbox.cif.g08.bks.cpg/sg2_70_cif.got.tgz:138716.got - 2010.06.03 11:33:40.
