data_PCOD9014529
_publ_section_title
;
Structure prediction by ZEFSAII (Michael W. Deem and Ramdas Pophale) SiO2 
 PCOD9014529
Probable space group: P -1
;
_chemical_formula_sum "Si O2"
_cell_formula_units_Z 16
_cell_length_a 12.032541
_cell_length_b 5.330287
_cell_length_c 14.260212
_cell_angle_alpha 105.519600
_cell_angle_beta 129.518613
_cell_angle_gamma 69.124638
_cell_volume 658.171758
_symmetry_space_group_name_H-M "P -1"
_symmetry_group_IT_number 2
_symmetry_cell_setting 'triclinic'
loop_
_space_group_symop_operation_xyz
x,y,z
-x,-y,-z
loop_
_atom_site_type_symbol
_atom_site_label
_atom_site_fract_x
_atom_site_fract_y
_atom_site_fract_z
Si Si1 0.186470 0.022963 0.852224
Si Si2 0.217104 0.936045 0.232332
Si Si3 0.353067 0.617046 0.579079
Si Si4 0.349211 0.060414 0.506000
Si Si5 0.355133 0.748048 0.085096
Si Si6 0.548091 0.153013 0.161373
Si Si7 0.967616 0.487787 0.871545
Si Si8 0.067048 0.971805 0.429476
O O1 0.337159 0.985722 0.870409
O O2 0.229039 0.832399 0.946184
O O3 0.114484 0.320579 0.881466
O O4 0.062457 0.963855 0.709590
O O5 0.311964 0.020436 0.375288
O O6 0.097394 0.213957 0.171051
O O7 0.290457 0.825230 0.161697
O O8 0.146655 0.704160 0.214031
O O9 0.419648 0.304862 0.586039
O O10 0.359122 0.750729 0.695909
O O11 0.182269 0.675818 0.456800
O O12 0.433833 0.778015 0.568274
O O13 0.192781 0.129511 0.488494
O O14 0.463971 0.941953 0.137832
O O15 0.439907 0.433990 0.096919
O O16 0.000000 0.500000 0.000000
O O17 0.000000 0.000000 0.500000
#
# Coordination Sequence:
#
# PCOD9014529 Si02
#       8
#     2   2   2   2   2   2   2   2
#     4  12  24  48  75 109 148 185 237 304 367 436
#     4  12  24  47  70 107 150 183 244 298 363 432
#     4  10  22  44  70 100 142 179 242 297 349 424
#     4  10  21  41  68 105 136 173 231 294 376 415
#     4  12  29  47  71 102 149 203 243 285 345 436
#     4  12  27  51  69 104 147 201 246 285 345 437
#     4  12  25  42  74 108 143 185 235 305 371 417
#     4  10  21  42  69 108 135 177 225 306 367 411
#
# _framework density 24.309761999999999
#
# number of rings (size 3 to 8) (size 9 to 14) (size 15 to 20)
#    0.750    0.000    3.750    4.125    0.000    1.500 
#    4.500    3.750    0.000    0.000    0.000    0.000 
#    0.000    0.000    0.000    0.000    0.000    0.000 
#
# Total GULP energy -89553.894724 kJ/mol
# GULP energy per Si atom -5597.118420 kJ/mol
# Density = 2.425443 g / cm^3
# Si number density = 24.309762 Si / 1000 Ang^3
#
#
#
# Elastic Constant Matrix: (Units=GPa)
#
#
# Indices 1 2 3 4 5 6 
#
# 1 151.0191 70.7356 46.0223 5.9320 -22.9540 -11.2349
# 2 70.7356 146.0272 27.1758 3.0847 1.6279 1.3692
# 3 46.0223 27.1758 136.6427 -9.0268 -25.6624 -8.6328
# 4 5.9320 3.0847 -9.0268 36.5061 -6.0431 3.2424
# 5 -22.9540 1.6279 -25.6624 -6.0431 38.9752 3.4687
# 6 -11.2349 1.3692 -8.6328 3.2424 3.4687 40.5630
#
#
#
# Elastic Compliance Matrix: (Units=1/GPa)
#
#
# Indices 1 2 3 4 5 6 
#
# 1 0.010262 -0.004742 -0.001519 -0.001044 0.004871 0.002346
# 2 -0.004742 0.009439 -0.001172 -0.000841 -0.003958 -0.001476
# 3 -0.001519 -0.001172 0.009453 0.003578 0.005858 0.000844
# 4 -0.001044 -0.000841 0.003578 0.029832 0.006619 -0.002450
# 5 0.004871 -0.003958 0.005858 0.006619 0.033635 -0.000676
# 6 0.002346 -0.001476 0.000844 -0.002450 -0.000676 0.025786
#
#
# Mechanical properties :
#
#
# Convention : Reuss Voigt Hill
#
# Bulk Modulus (GPa) = 69.99538 80.17293 75.08416
# Shear Modulus (GPa) = 36.22260 42.52587 39.37423
#
# Velocity S-wave (km/s) = 3.86430 4.18704 4.02890
# Velocity P-wave (km/s) = 6.98327 7.51175 7.25232
#
# Compressibility (1/GPa) = 0.01428666
#
# Stress axis : x y z
#
# Youngs Moduli (GPa) = 97.44948 105.94251 105.78652
#
# Poissons Ratio (x) = 0.50241 0.16070
# Poissons Ratio (y) = 0.46214 0.12400
# Poissons Ratio (z) = 0.14804 0.12418
#
# Static dielectric constant tensor:
#      x y z
#    x 1.955940 0.020390 0.038380 
#    y 0.020390 1.932690 0.001080 
#    z 0.038380 0.001080 1.940980 
# 
# From -- ./inp_files/410901.got.cif
#   From: 2010.05.17/outbox.cif.g08.bks.cpg/sg2_206_cif.got.tgz:410901.got - 2010.06.03 11:33:40.
