data_PCOD9014834
_publ_section_title
;
Structure prediction by ZEFSAII (Michael W. Deem and Ramdas Pophale) SiO2 
 PCOD9014834
Probable space group: P -1
;
_chemical_formula_sum "Si O2"
_cell_formula_units_Z 14
_cell_length_a 11.977397
_cell_length_b 20.460177
_cell_length_c 14.789545
_cell_angle_alpha 160.429153
_cell_angle_beta 28.799552
_cell_angle_gamma 147.558744
_cell_volume 581.107765
_symmetry_space_group_name_H-M "P -1"
_symmetry_group_IT_number 2
_symmetry_cell_setting 'triclinic'
loop_
_space_group_symop_operation_xyz
x,y,z
-x,-y,-z
loop_
_atom_site_type_symbol
_atom_site_label
_atom_site_fract_x
_atom_site_fract_y
_atom_site_fract_z
Si Si1 0.344776 0.091881 0.305806
Si Si2 0.827505 0.177681 0.485605
Si Si3 0.206772 0.319963 0.544517
Si Si4 0.776881 0.381359 0.434376
Si Si5 0.641230 0.245377 0.020375
Si Si6 0.222056 0.510893 0.222110
Si Si7 0.620735 0.802123 0.044602
O O1 0.181876 0.215532 0.522961
O O2 0.541270 0.241063 0.407357
O O3 0.500000 0.000000 0.000000
O O4 0.248909 0.931826 0.239188
O O5 0.850412 0.362792 0.644569
O O6 0.594127 0.192332 0.727216
O O7 0.032750 0.203490 0.445712
O O8 0.799400 0.982434 0.189670
O O9 0.462540 0.302425 0.298976
O O10 0.199070 0.554005 0.856293
O O11 0.810108 0.387750 0.526594
O O12 0.012980 0.330828 0.149293
O O13 0.718135 0.593110 0.714803
O O14 0.486012 0.178831 0.955018
O O15 0.500000 0.500000 0.000000
#
# Coordination Sequence:
#
# PCOD9014834 Si02
#       7
#     2   2   2   2   2   2   2
#     4  10  22  41  69 103 133 178 238 285 341 427
#     4  11  25  42  66 100 143 181 231 303 340 410
#     4  10  22  41  67  98 136 180 230 290 344 413
#     4  11  23  43  73  98 140 190 226 288 356 413
#     4  10  21  41  69  95 133 180 236 281 350 421
#     4  11  24  43  68 103 139 181 231 288 347 415
#     4  11  23  44  66  98 138 186 238 282 357 414
#
# _framework density 24.091918
#
# number of rings (size 3 to 8) (size 9 to 14) (size 15 to 20)
#    0.000    1.429    2.857    1.714    4.000    7.429 
#    0.000    0.714    0.000    0.000    0.000    0.000 
#    0.000    0.000    0.000    0.000    0.000    0.000 
#
# Total GULP energy -78211.576151 kJ/mol
# GULP energy per Si atom -5586.541154 kJ/mol
# Density = 2.403708 g / cm^3
# Si number density = 24.091918 Si / 1000 Ang^3
#
#
#
# Elastic Constant Matrix: (Units=GPa)
#
#
# Indices 1 2 3 4 5 6 
#
# 1 206.1293 92.0205 18.2238 35.0115 -30.8654 24.4677
# 2 92.0205 158.4308 42.9515 3.7468 -31.3528 20.8025
# 3 18.2238 42.9515 72.0295 -0.0833 -8.3645 -12.7991
# 4 35.0115 3.7468 -0.0833 41.3338 6.5289 3.4145
# 5 -30.8654 -31.3528 -8.3645 6.5289 34.8862 -19.0305
# 6 24.4677 20.8025 -12.7991 3.4145 -19.0305 106.2510
#
#
#
# Elastic Compliance Matrix: (Units=1/GPa)
#
#
# Indices 1 2 3 4 5 6 
#
# 1 0.008806 -0.003996 0.000881 -0.008064 0.006029 0.000200
# 2 -0.003996 0.010983 -0.005275 0.001834 0.004076 -0.001194
# 3 0.000881 -0.005275 0.017675 -0.000876 0.002294 0.003398
# 4 -0.008064 0.001834 -0.000876 0.033070 -0.012973 -0.001994
# 5 0.006029 0.004076 0.002294 -0.012973 0.044138 0.006412
# 6 0.000200 -0.001194 0.003398 -0.001994 0.006412 0.011221
#
#
# Mechanical properties :
#
#
# Convention : Reuss Voigt Hill
#
# Bulk Modulus (GPa) = 48.34579 82.55345 65.44962
# Shear Modulus (GPa) = 33.42961 55.38711 44.40836
#
# Velocity S-wave (km/s) = 3.72907 4.79998 4.29801
# Velocity P-wave (km/s) = 6.21708 8.06599 7.20112
#
# Compressibility (1/GPa) = 0.02068433
#
# Stress axis : x y z
#
# Youngs Moduli (GPa) = 113.55700 91.04944 56.57703
#
# Poissons Ratio (x) = 0.36384 -0.04985
# Poissons Ratio (y) = 0.45378 0.29845
# Poissons Ratio (z) = -0.10006 0.48029
#
# Static dielectric constant tensor:
#      x y z
#    x 1.829740 -0.018430 -0.036300 
#    y -0.018430 1.920770 0.011560 
#    z -0.036300 0.011560 1.965120 
# 
# From -- ./inp_files/457595.got.cif
#   From: 2010.05.17/outbox.cif.g08.bks.cpg/sg2_229_cif.got.tgz:457595.got - 2010.06.03 11:33:40.
