data_PCOD9014322
_publ_section_title
;
Structure prediction by ZEFSAII (Michael W. Deem and Ramdas Pophale) SiO2 
 PCOD9014322
Probable space group: P -1
;
_chemical_formula_sum "Si O2"
_cell_formula_units_Z 16
_cell_length_a 10.929658
_cell_length_b 15.753831
_cell_length_c 8.126199
_cell_angle_alpha 84.460253
_cell_angle_beta 68.306858
_cell_angle_gamma 135.826318
_cell_volume 751.468982
_symmetry_space_group_name_H-M "P -1"
_symmetry_group_IT_number 2
_symmetry_cell_setting 'triclinic'
loop_
_space_group_symop_operation_xyz
x,y,z
-x,-y,-z
loop_
_atom_site_type_symbol
_atom_site_label
_atom_site_fract_x
_atom_site_fract_y
_atom_site_fract_z
Si Si1 0.546462 0.092180 0.317542
Si Si2 0.408073 0.547324 0.499336
Si Si3 0.951728 0.189981 0.521376
Si Si4 0.291872 0.224497 0.242856
Si Si5 0.415746 0.185801 0.479211
Si Si6 0.660244 0.507510 0.848933
Si Si7 0.005694 0.089582 0.081695
Si Si8 0.028222 0.753469 0.118700
O O1 0.392807 0.781077 0.670241
O O2 0.500000 0.000000 0.500000
O O3 0.300174 0.966469 0.376038
O O4 0.254412 0.838020 0.908412
O O5 0.500000 0.500000 0.500000
O O6 0.532414 0.697840 0.475438
O O7 0.384971 0.536976 0.313603
O O8 0.173033 0.421114 0.741061
O O9 0.076182 0.325649 0.314960
O O10 0.935810 0.208440 0.714309
O O11 0.145267 0.219237 0.410211
O O12 0.713215 0.856334 0.616468
O O13 0.558103 0.381173 0.040998
O O14 0.175185 0.162775 0.134652
O O15 0.246865 0.039575 0.697999
O O16 0.500000 0.500000 0.000000
O O17 0.051040 0.200632 0.940764
O O18 0.000000 0.000000 0.000000
#
# Coordination Sequence:
#
# PCOD9014322 Si02
#       8
#     2   2   2   2   2   2   2   2
#     4  12  25  45  63  91 133 181 224 262 322 398
#     4  11  22  42  66 100 133 164 216 275 334 387
#     4  10  21  41  67  94 130 172 221 273 325 383
#     4  11  21  38  62  99 131 163 218 273 333 381
#     4  12  25  40  65  97 134 173 216 273 330 391
#     4   9  19  36  64  95 129 168 206 269 333 386
#     4  12  23  38  66  99 130 168 215 277 332 382
#     4  11  24  43  67  93 132 177 219 269 325 390
#
# _framework density 21.291632
#
# number of rings (size 3 to 8) (size 9 to 14) (size 15 to 20)
#    0.000    1.000    2.500    6.000    1.750    3.500 
#    0.000    0.000    0.000    3.000    0.000    0.000 
#    0.000    0.000    0.000    0.000    0.000    0.000 
#
# Total GULP energy -89232.761801 kJ/mol
# GULP energy per Si atom -5577.047613 kJ/mol
# Density = 2.124317 g / cm^3
# Si number density = 21.291632 Si / 1000 Ang^3
#
#
#
# Elastic Constant Matrix: (Units=GPa)
#
#
# Indices 1 2 3 4 5 6 
#
# 1 59.9976 21.9565 26.6872 4.0792 -9.0885 -17.1022
# 2 21.9565 84.0173 31.8165 1.6221 -3.7425 -10.3876
# 3 26.6872 31.8165 158.1896 -6.5267 -15.4548 -7.5178
# 4 4.0792 1.6221 -6.5267 37.3072 -7.6207 -4.4861
# 5 -9.0885 -3.7425 -15.4548 -7.6207 25.3397 -1.1367
# 6 -17.1022 -10.3876 -7.5178 -4.4861 -1.1367 17.9055
#
#
#
# Elastic Compliance Matrix: (Units=1/GPa)
#
#
# Indices 1 2 3 4 5 6 
#
# 1 0.026770 -0.002943 -0.001751 0.001790 0.009722 0.024192
# 2 -0.002943 0.014018 -0.002135 -0.000164 -0.000141 0.004374
# 3 -0.001751 -0.002135 0.007670 0.002722 0.004611 0.001284
# 4 0.001790 -0.000164 0.002722 0.030915 0.012081 0.011270
# 5 0.009722 -0.000141 0.004611 0.012081 0.050154 0.017351
# 6 0.024192 0.004374 0.001284 0.011270 0.017351 0.085958
#
#
# Mechanical properties :
#
#
# Convention : Reuss Voigt Hill
#
# Bulk Modulus (GPa) = 28.73638 51.45831 40.09734
# Shear Modulus (GPa) = 20.76891 30.89344 25.83117
#
# Velocity S-wave (km/s) = 3.12661 3.81329 3.48689
# Velocity P-wave (km/s) = 5.15365 6.60371 5.92322
#
# Compressibility (1/GPa) = 0.03479909
#
# Stress axis : x y z
#
# Youngs Moduli (GPa) = 37.35481 71.33731 130.37363
#
# Poissons Ratio (x) = 0.20997 0.22826
# Poissons Ratio (y) = 0.10995 0.27841
# Poissons Ratio (z) = 0.06540 0.15234
#
# Static dielectric constant tensor:
#      x y z
#    x 1.801670 0.004150 0.005150 
#    y 0.004150 1.887530 -0.022530 
#    z 0.005150 -0.022530 1.827810 
# 
# From -- ./inp_files/318356.got.cif
#   From: 2010.05.17/outbox.cif.g08.bks.cpg/sg2_160_cif.got.tgz:318356.got - 2010.06.03 11:33:40.
