data_PCOD9014444
_publ_section_title
;
Structure prediction by ZEFSAII (Michael W. Deem and Ramdas Pophale) SiO2 
 PCOD9014444
Probable space group: P -1
;
_chemical_formula_sum "Si O2"
_cell_formula_units_Z 14
_cell_length_a 9.073565
_cell_length_b 12.492560
_cell_length_c 9.042244
_cell_angle_alpha 38.094155
_cell_angle_beta 89.729635
_cell_angle_gamma 92.773833
_cell_volume 630.086444
_symmetry_space_group_name_H-M "P -1"
_symmetry_group_IT_number 2
_symmetry_cell_setting 'triclinic'
loop_
_space_group_symop_operation_xyz
x,y,z
-x,-y,-z
loop_
_atom_site_type_symbol
_atom_site_label
_atom_site_fract_x
_atom_site_fract_y
_atom_site_fract_z
Si Si1 0.762670 0.989114 0.029510
Si Si2 0.145029 0.476215 0.125888
Si Si3 0.680995 0.200356 0.555960
Si Si4 0.357928 0.198571 0.477904
Si Si5 0.994613 0.856160 0.938848
Si Si6 0.211949 0.878825 0.670493
Si Si7 0.933389 0.471334 0.370261
O O1 0.701354 0.848575 0.303330
O O2 0.880322 0.932473 0.968815
O O3 0.856283 0.135423 0.969390
O O4 0.646194 0.067463 0.835845
O O5 0.264947 0.340138 0.242357
O O6 0.065492 0.398016 0.358128
O O7 0.218992 0.672973 0.931763
O O8 0.000000 0.500000 0.000000
O O9 0.530350 0.257903 0.426819
O O10 0.771917 0.120040 0.508067
O O11 0.785931 0.355144 0.459818
O O12 0.336376 0.016772 0.586512
O O13 0.065436 0.929899 0.704670
O O14 0.921358 0.667305 0.102785
O O15 0.000000 0.500000 0.500000
#
# Coordination Sequence:
#
# PCOD9014444 Si02
#       7
#     2   2   2   2   2   2   2
#     4  10  21  41  67  98 134 176 232 266 337 399
#     4  11  24  45  71 100 130 176 233 281 330 404
#     4  12  24  42  67 101 139 181 220 273 342 411
#     4  11  26  46  67  97 147 178 218 281 340 403
#     4   9  20  37  65  96 128 174 220 293 317 381
#     4  10  24  43  68  98 138 175 226 275 342 394
#     4  11  21  40  66  98 132 169 230 283 325 389
#
# _framework density 22.219175
#
# number of rings (size 3 to 8) (size 9 to 14) (size 15 to 20)
#    0.000    1.429    2.857    1.714    4.000    4.000 
#    2.571    1.429    0.000    0.000    0.000    0.000 
#    0.000    0.000    0.000    0.000    0.000    0.000 
#
# Total GULP energy -77984.080498 kJ/mol
# GULP energy per Si atom -5570.291464 kJ/mol
# Density = 2.216860 g / cm^3
# Si number density = 22.219175 Si / 1000 Ang^3
#
#
#
# Elastic Constant Matrix: (Units=GPa)
#
#
# Indices 1 2 3 4 5 6 
#
# 1 96.4473 67.1059 42.4193 1.8439 4.7576 11.0035
# 2 67.1059 125.0886 43.4957 15.6733 -1.8066 11.0430
# 3 42.4193 43.4957 60.0172 15.6453 2.0110 3.4616
# 4 1.8439 15.6733 15.6453 40.6417 -2.6276 -9.4294
# 5 4.7576 -1.8066 2.0110 -2.6276 34.9127 3.6451
# 6 11.0035 11.0430 3.4616 -9.4294 3.6451 27.8373
#
#
#
# Elastic Compliance Matrix: (Units=1/GPa)
#
#
# Indices 1 2 3 4 5 6 
#
# 1 0.020600 -0.008199 -0.009910 0.005559 -0.002085 -0.001502
# 2 -0.008199 0.014531 -0.003343 -0.004733 0.002122 -0.003989
# 3 -0.009910 -0.003343 0.028751 -0.009744 -0.001056 -0.001494
# 4 0.005559 -0.004733 -0.009744 0.032736 0.000782 0.011878
# 5 -0.002085 0.002122 -0.001056 0.000782 0.029521 -0.003487
# 6 -0.001502 -0.003989 -0.001494 0.011878 -0.003487 0.042765
#
#
# Mechanical properties :
#
#
# Convention : Reuss Voigt Hill
#
# Bulk Modulus (GPa) = 47.67222 65.28833 56.48028
# Shear Modulus (GPa) = 22.85189 29.24716 26.04952
#
# Velocity S-wave (km/s) = 3.21047 3.63202 3.42773
# Velocity P-wave (km/s) = 5.93673 6.85831 6.41409
#
# Compressibility (1/GPa) = 0.02097658
#
# Stress axis : x y z
#
# Youngs Moduli (GPa) = 48.54425 68.81685 34.78181
#
# Poissons Ratio (x) = 0.56425 0.34469
# Poissons Ratio (y) = 0.39803 0.11628
# Poissons Ratio (z) = 0.48108 0.23007
#
# Static dielectric constant tensor:
#      x y z
#    x 1.834650 -0.021690 -0.030650 
#    y -0.021690 1.897690 -0.018200 
#    z -0.030650 -0.018200 2.075640 
# 
# From -- ./inp_files/183839.got.cif
#   From: 2010.05.17/outbox.cif.g08.bks.cpg/sg2_92_cif.got.tgz:183839.got - 2010.06.03 11:33:40.
