data_PCOD9014465
_publ_section_title
;
Structure prediction by ZEFSAII (Michael W. Deem and Ramdas Pophale) SiO2 
 PCOD9014465
Probable space group: P -1
;
_chemical_formula_sum "Si O2"
_cell_formula_units_Z 14
_cell_length_a 5.293232
_cell_length_b 9.359301
_cell_length_c 14.086953
_cell_angle_alpha 74.363667
_cell_angle_beta 76.332671
_cell_angle_gamma 101.476876
_cell_volume 626.769322
_symmetry_space_group_name_H-M "P -1"
_symmetry_group_IT_number 2
_symmetry_cell_setting 'triclinic'
loop_
_space_group_symop_operation_xyz
x,y,z
-x,-y,-z
loop_
_atom_site_type_symbol
_atom_site_label
_atom_site_fract_x
_atom_site_fract_y
_atom_site_fract_z
Si Si1 0.727363 0.215371 0.530927
Si Si2 0.326850 0.350615 0.101595
Si Si3 0.727085 0.319250 0.241161
Si Si4 0.193486 0.967784 0.601102
Si Si5 0.225742 0.029201 0.056122
Si Si6 0.907798 0.155959 0.711061
Si Si7 0.717616 0.505135 0.397131
O O1 0.895888 0.121473 0.473180
O O2 0.697176 0.196875 0.649536
O O3 0.864212 0.388401 0.454561
O O4 0.429164 0.127031 0.535288
O O5 0.518814 0.320628 0.174830
O O6 0.262906 0.199084 0.067005
O O7 0.040675 0.369918 0.165198
O O8 0.500000 0.500000 0.000000
O O9 0.699060 0.151437 0.321199
O O10 0.663297 0.426989 0.311852
O O11 0.975907 0.016693 0.673957
O O12 0.147992 0.903665 0.168829
O O13 0.500000 0.000000 0.000000
O O14 0.000000 0.000000 0.000000
O O15 0.135746 0.317238 0.662318
O O16 0.500000 0.500000 0.500000
#
# Coordination Sequence:
#
# PCOD9014465 Si02
#       7
#     2   2   2   2   2   2   2
#     4  10  22  40  66 101 138 183 236 283 358 437
#     4  12  27  50  79 103 144 190 257 308 369 436
#     4  11  26  47  73 109 143 197 241 297 368 437
#     4  10  21  41  67  99 138 183 232 288 350 445
#     4  12  30  50  77 110 144 188 251 314 374 429
#     4  12  24  42  72  94 146 186 236 296 373 422
#     4  11  25  43  67 110 151 188 240 293 362 444
#
# _framework density 22.336769
#
# number of rings (size 3 to 8) (size 9 to 14) (size 15 to 20)
#    0.000    0.857    2.857    3.000    6.000    3.429 
#    0.000    0.000    0.000    0.000    0.000    0.000 
#    0.000    0.000    0.000    0.000    0.000    0.000 
#
# Total GULP energy -78103.172883 kJ/mol
# GULP energy per Si atom -5578.798063 kJ/mol
# Density = 2.228593 g / cm^3
# Si number density = 22.336769 Si / 1000 Ang^3
#
#
#
# Elastic Constant Matrix: (Units=GPa)
#
#
# Indices 1 2 3 4 5 6 
#
# 1 112.9636 41.4835 77.1797 17.8968 7.9678 2.9818
# 2 41.4835 145.9128 75.0351 5.3530 -2.3216 8.6734
# 3 77.1797 75.0351 203.2093 -7.7697 4.9507 17.3721
# 4 17.8968 5.3530 -7.7697 50.0856 1.9927 -3.2958
# 5 7.9678 -2.3216 4.9507 1.9927 49.2978 5.2973
# 6 2.9818 8.6734 17.3721 -3.2958 5.2973 30.2417
#
#
#
# Elastic Compliance Matrix: (Units=1/GPa)
#
#
# Indices 1 2 3 4 5 6 
#
# 1 0.013676 -0.001220 -0.005045 -0.005364 -0.001718 0.001616
# 2 -0.001220 0.008724 -0.002728 -0.001034 0.001043 -0.001110
# 3 -0.005045 -0.002728 0.008230 0.003163 0.000067 -0.003115
# 4 -0.005364 -0.001034 0.003163 0.022611 -0.000583 0.001575
# 5 -0.001718 0.001043 0.000067 -0.000583 0.021050 -0.003919
# 6 0.001616 -0.001110 -0.003115 0.001575 -0.003919 0.035873
#
#
# Mechanical properties :
#
#
# Convention : Reuss Voigt Hill
#
# Bulk Modulus (GPa) = 79.09322 94.38693 86.74008
# Shear Modulus (GPa) = 37.77489 43.81751 40.79620
#
# Velocity S-wave (km/s) = 4.11682 4.43389 4.27829
# Velocity P-wave (km/s) = 7.62128 8.28013 7.95753
#
# Compressibility (1/GPa) = 0.01264331
#
# Stress axis : x y z
#
# Youngs Moduli (GPa) = 73.12247 114.63148 121.50811
#
# Poissons Ratio (x) = 0.13989 0.61299
# Poissons Ratio (y) = 0.08924 0.33144
# Poissons Ratio (z) = 0.36889 0.31269
#
# Static dielectric constant tensor:
#      x y z
#    x 2.011430 -0.094190 0.073690 
#    y -0.094190 1.875190 -0.021700 
#    z 0.073690 -0.021700 1.931880 
# 
# From -- ./inp_files/27206.got.cif
#   From: 2010.05.17/outbox.cif.g08.bks.cpg/sg2_14_cif.got.tgz:27206.got - 2010.06.03 11:33:40.
