data_PCOD9014512
_publ_section_title
;
Structure prediction by ZEFSAII (Michael W. Deem and Ramdas Pophale) SiO2 
 PCOD9014512
Probable space group: P -1
;
_chemical_formula_sum "Si O2"
_cell_formula_units_Z 13
_cell_length_a 6.380304
_cell_length_b 12.911896
_cell_length_c 7.351177
_cell_angle_alpha 107.400540
_cell_angle_beta 119.803370
_cell_angle_gamma 86.020941
_cell_volume 499.153954
_symmetry_space_group_name_H-M "P -1"
_symmetry_group_IT_number 2
_symmetry_cell_setting 'triclinic'
loop_
_space_group_symop_operation_xyz
x,y,z
-x,-y,-z
loop_
_atom_site_type_symbol
_atom_site_label
_atom_site_fract_x
_atom_site_fract_y
_atom_site_fract_z
Si Si1 0.072746 0.009011 0.326135
Si Si2 0.781950 0.615340 0.793130
Si Si3 0.449567 0.790182 0.866560
Si Si4 0.188701 0.623398 0.236238
Si Si5 0.023910 0.372366 0.480072
Si Si6 0.532399 0.144311 0.489959
Si Si7 0.500000 0.000000 0.000000
O O1 0.255025 0.115640 0.411986
O O2 0.816659 0.002343 0.109873
O O3 0.267534 0.918909 0.353854
O O4 0.000000 0.000000 0.500000
O O5 0.647422 0.706278 0.884606
O O6 0.694086 0.489214 0.732227
O O7 0.781183 0.644649 0.597422
O O8 0.057527 0.618765 0.984706
O O9 0.202907 0.713851 0.714841
O O10 0.454060 0.877719 0.739281
O O11 0.502263 0.887555 0.077614
O O12 0.979666 0.633459 0.306125
O O13 0.364792 0.731085 0.383132
O O14 0.000000 0.500000 0.500000
#
# Coordination Sequence:
#
# PCOD9014512 Si02
#       7
#     2   2   2   2   2   2   1
#     4  11  24  46  65  98 136 183 240 293 356 431
#     4  10  21  41  68 102 142 182 238 290 366 424
#     4  11  24  42  65 103 134 186 239 292 353 435
#     4   9  20  42  68 101 143 182 232 303 352 437
#     4   9  21  41  65  97 136 179 230 290 355 422
#     4  10  23  43  69  98 139 181 234 301 364 416
#     4  12  26  44  68  96 144 184 238 302 348 432
#
# _framework density 26.044070999999999
#
# number of rings (size 3 to 8) (size 9 to 14) (size 15 to 20)
#    0.000    1.846    1.538    0.923    2.154    7.385 
#    0.000   10.000    0.000    0.000    0.000    0.000 
#    0.000    0.000    0.000    0.000    0.000    0.000 
#
# Total GULP energy -72420.630532 kJ/mol
# GULP energy per Si atom -5570.817733 kJ/mol
# Density = 2.598479 g / cm^3
# Si number density = 26.044071 Si / 1000 Ang^3
#
#
#
# Elastic Constant Matrix: (Units=GPa)
#
#
# Indices 1 2 3 4 5 6 
#
# 1 112.8318 71.5519 64.0507 4.7330 20.6384 9.3922
# 2 71.5519 199.7579 62.3513 26.1031 25.0778 -8.1032
# 3 64.0507 62.3513 112.2112 12.8672 29.5697 3.0602
# 4 4.7330 26.1031 12.8672 44.0320 6.6108 13.0913
# 5 20.6384 25.0778 29.5697 6.6108 44.6208 -2.8247
# 6 9.3922 -8.1032 3.0602 13.0913 -2.8247 42.0683
#
#
#
# Elastic Compliance Matrix: (Units=1/GPa)
#
#
# Indices 1 2 3 4 5 6 
#
# 1 0.015880 -0.004225 -0.006684 0.004593 -0.001564 -0.005407
# 2 -0.004225 0.007809 -0.001323 -0.004900 -0.000576 0.004030
# 3 -0.006684 -0.001323 0.015265 -0.002189 -0.005930 0.000410
# 4 0.004593 -0.004900 -0.002189 0.029544 -0.003007 -0.011206
# 5 -0.001564 -0.000576 -0.005930 -0.003007 0.028055 0.003489
# 6 -0.005407 0.004030 0.000410 -0.011206 0.003489 0.029446
#
#
# Mechanical properties :
#
#
# Convention : Reuss Voigt Hill
#
# Bulk Modulus (GPa) = 69.01848 91.18987 80.10418
# Shear Modulus (GPa) = 32.19747 41.26736 36.73241
#
# Velocity S-wave (km/s) = 3.51988 3.98492 3.75960
# Velocity P-wave (km/s) = 6.56335 7.50083 7.04770
#
# Compressibility (1/GPa) = 0.01448887
#
# Stress axis : x y z
#
# Youngs Moduli (GPa) = 62.97400 128.06359 65.51018
#
# Poissons Ratio (x) = 0.54107 0.43784
# Poissons Ratio (y) = 0.26607 0.08670
# Poissons Ratio (z) = 0.42089 0.16949
#
# Static dielectric constant tensor:
#      x y z
#    x 2.270120 -0.170230 -0.331730 
#    y -0.170230 2.276810 0.350750 
#    z -0.331730 0.350750 2.543580 
# 
# From -- ./inp_files/134543.got.cif
#   From: 2010.05.17/outbox.cif.g08.bks.cpg/sg2_68_cif.got.tgz:134543.got - 2010.06.03 11:33:40.
