data_PCOD9014681
_publ_section_title
;
Structure prediction by ZEFSAII (Michael W. Deem and Ramdas Pophale) SiO2 
 PCOD9014681
Probable space group: P -1
;
_chemical_formula_sum "Si O2"
_cell_formula_units_Z 14
_cell_length_a 4.873553
_cell_length_b 7.061456
_cell_length_c 20.038379
_cell_angle_alpha 56.967024
_cell_angle_beta 112.251731
_cell_angle_gamma 109.422654
_cell_volume 527.969024
_symmetry_space_group_name_H-M "P -1"
_symmetry_group_IT_number 2
_symmetry_cell_setting 'triclinic'
loop_
_space_group_symop_operation_xyz
x,y,z
-x,-y,-z
loop_
_atom_site_type_symbol
_atom_site_label
_atom_site_fract_x
_atom_site_fract_y
_atom_site_fract_z
Si Si1 0.966346 0.176612 0.714154
Si Si2 0.960615 0.343289 0.319391
Si Si3 0.317820 0.259960 0.003931
Si Si4 0.687505 0.713898 0.758314
Si Si5 0.229524 0.789702 0.521548
Si Si6 0.651322 0.707825 0.396448
Si Si7 0.658567 0.229538 0.910826
O O1 0.671199 0.220518 0.635725
O O2 0.998847 0.380569 0.730302
O O3 0.250842 0.222631 0.683349
O O4 0.895911 0.913701 0.778843
O O5 0.653354 0.253659 0.270245
O O6 0.900021 0.271135 0.404233
O O7 0.222536 0.264525 0.315733
O O8 0.391863 0.245615 0.934734
O O9 0.961798 0.245941 0.979912
O O10 0.500000 0.500000 0.000000
O O11 0.393461 0.015852 0.083757
O O12 0.710661 0.457691 0.828859
O O13 0.356242 0.565000 0.549561
O O14 0.929135 0.814026 0.447667
O O15 0.500000 0.000000 0.500000
#
# Coordination Sequence:
#
# PCOD9014681 Si02
#       7
#     2   2   2   2   2   2   2
#     4  11  24  43  61  88 126 160 207 265 314 372
#     4  11  25  42  63  92 122 165 215 255 313 390
#     4  10  21  41  68  98 132 164 206 258 301 351
#     4  12  25  43  65  91 131 171 205 252 311 373
#     4  10  22  42  66  89 118 159 211 269 327 376
#     4  10  23  41  63  88 117 156 207 268 323 371
#     4  10  23  40  64 100 130 165 212 250 299 370
#
# _framework density 26.516708000000001
#
# number of rings (size 3 to 8) (size 9 to 14) (size 15 to 20)
#    0.000    1.429    0.000    4.714    0.000    9.714 
#    0.000   12.143    0.000    0.000    0.000    0.000 
#    0.000    0.000    0.000    0.000    0.000    0.000 
#
# Total GULP energy -78492.866889 kJ/mol
# GULP energy per Si atom -5606.633349 kJ/mol
# Density = 2.645635 g / cm^3
# Si number density = 26.516708 Si / 1000 Ang^3
#
#
#
# Elastic Constant Matrix: (Units=GPa)
#
#
# Indices 1 2 3 4 5 6 
#
# 1 110.1442 27.1998 14.8247 -3.4767 -10.7324 1.4814
# 2 27.1998 169.4708 23.6479 -46.5547 -10.0721 15.6099
# 3 14.8247 23.6479 66.6444 -30.1978 -13.2192 -1.3918
# 4 -3.4767 -46.5547 -30.1978 37.6166 9.0733 -4.4748
# 5 -10.7324 -10.0721 -13.2192 9.0733 25.2805 -6.5778
# 6 1.4814 15.6099 -1.3918 -4.4748 -6.5778 52.6854
#
#
#
# Elastic Compliance Matrix: (Units=1/GPa)
#
#
# Indices 1 2 3 4 5 6 
#
# 1 0.010334 -0.002581 -0.003187 -0.005675 0.003830 0.000386
# 2 -0.002581 0.010077 0.003650 0.015223 -0.001067 -0.001657
# 3 -0.003187 0.003650 0.026802 0.024607 0.005948 0.002549
# 4 -0.005675 0.015223 0.024607 0.066483 -0.007061 0.001064
# 5 0.003830 -0.001067 0.005948 -0.007061 0.047896 0.005746
# 6 0.000386 -0.001657 0.002549 0.001064 0.005746 0.020336
#
#
# Mechanical properties :
#
#
# Convention : Reuss Voigt Hill
#
# Bulk Modulus (GPa) = 23.26811 53.06715 38.16763
# Shear Modulus (GPa) = 24.93910 41.82231 33.38071
#
# Velocity S-wave (km/s) = 3.07009 3.97571 3.55188
# Velocity P-wave (km/s) = 4.62182 6.41336 5.58983
#
# Compressibility (1/GPa) = 0.04297728
#
# Stress axis : x y z
#
# Youngs Moduli (GPa) = 96.76699 99.23953 37.31120
#
# Poissons Ratio (x) = 0.25612 0.11890
# Poissons Ratio (y) = 0.24974 -0.13619
# Poissons Ratio (z) = 0.30837 -0.36223
#
# Static dielectric constant tensor:
#      x y z
#    x 1.969020 0.014510 0.028580 
#    y 0.014510 2.094820 -0.039980 
#    z 0.028580 -0.039980 2.118720 
# 
# From -- ./inp_files/13976.got.cif
#   From: 2010.05.17/outbox.cif.g08.bks.cpg/sg2_7_cif.got.tgz:13976.got - 2010.06.03 11:33:40.
