data_PCOD9014015
_publ_section_title
;
Structure prediction by ZEFSAII (Michael W. Deem and Ramdas Pophale) SiO2 
 PCOD9014015
Probable space group: P -1
;
_chemical_formula_sum "Si O2"
_cell_formula_units_Z 16
_cell_length_a 18.768147
_cell_length_b 11.223199
_cell_length_c 9.473632
_cell_angle_alpha 78.316150
_cell_angle_beta 143.577763
_cell_angle_gamma 130.367372
_cell_volume 640.724311
_symmetry_space_group_name_H-M "P -1"
_symmetry_group_IT_number 2
_symmetry_cell_setting 'triclinic'
loop_
_space_group_symop_operation_xyz
x,y,z
-x,-y,-z
loop_
_atom_site_type_symbol
_atom_site_label
_atom_site_fract_x
_atom_site_fract_y
_atom_site_fract_z
Si Si1 0.642571 0.133546 0.834951
Si Si2 0.884969 0.384048 0.624176
Si Si3 0.864405 0.111532 0.551285
Si Si4 0.040615 0.911244 0.766703
Si Si5 0.493714 0.770802 0.843179
Si Si6 0.618713 0.582890 0.320207
Si Si7 0.754101 0.068790 0.677632
Si Si8 0.781321 0.679064 0.127185
O O1 0.500000 0.000000 0.500000
O O2 0.611260 0.978106 0.897062
O O3 0.501681 0.116232 0.698953
O O4 0.884087 0.375914 0.120849
O O5 0.813198 0.213735 0.445703
O O6 0.709087 0.340725 0.371967
O O7 0.877105 0.299962 0.779410
O O8 0.837837 0.056765 0.685561
O O9 0.099846 0.289604 0.817073
O O10 0.683020 0.891593 0.223127
O O11 0.869135 0.814162 0.632952
O O12 0.830000 0.863253 0.136297
O O13 0.905182 0.749260 0.453904
O O14 0.181203 0.932096 0.069906
O O15 0.409360 0.587041 0.660375
O O16 0.500000 0.500000 0.000000
O O17 0.477119 0.541738 0.212688
#
# Coordination Sequence:
#
# PCOD9014015 Si02
#       8
#     2   2   2   2   2   2   2   2
#     4  11  26  40  67 101 127 174 220 269 328 383
#     4   9  24  44  62  95 135 173 214 262 333 396
#     4  10  22  46  62  93 140 173 210 269 325 398
#     4  10  21  41  66  94 127 172 221 278 318 376
#     4  11  23  41  68  93 132 174 218 270 318 386
#     4  10  23  40  65 101 126 166 223 274 319 377
#     4   9  24  42  62  93 137 165 216 270 329 385
#     4  10  22  40  67  98 127 169 228 266 323 391
#
# _framework density 24.971737999999998
#
# number of rings (size 3 to 8) (size 9 to 14) (size 15 to 20)
#    0.750    1.250    0.000    2.625    7.000    3.000 
#    6.750    0.625    0.000    0.000    0.000    0.000 
#    0.000    0.000    0.000    0.000    0.000    0.000 
#
# Total GULP energy -89443.349508 kJ/mol
# GULP energy per Si atom -5590.209344 kJ/mol
# Density = 2.491490 g / cm^3
# Si number density = 24.971738 Si / 1000 Ang^3
#
#
#
# Elastic Constant Matrix: (Units=GPa)
#
#
# Indices 1 2 3 4 5 6 
#
# 1 143.5077 15.0956 21.0186 7.9570 42.3196 19.2147
# 2 15.0956 132.6253 45.1904 1.7567 10.4665 17.1171
# 3 21.0186 45.1904 53.3031 4.4417 25.1362 16.4062
# 4 7.9570 1.7567 4.4417 44.0767 10.0155 9.7141
# 5 42.3196 10.4665 25.1362 10.0155 52.1659 8.5151
# 6 19.2147 17.1171 16.4062 9.7141 8.5151 37.1463
#
#
#
# Elastic Compliance Matrix: (Units=1/GPa)
#
#
# Indices 1 2 3 4 5 6 
#
# 1 0.009607 -0.000490 0.001466 0.000772 -0.007934 -0.003774
# 2 -0.000490 0.011012 -0.010416 0.000167 0.003343 -0.001030
# 3 0.001466 -0.010416 0.037198 0.002061 -0.015904 -0.009281
# 4 0.000772 0.000167 0.002061 0.025030 -0.005365 -0.006702
# 5 -0.007934 0.003343 -0.015904 -0.005365 0.033072 0.003410
# 6 -0.003774 -0.001030 -0.009281 -0.006702 0.003410 0.034418
#
#
# Mechanical properties :
#
#
# Convention : Reuss Voigt Hill
#
# Bulk Modulus (GPa) = 25.68242 54.67171 40.17707
# Shear Modulus (GPa) = 27.44288 43.21986 35.33137
#
# Velocity S-wave (km/s) = 3.31865 4.16474 3.76554
# Velocity P-wave (km/s) = 4.99915 6.71325 5.91858
#
# Compressibility (1/GPa) = 0.03893715
#
# Stress axis : x y z
#
# Youngs Moduli (GPa) = 104.08621 90.81122 26.88326
#
# Poissons Ratio (x) = 0.04449 -0.03941
# Poissons Ratio (y) = 0.05100 0.28001
# Poissons Ratio (z) = -0.15258 0.94588
#
# Static dielectric constant tensor:
#      x y z
#    x 2.093620 -0.013420 0.021960 
#    y -0.013420 2.056640 -0.045900 
#    z 0.021960 -0.045900 1.936670 
# 
# From -- ./inp_files/333301.got.cif
#   From: 2010.05.17/outbox.cif.g08.bks.cpg/sg2_167_cif.got.tgz:333301.got - 2010.06.03 11:33:40.
