data_PCOD9014021
_publ_section_title
;
Structure prediction by ZEFSAII (Michael W. Deem and Ramdas Pophale) SiO2 
 PCOD9014021
Probable space group: P -1
;
_chemical_formula_sum "Si O2"
_cell_formula_units_Z 16
_cell_length_a 17.378582
_cell_length_b 8.648237
_cell_length_c 10.798558
_cell_angle_alpha 150.989888
_cell_angle_beta 51.971624
_cell_angle_gamma 117.119164
_cell_volume 605.204657
_symmetry_space_group_name_H-M "P -1"
_symmetry_group_IT_number 2
_symmetry_cell_setting 'triclinic'
loop_
_space_group_symop_operation_xyz
x,y,z
-x,-y,-z
loop_
_atom_site_type_symbol
_atom_site_label
_atom_site_fract_x
_atom_site_fract_y
_atom_site_fract_z
Si Si1 0.872214 0.846825 0.958770
Si Si2 0.995881 0.811076 0.060650
Si Si3 0.585446 0.842792 0.157348
Si Si4 0.736299 0.579176 0.598517
Si Si5 0.804312 0.219416 0.651532
Si Si6 0.592330 0.269872 0.901371
Si Si7 0.892431 0.894009 0.544777
Si Si8 0.552262 0.564641 0.625880
O O1 0.947764 0.762951 0.941524
O O2 0.796048 0.201348 0.293750
O O3 0.816934 0.548679 0.803313
O O4 0.943972 0.902169 0.814949
O O5 0.900101 0.945289 0.330197
O O6 0.070929 0.486761 0.802321
O O7 0.602078 0.642599 0.127372
O O8 0.580741 0.220570 0.430268
O O9 0.663058 0.688935 0.864473
O O10 0.477640 0.817269 0.195475
O O11 0.818286 0.803546 0.662311
O O12 0.662727 0.642292 0.593650
O O13 0.818607 0.209321 0.777416
O O14 0.704813 0.092314 0.639216
O O15 0.536106 0.229060 0.055490
O O16 0.000000 0.000000 0.500000
O O17 0.500000 0.500000 0.500000
#
# Coordination Sequence:
#
# PCOD9014021 Si02
#       8
#     2   2   2   2   2   2   2   2
#     4  10  21  41  66  94 129 174 231 281 324 407
#     4  10  22  42  63  93 131 176 227 278 338 397
#     4  10  22  46  71  98 139 177 225 289 339 403
#     4  10  24  44  71 100 139 179 234 276 346 406
#     4  12  23  39  67  95 134 176 222 277 343 400
#     4  10  24  41  68 104 132 174 232 283 335 408
#     4  11  24  46  63  99 139 180 220 288 340 410
#     4  11  25  43  69 101 140 180 225 279 345 414
#
# _framework density 26.437335999999998
#
# number of rings (size 3 to 8) (size 9 to 14) (size 15 to 20)
#    0.000    1.500    1.250    2.625    3.500    4.000 
#    9.000    0.000    0.000    0.000    0.000    0.000 
#    0.000    0.000    0.000    0.000    0.000    0.000 
#
# Total GULP energy -89250.805645 kJ/mol
# GULP energy per Si atom -5578.175353 kJ/mol
# Density = 2.637716 g / cm^3
# Si number density = 26.437336 Si / 1000 Ang^3
#
#
#
# Elastic Constant Matrix: (Units=GPa)
#
#
# Indices 1 2 3 4 5 6 
#
# 1 129.9011 46.2899 5.7693 -14.8670 -12.0472 19.8806
# 2 46.2899 166.4548 27.3392 7.3145 -26.0623 20.5665
# 3 5.7693 27.3392 63.7406 -7.5995 -28.8099 -1.4995
# 4 -14.8670 7.3145 -7.5995 46.5119 1.8461 -15.0847
# 5 -12.0472 -26.0623 -28.8099 1.8461 33.2791 -3.8536
# 6 19.8806 20.5665 -1.4995 -15.0847 -3.8536 37.5653
#
#
#
# Elastic Compliance Matrix: (Units=1/GPa)
#
#
# Indices 1 2 3 4 5 6 
#
# 1 0.009345 -0.002305 0.001555 0.002774 0.002509 -0.002250
# 2 -0.002305 0.008335 -0.002539 -0.004139 0.003171 -0.004781
# 3 0.001555 -0.002539 0.028171 0.006781 0.023374 0.006812
# 4 0.002774 -0.004139 0.006781 0.028133 0.003546 0.012729
# 5 0.002509 0.003171 0.023374 0.003546 0.054039 0.004837
# 6 -0.002250 -0.004781 0.006812 0.012729 0.004837 0.036309
#
#
# Mechanical properties :
#
#
# Convention : Reuss Voigt Hill
#
# Bulk Modulus (GPa) = 25.46365 57.65481 41.55923
# Shear Modulus (GPa) = 27.17382 42.18447 34.67915
#
# Velocity S-wave (km/s) = 3.20950 3.99888 3.62574
# Velocity P-wave (km/s) = 4.83602 6.57091 5.76905
#
# Compressibility (1/GPa) = 0.03927166
#
# Stress axis : x y z
#
# Youngs Moduli (GPa) = 107.00727 119.97855 35.49804
#
# Poissons Ratio (x) = 0.27658 -0.05520
# Poissons Ratio (y) = 0.24667 0.09013
# Poissons Ratio (z) = -0.16638 0.30464
#
# Static dielectric constant tensor:
#      x y z
#    x 2.195310 -0.093180 0.041550 
#    y -0.093180 2.219040 -0.002370 
#    z 0.041550 -0.002370 2.118910 
# 
# From -- ./inp_files/85014.got.cif
#   From: 2010.05.17/outbox.cif.g08.bks.cpg/sg2_43_cif.got.tgz:85014.got - 2010.06.03 11:33:40.
