data_PCOD9014130
_publ_section_title
;
Structure prediction by ZEFSAII (Michael W. Deem and Ramdas Pophale) SiO2 
 PCOD9014130
Probable space group: P -1
;
_chemical_formula_sum "Si O2"
_cell_formula_units_Z 14
_cell_length_a 5.479859
_cell_length_b 7.621337
_cell_length_c 14.147719
_cell_angle_alpha 108.230039
_cell_angle_beta 107.334306
_cell_angle_gamma 90.956134
_cell_volume 531.768487
_symmetry_space_group_name_H-M "P -1"
_symmetry_group_IT_number 2
_symmetry_cell_setting 'triclinic'
loop_
_space_group_symop_operation_xyz
x,y,z
-x,-y,-z
loop_
_atom_site_type_symbol
_atom_site_label
_atom_site_fract_x
_atom_site_fract_y
_atom_site_fract_z
Si Si1 0.242714 0.193738 0.307059
Si Si2 0.251179 0.534553 0.915962
Si Si3 0.115030 0.293289 0.515353
Si Si4 0.383618 0.001779 0.590260
Si Si5 0.833698 0.855069 0.092884
Si Si6 0.687325 0.057859 0.930332
Si Si7 0.734629 0.371178 0.281769
O O1 0.272977 0.287650 0.434638
O O2 0.373098 0.008056 0.317085
O O3 0.449325 0.299242 0.275385
O O4 0.945516 0.227834 0.264274
O O5 0.085572 0.341915 0.895899
O O6 0.197271 0.741044 0.976843
O O7 0.288540 0.539307 0.809263
O O8 0.500000 0.500000 0.000000
O O9 0.132776 0.492368 0.599627
O O10 0.837740 0.170748 0.447889
O O11 0.239208 0.182616 0.597474
O O12 0.500000 0.000000 0.500000
O O13 0.695395 0.893330 0.981055
O O14 0.593629 0.911639 0.134589
O O15 0.103104 0.980766 0.129197
#
# Coordination Sequence:
#
# PCOD9014130 Si02
#       7
#     2   2   2   2   2   2   2
#     4  11  23  42  63  97 131 170 214 273 326 401
#     4  10  23  44  65  91 134 174 225 279 329 383
#     4  10  21  41  66  98 135 171 216 266 330 403
#     4   9  20  38  69  94 134 174 207 262 338 394
#     4   9  18  35  62  87 111 157 208 265 326 373
#     4   9  18  35  63  86 113 154 210 263 326 381
#     4  12  26  38  65  98 129 175 226 266 336 392
#
# _framework density 26.327245999999999
#
# number of rings (size 3 to 8) (size 9 to 14) (size 15 to 20)
#    0.000    2.000    1.429    1.286    4.000    4.571 
#    2.571    0.000    6.286    0.000    0.000    0.000 
#    0.000    0.000    0.000    0.000    0.000    0.000 
#
# Total GULP energy -78031.690492 kJ/mol
# GULP energy per Si atom -5573.692178 kJ/mol
# Density = 2.626732 g / cm^3
# Si number density = 26.327246 Si / 1000 Ang^3
#
#
#
# Elastic Constant Matrix: (Units=GPa)
#
#
# Indices 1 2 3 4 5 6 
#
# 1 172.3153 58.5565 24.5490 -3.3892 -11.9154 14.1109
# 2 58.5565 115.3873 14.1007 -27.9241 -3.9798 7.1724
# 3 24.5490 14.1007 105.5022 -31.4437 0.8057 11.7704
# 4 -3.3892 -27.9241 -31.4437 44.6065 3.5173 -2.7715
# 5 -11.9154 -3.9798 0.8057 3.5173 42.0824 -19.2064
# 6 14.1109 7.1724 11.7704 -2.7715 -19.2064 41.7010
#
#
#
# Elastic Compliance Matrix: (Units=1/GPa)
#
#
# Indices 1 2 3 4 5 6 
#
# 1 0.007790 -0.004560 -0.002384 -0.004129 0.001902 -0.000577
# 2 -0.004560 0.013026 0.002315 0.009473 -0.001550 -0.001435
# 3 -0.002384 0.002315 0.013439 0.010756 -0.003584 -0.004321
# 4 -0.004129 0.009473 0.010756 0.035808 -0.004909 -0.003149
# 5 0.001902 -0.001550 -0.003584 -0.004909 0.031368 0.014756
# 6 -0.000577 -0.001435 -0.004321 -0.003149 0.014756 0.032229
#
#
# Mechanical properties :
#
#
# Convention : Reuss Voigt Hill
#
# Bulk Modulus (GPa) = 40.00308 65.29079 52.64693
# Shear Modulus (GPa) = 33.05825 45.41123 39.23474
#
# Velocity S-wave (km/s) = 3.54738 4.15767 3.86459
# Velocity P-wave (km/s) = 5.65739 6.92111 6.32091
#
# Compressibility (1/GPa) = 0.02499808
#
# Stress axis : x y z
#
# Youngs Moduli (GPa) = 128.37052 76.77173 74.41207
#
# Poissons Ratio (x) = 0.35005 0.17738
# Poissons Ratio (y) = 0.58532 -0.17229
# Poissons Ratio (z) = 0.30601 -0.17775
#
# Static dielectric constant tensor:
#      x y z
#    x 2.071770 0.003160 0.009960 
#    y 0.003160 2.563500 0.079230 
#    z 0.009960 0.079230 2.339170 
# 
# From -- ./inp_files/547187.got.cif
#   From: 2010.05.17/outbox.cif.g08.bks.cpg/sg2_274_cif.got.tgz:547187.got - 2010.06.03 11:33:40.
