data_PCOD9014770
_publ_section_title
;
Structure prediction by ZEFSAII (Michael W. Deem and Ramdas Pophale) SiO2 
 PCOD9014770
Probable space group: P -1
;
_chemical_formula_sum "Si O2"
_cell_formula_units_Z 16
_cell_length_a 20.116467
_cell_length_b 20.312805
_cell_length_c 5.436189
_cell_angle_alpha 89.188561
_cell_angle_beta 78.353567
_cell_angle_gamma 156.640482
_cell_volume 740.111303
_symmetry_space_group_name_H-M "P -1"
_symmetry_group_IT_number 2
_symmetry_cell_setting 'triclinic'
loop_
_space_group_symop_operation_xyz
x,y,z
-x,-y,-z
loop_
_atom_site_type_symbol
_atom_site_label
_atom_site_fract_x
_atom_site_fract_y
_atom_site_fract_z
Si Si1 0.985248 0.286864 0.754472
Si Si2 0.406549 0.864865 0.883894
Si Si3 0.304714 0.081613 0.221231
Si Si4 0.563265 0.344079 0.518670
Si Si5 0.820754 0.886570 0.690699
Si Si6 0.413902 0.350065 0.622179
Si Si7 0.229764 0.823419 0.746191
Si Si8 0.915980 0.496258 0.612106
O O1 0.199132 0.454795 0.674093
O O2 0.049660 0.420097 0.626947
O O3 0.860357 0.127867 0.663697
O O4 0.810907 0.147188 0.081268
O O5 0.256241 0.776328 0.860207
O O6 0.569645 0.987536 0.570496
O O7 0.307198 0.716965 0.120627
O O8 0.500000 0.000000 0.000000
O O9 0.438516 0.208166 0.369274
O O10 0.169498 0.025024 0.297790
O O11 0.452605 0.217702 0.861151
O O12 0.556955 0.417846 0.541444
O O13 0.698140 0.767959 0.538988
O O14 0.717246 0.768732 0.026380
O O15 0.000000 0.000000 0.500000
O O16 0.500000 0.500000 0.500000
O O17 0.040914 0.640938 0.728592
O O18 0.000000 0.500000 0.500000
#
# Coordination Sequence:
#
# PCOD9014770 Si02
#       8
#     2   2   2   2   2   2   2   2
#     4  12  28  46  74 100 140 197 241 298 374 439
#     4  11  23  45  70  96 136 170 218 306 364 426
#     4  10  26  50  70 106 155 191 249 299 366 442
#     4  10  26  49  72 106 152 195 242 303 361 441
#     4  10  21  41  70 107 141 191 239 298 355 424
#     4  10  21  41  69 107 144 184 240 297 358 420
#     4  11  25  43  68 101 130 179 234 289 374 433
#     4  12  25  46  65 102 133 169 241 294 356 444
#
# _framework density 21.618372000000001
#
# number of rings (size 3 to 8) (size 9 to 14) (size 15 to 20)
#    0.000    1.250    2.500    1.125    5.250    3.000 
#    0.000    0.000    0.000    0.000    0.000    0.000 
#    0.000    0.000    0.000    0.000    0.000    0.000 
#
# Total GULP energy -89176.165997 kJ/mol
# GULP energy per Si atom -5573.510375 kJ/mol
# Density = 2.156917 g / cm^3
# Si number density = 21.618372 Si / 1000 Ang^3
#
#
#
# Elastic Constant Matrix: (Units=GPa)
#
#
# Indices 1 2 3 4 5 6 
#
# 1 -248.3316 582.9383 76.8188 115.7079 206.9422 -398.8255
# 2 582.9383 -727.1222 38.4957 -191.0939 -342.3929 568.8632
# 3 76.8188 38.4957 150.0730 2.2567 -16.2555 5.9307
# 4 115.7079 -191.0939 2.2567 -13.3566 -75.6841 138.1148
# 5 206.9422 -342.3929 -16.2555 -75.6841 -96.7928 235.1719
# 6 -398.8255 568.8632 5.9307 138.1148 235.1719 -373.4492
#
#
#
# Elastic Compliance Matrix: (Units=1/GPa)
#
#
# Indices 1 2 3 4 5 6 
#
# 1 0.010761 0.002149 -0.005455 0.006889 0.005762 -0.002129
# 2 0.002149 0.009398 -0.004055 -0.002041 -0.001590 0.010200
# 3 -0.005455 -0.004055 0.010612 -0.003766 -0.000030 -0.001595
# 4 0.006889 -0.002041 -0.003766 0.034377 -0.001919 0.000981
# 5 0.005762 -0.001590 -0.000030 -0.001919 0.025364 0.006687
# 6 -0.002129 0.010200 -0.001595 0.000981 0.006687 0.019681
#
#
# Mechanical properties :
#
#
# Convention : Reuss Voigt Hill
#
# Bulk Modulus (GPa) = 62.30978 63.45833 62.88405
# Shear Modulus (GPa) = 38.38371 -198.29531 -79.95580
#
# Velocity S-wave (km/s) = 4.21826 -9.58773 -6.08814
# Velocity P-wave (km/s) = 7.25328 9.65134 4.50213
#
# Compressibility (1/GPa) = 0.01604885
#
# Stress axis : x y z
#
# Youngs Moduli (GPa) = 92.92953 106.40970 94.23054
#
# Poissons Ratio (x) = -0.22869 0.51401
# Poissons Ratio (y) = -0.19972 0.38213
# Poissons Ratio (z) = 0.50691 0.43152
#
# Static dielectric constant tensor:
#      x y z
#    x 1.835900 -0.001840 0.261960 
#    y -0.001840 1.818760 0.170500 
#    z 0.261960 0.170500 3.742750 
# 
# From -- ./inp_files/120417.got.cif
#   From: 2010.05.17/outbox.cif.g08.bks.cpg/sg2_61_cif.got.tgz:120417.got - 2010.06.03 11:33:40.
