data_PCOD9014810
_publ_section_title
;
Structure prediction by ZEFSAII (Michael W. Deem and Ramdas Pophale) SiO2 
 PCOD9014810
Probable space group: P -1
;
_chemical_formula_sum "Si O2"
_cell_formula_units_Z 16
_cell_length_a 8.902092
_cell_length_b 12.178664
_cell_length_c 11.328076
_cell_angle_alpha 46.418310
_cell_angle_beta 96.049139
_cell_angle_gamma 116.512933
_cell_volume 756.305671
_symmetry_space_group_name_H-M "P -1"
_symmetry_group_IT_number 2
_symmetry_cell_setting 'triclinic'
loop_
_space_group_symop_operation_xyz
x,y,z
-x,-y,-z
loop_
_atom_site_type_symbol
_atom_site_label
_atom_site_fract_x
_atom_site_fract_y
_atom_site_fract_z
Si Si1 0.906873 0.985242 0.304392
Si Si2 0.995625 0.162630 0.934586
Si Si3 0.338105 0.805870 0.164044
Si Si4 0.480277 0.328775 0.553374
Si Si5 0.346035 0.462172 0.806737
Si Si6 0.010613 0.783733 0.624702
Si Si7 0.656397 0.405399 0.901680
Si Si8 0.184202 0.607674 0.862512
O O1 0.720170 0.835445 0.345627
O O2 0.003888 0.883137 0.433996
O O3 0.915328 0.086660 0.351130
O O4 0.984847 0.127726 0.100633
O O5 0.184476 0.335756 0.802051
O O6 0.837557 0.183379 0.857603
O O7 0.000000 0.000000 0.000000
O O8 0.395106 0.734626 0.332804
O O9 0.317742 0.671874 0.158503
O O10 0.500000 0.000000 0.000000
O O11 0.500000 0.500000 0.500000
O O12 0.527283 0.374532 0.386501
O O13 0.465352 0.381752 0.911546
O O14 0.264294 0.505824 0.878199
O O15 0.812046 0.615276 0.760110
O O16 0.140807 0.708615 0.685689
O O17 0.681228 0.298571 0.088830
O O18 0.000000 0.500000 0.000000
#
# Coordination Sequence:
#
# PCOD9014810 Si02
#       8
#     2   2   2   2   2   2   2   2
#     4  11  22  42  69  92 137 177 228 280 343 399
#     4  12  25  41  64 102 138 177 228 280 339 412
#     4  12  24  43  74  99 138 187 227 282 349 406
#     4  12  24  45  71 101 140 182 230 287 341 410
#     4  12  24  41  68 100 134 178 230 283 342 413
#     4  10  21  41  69  93 127 183 224 281 342 403
#     4  11  21  42  68  99 134 176 231 280 347 407
#     4  10  22  39  64  95 132 172 224 278 337 404
#
# _framework density 21.155466000000001
#
# number of rings (size 3 to 8) (size 9 to 14) (size 15 to 20)
#    0.000    0.750    3.750    5.625    0.000    1.500 
#    0.000    0.625    0.000    0.000    0.000    0.000 
#    0.000    0.000    0.000    0.000    0.000    0.000 
#
# Total GULP energy -89272.402644 kJ/mol
# GULP energy per Si atom -5579.525165 kJ/mol
# Density = 2.110732 g / cm^3
# Si number density = 21.155466 Si / 1000 Ang^3
#
#
#
# Elastic Constant Matrix: (Units=GPa)
#
#
# Indices 1 2 3 4 5 6 
#
# 1 149.8888 18.3953 18.8133 9.7221 41.0180 11.0972
# 2 18.3953 72.4482 -13.9546 2.6282 2.4656 6.3810
# 3 18.8133 -13.9546 58.0546 11.1533 21.4465 10.0983
# 4 9.7221 2.6282 11.1533 34.2785 11.4336 -0.2728
# 5 41.0180 2.4656 21.4465 11.4336 42.4862 12.0971
# 6 11.0972 6.3810 10.0983 -0.2728 12.0971 32.8064
#
#
#
# Elastic Compliance Matrix: (Units=1/GPa)
#
#
# Indices 1 2 3 4 5 6 
#
# 1 0.009401 -0.002268 -0.000500 0.000714 -0.009105 0.000779
# 2 -0.002268 0.015926 0.005681 -0.002554 0.000282 -0.004205
# 3 -0.000500 0.005681 0.023981 -0.005078 -0.009168 -0.004979
# 4 0.000714 -0.002554 -0.005078 0.033710 -0.008544 0.005249
# 5 -0.009105 0.000282 -0.009168 -0.008544 0.042004 -0.009713
# 6 0.000779 -0.004205 -0.004979 0.005249 -0.009713 0.036194
#
#
# Mechanical properties :
#
#
# Convention : Reuss Voigt Hill
#
# Bulk Modulus (GPa) = 18.13772 36.32219 27.22996
# Shear Modulus (GPa) = 28.77388 39.05670 33.91529
#
# Velocity S-wave (km/s) = 3.69198 4.30138 4.00827
# Velocity P-wave (km/s) = 5.17362 6.47113 5.85841
#
# Compressibility (1/GPa) = 0.05513371
#
# Stress axis : x y z
#
# Youngs Moduli (GPa) = 106.37713 62.78876 41.69906
#
# Poissons Ratio (x) = 0.14240 0.02087
# Poissons Ratio (y) = 0.24125 -0.23689
# Poissons Ratio (z) = 0.05323 -0.35670
#
# Static dielectric constant tensor:
#      x y z
#    x 1.764170 -0.025210 0.022040 
#    y -0.025210 1.808980 0.018820 
#    z 0.022040 0.018820 1.803990 
# 
# From -- ./inp_files/392126.got.cif
#   From: 2010.05.17/outbox.cif.g08.bks.cpg/sg2_197_cif.got.tgz:392126.got - 2010.06.03 11:33:40.
