data_PCOD9014272
_publ_section_title
;
Structure prediction by ZEFSAII (Michael W. Deem and Ramdas Pophale) SiO2 
 PCOD9014272
Probable space group: P -1
;
_chemical_formula_sum "Si O2"
_cell_formula_units_Z 14
_cell_length_a 8.770816
_cell_length_b 18.237456
_cell_length_c 26.668179
_cell_angle_alpha 16.692809
_cell_angle_beta 26.977081
_cell_angle_gamma 33.244224
_cell_volume 550.923053
_symmetry_space_group_name_H-M "P -1"
_symmetry_group_IT_number 2
_symmetry_cell_setting 'triclinic'
loop_
_space_group_symop_operation_xyz
x,y,z
-x,-y,-z
loop_
_atom_site_type_symbol
_atom_site_label
_atom_site_fract_x
_atom_site_fract_y
_atom_site_fract_z
Si Si1 0.913557 0.391447 0.465285
Si Si2 0.136777 0.655516 0.809098
Si Si3 0.664826 0.302269 0.116020
Si Si4 0.024847 0.126679 0.039258
Si Si5 0.207239 0.212025 0.408500
Si Si6 0.691554 0.927862 0.174922
Si Si7 0.705864 0.405159 0.688052
O O1 0.731895 0.638685 0.370675
O O2 0.663716 0.120492 0.719361
O O3 0.981926 0.403203 0.376911
O O4 0.211860 0.420759 0.400385
O O5 0.515963 0.751811 0.651512
O O6 0.008219 0.924723 0.656394
O O7 0.000000 0.500000 0.000000
O O8 0.015878 0.452180 0.935685
O O9 0.405368 0.240942 0.278817
O O10 0.789141 0.089865 0.182185
O O11 0.500000 0.500000 0.000000
O O12 0.224488 0.884685 0.128720
O O13 0.324321 0.366390 0.802172
O O14 0.763425 0.124763 0.070844
O O15 0.000000 0.000000 0.000000
O O16 0.000000 0.500000 0.500000
#
# Coordination Sequence:
#
# PCOD9014272 Si02
#       7
#     2   2   2   2   2   2   2
#     4  10  22  38  61  93 117 159 217 249 319 384
#     4   9  21  41  61  88 122 167 218 256 312 377
#     4  11  25  40  60  98 136 174 211 262 330 390
#     4  10  23  40  61  93 127 159 217 260 321 385
#     4  10  22  41  65  90 127 173 216 266 313 387
#     4  10  22  39  61  87 122 161 201 265 318 371
#     4  10  21  41  67  92 118 165 214 276 320 368
#
# _framework density 25.411895999999999
#
# number of rings (size 3 to 8) (size 9 to 14) (size 15 to 20)
#    0.000    2.000    0.000    1.714    4.000    6.286 
#    0.000    0.000    0.000    0.000    0.000    0.000 
#    0.000    0.000    0.000    0.000    0.000    0.000 
#
# Total GULP energy -77964.161143 kJ/mol
# GULP energy per Si atom -5568.868653 kJ/mol
# Density = 2.535406 g / cm^3
# Si number density = 25.411896 Si / 1000 Ang^3
#
#
#
# Elastic Constant Matrix: (Units=GPa)
#
#
# Indices 1 2 3 4 5 6 
#
# 1 121.0574 40.8589 68.3424 12.6561 -28.5362 44.5516
# 2 40.8589 103.8057 37.3344 19.1251 -4.6105 49.9029
# 3 68.3424 37.3344 132.0656 19.2578 -27.7206 28.3835
# 4 12.6561 19.1251 19.2578 27.6306 -4.0917 0.5469
# 5 -28.5362 -4.6105 -27.7206 -4.0917 40.7788 -3.1830
# 6 44.5516 49.9029 28.3835 0.5469 -3.1830 53.7150
#
#
#
# Elastic Compliance Matrix: (Units=1/GPa)
#
#
# Indices 1 2 3 4 5 6 
#
# 1 0.017457 0.003039 -0.004282 -0.005651 0.007950 -0.014511
# 2 0.003039 0.022824 -0.000452 -0.016273 0.000951 -0.023263
# 3 -0.004282 -0.000452 0.012101 -0.005456 0.004467 -0.002102
# 4 -0.005651 -0.016273 -0.005456 0.053047 -0.002463 0.022002
# 5 0.007950 0.000951 0.004467 -0.002463 0.032366 -0.007894
# 6 -0.014511 -0.023263 -0.002102 0.022002 -0.007894 0.052684
#
#
# Mechanical properties :
#
#
# Convention : Reuss Voigt Hill
#
# Bulk Modulus (GPa) = 20.41179 72.22223 46.31701
# Shear Modulus (GPa) = 23.78696 38.45110 31.11903
#
# Velocity S-wave (km/s) = 3.06282 3.89410 3.50320
# Velocity P-wave (km/s) = 4.53406 6.97861 5.88467
#
# Compressibility (1/GPa) = 0.04899129
#
# Stress axis : x y z
#
# Youngs Moduli (GPa) = 57.28321 43.81371 82.64030
#
# Poissons Ratio (x) = -0.13314 0.35383
# Poissons Ratio (y) = -0.17407 0.03739
# Poissons Ratio (z) = 0.24526 0.01982
#
# Static dielectric constant tensor:
#      x y z
#    x 2.126240 -0.087170 0.046760 
#    y -0.087170 2.208040 0.155180 
#    z 0.046760 0.155180 2.307750 
# 
# From -- ./inp_files/363911.got.cif
#   From: 2010.05.17/outbox.cif.g08.bks.cpg/sg2_182_cif.got.tgz:363911.got - 2010.06.03 11:33:40.
