data_PCOD9014346
_publ_section_title
;
Structure prediction by ZEFSAII (Michael W. Deem and Ramdas Pophale) SiO2 
 PCOD9014346
Probable space group: P -1
;
_chemical_formula_sum "Si O2"
_cell_formula_units_Z 16
_cell_length_a 15.425378
_cell_length_b 22.111383
_cell_length_c 6.494149
_cell_angle_alpha 58.268504
_cell_angle_beta 113.312294
_cell_angle_gamma 158.640762
_cell_volume 653.741511
_symmetry_space_group_name_H-M "P -1"
_symmetry_group_IT_number 2
_symmetry_cell_setting 'triclinic'
loop_
_space_group_symop_operation_xyz
x,y,z
-x,-y,-z
loop_
_atom_site_type_symbol
_atom_site_label
_atom_site_fract_x
_atom_site_fract_y
_atom_site_fract_z
Si Si1 0.485893 0.575836 0.555143
Si Si2 0.244749 0.523232 0.112589
Si Si3 0.815610 0.143937 0.147880
Si Si4 0.351496 0.232223 0.256448
Si Si5 0.203958 0.615339 0.206863
Si Si6 0.235855 0.034206 0.800054
Si Si7 0.859939 0.800707 0.182974
Si Si8 0.743004 0.232703 0.709327
O O1 0.369772 0.560050 0.340612
O O2 0.505801 0.612667 0.741861
O O3 0.759275 0.748127 0.409137
O O4 0.315370 0.387733 0.707546
O O5 0.183169 0.559709 0.069861
O O6 0.013155 0.314743 0.184859
O O7 0.441782 0.667409 0.854624
O O8 0.881792 0.114564 0.164317
O O9 0.530653 0.941813 0.325043
O O10 0.788695 0.181267 0.868806
O O11 0.198882 0.076801 0.546871
O O12 0.202720 0.173270 0.055100
O O13 0.467868 0.769587 0.261776
O O14 0.237040 0.719798 0.125733
O O15 0.963506 0.419375 0.451642
O O16 0.130865 0.968468 0.051288
#
# Coordination Sequence:
#
# PCOD9014346 Si02
#       8
#     2   2   2   2   2   2   2   2
#     4  10  22  43  64  95 133 172 213 273 314 373
#     4  11  23  40  68  98 124 177 217 258 318 392
#     4  10  22  40  65  99 127 166 218 261 326 382
#     4  11  22  42  63  93 139 170 213 264 320 372
#     4  10  21  41  67  95 127 169 214 262 332 380
#     4  11  22  40  65  97 132 175 210 268 314 383
#     4  10  23  39  65  97 127 176 220 259 319 377
#     4   9  21  43  69  91 131 167 205 278 325 378
#
# _framework density 24.474506000000002
#
# number of rings (size 3 to 8) (size 9 to 14) (size 15 to 20)
#    0.000    1.750    1.250    2.250    1.750    3.500 
#    4.500    0.000    0.000    0.000    0.000    0.000 
#    0.000    0.000    0.000    0.000    0.000    0.000 
#
# Total GULP energy -89457.243515 kJ/mol
# GULP energy per Si atom -5591.077720 kJ/mol
# Density = 2.441880 g / cm^3
# Si number density = 24.474506 Si / 1000 Ang^3
#
#
#
# Elastic Constant Matrix: (Units=GPa)
#
#
# Indices 1 2 3 4 5 6 
#
# 1 83.2376 4.5162 15.9380 -5.0822 -6.0592 -28.9047
# 2 4.5162 92.6520 8.3996 0.5272 -6.2479 -14.0932
# 3 15.9380 8.3996 57.5250 -21.7626 -10.9006 1.8875
# 4 -5.0822 0.5272 -21.7626 33.1691 -10.3166 0.2727
# 5 -6.0592 -6.2479 -10.9006 -10.3166 32.2345 3.2298
# 6 -28.9047 -14.0932 1.8875 0.2727 3.2298 38.4956
#
#
#
# Elastic Compliance Matrix: (Units=1/GPa)
#
#
# Indices 1 2 3 4 5 6 
#
# 1 0.018120 0.001924 -0.006580 -0.001851 -0.000510 0.014688
# 2 0.001924 0.011921 -0.003067 -0.001812 0.000461 0.005933
# 3 -0.006580 -0.003067 0.034067 0.027522 0.019455 -0.009561
# 4 -0.001851 -0.001812 0.027522 0.056492 0.027298 -0.006093
# 5 -0.000510 0.000461 0.019455 0.027298 0.046862 -0.005294
# 6 0.014688 0.005933 -0.009561 -0.006093 -0.005294 0.040134
#
#
# Mechanical properties :
#
#
# Convention : Reuss Voigt Hill
#
# Bulk Modulus (GPa) = 20.55011 32.34693 26.44852
# Shear Modulus (GPa) = 20.89751 34.41722 27.65736
#
# Velocity S-wave (km/s) = 2.92524 3.75407 3.36527
# Velocity P-wave (km/s) = 4.45243 5.66003 5.09215
#
# Compressibility (1/GPa) = 0.04866154
#
# Stress axis : x y z
#
# Youngs Moduli (GPa) = 55.18839 83.88410 29.35394
#
# Poissons Ratio (x) = -0.16136 0.19315
# Poissons Ratio (y) = -0.10616 0.09002
# Poissons Ratio (z) = 0.36315 0.25725
#
# Static dielectric constant tensor:
#      x y z
#    x 1.974160 0.021330 -0.014610 
#    y 0.021330 1.987930 0.021130 
#    z -0.014610 0.021130 1.906850 
# 
# From -- ./inp_files/112810.got.cif
#   From: 2010.05.17/outbox.cif.g08.bks.cpg/sg2_57_cif.got.tgz:112810.got - 2010.06.03 11:33:40.
