data_PCOD9014251
_publ_section_title
;
Structure prediction by ZEFSAII (Michael W. Deem and Ramdas Pophale) SiO2 
 PCOD9014251
Probable space group: P -1
;
_chemical_formula_sum "Si O2"
_cell_formula_units_Z 16
_cell_length_a 12.416205
_cell_length_b 28.333220
_cell_length_c 9.221139
_cell_angle_alpha 45.345919
_cell_angle_beta 31.672064
_cell_angle_gamma 29.427672
_cell_volume 827.503094
_symmetry_space_group_name_H-M "P -1"
_symmetry_group_IT_number 2
_symmetry_cell_setting 'triclinic'
loop_
_space_group_symop_operation_xyz
x,y,z
-x,-y,-z
loop_
_atom_site_type_symbol
_atom_site_label
_atom_site_fract_x
_atom_site_fract_y
_atom_site_fract_z
Si Si1 0.959599 0.758848 0.935201
Si Si2 0.148911 0.609719 0.803511
Si Si3 0.460933 0.404458 0.841749
Si Si4 0.310112 0.303765 0.120306
Si Si5 0.863838 0.149238 0.632153
Si Si6 0.468701 0.022750 0.655991
Si Si7 0.029592 0.249492 0.724484
Si Si8 0.696999 0.070951 0.785205
O O1 0.053275 0.729798 0.056488
O O2 0.598912 0.852308 0.139609
O O3 0.045399 0.675695 0.917908
O O4 0.096447 0.792322 0.630679
O O5 0.283581 0.505532 0.905390
O O6 0.396819 0.594991 0.465783
O O7 0.884797 0.661484 0.876775
O O8 0.734163 0.315350 0.821248
O O9 0.268671 0.386968 0.051016
O O10 0.202547 0.274869 0.420814
O O11 0.655491 0.212993 0.871969
O O12 0.710149 0.128691 0.757286
O O13 0.195544 0.046690 0.517388
O O14 0.251937 0.135777 0.685975
O O15 0.500000 0.000000 0.500000
O O16 0.335853 0.989879 0.959565
O O17 0.000000 0.000000 0.500000
#
# Coordination Sequence:
#
# PCOD9014251 Si02
#       8
#     2   2   2   2   2   2   2   2
#     4  11  23  41  61  92 128 159 199 253 307 364
#     4  10  21  41  67  90 119 159 207 252 303 364
#     4  10  22  41  65  91 120 160 204 255 304 359
#     4  11  21  40  65  91 118 157 211 251 297 361
#     4  11  22  38  64  87 117 166 205 244 297 362
#     4  11  24  39  59  88 126 161 205 251 298 357
#     4  11  25  39  59  93 129 157 198 257 308 356
#     4  11  23  39  60  87 121 164 207 241 296 364
#
# _framework density 19.335276
#
# number of rings (size 3 to 8) (size 9 to 14) (size 15 to 20)
#    0.000    1.250    2.500    3.375    3.500    8.500 
#    0.000    0.625    0.000    0.000    0.000    0.000 
#    0.000    0.000    0.000    0.000    0.000    0.000 
#
# Total GULP energy -89464.400997 kJ/mol
# GULP energy per Si atom -5591.525062 kJ/mol
# Density = 1.929127 g / cm^3
# Si number density = 19.335276 Si / 1000 Ang^3
#
#
#
# Elastic Constant Matrix: (Units=GPa)
#
#
# Indices 1 2 3 4 5 6 
#
# 1 59.6855 15.8851 7.9603 -23.4697 3.7622 10.7415
# 2 15.8851 97.9327 8.9994 -12.9689 -0.7483 16.8232
# 3 7.9603 8.9994 44.1717 -2.4591 -7.7839 -0.9019
# 4 -23.4697 -12.9689 -2.4591 20.2497 7.9598 -6.2467
# 5 3.7622 -0.7483 -7.7839 7.9598 33.1348 -2.6631
# 6 10.7415 16.8232 -0.9019 -6.2467 -2.6631 24.4638
#
#
#
# Elastic Compliance Matrix: (Units=1/GPa)
#
#
# Indices 1 2 3 4 5 6 
#
# 1 0.041087 0.002546 -0.008681 0.053460 -0.020185 -0.008658
# 2 0.002546 0.012724 -0.003333 0.009730 -0.003758 -0.007915
# 3 -0.008681 -0.003333 0.026155 -0.011412 0.010219 0.005266
# 4 0.053460 0.009730 -0.011412 0.131592 -0.040253 -0.001366
# 5 -0.020185 -0.003758 0.010219 -0.040253 0.044975 0.006442
# 6 -0.008658 -0.007915 0.005266 -0.001366 0.006442 0.050668
#
#
# Mechanical properties :
#
#
# Convention : Reuss Voigt Hill
#
# Bulk Modulus (GPa) = 16.38533 29.71994 23.05264
# Shear Modulus (GPa) = 14.43079 26.83265 20.63172
#
# Velocity S-wave (km/s) = 2.73490 3.72930 3.27012
# Velocity P-wave (km/s) = 4.29716 5.82647 5.11925
#
# Compressibility (1/GPa) = 0.06103019
#
# Stress axis : x y z
#
# Youngs Moduli (GPa) = 24.33858 78.59140 38.23293
#
# Poissons Ratio (x) = -0.20007 0.33188
# Poissons Ratio (y) = -0.06196 0.12744
# Poissons Ratio (z) = 0.21127 0.26197
#
# Static dielectric constant tensor:
#      x y z
#    x 1.667840 0.001890 -0.016260 
#    y 0.001890 1.683890 0.014650 
#    z -0.016260 0.014650 1.636900 
# 
# From -- ./inp_files/37430.got.cif
#   From: 2010.05.17/outbox.cif.g08.bks.cpg/sg2_19_cif.got.tgz:37430.got - 2010.06.03 11:33:40.
