data_PCOD9014289
_publ_section_title
;
Structure prediction by ZEFSAII (Michael W. Deem and Ramdas Pophale) SiO2 
 PCOD9014289
Probable space group: P -1
;
_chemical_formula_sum "Si O2"
_cell_formula_units_Z 14
_cell_length_a 18.530846
_cell_length_b 7.304918
_cell_length_c 6.333888
_cell_angle_alpha 61.449470
_cell_angle_beta 101.631491
_cell_angle_gamma 134.788033
_cell_volume 521.812933
_symmetry_space_group_name_H-M "P -1"
_symmetry_group_IT_number 2
_symmetry_cell_setting 'triclinic'
loop_
_space_group_symop_operation_xyz
x,y,z
-x,-y,-z
loop_
_atom_site_type_symbol
_atom_site_label
_atom_site_fract_x
_atom_site_fract_y
_atom_site_fract_z
Si Si1 0.536764 0.761211 0.177407
Si Si2 0.476578 0.721556 0.719659
Si Si3 0.680173 0.603027 0.836652
Si Si4 0.095212 0.301680 0.606881
Si Si5 0.735201 0.143673 0.342919
Si Si6 0.103176 0.586569 0.087390
Si Si7 0.109021 0.983953 0.122819
O O1 0.520875 0.475351 0.323803
O O2 0.428264 0.670897 0.195183
O O3 0.632405 0.022931 0.231812
O O4 0.556817 0.835460 0.896627
O O5 0.500000 0.000000 0.500000
O O6 0.364706 0.482180 0.903786
O O7 0.704869 0.868058 0.587631
O O8 0.792960 0.722923 0.854849
O O9 0.207598 0.600880 0.593064
O O10 0.088209 0.337777 0.336155
O O11 0.087555 0.065905 0.849284
O O12 0.997180 0.229741 0.690598
O O13 0.819237 0.271962 0.138465
O O14 0.143023 0.822424 0.162977
O O15 0.000000 0.500000 0.000000
#
# Coordination Sequence:
#
# PCOD9014289 Si02
#       7
#     2   2   2   2   2   2   2
#     4   9  22  40  65  97 136 176 226 274 329 409
#     4   9  20  41  67  96 132 178 225 278 335 388
#     4  10  21  41  67  92 136 178 216 277 330 400
#     4  11  26  45  71  99 139 177 223 291 337 392
#     4  12  23  44  68 101 139 181 223 275 343 400
#     4  12  24  43  72  98 133 181 222 276 346 400
#     4  11  23  47  68 100 137 174 230 282 335 400
#
# _framework density 26.829535
#
# number of rings (size 3 to 8) (size 9 to 14) (size 15 to 20)
#    0.857    0.571    2.857    2.571    0.000    2.857 
#    5.143    1.429    0.000    0.000    0.000    0.000 
#    0.000    0.000    0.000    0.000    0.000    0.000 
#
# Total GULP energy -78285.887751 kJ/mol
# GULP energy per Si atom -5591.849125 kJ/mol
# Density = 2.676847 g / cm^3
# Si number density = 26.829535 Si / 1000 Ang^3
#
#
#
# Elastic Constant Matrix: (Units=GPa)
#
#
# Indices 1 2 3 4 5 6 
#
# 1 95.9364 34.9939 40.0559 -4.8742 1.2737 5.3605
# 2 34.9939 183.4045 50.1033 31.0892 -0.6600 31.8821
# 3 40.0559 50.1033 172.2827 -12.8017 9.5933 12.6441
# 4 -4.8742 31.0892 -12.8017 56.0160 13.9847 8.6335
# 5 1.2737 -0.6600 9.5933 13.9847 31.6097 -4.7570
# 6 5.3605 31.8821 12.6441 8.6335 -4.7570 45.3867
#
#
#
# Elastic Compliance Matrix: (Units=1/GPa)
#
#
# Indices 1 2 3 4 5 6 
#
# 1 0.012145 -0.002122 -0.002035 0.001927 -0.000741 0.000179
# 2 -0.002122 0.007919 -0.002089 -0.005187 0.002658 -0.003465
# 3 -0.002035 -0.002089 0.007539 0.004018 -0.004269 -0.001604
# 4 0.001927 -0.005187 0.004018 0.025785 -0.013417 -0.004015
# 5 -0.000741 0.002658 -0.004269 -0.013417 0.039877 0.006142
# 6 0.000179 -0.003465 -0.001604 -0.004015 0.006142 0.026300
#
#
# Mechanical properties :
#
#
# Convention : Reuss Voigt Hill
#
# Bulk Modulus (GPa) = 66.17463 77.99220 72.08342
# Shear Modulus (GPa) = 36.47123 48.36717 42.41920
#
# Velocity S-wave (km/s) = 3.69096 4.25050 3.98057
# Velocity P-wave (km/s) = 6.54848 7.29531 6.93196
#
# Compressibility (1/GPa) = 0.01511153
#
# Stress axis : x y z
#
# Youngs Moduli (GPa) = 82.33823 126.27931 132.64104
#
# Poissons Ratio (x) = 0.26791 0.26998
# Poissons Ratio (y) = 0.17469 0.27706
# Poissons Ratio (z) = 0.16759 0.26377
#
# Static dielectric constant tensor:
#      x y z
#    x 2.079800 -0.044020 0.016990 
#    y -0.044020 2.143780 0.006940 
#    z 0.016990 0.006940 2.124850 
# 
# From -- ./inp_files/352559.got.cif
#   From: 2010.05.17/outbox.cif.g08.bks.cpg/sg2_177_cif.got.tgz:352559.got - 2010.06.03 11:33:40.
