data_PCOD9014533
_publ_section_title
;
Structure prediction by ZEFSAII (Michael W. Deem and Ramdas Pophale) SiO2 
 PCOD9014533
Probable space group: P -1
;
_chemical_formula_sum "Si O2"
_cell_formula_units_Z 16
_cell_length_a 7.801266
_cell_length_b 10.514694
_cell_length_c 16.378315
_cell_angle_alpha 134.764759
_cell_angle_beta 124.342243
_cell_angle_gamma 90.134663
_cell_volume 576.264136
_symmetry_space_group_name_H-M "P -1"
_symmetry_group_IT_number 2
_symmetry_cell_setting 'triclinic'
loop_
_space_group_symop_operation_xyz
x,y,z
-x,-y,-z
loop_
_atom_site_type_symbol
_atom_site_label
_atom_site_fract_x
_atom_site_fract_y
_atom_site_fract_z
Si Si1 0.743528 0.707938 0.468045
Si Si2 0.040643 0.713388 0.695194
Si Si3 0.615667 0.828958 0.899390
Si Si4 0.943755 0.256486 0.864506
Si Si5 0.310926 0.658923 0.430360
Si Si6 0.507582 0.389919 0.033809
Si Si7 0.778992 0.181898 0.969165
Si Si8 0.894300 0.138239 0.608854
O O1 0.484734 0.432983 0.244635
O O2 0.605854 0.751315 0.521222
O O3 0.861927 0.911581 0.522841
O O4 0.042535 0.291090 0.422176
O O5 0.315724 0.751738 0.800532
O O6 0.786425 0.467303 0.564655
O O7 0.144845 0.953007 0.878176
O O8 0.708880 0.957960 0.895616
O O9 0.225609 0.296019 0.957590
O O10 0.797042 0.143180 0.862199
O O11 0.865715 0.203589 0.722236
O O12 0.000000 0.500000 0.000000
O O13 0.320183 0.877505 0.512923
O O14 0.064535 0.432513 0.201167
O O15 0.500000 0.500000 0.000000
O O16 0.549944 0.204777 0.940535
O O17 0.814300 0.637221 0.257176
#
# Coordination Sequence:
#
# PCOD9014533 Si02
#       8
#     2   2   2   2   2   2   2   2
#     4  12  25  44  74 105 148 194 242 302 369 446
#     4  10  24  47  74 100 143 198 241 300 371 435
#     4  10  25  48  71 105 147 192 246 307 361 448
#     4  11  19  36  67 108 141 189 249 301 366 440
#     4  10  22  45  67  99 147 187 242 307 365 427
#     4   9  18  35  62  99 141 190 233 305 364 422
#     4  10  21  41  68 105 146 188 250 303 364 439
#     4  10  23  42  66 105 147 191 239 309 370 431
#
# _framework density 27.765045000000001
#
# number of rings (size 3 to 8) (size 9 to 14) (size 15 to 20)
#    0.000    1.750    3.750    1.125    3.500    5.000 
#    9.000    1.875    0.000    0.000    0.000    0.000 
#    0.000    0.000    0.000    0.000    0.000    0.000 
#
# Total GULP energy -89464.533189 kJ/mol
# GULP energy per Si atom -5591.533324 kJ/mol
# Density = 2.770185 g / cm^3
# Si number density = 27.765045 Si / 1000 Ang^3
#
#
#
# Elastic Constant Matrix: (Units=GPa)
#
#
# Indices 1 2 3 4 5 6 
#
# 1 132.5013 32.7372 10.7229 3.2971 2.3299 -2.5487
# 2 32.7372 171.4547 56.8507 34.2123 -5.7765 12.2860
# 3 10.7229 56.8507 98.6610 -4.5119 -17.2259 14.4459
# 4 3.2971 34.2123 -4.5119 51.1693 5.0815 2.9102
# 5 2.3299 -5.7765 -17.2259 5.0815 44.2040 6.4853
# 6 -2.5487 12.2860 14.4459 2.9102 6.4853 40.6764
#
#
#
# Elastic Compliance Matrix: (Units=1/GPa)
#
#
# Indices 1 2 3 4 5 6 
#
# 1 0.008010 -0.001708 -0.000203 0.000636 -0.000974 0.001199
# 2 -0.001708 0.009289 -0.005381 -0.006549 0.000039 -0.000540
# 3 -0.000203 -0.005381 0.015142 0.004692 0.005397 -0.004961
# 4 0.000636 -0.006549 0.004692 0.024529 -0.001715 -0.001130
# 5 -0.000974 0.000039 0.005397 -0.001715 0.025858 -0.005989
# 6 0.001199 -0.000540 -0.004961 -0.001130 -0.005989 0.027620
#
#
# Mechanical properties :
#
#
# Convention : Reuss Voigt Hill
#
# Bulk Modulus (GPa) = 55.99876 67.02651 61.51263
# Shear Modulus (GPa) = 38.17297 47.36368 42.76832
#
# Velocity S-wave (km/s) = 3.71193 4.13470 3.92901
# Velocity P-wave (km/s) = 6.21159 6.85473 6.54107
#
# Compressibility (1/GPa) = 0.01785754
#
# Stress axis : x y z
#
# Youngs Moduli (GPa) = 124.84656 107.64988 66.04365
#
# Poissons Ratio (x) = 0.18384 0.01341
# Poissons Ratio (y) = 0.21321 0.35537
# Poissons Ratio (z) = 0.02534 0.57924
#
# Static dielectric constant tensor:
#      x y z
#    x 2.159920 0.138350 0.013050 
#    y 0.138350 2.066180 0.152180 
#    z 0.013050 0.152180 2.356780 
# 
# From -- ./inp_files/559308.got.cif
#   From: 2010.05.17/outbox.cif.g08.bks.cpg/sg2_280_cif.got.tgz:559308.got - 2010.06.03 11:33:40.
