data_PCOD9014841
_publ_section_title
;
Structure prediction by ZEFSAII (Michael W. Deem and Ramdas Pophale) SiO2 
 PCOD9014841
Probable space group: P -1
;
_chemical_formula_sum "Si O2"
_cell_formula_units_Z 16
_cell_length_a 12.920634
_cell_length_b 20.667600
_cell_length_c 18.204910
_cell_angle_alpha 19.145888
_cell_angle_beta 152.266767
_cell_angle_gamma 152.949576
_cell_volume 693.162834
_symmetry_space_group_name_H-M "P -1"
_symmetry_group_IT_number 2
_symmetry_cell_setting 'triclinic'
loop_
_space_group_symop_operation_xyz
x,y,z
-x,-y,-z
loop_
_atom_site_type_symbol
_atom_site_label
_atom_site_fract_x
_atom_site_fract_y
_atom_site_fract_z
Si Si1 0.254075 0.939962 0.106319
Si Si2 0.345917 0.723862 0.948003
Si Si3 0.545365 0.354397 0.063125
Si Si4 0.060684 0.402324 0.355178
Si Si5 0.428597 0.810786 0.216063
Si Si6 0.134083 0.283250 0.362570
Si Si7 0.760152 0.353442 0.463886
Si Si8 0.170474 0.940707 0.304688
O O1 0.246398 0.831978 0.139904
O O2 0.349685 0.823885 0.353254
O O3 0.447933 0.172921 0.975271
O O4 0.004765 0.955181 0.954929
O O5 0.451688 0.736133 0.920046
O O6 0.142029 0.826404 0.714359
O O7 0.231277 0.478444 0.158884
O O8 0.822139 0.462773 0.142181
O O9 0.407075 0.144949 0.248324
O O10 0.403479 0.513401 0.802060
O O11 0.291338 0.583504 0.337600
O O12 0.114345 0.362804 0.347592
O O13 0.970782 0.185172 0.578209
O O14 0.672515 0.825805 0.393549
O O15 0.500000 0.000000 0.000000
O O16 0.802928 0.233817 0.547146
O O17 0.000000 0.500000 0.500000
#
# Coordination Sequence:
#
# PCOD9014841 Si02
#       8
#     2   2   2   2   2   2   2   2
#     4  12  23  40  66  97 133 167 219 269 328 387
#     4  10  21  41  69  96 124 170 213 277 329 380
#     4  11  24  44  67  99 135 173 220 267 326 391
#     4  11  25  44  66  95 132 180 218 268 327 393
#     4  12  25  42  65  97 131 175 220 271 328 395
#     4  10  22  43  67  90 128 168 220 273 331 377
#     4  12  23  40  66  96 133 172 216 267 321 386
#     4  12  24  44  65  97 139 177 216 265 325 394
#
# _framework density 23.082598999999998
#
# number of rings (size 3 to 8) (size 9 to 14) (size 15 to 20)
#    0.000    0.750    2.500    5.625    0.000    2.000 
#    2.250    0.000    0.000    0.000    0.000    0.000 
#    0.000    0.000    0.000    0.000    0.000    0.000 
#
# Total GULP energy -89466.342572 kJ/mol
# GULP energy per Si atom -5591.646411 kJ/mol
# Density = 2.303006 g / cm^3
# Si number density = 23.082599 Si / 1000 Ang^3
#
#
#
# Elastic Constant Matrix: (Units=GPa)
#
#
# Indices 1 2 3 4 5 6 
#
# 1 63.3713 10.3479 15.7803 -4.4225 -4.4909 6.8318
# 2 10.3479 53.4191 3.5252 7.4282 12.7132 15.8900
# 3 15.7803 3.5252 126.2059 16.0549 6.4070 19.6046
# 4 -4.4225 7.4282 16.0549 28.4540 11.1741 -4.0853
# 5 -4.4909 12.7132 6.4070 11.1741 40.8070 -1.1105
# 6 6.8318 15.8900 19.6046 -4.0853 -1.1105 27.2339
#
#
#
# Elastic Compliance Matrix: (Units=1/GPa)
#
#
# Indices 1 2 3 4 5 6 
#
# 1 0.017740 -0.005031 -0.003092 0.004987 0.002682 0.001568
# 2 -0.005031 0.029134 0.004938 -0.011110 -0.007942 -0.021282
# 3 -0.003092 0.004938 0.011222 -0.009206 -0.001436 -0.011623
# 4 0.004987 -0.011110 -0.009206 0.049748 -0.007649 0.019009
# 5 0.002682 -0.007942 -0.001436 -0.007649 0.029733 0.005060
# 6 0.001568 -0.021282 -0.011623 0.019009 0.005060 0.060167
#
#
# Mechanical properties :
#
#
# Convention : Reuss Voigt Hill
#
# Bulk Modulus (GPa) = 19.33250 33.58924 26.46087
# Shear Modulus (GPa) = 22.58799 33.52184 28.05491
#
# Velocity S-wave (km/s) = 3.13161 3.81498 3.49006
# Velocity P-wave (km/s) = 4.63352 5.82999 5.26585
#
# Compressibility (1/GPa) = 0.05172637
#
# Stress axis : x y z
#
# Youngs Moduli (GPa) = 56.36831 34.32402 89.11258
#
# Poissons Ratio (x) = 0.17268 0.27552
# Poissons Ratio (y) = 0.28358 -0.44001
# Poissons Ratio (z) = 0.17428 -0.16948
#
# Static dielectric constant tensor:
#      x y z
#    x 1.826120 0.045890 -0.000840 
#    y 0.045890 1.904560 -0.003830 
#    z -0.000840 -0.003830 1.904290 
# 
# From -- ./inp_files/367912.got.cif
#   From: 2010.05.17/outbox.cif.g08.bks.cpg/sg2_184_cif.got.tgz:367912.got - 2010.06.03 11:33:40.
