data_PCOD9014745
_publ_section_title
;
Structure prediction by ZEFSAII (Michael W. Deem and Ramdas Pophale) SiO2 
 PCOD9014745
Probable space group: P -1
;
_chemical_formula_sum "Si O2"
_cell_formula_units_Z 14
_cell_length_a 5.667451
_cell_length_b 20.963922
_cell_length_c 14.967041
_cell_angle_alpha 157.388488
_cell_angle_beta 71.731534
_cell_angle_gamma 119.686125
_cell_volume 536.185960
_symmetry_space_group_name_H-M "P -1"
_symmetry_group_IT_number 2
_symmetry_cell_setting 'triclinic'
loop_
_space_group_symop_operation_xyz
x,y,z
-x,-y,-z
loop_
_atom_site_type_symbol
_atom_site_label
_atom_site_fract_x
_atom_site_fract_y
_atom_site_fract_z
Si Si1 0.941328 0.685348 0.537642
Si Si2 0.771637 0.163828 0.491971
Si Si3 0.559860 0.766533 0.924387
Si Si4 0.023378 0.683947 0.784213
Si Si5 0.619006 0.546050 0.145752
Si Si6 0.431932 0.662598 0.494136
Si Si7 0.644466 0.894392 0.396446
O O1 0.701331 0.452756 0.292054
O O2 0.725091 0.762458 0.651798
O O3 0.077112 0.717197 0.463298
O O4 0.242880 0.760204 0.653465
O O5 0.467888 0.128098 0.516712
O O6 0.024860 0.304895 0.714960
O O7 0.714087 0.947054 0.209230
O O8 0.836905 0.754274 0.843272
O O9 0.369573 0.818983 0.949560
O O10 0.803565 0.569769 0.747766
O O11 0.000000 0.500000 0.500000
O O12 0.528296 0.647937 0.363435
O O13 0.500000 0.500000 0.000000
O O14 0.506447 0.326730 0.912631
O O15 0.500000 0.000000 0.500000
O O16 0.000000 0.000000 0.500000
#
# Coordination Sequence:
#
# PCOD9014745 Si02
#       7
#     2   2   2   2   2   2   2
#     4   9  20  39  63  93 127 170 221 274 339 392
#     4  11  25  44  71  97 139 184 241 283 348 415
#     4  10  23  40  73 100 133 177 230 284 342 418
#     4  10  21  41  69 102 137 176 222 282 357 422
#     4  11  24  46  69  99 143 193 239 293 354 408
#     4   9  20  36  67  88 129 173 227 267 341 400
#     4  12  29  42  66  99 141 183 238 294 345 411
#
# _framework density 26.110347000000001
#
# number of rings (size 3 to 8) (size 9 to 14) (size 15 to 20)
#    0.000    1.714    0.000    2.571   10.000    5.714 
#    0.000    0.000    0.000   32.571    0.000    0.000 
#    0.000    0.000    0.000    0.000    0.000    0.000 
#
# Total GULP energy -78101.280654 kJ/mol
# GULP energy per Si atom -5578.662904 kJ/mol
# Density = 2.605092 g / cm^3
# Si number density = 26.110347 Si / 1000 Ang^3
#
#
#
# Elastic Constant Matrix: (Units=GPa)
#
#
# Indices 1 2 3 4 5 6 
#
# 1 283.0477 39.4629 35.4648 7.2629 5.3953 33.5625
# 2 39.4629 92.0885 21.4726 6.3804 -2.4872 12.2626
# 3 35.4648 21.4726 91.7593 14.2059 4.2344 22.3302
# 4 7.2629 6.3804 14.2059 29.6016 4.6604 -6.0843
# 5 5.3953 -2.4872 4.2344 4.6604 26.5149 -6.3848
# 6 33.5625 12.2626 22.3302 -6.0843 -6.3848 49.1327
#
#
#
# Elastic Compliance Matrix: (Units=1/GPa)
#
#
# Indices 1 2 3 4 5 6 
#
# 1 0.004123 -0.001295 -0.000481 -0.000812 -0.001355 -0.002551
# 2 -0.001295 0.012199 -0.001789 -0.002005 0.001716 -0.001372
# 3 -0.000481 -0.001789 0.014522 -0.007489 -0.002786 -0.007114
# 4 -0.000812 -0.002005 -0.007489 0.040447 -0.003774 0.008977
# 5 -0.001355 0.001716 -0.002786 -0.003774 0.040850 0.006605
# 6 -0.002551 -0.001372 -0.007114 0.008977 0.006605 0.027642
#
#
# Mechanical properties :
#
#
# Convention : Reuss Voigt Hill
#
# Bulk Modulus (GPa) = 42.17006 73.29956 57.73481
# Shear Modulus (GPa) = 32.29593 45.74952 39.02273
#
# Velocity S-wave (km/s) = 3.52078 4.19042 3.87011
# Velocity P-wave (km/s) = 5.71958 7.17961 6.49078
#
# Compressibility (1/GPa) = 0.02371351
#
# Stress axis : x y z
#
# Youngs Moduli (GPa) = 242.53943 81.97188 68.86095
#
# Poissons Ratio (x) = 0.10617 0.03314
# Poissons Ratio (y) = 0.31414 0.12319
# Poissons Ratio (z) = 0.11673 0.14664
#
# Static dielectric constant tensor:
#      x y z
#    x 2.248420 -0.099840 -0.068070 
#    y -0.099840 2.115370 0.033990 
#    z -0.068070 0.033990 2.019780 
# 
# From -- ./inp_files/551147.got.cif
#   From: 2010.05.17/outbox.cif.g08.bks.cpg/sg2_276_cif.got.tgz:551147.got - 2010.06.03 11:33:40.
