data_PCOD9014552
_publ_section_title
;
Structure prediction by ZEFSAII (Michael W. Deem and Ramdas Pophale) SiO2 
 PCOD9014552
Probable space group: P -1
;
_chemical_formula_sum "Si O2"
_cell_formula_units_Z 13
_cell_length_a 8.640211
_cell_length_b 14.654488
_cell_length_c 6.538591
_cell_angle_alpha 81.724479
_cell_angle_beta 51.175367
_cell_angle_gamma 69.078768
_cell_volume 598.823926
_symmetry_space_group_name_H-M "P -1"
_symmetry_group_IT_number 2
_symmetry_cell_setting 'triclinic'
loop_
_space_group_symop_operation_xyz
x,y,z
-x,-y,-z
loop_
_atom_site_type_symbol
_atom_site_label
_atom_site_fract_x
_atom_site_fract_y
_atom_site_fract_z
Si Si1 0.330319 0.562159 0.956205
Si Si2 0.372329 0.165981 0.315562
Si Si3 0.404075 0.827015 0.257471
Si Si4 0.897508 0.222136 0.805235
Si Si5 0.000000 0.500000 0.000000
Si Si6 0.614453 0.661298 0.472146
Si Si7 0.790090 0.082921 0.223688
O O1 0.460571 0.601928 0.671702
O O2 0.500000 0.500000 0.000000
O O3 0.170182 0.660947 0.161832
O O4 0.206099 0.501298 0.966411
O O5 0.373593 0.272006 0.362854
O O6 0.575514 0.087991 0.282700
O O7 0.143506 0.167543 0.569983
O O8 0.421829 0.153995 0.038309
O O9 0.244702 0.801895 0.243774
O O10 0.522936 0.738113 0.339321
O O11 0.265376 0.913269 0.493682
O O12 0.837134 0.180728 0.080345
O O13 0.842094 0.587050 0.246828
O O14 0.000000 0.000000 0.000000
#
# Coordination Sequence:
#
# PCOD9014552 Si02
#       7
#     2   2   2   2   1   2   2
#     4  12  25  44  63  98 137 178 236 279 330 405
#     4  10  22  40  67  94 132 170 221 272 335 399
#     4  10  21  41  68  90 130 174 214 275 340 398
#     4  11  22  43  66  95 134 174 220 279 332 400
#     4  12  26  38  68  92 132 184 226 282 340 382
#     4  11  23  44  60  95 132 178 227 275 335 399
#     4  10  23  44  69  97 131 169 216 276 340 410
#
# _framework density 21.709220999999999
#
# number of rings (size 3 to 8) (size 9 to 14) (size 15 to 20)
#    0.000    1.231    6.154    1.385    0.000    8.615 
#    0.000    1.538    0.000    0.000    0.000    0.000 
#    0.000    0.000    0.000    0.000    0.000    0.000 
#
# Total GULP energy -72376.157501 kJ/mol
# GULP energy per Si atom -5567.396731 kJ/mol
# Density = 2.165981 g / cm^3
# Si number density = 21.709221 Si / 1000 Ang^3
#
#
#
# Elastic Constant Matrix: (Units=GPa)
#
#
# Indices 1 2 3 4 5 6 
#
# 1 72.7988 5.7245 25.6801 -1.1414 -16.5442 -4.1872
# 2 5.7245 57.3435 17.9900 25.2040 -1.9426 -13.7640
# 3 25.6801 17.9900 135.2998 32.7452 -10.2869 -13.9159
# 4 -1.1414 25.2040 32.7452 38.7983 -6.3531 -10.8966
# 5 -16.5442 -1.9426 -10.2869 -6.3531 42.3634 13.6135
# 6 -4.1872 -13.7640 -13.9159 -10.8966 13.6135 20.4294
#
#
#
# Elastic Compliance Matrix: (Units=1/GPa)
#
#
# Indices 1 2 3 4 5 6 
#
# 1 0.017174 -0.004012 -0.004173 0.006923 0.007651 -0.003432
# 2 -0.004012 0.028096 0.002189 -0.017107 -0.007226 0.015289
# 3 -0.004173 0.002189 0.010476 -0.009610 -0.001618 0.003708
# 4 0.006923 -0.017107 -0.009610 0.047528 0.004986 0.005375
# 5 0.007651 -0.007226 -0.001618 0.004986 0.034582 -0.024787
# 6 -0.003432 0.015289 0.003708 0.005375 -0.024787 0.080457
#
#
# Mechanical properties :
#
#
# Convention : Reuss Voigt Hill
#
# Bulk Modulus (GPa) = 22.85507 40.47014 31.66260
# Shear Modulus (GPa) = 20.41737 34.72138 27.56938
#
# Velocity S-wave (km/s) = 3.07007 4.00357 3.56749
# Velocity P-wave (km/s) = 4.80810 6.32881 5.62012
#
# Compressibility (1/GPa) = 0.04375397
#
# Stress axis : x y z
#
# Youngs Moduli (GPa) = 58.22825 35.59172 95.45537
#
# Poissons Ratio (x) = 0.14281 0.39831
# Poissons Ratio (y) = 0.23364 -0.20896
# Poissons Ratio (z) = 0.24297 -0.07791
#
# Static dielectric constant tensor:
#      x y z
#    x 1.759090 0.005350 -0.004960 
#    y 0.005350 1.849270 -0.002190 
#    z -0.004960 -0.002190 1.800650 
# 
# From -- ./inp_files/34923.got.cif
#   From: 2010.05.17/outbox.cif.g08.bks.cpg/sg2_18_cif.got.tgz:34923.got - 2010.06.03 11:33:40.
