data_PCOD9014581
_publ_section_title
;
Structure prediction by ZEFSAII (Michael W. Deem and Ramdas Pophale) SiO2 
 PCOD9014581
Probable space group: P -1
;
_chemical_formula_sum "Si O2"
_cell_formula_units_Z 12
_cell_length_a 14.992580
_cell_length_b 7.875224
_cell_length_c 20.453792
_cell_angle_alpha 140.000756
_cell_angle_beta 160.537395
_cell_angle_gamma 49.120748
_cell_volume 490.599328
_symmetry_space_group_name_H-M "P -1"
_symmetry_group_IT_number 2
_symmetry_cell_setting 'triclinic'
loop_
_space_group_symop_operation_xyz
x,y,z
-x,-y,-z
loop_
_atom_site_type_symbol
_atom_site_label
_atom_site_fract_x
_atom_site_fract_y
_atom_site_fract_z
Si Si1 0.865416 0.750832 0.971458
Si Si2 0.824204 0.547734 0.752689
Si Si3 0.685445 0.957240 0.552503
Si Si4 0.421836 0.674723 0.155064
Si Si5 0.667852 0.721792 0.128425
Si Si6 0.676693 0.148970 0.361256
O O1 0.912088 0.791923 0.939165
O O2 0.529191 0.662405 0.723319
O O3 0.000000 0.500000 0.000000
O O4 0.022446 0.022832 0.202556
O O5 0.500000 0.500000 0.500000
O O6 0.794737 0.244489 0.671995
O O7 0.086857 0.621815 0.908625
O O8 0.500000 0.000000 0.500000
O O9 0.537502 0.742494 0.329383
O O10 0.563349 0.924652 0.275808
O O11 0.450435 0.395768 0.058796
O O12 0.992699 0.733636 0.363092
O O13 0.646430 0.008194 0.227145
O O14 0.500000 0.500000 0.000000
#
# Coordination Sequence:
#
# PCOD9014581 Si02
#       6
#     2   2   2   2   2   2
#     4  10  22  40  58  91 133 169 203 256 318 385
#     4  11  23  37  59  92 125 167 220 260 310 377
#     4  11  23  38  56  87 134 177 200 250 322 383
#     4  11  21  37  64  91 124 167 217 264 312 380
#     4   9  20  40  66  95 121 159 222 276 313 367
#     4  10  21  41  68  93 123 167 218 267 321 371
#
# _framework density 24.459878
#
# number of rings (size 3 to 8) (size 9 to 14) (size 15 to 20)
#    0.000    1.667    1.667    3.000    2.333    1.333 
#    3.000    0.833    0.000   21.000    0.000    0.000 
#    0.000    0.000    0.000    0.000    0.000    0.000 
#
# Total GULP energy -66869.023184 kJ/mol
# GULP energy per Si atom -5572.418599 kJ/mol
# Density = 2.440421 g / cm^3
# Si number density = 24.459878 Si / 1000 Ang^3
#
#
#
# Elastic Constant Matrix: (Units=GPa)
#
#
# Indices 1 2 3 4 5 6 
#
# 1 163.7629 37.6150 84.1076 8.1780 -17.9845 -26.6304
# 2 37.6150 53.8782 4.7981 -0.2857 -2.6016 -16.4981
# 3 84.1076 4.7981 126.8306 -4.6185 6.6740 -13.4141
# 4 8.1780 -0.2857 -4.6185 29.5502 -14.7554 3.6147
# 5 -17.9845 -2.6016 6.6740 -14.7554 80.6634 16.0966
# 6 -26.6304 -16.4981 -13.4141 3.6147 16.0966 40.9611
#
#
#
# Elastic Compliance Matrix: (Units=1/GPa)
#
#
# Indices 1 2 3 4 5 6 
#
# 1 0.012883 -0.007513 -0.008293 -0.004136 0.002128 0.002163
# 2 -0.007513 0.025721 0.005042 0.000746 -0.002751 0.008142
# 3 -0.008293 0.005042 0.013640 0.002916 -0.002659 0.001894
# 4 -0.004136 0.000746 0.002916 0.040360 0.007856 -0.008082
# 5 0.002128 -0.002751 -0.002659 0.007856 0.015948 -0.007556
# 6 0.002163 0.008142 0.001894 -0.008082 -0.007556 0.033401
#
#
# Mechanical properties :
#
#
# Convention : Reuss Voigt Hill
#
# Bulk Modulus (GPa) = 32.55640 66.39034 49.47337
# Shear Modulus (GPa) = 28.78204 44.76501 36.77352
#
# Velocity S-wave (km/s) = 3.43403 4.28266 3.88161
# Velocity P-wave (km/s) = 5.39096 7.18723 6.35290
#
# Compressibility (1/GPa) = 0.03071593
#
# Stress axis : x y z
#
# Youngs Moduli (GPa) = 77.61960 38.87931 73.31465
#
# Poissons Ratio (x) = 0.29209 0.60801
# Poissons Ratio (y) = 0.58314 -0.36966
# Poissons Ratio (z) = 0.64372 -0.19603
#
# Static dielectric constant tensor:
#      x y z
#    x 1.967450 -0.029810 -0.036790 
#    y -0.029810 1.881000 0.161230 
#    z -0.036790 0.161230 1.992620 
# 
# From -- ./inp_files/36372.got.cif
#   From: 2010.05.17/outbox.cif.g08.bks.cpg/sg2_19_cif.got.tgz:36372.got - 2010.06.03 11:33:40.
