data_PCOD9014613
_publ_section_title
;
Structure prediction by ZEFSAII (Michael W. Deem and Ramdas Pophale) SiO2 
 PCOD9014613
Probable space group: P -1
;
_chemical_formula_sum "Si O2"
_cell_formula_units_Z 16
_cell_length_a 15.002955
_cell_length_b 12.455951
_cell_length_c 11.838057
_cell_angle_alpha 79.205054
_cell_angle_beta 152.218549
_cell_angle_gamma 121.180001
_cell_volume 647.658107
_symmetry_space_group_name_H-M "P -1"
_symmetry_group_IT_number 2
_symmetry_cell_setting 'triclinic'
loop_
_space_group_symop_operation_xyz
x,y,z
-x,-y,-z
loop_
_atom_site_type_symbol
_atom_site_label
_atom_site_fract_x
_atom_site_fract_y
_atom_site_fract_z
Si Si1 0.322545 0.582527 0.535308
Si Si2 0.690118 0.851755 0.329457
Si Si3 0.644417 0.763568 0.629803
Si Si4 0.304817 0.976092 0.379070
Si Si5 0.594732 0.603671 0.409055
Si Si6 0.234015 0.793341 0.744824
Si Si7 0.927240 0.314506 0.665185
Si Si8 0.225897 0.234623 0.793518
O O1 0.540537 0.717511 0.651787
O O2 0.208900 0.417257 0.389570
O O3 0.116323 0.594643 0.329914
O O4 0.499894 0.637927 0.839348
O O5 0.740299 0.774593 0.484624
O O6 0.704436 0.807577 0.228586
O O7 0.361377 0.762144 0.982650
O O8 0.956791 0.056179 0.595431
O O9 0.501464 0.604039 0.428131
O O10 0.568828 0.849763 0.478154
O O11 0.990441 0.878792 0.992847
O O12 0.235362 0.858780 0.422282
O O13 0.500000 0.000000 0.500000
O O14 0.277537 0.442548 0.025211
O O15 0.201011 0.729172 0.595534
O O16 0.923162 0.719415 0.429086
O O17 0.500000 0.000000 0.000000
#
# Coordination Sequence:
#
# PCOD9014613 Si02
#       8
#     2   2   2   2   2   2   2   2
#     4  12  24  45  69  95 137 181 217 275 334 394
#     4  10  24  41  67  99 127 172 223 274 334 388
#     4  11  26  45  70 100 133 177 224 274 336 391
#     4  11  24  44  73 100 124 171 230 282 318 390
#     4  12  28  43  64  99 144 178 216 270 336 411
#     4  10  21  41  68  95 129 169 220 282 325 384
#     4  12  25  44  67 100 135 176 222 274 340 391
#     4  10  21  44  70  95 125 170 228 280 322 390
#
# _framework density 24.704391000000001
#
# number of rings (size 3 to 8) (size 9 to 14) (size 15 to 20)
#    0.000    1.000    5.000    0.375    7.000    3.500 
#    0.000    0.000    0.000    0.000    0.000    0.000 
#    0.000    0.000    0.000    0.000    0.000    0.000 
#
# Total GULP energy -89487.626347 kJ/mol
# GULP energy per Si atom -5592.976647 kJ/mol
# Density = 2.464816 g / cm^3
# Si number density = 24.704391 Si / 1000 Ang^3
#
#
#
# Elastic Constant Matrix: (Units=GPa)
#
#
# Indices 1 2 3 4 5 6 
#
# 1 56.1066 16.6341 14.7304 3.4380 -4.8507 -28.2276
# 2 16.6341 139.2787 6.5120 -16.2443 12.2126 -20.0328
# 3 14.7304 6.5120 41.1844 -17.3409 1.9352 -6.8593
# 4 3.4380 -16.2443 -17.3409 24.0974 -11.4398 9.9686
# 5 -4.8507 12.2126 1.9352 -11.4398 32.5374 -2.0495
# 6 -28.2276 -20.0328 -6.8593 9.9686 -2.0495 45.2209
#
#
#
# Elastic Compliance Matrix: (Units=1/GPa)
#
#
# Indices 1 2 3 4 5 6 
#
# 1 0.045031 -0.004416 -0.028957 -0.045069 -0.003767 0.031525
# 2 -0.004416 0.008602 0.003985 0.008977 -0.000991 -0.000365
# 3 -0.028957 0.003985 0.055517 0.060496 0.010849 -0.020733
# 4 -0.045069 0.008977 0.060496 0.128609 0.028884 -0.042021
# 5 -0.003767 -0.000991 0.010849 0.028884 0.039694 -0.005713
# 6 0.031525 -0.000365 -0.020733 -0.042021 -0.005713 0.047490
#
#
# Mechanical properties :
#
#
# Convention : Reuss Voigt Hill
#
# Bulk Modulus (GPa) = 19.85133 34.70253 27.27693
# Shear Modulus (GPa) = 12.48401 33.61736 23.05069
#
# Velocity S-wave (km/s) = 2.25041 3.69288 3.05792
# Velocity P-wave (km/s) = 3.84778 5.67986 4.85109
#
# Compressibility (1/GPa) = 0.05037445
#
# Stress axis : x y z
#
# Youngs Moduli (GPa) = 22.20674 116.24754 18.01247
#
# Poissons Ratio (x) = 0.51336 0.52159
# Poissons Ratio (y) = 0.09807 -0.07178
# Poissons Ratio (z) = 0.64304 -0.46324
#
# Static dielectric constant tensor:
#      x y z
#    x 1.934160 -0.003860 -0.015410 
#    y -0.003860 2.039810 0.020470 
#    z -0.015410 0.020470 1.946070 
# 
# From -- ./inp_files/433674.got.cif
#   From: 2010.05.17/outbox.cif.g08.bks.cpg/sg2_217_cif.got.tgz:433674.got - 2010.06.03 11:33:40.
