data_PCOD9014657
_publ_section_title
;
Structure prediction by ZEFSAII (Michael W. Deem and Ramdas Pophale) SiO2 
 PCOD9014657
Probable space group: P -1
;
_chemical_formula_sum "Si O2"
_cell_formula_units_Z 14
_cell_length_a 9.014409
_cell_length_b 7.507161
_cell_length_c 15.007656
_cell_angle_alpha 103.627837
_cell_angle_beta 37.636141
_cell_angle_gamma 108.792550
_cell_volume 586.780711
_symmetry_space_group_name_H-M "P -1"
_symmetry_group_IT_number 2
_symmetry_cell_setting 'triclinic'
loop_
_space_group_symop_operation_xyz
x,y,z
-x,-y,-z
loop_
_atom_site_type_symbol
_atom_site_label
_atom_site_fract_x
_atom_site_fract_y
_atom_site_fract_z
Si Si1 0.727819 0.952303 0.832165
Si Si2 0.036634 0.173867 0.569443
Si Si3 0.153483 0.849327 0.732646
Si Si4 0.365986 0.389496 0.298852
Si Si5 0.698169 0.782025 0.207631
Si Si6 0.577595 0.707597 0.450612
Si Si7 0.886103 0.327735 0.099122
O O1 0.691623 0.749657 0.774858
O O2 0.942792 0.936265 0.798887
O O3 0.799756 0.116275 0.741430
O O4 0.500000 0.000000 0.000000
O O5 0.141155 0.350645 0.474274
O O6 0.249218 0.179309 0.542695
O O7 0.000000 0.000000 0.500000
O O8 0.332292 0.789528 0.567693
O O9 0.054411 0.673678 0.824626
O O10 0.322954 0.006782 0.735722
O O11 0.479529 0.612741 0.251871
O O12 0.593266 0.311181 0.225349
O O13 0.711013 0.705227 0.293116
O O14 0.954355 0.809050 0.035228
O O15 0.500000 0.500000 0.500000
O O16 0.000000 0.500000 0.000000
#
# Coordination Sequence:
#
# PCOD9014657 Si02
#       7
#     2   2   2   2   2   2   2
#     4  11  25  44  69 104 144 185 229 286 344 406
#     4  10  21  41  68  96 137 188 225 279 347 407
#     4  12  24  42  70 103 134 182 237 283 344 414
#     4  10  21  43  66  98 138 185 225 280 349 404
#     4  11  22  37  64 101 135 171 225 287 334 409
#     4  12  22  42  70 102 132 178 238 286 338 407
#     4  10  21  42  68  96 134 179 231 284 340 406
#
# _framework density 23.858998
#
# number of rings (size 3 to 8) (size 9 to 14) (size 15 to 20)
#    0.000    1.143    4.286    2.571    0.000    0.000 
#    0.000    5.000    0.000    0.000    0.000    0.000 
#    0.000    0.000    0.000    0.000    0.000    0.000 
#
# Total GULP energy -78000.522501 kJ/mol
# GULP energy per Si atom -5571.465893 kJ/mol
# Density = 2.380469 g / cm^3
# Si number density = 23.858998 Si / 1000 Ang^3
#
#
#
# Elastic Constant Matrix: (Units=GPa)
#
#
# Indices 1 2 3 4 5 6 
#
# 1 61.6191 26.1306 28.9407 -9.5514 11.9161 13.1740
# 2 26.1306 97.1914 29.6573 -11.7155 -6.3714 2.8237
# 3 28.9407 29.6573 165.3847 -2.7235 20.5171 1.5628
# 4 -9.5514 -11.7155 -2.7235 27.2005 -6.0407 11.0240
# 5 11.9161 -6.3714 20.5171 -6.0407 30.4724 -2.8666
# 6 13.1740 2.8237 1.5628 11.0240 -2.8666 36.6041
#
#
#
# Elastic Compliance Matrix: (Units=1/GPa)
#
#
# Indices 1 2 3 4 5 6 
#
# 1 0.025154 -0.005226 -0.002106 0.009300 -0.008801 -0.012050
# 2 -0.005226 0.013579 -0.002366 0.005508 0.007555 -0.000133
# 3 -0.002106 -0.002366 0.007418 -0.002545 -0.005077 0.000993
# 4 0.009300 0.005508 -0.002545 0.051361 0.007667 -0.018531
# 5 -0.008801 0.007555 -0.005077 0.007667 0.043140 0.003871
# 6 -0.012050 -0.000133 0.000993 -0.018531 0.003871 0.037508
#
#
# Mechanical properties :
#
#
# Convention : Reuss Voigt Hill
#
# Bulk Modulus (GPa) = 37.37550 54.85028 46.11289
# Shear Modulus (GPa) = 24.21620 34.81983 29.51802
#
# Velocity S-wave (km/s) = 3.18932 3.82435 3.52118
# Velocity P-wave (km/s) = 5.40939 6.52228 5.99173
#
# Compressibility (1/GPa) = 0.02675549
#
# Stress axis : x y z
#
# Youngs Moduli (GPa) = 39.75552 73.64270 134.81183
#
# Poissons Ratio (x) = 0.38486 0.28387
# Poissons Ratio (y) = 0.20776 0.31894
# Poissons Ratio (z) = 0.08371 0.17423
#
# Static dielectric constant tensor:
#      x y z
#    x 1.919640 0.000480 -0.016030 
#    y 0.000480 2.047660 -0.064310 
#    z -0.016030 -0.064310 2.024670 
# 
# From -- ./inp_files/495114.got.cif
#   From: 2010.05.17/outbox.cif.g08.bks.cpg/sg2_248_cif.got.tgz:495114.got - 2010.06.03 11:33:40.
