data_PCOD9014609
_publ_section_title
;
Structure prediction by ZEFSAII (Michael W. Deem and Ramdas Pophale) SiO2 
 PCOD9014609
Probable space group: P -1
;
_chemical_formula_sum "Si O2"
_cell_formula_units_Z 16
_cell_length_a 11.405019
_cell_length_b 11.775932
_cell_length_c 7.635578
_cell_angle_alpha 53.574246
_cell_angle_beta 62.335690
_cell_angle_gamma 53.576558
_cell_volume 653.987983
_symmetry_space_group_name_H-M "P -1"
_symmetry_group_IT_number 2
_symmetry_cell_setting 'triclinic'
loop_
_space_group_symop_operation_xyz
x,y,z
-x,-y,-z
loop_
_atom_site_type_symbol
_atom_site_label
_atom_site_fract_x
_atom_site_fract_y
_atom_site_fract_z
Si Si1 0.974687 0.846781 0.163640
Si Si2 0.406602 0.221468 0.440591
Si Si3 0.140080 0.153163 0.139510
Si Si4 0.350070 0.808026 0.222788
Si Si5 0.683752 0.045123 0.262211
Si Si6 0.133408 0.522328 0.475953
Si Si7 0.321471 0.327199 0.002344
Si Si8 0.834147 0.346875 0.325221
O O1 0.114152 0.686208 0.255800
O O2 0.841474 0.909847 0.339926
O O3 0.903031 0.820604 0.060409
O O4 0.000000 0.000000 0.000000
O O5 0.581990 0.166424 0.367277
O O6 0.290949 0.374620 0.478289
O O7 0.391283 0.065683 0.648522
O O8 0.363329 0.260555 0.230330
O O9 0.980510 0.198154 0.295141
O O10 0.264528 0.973955 0.230157
O O11 0.212867 0.261437 0.059182
O O12 0.528091 0.732765 0.163070
O O13 0.282190 0.698783 0.453359
O O14 0.308880 0.856890 0.001287
O O15 0.108042 0.564682 0.657030
O O16 0.000000 0.500000 0.500000
O O17 0.246336 0.517529 0.886243
#
# Coordination Sequence:
#
# PCOD9014609 Si02
#       8
#     2   2   2   2   2   2   2   2
#     4  11  23  42  66  92 132 171 213 268 326 386
#     4  10  21  41  68  95 126 171 221 275 311 385
#     4  11  23  43  67  96 128 174 222 265 321 396
#     4  10  23  43  67  94 132 172 215 271 334 386
#     4   9  20  41  66  92 128 163 226 262 322 375
#     4  12  22  38  64  96 126 173 221 265 318 380
#     4  11  23  43  68  96 129 171 220 270 326 389
#     4  12  25  42  64 100 138 169 212 276 332 389
#
# _framework density 24.465281000000001
#
# number of rings (size 3 to 8) (size 9 to 14) (size 15 to 20)
#    0.000    1.250    1.250    5.250    1.750    0.000 
#    2.250    6.875    0.000    0.000    0.000    0.000 
#    0.000    0.000    0.000    0.000    0.000    0.000 
#
# Total GULP energy -89412.236414 kJ/mol
# GULP energy per Si atom -5588.264776 kJ/mol
# Density = 2.440960 g / cm^3
# Si number density = 24.465281 Si / 1000 Ang^3
#
#
#
# Elastic Constant Matrix: (Units=GPa)
#
#
# Indices 1 2 3 4 5 6 
#
# 1 53.5517 9.1826 35.0226 4.2569 -3.4538 -9.3605
# 2 9.1826 143.3824 18.1093 8.7787 -7.2742 -30.3909
# 3 35.0226 18.1093 94.4226 -15.1226 -8.7582 -2.1098
# 4 4.2569 8.7787 -15.1226 42.3382 -7.4445 -11.6845
# 5 -3.4538 -7.2742 -8.7582 -7.4445 41.8283 4.2900
# 6 -9.3605 -30.3909 -2.1098 -11.6845 4.2900 26.4574
#
#
#
# Elastic Compliance Matrix: (Units=1/GPa)
#
#
# Indices 1 2 3 4 5 6 
#
# 1 0.027655 0.001793 -0.011350 -0.005007 -0.001594 0.008986
# 2 0.001793 0.009577 -0.002178 0.000283 0.000223 0.011550
# 3 -0.011350 -0.002178 0.016724 0.007552 0.003782 -0.002461
# 4 -0.005007 0.000283 0.007552 0.031034 0.005513 0.011967
# 5 -0.001594 0.000223 0.003782 0.005513 0.025767 -0.001749
# 6 0.008986 0.011550 -0.002461 0.011967 -0.001749 0.059615
#
#
# Mechanical properties :
#
#
# Convention : Reuss Voigt Hill
#
# Bulk Modulus (GPa) = 32.80316 46.22063 39.51190
# Shear Modulus (GPa) = 24.50938 37.39426 30.95182
#
# Velocity S-wave (km/s) = 3.16856 3.91380 3.56073
# Velocity P-wave (km/s) = 5.17914 6.27352 5.75242
#
# Compressibility (1/GPa) = 0.03048487
#
# Stress axis : x y z
#
# Youngs Moduli (GPa) = 36.15964 104.42087 59.79546
#
# Poissons Ratio (x) = -0.18719 0.67871
# Poissons Ratio (y) = -0.06482 0.13020
# Poissons Ratio (z) = 0.41043 0.22738
#
# Static dielectric constant tensor:
#      x y z
#    x 2.056990 -0.083570 -0.026900 
#    y -0.083570 1.995620 0.035600 
#    z -0.026900 0.035600 2.001810 
# 
# From -- ./inp_files/261489.got.cif
#   From: 2010.05.17/outbox.cif.g08.bks.cpg/sg2_131_cif.got.tgz:261489.got - 2010.06.03 11:33:40.
