data_PCOD9014430
_publ_section_title
;
Structure prediction by ZEFSAII (Michael W. Deem and Ramdas Pophale) SiO2 
 PCOD9014430
Probable space group: P -1
;
_chemical_formula_sum "Si O2"
_cell_formula_units_Z 16
_cell_length_a 22.991026
_cell_length_b 5.366310
_cell_length_c 7.779057
_cell_angle_alpha 63.130598
_cell_angle_beta 122.469677
_cell_angle_gamma 130.796088
_cell_volume 605.249617
_symmetry_space_group_name_H-M "P -1"
_symmetry_group_IT_number 2
_symmetry_cell_setting 'triclinic'
loop_
_space_group_symop_operation_xyz
x,y,z
-x,-y,-z
loop_
_atom_site_type_symbol
_atom_site_label
_atom_site_fract_x
_atom_site_fract_y
_atom_site_fract_z
Si Si1 0.869336 0.568886 0.910942
Si Si2 0.708730 0.045478 0.391413
Si Si3 0.591162 0.648643 0.020484
Si Si4 0.872841 0.695789 0.498157
Si Si5 0.014490 0.597321 0.689777
Si Si6 0.398824 0.748624 0.292560
Si Si7 0.225389 0.170228 0.153674
Si Si8 0.575063 0.081763 0.340452
O O1 0.876093 0.761766 0.686433
O O2 0.834254 0.696763 0.960606
O O3 0.807618 0.172484 0.893814
O O4 0.951724 0.590920 0.093200
O O5 0.779477 0.437396 0.374391
O O6 0.637600 0.973215 0.436963
O O7 0.665564 0.888459 0.193098
O O8 0.757797 0.903118 0.602569
O O9 0.589705 0.310540 0.125957
O O10 0.500000 0.500000 0.000000
O O11 0.597259 0.902794 0.810035
O O12 0.930772 0.549168 0.635612
O O13 0.915502 0.009195 0.341190
O O14 0.000000 0.500000 0.500000
O O15 0.316457 0.471070 0.154396
O O16 0.401987 0.699496 0.517266
O O17 0.479660 0.806799 0.308983
#
# Coordination Sequence:
#
# PCOD9014430 Si02
#       8
#     2   2   2   2   2   2   2   2
#     4  11  27  48  76 104 151 187 239 289 365 430
#     4  11  24  44  71  95 146 183 238 292 355 420
#     4  10  23  41  64  99 134 184 238 294 353 416
#     4  10  26  46  72 110 140 190 232 299 359 430
#     4  11  27  47  77 109 142 183 240 293 367 437
#     4  10  21  41  67  97 138 183 240 293 352 410
#     4  11  25  46  72 109 139 197 242 293 352 426
#     4  10  22  44  64  96 138 187 236 295 350 421
#
# _framework density 26.435376000000002
#
# number of rings (size 3 to 8) (size 9 to 14) (size 15 to 20)
#    0.000    1.500    1.250    1.875    8.750    4.000 
#    6.750    0.000    0.000    0.000    0.000    0.000 
#    0.000    0.000    0.000    0.000    0.000    0.000 
#
# Total GULP energy -89544.573637 kJ/mol
# GULP energy per Si atom -5596.535852 kJ/mol
# Density = 2.637521 g / cm^3
# Si number density = 26.435376 Si / 1000 Ang^3
#
#
#
# Elastic Constant Matrix: (Units=GPa)
#
#
# Indices 1 2 3 4 5 6 
#
# 1 139.5030 25.3205 21.6491 -1.3798 19.5624 -1.7410
# 2 25.3205 94.4761 20.2514 7.4791 -1.3105 7.5787
# 3 21.6491 20.2514 113.0091 2.9997 10.5607 -5.7973
# 4 -1.3798 7.4791 2.9997 45.9802 -7.6530 2.1271
# 5 19.5624 -1.3105 10.5607 -7.6530 36.2891 -7.1164
# 6 -1.7410 7.5787 -5.7973 2.1271 -7.1164 31.4454
#
#
#
# Elastic Compliance Matrix: (Units=1/GPa)
#
#
# Indices 1 2 3 4 5 6 
#
# 1 0.008280 -0.002086 -0.000812 -0.000076 -0.004352 -0.000168
# 2 -0.002086 0.011943 -0.001966 -0.001536 0.001220 -0.002976
# 3 -0.000812 -0.001966 0.009680 -0.000796 -0.002274 0.001753
# 4 -0.000076 -0.001536 -0.000796 0.022890 0.005006 -0.000196
# 5 -0.004352 0.001220 -0.002274 0.005006 0.032869 0.006146
# 6 -0.000168 -0.002976 0.001753 -0.000196 0.006146 0.034236
#
#
# Mechanical properties :
#
#
# Convention : Reuss Voigt Hill
#
# Bulk Modulus (GPa) = 49.56961 53.49225 51.53093
# Shear Modulus (GPa) = 36.66950 41.39410 39.03180
#
# Velocity S-wave (km/s) = 3.72847 3.96139 3.84669
# Velocity P-wave (km/s) = 6.10960 6.41892 6.26617
#
# Compressibility (1/GPa) = 0.02017365
#
# Stress axis : x y z
#
# Youngs Moduli (GPa) = 120.76776 83.73436 103.30106
#
# Poissons Ratio (x) = 0.17466 0.08393
# Poissons Ratio (y) = 0.25191 0.20314
# Poissons Ratio (z) = 0.09812 0.16466
#
# Static dielectric constant tensor:
#      x y z
#    x 2.083120 0.013990 -0.032590 
#    y 0.013990 2.198280 -0.046110 
#    z -0.032590 -0.046110 2.094820 
# 
# From -- ./inp_files/350981.got.cif
#   From: 2010.05.17/outbox.cif.g08.bks.cpg/sg2_176_cif.got.tgz:350981.got - 2010.06.03 11:33:40.
