data_PCOD9014721
_publ_section_title
;
Structure prediction by ZEFSAII (Michael W. Deem and Ramdas Pophale) SiO2 
 PCOD9014721
Probable space group: P -1
;
_chemical_formula_sum "Si O2"
_cell_formula_units_Z 16
_cell_length_a 8.278743
_cell_length_b 11.868601
_cell_length_c 18.662570
_cell_angle_alpha 28.050434
_cell_angle_beta 51.414682
_cell_angle_gamma 49.806951
_cell_volume 651.175930
_symmetry_space_group_name_H-M "P -1"
_symmetry_group_IT_number 2
_symmetry_cell_setting 'triclinic'
loop_
_space_group_symop_operation_xyz
x,y,z
-x,-y,-z
loop_
_atom_site_type_symbol
_atom_site_label
_atom_site_fract_x
_atom_site_fract_y
_atom_site_fract_z
Si Si1 0.185370 0.830111 0.587943
Si Si2 0.129515 0.294475 0.415513
Si Si3 0.497807 0.085868 0.037262
Si Si4 0.839210 0.400436 0.144978
Si Si5 0.256935 0.654176 0.075149
Si Si6 0.359441 0.334462 0.476296
Si Si7 0.670862 0.191686 0.183785
Si Si8 0.310304 0.698595 0.399119
O O1 0.070051 0.691728 0.752385
O O2 0.395785 0.644476 0.604534
O O3 0.275661 0.035766 0.489478
O O4 0.000000 0.000000 0.500000
O O5 0.111150 0.509516 0.240338
O O6 0.252235 0.355154 0.416884
O O7 0.899435 0.244845 0.524552
O O8 0.391322 0.919070 0.214249
O O9 0.359666 0.370134 0.914504
O O10 0.697703 0.135957 0.000430
O O11 0.500000 0.000000 0.000000
O O12 0.797543 0.187087 0.225514
O O13 0.000000 0.500000 0.000000
O O14 0.468245 0.427278 0.123417
O O15 0.205745 0.768218 0.945469
O O16 0.232798 0.556322 0.435058
O O17 0.377932 0.073644 0.657406
O O18 0.500000 0.500000 0.500000
#
# Coordination Sequence:
#
# PCOD9014721 Si02
#       8
#     2   2   2   2   2   2   2   2
#     4  12  25  41  71 107 140 177 233 296 354 420
#     4  12  24  44  70 106 136 185 241 285 352 420
#     4  11  24  46  70  99 143 190 230 286 362 424
#     4  11  24  42  67 101 140 180 231 286 351 421
#     4  10  22  41  70 101 138 181 234 289 347 418
#     4  12  23  45  71 100 138 183 234 288 348 423
#     4  10  21  41  69 100 137 182 228 289 349 414
#     4  12  27  47  69 102 145 189 235 293 354 423
#
# _framework density 24.570934000000001
#
# number of rings (size 3 to 8) (size 9 to 14) (size 15 to 20)
#    0.000    0.750    2.500    6.000    1.750    1.000 
#    0.000    1.250    0.000    0.000    0.000    0.000 
#    0.000    0.000    0.000    0.000    0.000    0.000 
#
# Total GULP energy -89284.541897 kJ/mol
# GULP energy per Si atom -5580.283869 kJ/mol
# Density = 2.451501 g / cm^3
# Si number density = 24.570934 Si / 1000 Ang^3
#
#
#
# Elastic Constant Matrix: (Units=GPa)
#
#
# Indices 1 2 3 4 5 6 
#
# 1 59.8806 10.4444 21.9241 13.6311 19.6366 4.8654
# 2 10.4444 85.9253 22.5752 17.1413 -3.3284 22.1376
# 3 21.9241 22.5752 176.5621 37.4496 15.7913 5.7931
# 4 13.6311 17.1413 37.4496 35.2849 7.4713 -6.6381
# 5 19.6366 -3.3284 15.7913 7.4713 44.7767 -0.8429
# 6 4.8654 22.1376 5.7931 -6.6381 -0.8429 38.7112
#
#
#
# Elastic Compliance Matrix: (Units=1/GPa)
#
#
# Indices 1 2 3 4 5 6 
#
# 1 0.021434 -0.000604 -0.000334 -0.006553 -0.008301 -0.003603
# 2 -0.000604 0.016934 0.000397 -0.011227 0.003040 -0.011527
# 3 -0.000334 0.000397 0.007645 -0.008460 -0.001161 -0.002805
# 4 -0.006553 -0.011227 -0.008460 0.049081 -0.002849 0.016864
# 5 -0.008301 0.003040 -0.001161 -0.002849 0.027077 -0.000420
# 6 -0.003603 -0.011527 -0.002805 0.016864 -0.000420 0.036179
#
#
# Mechanical properties :
#
#
# Convention : Reuss Voigt Hill
#
# Bulk Modulus (GPa) = 22.25534 48.02838 35.14186
# Shear Modulus (GPa) = 28.66850 41.58285 35.12567
#
# Velocity S-wave (km/s) = 3.41950 4.11829 3.78506
# Velocity P-wave (km/s) = 4.96668 6.49639 5.78234
#
# Compressibility (1/GPa) = 0.04493303
#
# Stress axis : x y z
#
# Youngs Moduli (GPa) = 46.65457 59.05217 130.81179
#
# Poissons Ratio (x) = 0.03565 0.04366
# Poissons Ratio (y) = 0.02816 -0.05199
# Poissons Ratio (z) = 0.01557 -0.02347
#
# Static dielectric constant tensor:
#      x y z
#    x 2.154680 0.117500 -0.188100 
#    y 0.117500 2.005930 -0.167590 
#    z -0.188100 -0.167590 2.345650 
# 
# From -- ./inp_files/559498.got.cif
#   From: 2010.05.17/outbox.cif.g08.bks.cpg/sg2_280_cif.got.tgz:559498.got - 2010.06.03 11:33:40.
