data_PCOD9014506
_publ_section_title
;
Structure prediction by ZEFSAII (Michael W. Deem and Ramdas Pophale) SiO2 
 PCOD9014506
Probable space group: P -1
;
_chemical_formula_sum "Si O2"
_cell_formula_units_Z 16
_cell_length_a 15.442660
_cell_length_b 9.086760
_cell_length_c 7.820713
_cell_angle_alpha 89.432768
_cell_angle_beta 61.141485
_cell_angle_gamma 132.124626
_cell_volume 611.657679
_symmetry_space_group_name_H-M "P -1"
_symmetry_group_IT_number 2
_symmetry_cell_setting 'triclinic'
loop_
_space_group_symop_operation_xyz
x,y,z
-x,-y,-z
loop_
_atom_site_type_symbol
_atom_site_label
_atom_site_fract_x
_atom_site_fract_y
_atom_site_fract_z
Si Si1 0.603191 0.894517 0.078665
Si Si2 0.716496 0.636317 0.534160
Si Si3 0.072442 0.874795 0.231493
Si Si4 0.597974 0.491393 0.311666
Si Si5 0.132588 0.596647 0.744935
Si Si6 0.806175 0.687621 0.832874
Si Si7 0.767519 0.021610 0.589181
Si Si8 0.354019 0.746721 0.816607
O O1 0.451076 0.634307 0.281540
O O2 0.588029 0.048019 0.137357
O O3 0.765980 0.013864 0.996710
O O4 0.630710 0.910374 0.849910
O O5 0.743800 0.639281 0.304336
O O6 0.794097 0.674957 0.640820
O O7 0.722415 0.820226 0.540799
O O8 0.093685 0.865657 0.413094
O O9 0.935000 0.622930 0.286086
O O10 0.069944 0.050072 0.217604
O O11 0.500000 0.500000 0.500000
O O12 0.529653 0.249659 0.352070
O O13 0.654364 0.593283 0.065475
O O14 0.175082 0.776905 0.576517
O O15 0.278243 0.720130 0.717941
O O16 0.000000 0.500000 0.000000
O O17 0.778733 0.496282 0.945468
#
# Coordination Sequence:
#
# PCOD9014506 Si02
#       8
#     2   2   2   2   2   2   2   2
#     4  10  21  41  68 102 138 175 234 281 351 421
#     4  11  22  43  74 100 139 192 225 286 361 420
#     4   9  20  39  68  95 129 182 232 281 342 410
#     4  10  24  40  67  98 144 183 227 281 346 424
#     4  12  22  41  71  97 143 185 228 300 349 395
#     4   9  23  44  62 102 138 176 234 284 338 428
#     4   9  23  37  68 106 133 184 243 273 356 427
#     4  10  25  43  61 109 143 176 239 291 342 421
#
# _framework density 26.158422000000002
#
# number of rings (size 3 to 8) (size 9 to 14) (size 15 to 20)
#    1.500    0.500    1.250    1.500    3.500    3.500 
#    0.000    0.000    0.000    3.750    0.000    0.000 
#    0.000    0.000    0.000    0.000    0.000    0.000 
#
# Total GULP energy -89370.088134 kJ/mol
# GULP energy per Si atom -5585.630508 kJ/mol
# Density = 2.609888 g / cm^3
# Si number density = 26.158422 Si / 1000 Ang^3
#
#
#
# Elastic Constant Matrix: (Units=GPa)
#
#
# Indices 1 2 3 4 5 6 
#
# 1 82.0892 38.5014 15.8510 -3.6912 15.0043 -14.2355
# 2 38.5014 210.5013 36.3474 2.5014 17.6011 -12.3888
# 3 15.8510 36.3474 107.2880 -5.1082 13.1316 -1.3135
# 4 -3.6912 2.5014 -5.1082 52.4894 -12.2364 7.1160
# 5 15.0043 17.6011 13.1316 -12.2364 40.0228 5.7506
# 6 -14.2355 -12.3888 -1.3135 7.1160 5.7506 42.4824
#
#
#
# Elastic Compliance Matrix: (Units=1/GPa)
#
#
# Indices 1 2 3 4 5 6 
#
# 1 0.015143 -0.001805 -0.000912 -0.001000 -0.005673 0.005455
# 2 -0.001805 0.005582 -0.001434 -0.001161 -0.001868 0.001426
# 3 -0.000912 -0.001434 0.010232 0.000514 -0.002200 -0.000196
# 4 -0.001000 -0.001161 0.000514 0.021713 0.008131 -0.005396
# 5 -0.005673 -0.001868 -0.002200 0.008131 0.032327 -0.008252
# 6 0.005455 0.001426 -0.000196 -0.005396 -0.008252 0.027798
#
#
# Mechanical properties :
#
#
# Convention : Reuss Voigt Hill
#
# Bulk Modulus (GPa) = 44.13884 64.58645 54.36265
# Shear Modulus (GPa) = 38.86542 47.61083 43.23813
#
# Velocity S-wave (km/s) = 3.85875 4.27089 4.07004
# Velocity P-wave (km/s) = 6.06330 7.00462 6.55089
#
# Compressibility (1/GPa) = 0.02265579
#
# Stress axis : x y z
#
# Youngs Moduli (GPa) = 66.03923 179.14290 97.72794
#
# Poissons Ratio (x) = 0.32331 0.08915
# Poissons Ratio (y) = 0.11919 0.14011
# Poissons Ratio (z) = 0.06024 0.25684
#
# Static dielectric constant tensor:
#      x y z
#    x 2.267620 0.032830 -0.089850 
#    y 0.032830 1.997770 -0.002440 
#    z -0.089850 -0.002440 2.088090 
# 
# From -- ./inp_files/327567.got.cif
#   From: 2010.05.17/outbox.cif.g08.bks.cpg/sg2_164_cif.got.tgz:327567.got - 2010.06.03 11:33:40.
