data_PCOD9014446
_publ_section_title
;
Structure prediction by ZEFSAII (Michael W. Deem and Ramdas Pophale) SiO2 
 PCOD9014446
Probable space group: P -1
;
_chemical_formula_sum "Si O2"
_cell_formula_units_Z 14
_cell_length_a 18.269768
_cell_length_b 5.150591
_cell_length_c 7.787276
_cell_angle_alpha 123.046840
_cell_angle_beta 115.787303
_cell_angle_gamma 77.116665
_cell_volume 552.969921
_symmetry_space_group_name_H-M "P -1"
_symmetry_group_IT_number 2
_symmetry_cell_setting 'triclinic'
loop_
_space_group_symop_operation_xyz
x,y,z
-x,-y,-z
loop_
_atom_site_type_symbol
_atom_site_label
_atom_site_fract_x
_atom_site_fract_y
_atom_site_fract_z
Si Si1 0.536527 0.180134 0.360941
Si Si2 0.229849 0.029546 0.778691
Si Si3 0.094509 0.417290 0.938147
Si Si4 0.684465 0.848864 0.438092
Si Si5 0.836449 0.586997 0.618389
Si Si6 0.395164 0.789899 0.949422
Si Si7 0.004065 0.192929 0.278753
O O1 0.500000 0.500000 0.500000
O O2 0.569768 0.200872 0.206485
O O3 0.615762 0.079467 0.510509
O O4 0.465987 0.916414 0.189517
O O5 0.177878 0.711267 0.624840
O O6 0.314678 0.997019 0.954400
O O7 0.173285 0.308765 0.873281
O O8 0.258333 0.024250 0.608690
O O9 0.048146 0.692960 0.897395
O O10 0.034462 0.114033 0.785974
O O11 0.125619 0.487431 0.186264
O O12 0.747246 0.730129 0.599556
O O13 0.636314 0.561771 0.194352
O O14 0.901113 0.811288 0.672808
O O15 0.000000 0.500000 0.500000
#
# Coordination Sequence:
#
# PCOD9014446 Si02
#       7
#     2   2   2   2   2   2   2
#     4  10  21  41  67  98 135 176 227 284 347 418
#     4  10  23  42  66  95 138 180 226 287 343 411
#     4  12  27  44  70 104 138 188 234 291 349 413
#     4  10  22  42  70  95 138 185 224 292 348 416
#     4  11  25  43  66  98 138 177 237 284 350 412
#     4   9  21  41  63  99 132 176 228 277 349 412
#     4  12  25  46  73 100 140 187 236 290 351 411
#
# _framework density 25.317836
#
# number of rings (size 3 to 8) (size 9 to 14) (size 15 to 20)
#    0.000    1.429    1.429    2.571    6.000    4.000 
#    0.000    4.286    0.000    0.000    0.000    0.000 
#    0.000    0.000    0.000    0.000    0.000    0.000 
#
# Total GULP energy -78412.446415 kJ/mol
# GULP energy per Si atom -5600.889030 kJ/mol
# Density = 2.526021 g / cm^3
# Si number density = 25.317836 Si / 1000 Ang^3
#
#
#
# Elastic Constant Matrix: (Units=GPa)
#
#
# Indices 1 2 3 4 5 6 
#
# 1 130.4927 48.0605 41.3959 8.3495 19.3323 -30.5146
# 2 48.0605 107.0277 6.9056 2.7340 21.0231 -27.1060
# 3 41.3959 6.9056 56.3874 1.8014 17.3041 -16.3087
# 4 8.3495 2.7340 1.8014 33.7618 3.1962 9.9810
# 5 19.3323 21.0231 17.3041 3.1962 33.7377 -2.0029
# 6 -30.5146 -27.1060 -16.3087 9.9810 -2.0029 60.1544
#
#
#
# Elastic Compliance Matrix: (Units=1/GPa)
#
#
# Indices 1 2 3 4 5 6 
#
# 1 0.012613 -0.004345 -0.007782 -0.003192 -0.000057 0.002858
# 2 -0.004345 0.014120 0.005853 -0.001213 -0.008860 0.005651
# 3 -0.007782 0.005853 0.028648 -0.000610 -0.013461 0.006110
# 4 -0.003192 -0.001213 -0.000610 0.032915 -0.000684 -0.007815
# 5 -0.000057 -0.008860 -0.013461 -0.000684 0.041797 -0.006165
# 6 0.002858 0.005651 0.006110 -0.007815 -0.006165 0.023368
#
#
# Mechanical properties :
#
#
# Convention : Reuss Voigt Hill
#
# Bulk Modulus (GPa) = 23.34643 54.07020 38.70832
# Shear Modulus (GPa) = 27.73374 38.70049 33.21711
#
# Velocity S-wave (km/s) = 3.31331 3.91395 3.62609
# Velocity P-wave (km/s) = 4.88658 6.46748 5.73180
#
# Compressibility (1/GPa) = 0.04283310
#
# Stress axis : x y z
#
# Youngs Moduli (GPa) = 79.28224 70.82390 34.90649
#
# Poissons Ratio (x) = 0.30775 0.27163
# Poissons Ratio (y) = 0.34450 -0.20431
# Poissons Ratio (z) = 0.61694 -0.41453
#
# Static dielectric constant tensor:
#      x y z
#    x 2.008380 0.019680 -0.032680 
#    y 0.019680 2.060720 -0.010830 
#    z -0.032680 -0.010830 1.999860 
# 
# From -- ./inp_files/122384.got.cif
#   From: 2010.05.17/outbox.cif.g08.bks.cpg/sg2_62_cif.got.tgz:122384.got - 2010.06.03 11:33:40.
