data_PCOD9014385
_publ_section_title
;
Structure prediction by ZEFSAII (Michael W. Deem and Ramdas Pophale) SiO2 
 PCOD9014385
Probable space group: P -1
;
_chemical_formula_sum "Si O2"
_cell_formula_units_Z 14
_cell_length_a 9.162941
_cell_length_b 12.863233
_cell_length_c 10.819267
_cell_angle_alpha 119.390423
_cell_angle_beta 57.349917
_cell_angle_gamma 144.310985
_cell_volume 622.786214
_symmetry_space_group_name_H-M "P -1"
_symmetry_group_IT_number 2
_symmetry_cell_setting 'triclinic'
loop_
_space_group_symop_operation_xyz
x,y,z
-x,-y,-z
loop_
_atom_site_type_symbol
_atom_site_label
_atom_site_fract_x
_atom_site_fract_y
_atom_site_fract_z
Si Si1 0.171599 0.917427 0.186650
Si Si2 0.464597 0.338855 0.931788
Si Si3 0.751033 0.783414 0.642292
Si Si4 0.210559 0.513799 0.366145
Si Si5 0.655418 0.608812 0.342542
Si Si6 0.497209 0.866126 0.085859
Si Si7 0.973848 0.140146 0.191262
O O1 0.278573 0.853270 0.164444
O O2 0.862251 0.737769 0.215300
O O3 0.242426 0.075869 0.317982
O O4 0.316649 0.013930 0.046974
O O5 0.592517 0.352925 0.756968
O O6 0.593672 0.317619 0.964202
O O7 0.500000 0.500000 0.000000
O O8 0.165896 0.183040 0.024493
O O9 0.800938 0.724219 0.467835
O O10 0.474933 0.587988 0.702473
O O11 0.952150 0.876404 0.718658
O O12 0.406316 0.566826 0.413223
O O13 0.000000 0.500000 0.500000
O O14 0.052444 0.318369 0.274740
O O15 0.680596 0.980958 0.187545
#
# Coordination Sequence:
#
# PCOD9014385 Si02
#       7
#     2   2   2   2   2   2   2
#     4  11  24  44  65 100 139 176 220 280 338 399
#     4  10  21  41  68  94 131 177 222 275 338 395
#     4  10  22  42  69  92 132 181 224 267 337 406
#     4  10  23  40  66 101 129 169 228 279 330 397
#     4  10  23  43  68  91 139 184 218 270 344 408
#     4  11  24  41  66 101 134 167 232 283 326 403
#     4  10  21  41  67  96 130 173 221 277 333 396
#
# _framework density 22.479621999999999
#
# number of rings (size 3 to 8) (size 9 to 14) (size 15 to 20)
#    0.000    1.714    1.429    1.714    4.000    4.571 
#    2.571    2.857    0.000    0.000    0.000    0.000 
#    0.000    0.000    0.000    0.000    0.000    0.000 
#
# Total GULP energy -78048.950702 kJ/mol
# GULP energy per Si atom -5574.925050 kJ/mol
# Density = 2.242846 g / cm^3
# Si number density = 22.479622 Si / 1000 Ang^3
#
#
#
# Elastic Constant Matrix: (Units=GPa)
#
#
# Indices 1 2 3 4 5 6 
#
# 1 117.5065 48.2815 46.0724 2.0962 -16.6551 -13.8868
# 2 48.2815 119.4581 25.4784 -1.0940 -16.2025 -28.2893
# 3 46.0724 25.4784 99.1718 -9.5222 -8.8312 -0.4098
# 4 2.0962 -1.0940 -9.5222 26.4717 -0.5605 2.3748
# 5 -16.6551 -16.2025 -8.8312 -0.5605 44.4126 5.8892
# 6 -13.8868 -28.2893 -0.4098 2.3748 5.8892 43.5878
#
#
#
# Elastic Compliance Matrix: (Units=1/GPa)
#
#
# Indices 1 2 3 4 5 6 
#
# 1 0.012373 -0.003279 -0.004993 -0.003011 0.002196 0.001634
# 2 -0.003279 0.011733 -0.001316 -0.000253 0.001950 0.006308
# 3 -0.004993 -0.001316 0.013311 0.005388 0.000722 -0.002711
# 4 -0.003011 -0.000253 0.005388 0.040262 0.000805 -0.003376
# 5 0.002196 0.001950 0.000722 0.000805 0.024386 -0.001367
# 6 0.001634 0.006308 -0.002711 -0.003376 -0.001367 0.027900
#
#
# Mechanical properties :
#
#
# Convention : Reuss Voigt Hill
#
# Bulk Modulus (GPa) = 54.81496 63.97787 59.39642
# Shear Modulus (GPa) = 32.21215 37.31469 34.76342
#
# Velocity S-wave (km/s) = 3.78954 4.07865 3.93675
# Velocity P-wave (km/s) = 6.60187 7.12058 6.86613
#
# Compressibility (1/GPa) = 0.01824319
#
# Stress axis : x y z
#
# Youngs Moduli (GPa) = 80.82122 85.23045 75.12352
#
# Poissons Ratio (x) = 0.27943 0.37506
# Poissons Ratio (y) = 0.26498 0.09885
# Poissons Ratio (z) = 0.40351 0.11215
#
# Static dielectric constant tensor:
#      x y z
#    x 1.870580 -0.040220 0.031490 
#    y -0.040220 1.890480 0.004780 
#    z 0.031490 0.004780 1.893880 
# 
# From -- ./inp_files/392812.got.cif
#   From: 2010.05.17/outbox.cif.g08.bks.cpg/sg2_197_cif.got.tgz:392812.got - 2010.06.03 11:33:40.
