data_PCOD9014744
_publ_section_title
;
Structure prediction by ZEFSAII (Michael W. Deem and Ramdas Pophale) SiO2 
 PCOD9014744
Probable space group: P -1
;
_chemical_formula_sum "Si O2"
_cell_formula_units_Z 14
_cell_length_a 18.642772
_cell_length_b 9.403755
_cell_length_c 11.594443
_cell_angle_alpha 132.219982
_cell_angle_beta 40.114868
_cell_angle_gamma 150.599046
_cell_volume 642.839951
_symmetry_space_group_name_H-M "P -1"
_symmetry_group_IT_number 2
_symmetry_cell_setting 'triclinic'
loop_
_space_group_symop_operation_xyz
x,y,z
-x,-y,-z
loop_
_atom_site_type_symbol
_atom_site_label
_atom_site_fract_x
_atom_site_fract_y
_atom_site_fract_z
Si Si1 0.049759 0.687207 0.813402
Si Si2 0.059203 0.359170 0.317003
Si Si3 0.246554 0.001691 0.158814
Si Si4 0.982572 0.114478 0.808787
Si Si5 0.188992 0.303313 0.470794
Si Si6 0.456190 0.901282 0.136598
Si Si7 0.385704 0.890781 0.467309
O O1 0.237959 0.849655 0.657443
O O2 0.009901 0.759371 0.790177
O O3 0.909229 0.335339 0.795674
O O4 0.021910 0.776727 0.008947
O O5 0.000000 0.500000 0.500000
O O6 0.258977 0.612828 0.211599
O O7 0.005969 0.100442 0.309805
O O8 0.179650 0.019686 0.135479
O O9 0.278687 0.215844 0.325924
O O10 0.414129 0.099184 0.992282
O O11 0.150198 0.377648 0.672291
O O12 0.285660 0.559009 0.401234
O O13 0.000000 0.000000 0.500000
O O14 0.463956 0.034801 0.322264
O O15 0.500000 0.000000 0.000000
O O16 0.500000 0.000000 0.500000
#
# Coordination Sequence:
#
# PCOD9014744 Si02
#       7
#     2   2   2   2   2   2   2
#     4  12  23  44  70 101 146 187 235 297 367 427
#     4  12  25  46  72  98 141 195 241 287 363 438
#     4  11  23  43  74 101 137 192 241 294 352 427
#     4  11  24  40  74 106 135 185 245 295 357 430
#     4  10  21  41  69 102 135 184 239 286 350 423
#     4  12  26  43  70 104 144 188 240 294 358 432
#     4  12  26  42  71 109 146 183 240 306 359 416
#
# _framework density 21.778358999999998
#
# number of rings (size 3 to 8) (size 9 to 14) (size 15 to 20)
#    0.000    0.571    5.714    4.286    2.000    3.429 
#    0.000    0.000    0.000    4.286    0.000    0.000 
#    0.000    0.000    0.000    0.000    0.000    0.000 
#
# Total GULP energy -77988.821814 kJ/mol
# GULP energy per Si atom -5570.630130 kJ/mol
# Density = 2.172879 g / cm^3
# Si number density = 21.778359 Si / 1000 Ang^3
#
#
#
# Elastic Constant Matrix: (Units=GPa)
#
#
# Indices 1 2 3 4 5 6 
#
# 1 157.3986 25.2379 58.3250 -5.5179 8.4502 3.4005
# 2 25.2379 38.3796 11.9705 -6.1247 -0.3189 -9.9762
# 3 58.3250 11.9705 173.1878 -3.2393 5.1853 0.4353
# 4 -5.5179 -6.1247 -3.2393 26.1713 3.1132 -3.3509
# 5 8.4502 -0.3189 5.1853 3.1132 50.5198 -0.3231
# 6 3.4005 -9.9762 0.4353 -3.3509 -0.3231 36.5567
#
#
#
# Elastic Compliance Matrix: (Units=1/GPa)
#
#
# Indices 1 2 3 4 5 6 
#
# 1 0.008170 -0.005196 -0.002350 0.000080 -0.001177 -0.002153
# 2 -0.005196 0.033596 -0.000471 0.007955 0.000706 0.010393
# 3 -0.002350 -0.000471 0.006612 0.000253 -0.000304 0.000032
# 4 0.000080 0.007955 0.000253 0.041173 -0.002489 0.005913
# 5 -0.001177 0.000706 -0.000304 -0.002489 0.020182 0.000256
# 6 -0.002153 0.010393 0.000032 0.005913 0.000256 0.030935
#
#
# Mechanical properties :
#
#
# Convention : Reuss Voigt Hill
#
# Bulk Modulus (GPa) = 30.91768 62.22588 46.57178
# Shear Modulus (GPa) = 29.85399 40.87840 35.36620
#
# Velocity S-wave (km/s) = 3.70646 4.33716 4.03415
# Velocity P-wave (km/s) = 5.70478 7.32909 6.56735
#
# Compressibility (1/GPa) = 0.03234395
#
# Stress axis : x y z
#
# Youngs Moduli (GPa) = 122.40228 29.76550 151.24461
#
# Poissons Ratio (x) = 0.15466 0.35544
# Poissons Ratio (y) = 0.63601 0.07119
# Poissons Ratio (z) = 0.28766 0.01401
#
# Static dielectric constant tensor:
#      x y z
#    x 1.864370 0.006180 0.080450 
#    y 0.006180 1.848020 0.022810 
#    z 0.080450 0.022810 1.925180 
# 
# From -- ./inp_files/242841.got.cif
#   From: 2010.05.17/outbox.cif.g08.bks.cpg/sg2_122_cif.got.tgz:242841.got - 2010.06.03 11:33:40.
