data_PCOD9014357
_publ_section_title
;
Structure prediction by ZEFSAII (Michael W. Deem and Ramdas Pophale) SiO2 
 PCOD9014357
Probable space group: P -1
;
_chemical_formula_sum "Si O2"
_cell_formula_units_Z 14
_cell_length_a 15.030186
_cell_length_b 5.156244
_cell_length_c 23.049622
_cell_angle_alpha 88.686199
_cell_angle_beta 19.352128
_cell_angle_gamma 81.220918
_cell_volume 543.559033
_symmetry_space_group_name_H-M "P -1"
_symmetry_group_IT_number 2
_symmetry_cell_setting 'triclinic'
loop_
_space_group_symop_operation_xyz
x,y,z
-x,-y,-z
loop_
_atom_site_type_symbol
_atom_site_label
_atom_site_fract_x
_atom_site_fract_y
_atom_site_fract_z
Si Si1 0.722021 0.217428 0.395890
Si Si2 0.765725 0.600605 0.223855
Si Si3 0.770191 0.693781 0.846812
Si Si4 0.200945 0.677765 0.382720
Si Si5 0.458710 0.392703 0.115978
Si Si6 0.293281 0.679936 0.848051
Si Si7 0.164602 0.059630 0.035285
O O1 0.500000 0.500000 0.500000
O O2 0.510316 0.172059 0.574595
O O3 0.967289 0.269885 0.282437
O O4 0.899592 0.014640 0.234771
O O5 0.673913 0.389837 0.240610
O O6 0.013645 0.391930 0.115542
O O7 0.955606 0.718739 0.066743
O O8 0.820964 0.573222 0.750806
O O9 0.676171 0.472457 0.940976
O O10 0.500000 0.000000 0.000000
O O11 0.394142 0.605159 0.206801
O O12 0.428915 0.583117 0.295723
O O13 0.000000 0.500000 0.500000
O O14 0.000000 0.000000 0.500000
O O15 0.582355 0.091680 0.073490
O O16 0.284780 0.918638 0.899558
#
# Coordination Sequence:
#
# PCOD9014357 Si02
#       7
#     2   2   2   2   2   2   2
#     4  10  23  39  67  97 138 174 230 296 349 425
#     4  10  23  44  62 100 135 186 229 303 354 439
#     4  11  23  44  69  97 139 179 237 298 365 433
#     4  11  28  46  74 107 144 189 245 304 360 436
#     4  10  25  41  71  99 131 192 233 294 370 431
#     4  10  24  42  70  93 139 185 238 285 374 427
#     4  10  21  41  67  95 130 178 229 289 355 424
#
# _framework density 25.756170999999998
#
# number of rings (size 3 to 8) (size 9 to 14) (size 15 to 20)
#    0.000    1.714    1.429    0.429   16.000    0.571 
#    2.571    0.000    0.000    0.000    0.000    0.000 
#    0.000    0.000    0.000    0.000    0.000    0.000 
#
# Total GULP energy -78036.783595 kJ/mol
# GULP energy per Si atom -5574.055971 kJ/mol
# Density = 2.569755 g / cm^3
# Si number density = 25.756171 Si / 1000 Ang^3
#
#
#
# Elastic Constant Matrix: (Units=GPa)
#
#
# Indices 1 2 3 4 5 6 
#
# 1 144.3507 23.7187 34.9887 -7.0644 -38.8378 -11.8458
# 2 23.7187 72.7895 13.6331 -0.4029 -18.3330 1.1796
# 3 34.9887 13.6331 89.3207 -3.6277 -16.9429 -2.9556
# 4 -7.0644 -0.4029 -3.6277 37.7586 -4.8163 -12.8875
# 5 -38.8378 -18.3330 -16.9429 -4.8163 53.3727 -5.1897
# 6 -11.8458 1.1796 -2.9556 -12.8875 -5.1897 22.6788
#
#
#
# Elastic Compliance Matrix: (Units=1/GPa)
#
#
# Indices 1 2 3 4 5 6 
#
# 1 0.011330 -0.001222 -0.001857 0.007127 0.009031 0.011856
# 2 -0.001222 0.015361 -0.001125 0.000131 0.003984 -0.000598
# 3 -0.001857 -0.001125 0.012790 0.002104 0.002764 0.002583
# 4 0.007127 0.000131 0.002104 0.039597 0.012322 0.029311
# 5 0.009031 0.003984 0.002764 0.012322 0.030499 0.018852
# 6 0.011856 -0.000598 0.002583 0.029311 0.018852 0.071625
#
#
# Mechanical properties :
#
#
# Convention : Reuss Voigt Hill
#
# Bulk Modulus (GPa) = 32.18166 50.12689 41.15428
# Shear Modulus (GPa) = 25.00415 38.37002 31.68709
#
# Velocity S-wave (km/s) = 3.11915 3.86390 3.51133
# Velocity P-wave (km/s) = 5.04916 6.27779 5.69670
#
# Compressibility (1/GPa) = 0.03107360
#
# Stress axis : x y z
#
# Youngs Moduli (GPa) = 88.26038 65.10041 78.18767
#
# Poissons Ratio (x) = 0.07957 0.14518
# Poissons Ratio (y) = 0.10787 0.08793
# Poissons Ratio (z) = 0.16388 0.07321
#
# Static dielectric constant tensor:
#      x y z
#    x 2.093180 -0.011550 0.083420 
#    y -0.011550 4.995850 0.530130 
#    z 0.083420 0.530130 2.259250 
# 
# From -- ./inp_files/67754.got.cif
#   From: 2010.05.17/outbox.cif.g08.bks.cpg/sg2_34_cif.got.tgz:67754.got - 2010.06.03 11:33:40.
