data_PCOD9014957
_publ_section_title
;
Structure prediction by ZEFSAII (Michael W. Deem and Ramdas Pophale) SiO2 
 PCOD9014957
Probable space group: P -1
;
_chemical_formula_sum "Si O2"
_cell_formula_units_Z 16
_cell_length_a 15.697809
_cell_length_b 7.752183
_cell_length_c 9.153565
_cell_angle_alpha 84.349483
_cell_angle_beta 48.458323
_cell_angle_gamma 113.043381
_cell_volume 655.401934
_symmetry_space_group_name_H-M "P -1"
_symmetry_group_IT_number 2
_symmetry_cell_setting 'triclinic'
loop_
_space_group_symop_operation_xyz
x,y,z
-x,-y,-z
loop_
_atom_site_type_symbol
_atom_site_label
_atom_site_fract_x
_atom_site_fract_y
_atom_site_fract_z
Si Si1 0.190491 0.092820 0.401465
Si Si2 0.885661 0.518941 0.207836
Si Si3 0.856163 0.351587 0.582125
Si Si4 0.243531 0.461770 0.112737
Si Si5 0.918144 0.817149 0.929080
Si Si6 0.555023 0.129384 0.581605
Si Si7 0.569143 0.783013 0.685534
Si Si8 0.367860 0.244207 0.700708
O O1 0.178689 0.884129 0.375850
O O2 0.066696 0.005368 0.669810
O O3 0.178714 0.234026 0.286655
O O4 0.345221 0.244594 0.291063
O O5 0.880617 0.464693 0.387925
O O6 0.717882 0.348094 0.363791
O O7 0.933160 0.752595 0.078736
O O8 0.000000 0.500000 0.000000
O O9 0.750302 0.372391 0.796784
O O10 0.000000 0.500000 0.500000
O O11 0.144078 0.395359 0.089654
O O12 0.405644 0.572030 0.871789
O O13 0.786064 0.827520 0.071813
O O14 0.438218 0.170316 0.736411
O O15 0.500000 0.000000 0.500000
O O16 0.562328 0.983134 0.703150
O O17 0.653872 0.850187 0.430484
O O18 0.500000 0.500000 0.500000
#
# Coordination Sequence:
#
# PCOD9014957 Si02
#       8
#     2   2   2   2   2   2   2   2
#     4  12  27  50  73 112 155 197 261 317 380 457
#     4  12  22  45  77 108 148 194 252 321 373 456
#     4  12  27  49  77 110 155 204 253 311 395 455
#     4  12  27  49  75 107 156 206 252 314 382 456
#     4  12  24  47  76 110 154 195 256 316 375 463
#     4  10  21  41  70 109 150 184 248 311 379 451
#     4  11  24  48  71 109 150 197 258 314 374 460
#     4  11  22  41  75 110 148 196 246 315 393 442
#
# _framework density 24.412500999999999
#
# number of rings (size 3 to 8) (size 9 to 14) (size 15 to 20)
#    0.000    0.500    6.250    1.500    1.750    2.000 
#    6.750    0.000    0.000    0.000    0.000    0.000 
#    0.000    0.000    0.000    0.000    0.000    0.000 
#
# Total GULP energy -89514.030299 kJ/mol
# GULP energy per Si atom -5594.626894 kJ/mol
# Density = 2.435694 g / cm^3
# Si number density = 24.412501 Si / 1000 Ang^3
#
#
#
# Elastic Constant Matrix: (Units=GPa)
#
#
# Indices 1 2 3 4 5 6 
#
# 1 103.5155 12.4369 23.1952 4.3040 -11.3808 -9.6177
# 2 12.4369 57.5994 32.3588 12.3248 3.8910 -20.5005
# 3 23.1952 32.3588 125.0157 10.2889 -12.7094 -10.1233
# 4 4.3040 12.3248 10.2889 46.8874 -5.8324 -0.2761
# 5 -11.3808 3.8910 -12.7094 -5.8324 43.0269 0.8683
# 6 -9.6177 -20.5005 -10.1233 -0.2761 0.8683 40.0147
#
#
#
# Elastic Compliance Matrix: (Units=1/GPa)
#
#
# Indices 1 2 3 4 5 6 
#
# 1 0.010502 -0.001153 -0.001267 -0.000067 0.002467 0.001559
# 2 -0.001153 0.026918 -0.005818 -0.006313 -0.005558 0.012119
# 3 -0.001267 -0.005818 0.010006 -0.000164 0.003141 -0.000823
# 4 -0.000067 -0.006313 -0.000164 0.023477 0.003752 -0.003211
# 5 0.002467 -0.005558 0.003141 0.003752 0.025873 -0.001996
# 6 0.001559 0.012119 -0.000823 -0.003211 -0.001996 0.031387
#
#
# Mechanical properties :
#
#
# Convention : Reuss Voigt Hill
#
# Bulk Modulus (GPa) = 32.31046 46.90138 39.60592
# Shear Modulus (GPa) = 32.26707 40.52842 36.39775
#
# Velocity S-wave (km/s) = 3.63952 4.07891 3.86547
# Velocity P-wave (km/s) = 5.56107 6.43717 6.01509
#
# Compressibility (1/GPa) = 0.03094973
#
# Stress axis : x y z
#
# Youngs Moduli (GPa) = 95.22187 37.14955 99.93833
#
# Poissons Ratio (x) = 0.04284 0.12667
# Poissons Ratio (y) = 0.10980 0.58140
# Poissons Ratio (z) = 0.12069 0.21612
#
# Static dielectric constant tensor:
#      x y z
#    x 1.950110 0.003290 0.001440 
#    y 0.003290 2.098010 0.068080 
#    z 0.001440 0.068080 1.927450 
# 
# From -- ./inp_files/298147.got.cif
#   From: 2010.05.17/outbox.cif.g08.bks.cpg/sg2_150_cif.got.tgz:298147.got - 2010.06.03 11:33:40.
