data_PCOD9014362
_publ_section_title
;
Structure prediction by ZEFSAII (Michael W. Deem and Ramdas Pophale) SiO2 
 PCOD9014362
Probable space group: P -1
;
_chemical_formula_sum "Si O2"
_cell_formula_units_Z 16
_cell_length_a 16.278005
_cell_length_b 15.684924
_cell_length_c 8.560968
_cell_angle_alpha 46.533870
_cell_angle_beta 46.841012
_cell_angle_gamma 26.457346
_cell_volume 690.915364
_symmetry_space_group_name_H-M "P -1"
_symmetry_group_IT_number 2
_symmetry_cell_setting 'triclinic'
loop_
_space_group_symop_operation_xyz
x,y,z
-x,-y,-z
loop_
_atom_site_type_symbol
_atom_site_label
_atom_site_fract_x
_atom_site_fract_y
_atom_site_fract_z
Si Si1 0.133738 0.576909 0.128066
Si Si2 0.853946 0.886148 0.354436
Si Si3 0.990468 0.629539 0.935457
Si Si4 0.422851 0.733883 0.600142
Si Si5 0.171065 0.677483 0.459519
Si Si6 0.431033 0.937740 0.091694
Si Si7 0.287349 0.667462 0.629504
Si Si8 0.352727 0.183584 0.343673
O O1 0.246651 0.380736 0.319648
O O2 0.975331 0.777491 0.177173
O O3 0.252351 0.575716 0.883515
O O4 0.035197 0.580593 0.119587
O O5 0.772500 0.820502 0.556634
O O6 0.004036 0.806324 0.389213
O O7 0.678990 0.121862 0.301088
O O8 0.143982 0.580346 0.713289
O O9 0.792219 0.861500 0.891573
O O10 0.000000 0.500000 0.000000
O O11 0.620750 0.501086 0.663971
O O12 0.462401 0.806589 0.336088
O O13 0.278358 0.773068 0.641747
O O14 0.168132 0.771734 0.490613
O O15 0.537849 0.844403 0.905739
O O16 0.500000 0.000000 0.000000
O O17 0.500000 0.500000 0.500000
O O18 0.500000 0.000000 0.500000
#
# Coordination Sequence:
#
# PCOD9014362 Si02
#       8
#     2   2   2   2   2   2   2   2
#     4  11  25  44  66  97 139 179 224 278 346 405
#     4  12  25  42  65 104 139 178 225 277 346 408
#     4  11  21  38  64  94 129 171 224 278 329 397
#     4  11  23  42  73 101 137 176 234 278 334 408
#     4  10  21  41  67  95 133 177 221 283 329 390
#     4  12  21  39  65 102 128 171 226 276 334 399
#     4   9  21  45  73 100 130 178 233 282 331 400
#     4  12  26  42  66  98 140 180 223 285 344 405
#
# _framework density 23.157686999999999
#
# number of rings (size 3 to 8) (size 9 to 14) (size 15 to 20)
#    0.000    1.000    2.500    5.625    1.750    1.000 
#    0.000    2.500    5.500    0.000    0.000    0.000 
#    0.000    0.000    0.000    0.000    0.000    0.000 
#
# Total GULP energy -89334.375830 kJ/mol
# GULP energy per Si atom -5583.398489 kJ/mol
# Density = 2.310498 g / cm^3
# Si number density = 23.157687 Si / 1000 Ang^3
#
#
#
# Elastic Constant Matrix: (Units=GPa)
#
#
# Indices 1 2 3 4 5 6 
#
# 1 109.5046 25.2030 11.7137 7.8154 -14.4570 7.7681
# 2 25.2030 118.9692 18.1892 21.1701 -3.5943 6.0880
# 3 11.7137 18.1892 41.8633 17.9156 -2.1417 4.9445
# 4 7.8154 21.1701 17.9156 29.4599 0.0262 6.5505
# 5 -14.4570 -3.5943 -2.1417 0.0262 25.1747 -1.4513
# 6 7.7681 6.0880 4.9445 6.5505 -1.4513 43.9003
#
#
#
# Elastic Compliance Matrix: (Units=1/GPa)
#
#
# Indices 1 2 3 4 5 6 
#
# 1 0.010547 -0.001695 -0.001652 -0.000311 0.005605 -0.001214
# 2 -0.001695 0.010038 -0.001316 -0.005954 0.000351 -0.000044
# 3 -0.001652 -0.001316 0.033017 -0.018605 0.001668 -0.000413
# 4 -0.000311 -0.005954 -0.018605 0.050663 -0.002934 -0.004680
# 5 0.005605 0.000351 0.001668 -0.002934 0.043173 0.000637
# 6 -0.001214 -0.000044 -0.000413 -0.004680 0.000637 0.023766
#
#
# Mechanical properties :
#
#
# Convention : Reuss Voigt Hill
#
# Bulk Modulus (GPa) = 22.58500 42.28322 32.43411
# Shear Modulus (GPa) = 25.60309 34.05571 29.82940
#
# Velocity S-wave (km/s) = 3.32866 3.83900 3.59290
# Velocity P-wave (km/s) = 4.95451 6.16028 5.59000
#
# Compressibility (1/GPa) = 0.04427717
#
# Stress axis : x y z
#
# Youngs Moduli (GPa) = 94.81322 99.61935 30.28708
#
# Poissons Ratio (x) = 0.16887 0.05002
# Poissons Ratio (y) = 0.16072 0.03986
# Poissons Ratio (z) = 0.15660 0.13109
#
# Static dielectric constant tensor:
#      x y z
#    x 1.936960 -0.014020 0.026880 
#    y -0.014020 1.949360 0.007920 
#    z 0.026880 0.007920 1.837590 
# 
# From -- ./inp_files/314583.got.cif
#   From: 2010.05.17/outbox.cif.g08.bks.cpg/sg2_158_cif.got.tgz:314583.got - 2010.06.03 11:33:40.
