data_PCOD9014598
_publ_section_title
;
Structure prediction by ZEFSAII (Michael W. Deem and Ramdas Pophale) SiO2 
 PCOD9014598
Probable space group: P -1
;
_chemical_formula_sum "Si O2"
_cell_formula_units_Z 16
_cell_length_a 8.276318
_cell_length_b 11.493305
_cell_length_c 20.320197
_cell_angle_alpha 29.340070
_cell_angle_beta 51.673679
_cell_angle_gamma 68.393078
_cell_volume 664.122934
_symmetry_space_group_name_H-M "P -1"
_symmetry_group_IT_number 2
_symmetry_cell_setting 'triclinic'
loop_
_space_group_symop_operation_xyz
x,y,z
-x,-y,-z
loop_
_atom_site_type_symbol
_atom_site_label
_atom_site_fract_x
_atom_site_fract_y
_atom_site_fract_z
Si Si1 0.860616 0.025741 0.411498
Si Si2 0.210221 0.359999 0.958354
Si Si3 0.832241 0.747100 0.209608
Si Si4 0.497085 0.047465 0.769324
Si Si5 0.569732 0.300301 0.393923
Si Si6 0.338083 0.902037 0.152542
Si Si7 0.007263 0.415668 0.409395
Si Si8 0.232760 0.546840 0.999681
O O1 0.693815 0.911023 0.445927
O O2 0.904978 0.784811 0.544609
O O3 0.723839 0.140179 0.435407
O O4 0.095935 0.268429 0.209099
O O5 0.319505 0.498875 0.931310
O O6 0.191490 0.067958 0.108114
O O7 0.358695 0.526879 0.776711
O O8 0.965491 0.361147 0.011579
O O9 0.688985 0.839223 0.249803
O O10 0.644767 0.509679 0.330046
O O11 0.990333 0.627736 0.260420
O O12 0.000000 0.000000 0.000000
O O13 0.515558 0.025831 0.853636
O O14 0.750255 0.244863 0.584308
O O15 0.413766 0.770163 0.889914
O O16 0.178477 0.589345 0.338157
O O17 0.500000 0.000000 0.000000
#
# Coordination Sequence:
#
# PCOD9014598 Si02
#       8
#     2   2   2   2   2   2   2   2
#     4  10  22  42  64  95 134 175 221 271 331 396
#     4  10  21  41  68  94 127 171 221 270 329 395
#     4  12  25  45  70  99 137 177 226 280 339 404
#     4  12  26  44  68  99 137 177 227 282 333 397
#     4  10  22  42  69  97 132 175 220 275 334 399
#     4  12  25  43  68  97 133 176 223 276 336 400
#     4  12  26  42  67  99 135 178 224 281 336 398
#     4  10  23  43  67  95 132 177 219 270 331 393
#
# _framework density 24.091923999999999
#
# number of rings (size 3 to 8) (size 9 to 14) (size 15 to 20)
#    0.000    1.000    0.000    7.500    0.000    7.500 
#    0.000    1.250    0.000    0.000    0.000    0.000 
#    0.000    0.000    0.000    0.000    0.000    0.000 
#
# Total GULP energy -89681.480231 kJ/mol
# GULP energy per Si atom -5605.092514 kJ/mol
# Density = 2.403709 g / cm^3
# Si number density = 24.091924 Si / 1000 Ang^3
#
#
#
# Elastic Constant Matrix: (Units=GPa)
#
#
# Indices 1 2 3 4 5 6 
#
# 1 81.6978 20.7924 39.1340 -13.1381 -10.7893 8.6238
# 2 20.7924 98.4519 44.9521 -30.8673 -2.3183 -10.3840
# 3 39.1340 44.9521 91.4147 -18.2803 -19.6952 10.4030
# 4 -13.1381 -30.8673 -18.2803 43.1105 -1.8866 -1.5004
# 5 -10.7893 -2.3183 -19.6952 -1.8866 46.4508 -19.1418
# 6 8.6238 -10.3840 10.4030 -1.5004 -19.1418 51.3191
#
#
#
# Elastic Compliance Matrix: (Units=1/GPa)
#
#
# Indices 1 2 3 4 5 6 
#
# 1 0.015677 0.000041 -0.005996 0.002261 0.000755 -0.001063
# 2 0.000041 0.016780 -0.006907 0.009300 0.000451 0.005229
# 3 -0.005996 -0.006907 0.018534 0.001243 0.005291 -0.002137
# 4 0.002261 0.009300 0.001243 0.031394 0.004354 0.003792
# 5 0.000755 0.000451 0.005291 0.004354 0.028054 0.009483
# 6 -0.001063 0.005229 -0.002137 0.003792 0.009483 0.024804
#
#
# Mechanical properties :
#
#
# Convention : Reuss Voigt Hill
#
# Bulk Modulus (GPa) = 39.57582 53.48016 46.52799
# Shear Modulus (GPa) = 29.51764 39.28846 34.40305
#
# Velocity S-wave (km/s) = 3.50410 4.04266 3.78298
# Velocity P-wave (km/s) = 5.73012 6.63607 6.19966
#
# Compressibility (1/GPa) = 0.02526795
#
# Stress axis : x y z
#
# Youngs Moduli (GPa) = 63.78648 59.59385 53.95398
#
# Poissons Ratio (x) = -0.00245 0.32350
# Poissons Ratio (y) = -0.00263 0.37268
# Poissons Ratio (z) = 0.38246 0.41163
#
# Static dielectric constant tensor:
#      x y z
#    x 1.966760 -0.024460 0.012870 
#    y -0.024460 1.894890 -0.012340 
#    z 0.012870 -0.012340 1.889100 
# 
# From -- ./inp_files/261605.got.cif
#   From: 2010.05.17/outbox.cif.g08.bks.cpg/sg2_131_cif.got.tgz:261605.got - 2010.06.03 11:33:40.
