data_PCOD9014514
_publ_section_title
;
Structure prediction by ZEFSAII (Michael W. Deem and Ramdas Pophale) SiO2 
 PCOD9014514
Probable space group: P -1
;
_chemical_formula_sum "Si O2"
_cell_formula_units_Z 16
_cell_length_a 15.172671
_cell_length_b 9.432907
_cell_length_c 11.453820
_cell_angle_alpha 72.131171
_cell_angle_beta 152.982355
_cell_angle_gamma 113.007927
_cell_volume 682.074976
_symmetry_space_group_name_H-M "P -1"
_symmetry_group_IT_number 2
_symmetry_cell_setting 'triclinic'
loop_
_space_group_symop_operation_xyz
x,y,z
-x,-y,-z
loop_
_atom_site_type_symbol
_atom_site_label
_atom_site_fract_x
_atom_site_fract_y
_atom_site_fract_z
Si Si1 0.405819 0.452111 0.234180
Si Si2 0.729239 0.086697 0.474262
Si Si3 0.108440 0.291048 0.735963
Si Si4 0.688374 0.904933 0.133384
Si Si5 0.612729 0.764862 0.332316
Si Si6 0.605939 0.175968 0.553562
Si Si7 0.863754 0.262350 0.234297
Si Si8 0.868312 0.403549 0.971194
O O1 0.604368 0.591098 0.403180
O O2 0.464557 0.292197 0.357659
O O3 0.289958 0.504926 0.191987
O O4 0.248192 0.421149 0.948302
O O5 0.704178 0.169066 0.544767
O O6 0.939228 0.176504 0.643329
O O7 0.707535 0.902291 0.500626
O O8 0.541815 0.092880 0.166645
O O9 0.250465 0.198365 0.866975
O O10 0.986924 0.337379 0.473536
O O11 0.695924 0.827551 0.287896
O O12 0.836831 0.077590 0.256895
O O13 0.371595 0.743528 0.047645
O O14 0.758227 0.242374 0.820691
O O15 0.500000 0.000000 0.500000
O O16 0.962224 0.352829 0.212014
O O17 0.000000 0.500000 0.000000
#
# Coordination Sequence:
#
# PCOD9014514 Si02
#       8
#     2   2   2   2   2   2   2   2
#     4  11  26  45  70 108 141 181 241 298 364 423
#     4  11  22  44  72 103 138 188 239 293 347 423
#     4  12  23  40  72 111 141 177 239 292 363 428
#     4  11  20  41  67 107 146 180 235 279 363 435
#     4  10  21  41  68 102 146 181 225 291 371 418
#     4  12  25  50  73  94 142 197 243 290 344 426
#     4  10  21  41  69 101 141 185 229 289 351 428
#     4  11  26  48  70 101 144 191 238 295 352 410
#
# _framework density 23.457832
#
# number of rings (size 3 to 8) (size 9 to 14) (size 15 to 20)
#    0.000    1.000    3.750    4.500    0.000    3.500 
#    4.500    1.250    0.000    0.000    0.000    0.000 
#    0.000    0.000    0.000    0.000    0.000    0.000 
#
# Total GULP energy -89530.770811 kJ/mol
# GULP energy per Si atom -5595.673176 kJ/mol
# Density = 2.340444 g / cm^3
# Si number density = 23.457832 Si / 1000 Ang^3
#
#
#
# Elastic Constant Matrix: (Units=GPa)
#
#
# Indices 1 2 3 4 5 6 
#
# 1 170.6231 77.8847 23.8142 18.6618 5.4761 4.7842
# 2 77.8847 167.0171 25.0100 16.4304 1.8839 -0.0160
# 3 23.8142 25.0100 41.9257 10.3849 -7.8445 -0.7770
# 4 18.6618 16.4304 10.3849 29.8315 -4.9322 -14.5021
# 5 5.4761 1.8839 -7.8445 -4.9322 42.3444 7.1931
# 6 4.7842 -0.0160 -0.7770 -14.5021 7.1931 41.7517
#
#
#
# Elastic Compliance Matrix: (Units=1/GPa)
#
#
# Indices 1 2 3 4 5 6 
#
# 1 0.008075 -0.003054 -0.002105 -0.003875 -0.001398 -0.002071
# 2 -0.003054 0.007999 -0.002727 -0.001745 -0.000636 -0.000194
# 3 -0.002105 -0.002727 0.029625 -0.008019 0.005446 -0.002932
# 4 -0.003875 -0.001745 -0.008019 0.048118 0.001863 0.016687
# 5 -0.001398 -0.000636 0.005446 0.001863 0.025647 -0.003510
# 6 -0.002071 -0.000194 -0.002932 0.016687 -0.003510 0.030534
#
#
# Mechanical properties :
#
#
# Convention : Reuss Voigt Hill
#
# Bulk Modulus (GPa) = 33.41507 70.33151 51.87329
# Shear Modulus (GPa) = 28.44981 39.64265 34.04623
#
# Velocity S-wave (km/s) = 3.48632 4.11536 3.81383
# Velocity P-wave (km/s) = 5.52101 7.25457 6.44633
#
# Compressibility (1/GPa) = 0.02992662
#
# Stress axis : x y z
#
# Youngs Moduli (GPa) = 123.83265 125.01975 33.75474
#
# Poissons Ratio (x) = 0.38178 0.07107
# Poissons Ratio (y) = 0.37816 0.09206
# Poissons Ratio (z) = 0.26072 0.34096
#
# Static dielectric constant tensor:
#      x y z
#    x 1.881810 0.020530 0.000250 
#    y 0.020530 1.948540 -0.085600 
#    z 0.000250 -0.085600 1.923720 
# 
# From -- ./inp_files/447431.got.cif
#   From: 2010.05.17/outbox.cif.g08.bks.cpg/sg2_224_cif.got.tgz:447431.got - 2010.06.03 11:33:40.
