data_PCOD9014978
_publ_section_title
;
Structure prediction by ZEFSAII (Michael W. Deem and Ramdas Pophale) SiO2 
 PCOD9014978
Probable space group: P -1
;
_chemical_formula_sum "Si O2"
_cell_formula_units_Z 16
_cell_length_a 15.588232
_cell_length_b 11.020461
_cell_length_c 9.110174
_cell_angle_alpha 117.698853
_cell_angle_beta 38.315291
_cell_angle_gamma 97.552916
_cell_volume 777.684624
_symmetry_space_group_name_H-M "P -1"
_symmetry_group_IT_number 2
_symmetry_cell_setting 'triclinic'
loop_
_space_group_symop_operation_xyz
x,y,z
-x,-y,-z
loop_
_atom_site_type_symbol
_atom_site_label
_atom_site_fract_x
_atom_site_fract_y
_atom_site_fract_z
Si Si1 0.304853 0.680704 0.615388
Si Si2 0.182626 0.446570 0.716230
Si Si3 0.600748 0.665263 0.375779
Si Si4 0.363574 0.824944 0.036484
Si Si5 0.372055 0.159310 0.823655
Si Si6 0.787660 0.832701 0.661535
Si Si7 0.545455 0.320337 0.852871
Si Si8 0.901665 0.175272 0.763065
O O1 0.242188 0.553971 0.608930
O O2 0.476500 0.622203 0.427552
O O3 0.310375 0.750252 0.490286
O O4 0.184770 0.799615 0.952745
O O5 0.261138 0.444301 0.768506
O O6 0.248125 0.286636 0.453032
O O7 0.000000 0.500000 0.000000
O O8 0.675246 0.742961 0.207456
O O9 0.488138 0.775630 0.712217
O O10 0.425411 0.748284 0.064384
O O11 0.235424 0.766025 0.134401
O O12 0.284963 0.007229 0.237237
O O13 0.432038 0.261803 0.896523
O O14 0.500000 0.000000 0.500000
O O15 0.265539 0.135828 0.078268
O O16 0.971484 0.762736 0.375938
O O17 0.500000 0.500000 0.000000
O O18 0.000000 0.000000 0.500000
#
# Coordination Sequence:
#
# PCOD9014978 Si02
#       8
#     2   2   2   2   2   2   2   2
#     4  10  21  43  64  91 132 169 221 258 318 392
#     4  12  24  41  64  99 135 170 211 266 327 385
#     4  10  22  40  67  95 125 174 219 260 320 392
#     4  10  21  41  70  93 123 171 226 259 321 391
#     4  11  23  40  66 100 130 160 215 280 329 377
#     4  11  22  41  65  95 136 165 212 276 329 379
#     4  11  24  41  64  97 128 166 216 275 319 382
#     4   9  20  39  62  89 124 174 210 260 324 387
#
# _framework density 20.573892000000001
#
# number of rings (size 3 to 8) (size 9 to 14) (size 15 to 20)
#    0.000    1.500    2.500    2.625    3.500    4.000 
#    2.250    3.125    0.000    0.000    0.000    0.000 
#    0.000    0.000    0.000    0.000    0.000    0.000 
#
# Total GULP energy -89087.994235 kJ/mol
# GULP energy per Si atom -5567.999640 kJ/mol
# Density = 2.052706 g / cm^3
# Si number density = 20.573892 Si / 1000 Ang^3
#
#
#
# Elastic Constant Matrix: (Units=GPa)
#
#
# Indices 1 2 3 4 5 6 
#
# 1 79.1712 31.2137 47.0752 -7.6171 9.4639 -2.0068
# 2 31.2137 79.4905 35.9858 -10.5501 5.4979 -3.1782
# 3 47.0752 35.9858 112.5907 -11.0985 5.3500 -6.4336
# 4 -7.6171 -10.5501 -11.0985 36.5376 1.2979 14.5251
# 5 9.4639 5.4979 5.3500 1.2979 33.6020 -6.6314
# 6 -2.0068 -3.1782 -6.4336 14.5251 -6.6314 38.2671
#
#
#
# Elastic Compliance Matrix: (Units=1/GPa)
#
#
# Indices 1 2 3 4 5 6 
#
# 1 0.018490 -0.004036 -0.006189 0.001630 -0.003962 -0.001712
# 2 -0.004036 0.016059 -0.003114 0.003234 -0.001288 -0.000852
# 3 -0.006189 -0.003114 0.012626 0.001165 0.000429 0.001172
# 4 0.001630 0.003234 0.001165 0.034527 -0.005162 -0.013450
# 5 -0.003962 -0.001288 0.000429 -0.005162 0.032674 0.007379
# 6 -0.001712 -0.000852 0.001172 -0.013450 0.007379 0.032552
#
#
# Mechanical properties :
#
#
# Convention : Reuss Voigt Hill
#
# Bulk Modulus (GPa) = 48.79077 55.53355 52.16216
# Shear Modulus (GPa) = 27.71019 32.14653 29.92836
#
# Velocity S-wave (km/s) = 3.67394 3.95712 3.81816
# Velocity P-wave (km/s) = 6.46247 6.92310 6.69675
#
# Compressibility (1/GPa) = 0.02049568
#
# Stress axis : x y z
#
# Youngs Moduli (GPa) = 54.08470 62.27052 79.20062
#
# Poissons Ratio (x) = 0.25135 0.49020
# Poissons Ratio (y) = 0.21831 0.24661
# Poissons Ratio (z) = 0.33475 0.19389
#
# Static dielectric constant tensor:
#      x y z
#    x 2.976260 0.509640 0.006380 
#    y 0.509640 1.995930 -0.009800 
#    z 0.006380 -0.009800 1.796600 
# 
# From -- ./inp_files/305635.got.cif
#   From: 2010.05.17/outbox.cif.g08.bks.cpg/sg2_153_cif.got.tgz:305635.got - 2010.06.03 11:33:40.
