data_PCOD9014543
_publ_section_title
;
Structure prediction by ZEFSAII (Michael W. Deem and Ramdas Pophale) SiO2 
 PCOD9014543
Probable space group: P -1
;
_chemical_formula_sum "Si O2"
_cell_formula_units_Z 15
_cell_length_a 6.567176
_cell_length_b 11.431504
_cell_length_c 10.616953
_cell_angle_alpha 84.868500
_cell_angle_beta 60.112214
_cell_angle_gamma 98.323999
_cell_volume 671.520786
_symmetry_space_group_name_H-M "P -1"
_symmetry_group_IT_number 2
_symmetry_cell_setting 'triclinic'
loop_
_space_group_symop_operation_xyz
x,y,z
-x,-y,-z
loop_
_atom_site_type_symbol
_atom_site_label
_atom_site_fract_x
_atom_site_fract_y
_atom_site_fract_z
Si Si1 0.707099 0.280891 0.777787
Si Si2 0.357808 0.391962 0.227849
Si Si3 0.000000 0.500000 0.500000
Si Si4 0.736300 0.598236 0.030101
Si Si5 0.848364 0.876662 0.696586
Si Si6 0.909757 0.191952 0.975725
Si Si7 0.166476 0.006888 0.792836
Si Si8 0.672570 0.086059 0.588008
O O1 0.473171 0.330958 0.879421
O O2 0.663910 0.175925 0.697787
O O3 0.900564 0.389904 0.644083
O O4 0.785746 0.227514 0.886931
O O5 0.196127 0.426449 0.385741
O O6 0.630020 0.470690 0.141912
O O7 0.336529 0.249927 0.238177
O O8 0.255359 0.422173 0.119883
O O9 0.972668 0.686013 0.000086
O O10 0.925291 0.940761 0.800305
O O11 0.107727 0.852460 0.574755
O O12 0.756568 0.969516 0.626364
O O13 0.108460 0.120090 0.871907
O O14 0.765014 0.091048 0.124297
O O15 0.397000 0.053409 0.628750
#
# Coordination Sequence:
#
# PCOD9014543 Si02
#       8
#     2   2   1   2   2   2   2   2
#     4  11  22  41  67  93 128 172 214 260 323 378
#     4  10  21  41  68  88 124 171 209 264 322 369
#     4  10  22  44  66  90 122 168 218 264 316 370
#     4  10  22  42  65  93 128 166 213 265 313 381
#     4  11  22  41  63  94 130 168 216 264 314 386
#     4  11  23  38  64  97 130 167 213 258 319 384
#     4  11  23  38  61  98 133 168 208 264 317 380
#     4  11  23  38  65  93 130 172 211 259 326 376
#
# _framework density 22.337357999999998
#
# number of rings (size 3 to 8) (size 9 to 14) (size 15 to 20)
#    0.000    1.333    5.333    0.400    1.867    0.533 
#    0.000   11.333    2.933    0.000    0.000    0.000 
#    0.000    0.000    0.000    0.000    0.000    0.000 
#
# Total GULP energy -83516.736525 kJ/mol
# GULP energy per Si atom -5567.782435 kJ/mol
# Density = 2.228652 g / cm^3
# Si number density = 22.337358 Si / 1000 Ang^3
#
#
#
# Elastic Constant Matrix: (Units=GPa)
#
#
# Indices 1 2 3 4 5 6 
#
# 1 29.8707 25.2924 0.4430 -3.2787 0.0843 -0.2674
# 2 25.2924 112.3006 3.8903 -11.2257 -7.2627 11.8282
# 3 0.4430 3.8903 75.0809 12.7073 -11.9706 -9.7824
# 4 -3.2787 -11.2257 12.7073 41.0523 -4.4251 4.5851
# 5 0.0843 -7.2627 -11.9706 -4.4251 25.7812 2.2104
# 6 -0.2674 11.8282 -9.7824 4.5851 2.2104 23.9090
#
#
#
# Elastic Compliance Matrix: (Units=1/GPa)
#
#
# Indices 1 2 3 4 5 6 
#
# 1 0.042386 -0.010560 0.000727 -0.000825 -0.003473 0.006475
# 2 -0.010560 0.013010 -0.001832 0.004717 0.004397 -0.008615
# 3 0.000727 -0.001832 0.016321 -0.005835 0.005354 0.008216
# 4 -0.000825 0.004717 -0.005835 0.029076 0.004532 -0.010725
# 5 -0.003473 0.004397 0.005354 0.004532 0.043725 -0.004935
# 6 0.006475 -0.008615 0.008216 -0.010725 -0.004935 0.052034
#
#
# Mechanical properties :
#
#
# Convention : Reuss Voigt Hill
#
# Bulk Modulus (GPa) = 20.66691 30.72261 25.69476
# Shear Modulus (GPa) = 21.18539 30.65693 25.92116
#
# Velocity S-wave (km/s) = 3.08300 3.70868 3.41022
# Velocity P-wave (km/s) = 4.68459 5.66770 5.19944
#
# Compressibility (1/GPa) = 0.04838653
#
# Stress axis : x y z
#
# Youngs Moduli (GPa) = 23.59279 76.86501 61.26954
#
# Poissons Ratio (x) = 0.81172 -0.04452
# Poissons Ratio (y) = 0.24915 0.11222
# Poissons Ratio (z) = -0.01714 0.14078
#
# Static dielectric constant tensor:
#      x y z
#    x 1.831050 0.033970 -0.017770 
#    y 0.033970 1.838860 -0.007560 
#    z -0.017770 -0.007560 1.847050 
# 
# From -- ./inp_files/83111.got.cif
#   From: 2010.05.17/outbox.cif.g08.bks.cpg/sg2_42_cif.got.tgz:83111.got - 2010.06.03 11:33:40.
