data_PCOD9014761
_publ_section_title
;
Structure prediction by ZEFSAII (Michael W. Deem and Ramdas Pophale) SiO2 
 PCOD9014761
Probable space group: P -1
;
_chemical_formula_sum "Si O2"
_cell_formula_units_Z 14
_cell_length_a 15.167041
_cell_length_b 23.565363
_cell_length_c 14.113790
_cell_angle_alpha 20.245169
_cell_angle_beta 31.306994
_cell_angle_gamma 19.143363
_cell_volume 549.290118
_symmetry_space_group_name_H-M "P -1"
_symmetry_group_IT_number 2
_symmetry_cell_setting 'triclinic'
loop_
_space_group_symop_operation_xyz
x,y,z
-x,-y,-z
loop_
_atom_site_type_symbol
_atom_site_label
_atom_site_fract_x
_atom_site_fract_y
_atom_site_fract_z
Si Si1 0.315868 0.045908 0.966811
Si Si2 0.684177 0.198914 0.823571
Si Si3 0.908013 0.267780 0.264611
Si Si4 0.304259 0.253812 0.214725
Si Si5 0.161616 0.027745 0.610982
Si Si6 0.443083 0.726658 0.509665
Si Si7 0.320799 0.388527 0.333282
O O1 0.401497 0.144442 0.678581
O O2 0.998051 0.337326 0.833896
O O3 0.290251 0.930071 0.091324
O O4 0.508984 0.818816 0.227721
O O5 0.500000 0.500000 0.500000
O O6 0.990427 0.037719 0.821078
O O7 0.510246 0.216515 0.026353
O O8 0.633463 0.378742 0.311498
O O9 0.000378 0.138906 0.485458
O O10 0.880818 0.482861 0.964148
O O11 0.154575 0.018454 0.361130
O O12 0.148489 0.229284 0.338379
O O13 0.500000 0.000000 0.500000
O O14 0.475415 0.740187 0.740697
O O15 0.630959 0.553700 0.701492
#
# Coordination Sequence:
#
# PCOD9014761 Si02
#       7
#     2   2   2   2   2   2   2
#     4  11  22  43  69 106 144 184 241 296 353 431
#     4  12  25  45  75 104 140 192 244 286 357 442
#     4  10  22  42  67 102 137 181 240 285 349 434
#     4  12  27  44  71 104 144 184 236 303 353 426
#     4  11  23  46  73  99 141 197 230 294 367 414
#     4  10  21  41  69 104 137 187 236 294 356 422
#     4  10  24  40  71 106 143 185 235 296 362 424
#
# _framework density 25.487442000000001
#
# number of rings (size 3 to 8) (size 9 to 14) (size 15 to 20)
#    0.000    1.143    4.286    0.857    2.000    2.286 
#    0.000    2.857    0.000    0.000    0.000    0.000 
#    0.000    0.000    0.000    0.000    0.000    0.000 
#
# Total GULP energy -78293.115693 kJ/mol
# GULP energy per Si atom -5592.365407 kJ/mol
# Density = 2.542943 g / cm^3
# Si number density = 25.487442 Si / 1000 Ang^3
#
#
#
# Elastic Constant Matrix: (Units=GPa)
#
#
# Indices 1 2 3 4 5 6 
#
# 1 94.4990 7.8405 43.1235 21.9553 -25.9993 -0.9991
# 2 7.8405 104.8170 26.0257 22.9320 -9.2525 5.1614
# 3 43.1235 26.0257 108.7029 25.6057 -18.0913 10.9262
# 4 21.9553 22.9320 25.6057 37.4506 -6.5293 -9.2029
# 5 -25.9993 -9.2525 -18.0913 -6.5293 54.2969 -2.3650
# 6 -0.9991 5.1614 10.9262 -9.2029 -2.3650 23.4995
#
#
#
# Elastic Compliance Matrix: (Units=1/GPa)
#
#
# Indices 1 2 3 4 5 6 
#
# 1 0.015269 0.001689 -0.004147 -0.006101 0.005500 0.000370
# 2 0.001689 0.011941 -0.000607 -0.009056 0.001305 -0.005684
# 3 -0.004147 -0.000607 0.014431 -0.009401 0.001139 -0.010320
# 4 -0.006101 -0.009056 -0.009401 0.048254 -0.000709 0.024927
# 5 0.005500 0.001305 0.001139 -0.000709 0.021625 0.001316
# 6 0.000370 -0.005684 -0.010320 0.024927 0.001316 0.058511
#
#
# Mechanical properties :
#
#
# Convention : Reuss Voigt Hill
#
# Bulk Modulus (GPa) = 28.15936 51.33315 39.74626
# Shear Modulus (GPa) = 26.59614 38.45134 32.52374
#
# Velocity S-wave (km/s) = 3.23383 3.88833 3.57609
# Velocity P-wave (km/s) = 5.00158 6.35162 5.71660
#
# Compressibility (1/GPa) = 0.03551217
#
# Stress axis : x y z
#
# Youngs Moduli (GPa) = 65.49349 83.74281 69.29404
#
# Poissons Ratio (x) = -0.14148 0.28733
# Poissons Ratio (y) = -0.11065 0.04209
# Poissons Ratio (z) = 0.27157 0.05087
#
# Static dielectric constant tensor:
#      x y z
#    x 2.169890 -0.096770 -0.046300 
#    y -0.096770 2.167630 0.079840 
#    z -0.046300 0.079840 2.038840 
# 
# From -- ./inp_files/426545.got.cif
#   From: 2010.05.17/outbox.cif.g08.bks.cpg/sg2_214_cif.got.tgz:426545.got - 2010.06.03 11:33:40.
