data_PCOD9014877
_publ_section_title
;
Structure prediction by ZEFSAII (Michael W. Deem and Ramdas Pophale) SiO2 
 PCOD9014877
Probable space group: P -1
;
_chemical_formula_sum "Si O2"
_cell_formula_units_Z 14
_cell_length_a 5.397719
_cell_length_b 14.141793
_cell_length_c 9.101563
_cell_angle_alpha 87.640601
_cell_angle_beta 61.416853
_cell_angle_gamma 77.772702
_cell_volume 594.773160
_symmetry_space_group_name_H-M "P -1"
_symmetry_group_IT_number 2
_symmetry_cell_setting 'triclinic'
loop_
_space_group_symop_operation_xyz
x,y,z
-x,-y,-z
loop_
_atom_site_type_symbol
_atom_site_label
_atom_site_fract_x
_atom_site_fract_y
_atom_site_fract_z
Si Si1 0.036258 0.404354 0.089222
Si Si2 0.310080 0.693759 0.174028
Si Si3 0.268778 0.073067 0.155968
Si Si4 0.506745 0.262174 0.592287
Si Si5 0.029383 0.224574 0.963134
Si Si6 0.921491 0.543814 0.361749
Si Si7 0.614819 0.077973 0.364640
O O1 0.927519 0.447540 0.271964
O O2 0.367241 0.350923 0.969769
O O3 0.873839 0.327059 0.073502
O O4 0.000000 0.500000 0.000000
O O5 0.250202 0.730218 0.357323
O O6 0.207213 0.786422 0.089643
O O7 0.153474 0.602279 0.226131
O O8 0.434803 0.089216 0.260061
O O9 0.964199 0.039727 0.264594
O O10 0.151542 0.160420 0.069269
O O11 0.500000 0.000000 0.000000
O O12 0.280274 0.232168 0.774843
O O13 0.366769 0.370891 0.570739
O O14 0.571106 0.181891 0.453907
O O15 0.000000 0.500000 0.500000
O O16 0.500000 0.000000 0.500000
#
# Coordination Sequence:
#
# PCOD9014877 Si02
#       7
#     2   2   2   2   2   2   2
#     4  11  20  41  63 101 138 201 243 291 359 429
#     4  10  21  41  69  97 143 195 243 296 367 434
#     4  12  29  53  82 117 145 194 256 315 378 458
#     4  10  24  44  69 102 143 193 240 303 381 437
#     4  10  24  41  75 101 146 188 254 308 360 447
#     4  11  24  37  62  99 146 186 248 298 358 433
#     4  12  29  53  81 112 154 194 241 315 394 460
#
# _framework density 23.538385999999999
#
# number of rings (size 3 to 8) (size 9 to 14) (size 15 to 20)
#    0.000    1.143    4.286    2.143   10.000    0.571 
#    5.143    0.000    0.000    0.000    0.000    0.000 
#    0.000    0.000    0.000    0.000    0.000    0.000 
#
# Total GULP energy -78001.020516 kJ/mol
# GULP energy per Si atom -5571.501465 kJ/mol
# Density = 2.348481 g / cm^3
# Si number density = 23.538386 Si / 1000 Ang^3
#
#
#
# Elastic Constant Matrix: (Units=GPa)
#
#
# Indices 1 2 3 4 5 6 
#
# 1 116.7421 44.3302 65.2629 6.1518 22.7831 -11.4626
# 2 44.3302 101.2722 74.6886 7.1621 28.0768 -18.6276
# 3 65.2629 74.6886 148.0108 7.4571 37.0567 -11.0512
# 4 6.1518 7.1621 7.4571 40.4643 -4.3782 5.0175
# 5 22.7831 28.0768 37.0567 -4.3782 59.7484 -13.7960
# 6 -11.4626 -18.6276 -11.0512 5.0175 -13.7960 27.2816
#
#
#
# Elastic Compliance Matrix: (Units=1/GPa)
#
#
# Indices 1 2 3 4 5 6 
#
# 1 0.011822 -0.001498 -0.004014 -0.001148 -0.000922 0.002063
# 2 -0.001498 0.018138 -0.007293 -0.002872 -0.001681 0.008478
# 3 -0.004014 -0.007293 0.012956 -0.000498 -0.003873 -0.003285
# 4 -0.001148 -0.002872 -0.000498 0.026540 0.002608 -0.006207
# 5 -0.000922 -0.001681 -0.003873 0.002608 0.022241 0.007663
# 6 0.002063 0.008478 -0.003285 -0.006207 0.007663 0.046997
#
#
# Mechanical properties :
#
#
# Convention : Reuss Voigt Hill
#
# Bulk Modulus (GPa) = 57.78859 81.62096 69.70477
# Shear Modulus (GPa) = 29.39948 37.61509 33.50728
#
# Velocity S-wave (km/s) = 3.53796 4.00188 3.77705
# Velocity P-wave (km/s) = 6.42601 7.49028 6.97846
#
# Compressibility (1/GPa) = 0.01730446
#
# Stress axis : x y z
#
# Youngs Moduli (GPa) = 84.59038 55.13372 77.18571
#
# Poissons Ratio (x) = 0.08261 0.30981
# Poissons Ratio (y) = 0.12674 0.56294
# Poissons Ratio (z) = 0.33953 0.40211
#
# Static dielectric constant tensor:
#      x y z
#    x -6.261950 -0.072670 -2.670080 
#    y -0.072670 1.890120 -0.097060 
#    z -2.670080 -0.097060 0.970860 
# 
# From -- ./inp_files/134257.got.cif
#   From: 2010.05.17/outbox.cif.g08.bks.cpg/sg2_68_cif.got.tgz:134257.got - 2010.06.03 11:33:40.
