data_PCOD9014931
_publ_section_title
;
Structure prediction by ZEFSAII (Michael W. Deem and Ramdas Pophale) SiO2 
 PCOD9014931
Probable space group: P -1
;
_chemical_formula_sum "Si O2"
_cell_formula_units_Z 14
_cell_length_a 8.631097
_cell_length_b 11.291119
_cell_length_c 9.393190
_cell_angle_alpha 83.596910
_cell_angle_beta 46.585233
_cell_angle_gamma 65.046848
_cell_volume 580.334987
_symmetry_space_group_name_H-M "P -1"
_symmetry_group_IT_number 2
_symmetry_cell_setting 'triclinic'
loop_
_space_group_symop_operation_xyz
x,y,z
-x,-y,-z
loop_
_atom_site_type_symbol
_atom_site_label
_atom_site_fract_x
_atom_site_fract_y
_atom_site_fract_z
Si Si1 0.595733 0.099275 0.357992
Si Si2 0.782955 0.358442 0.998030
Si Si3 0.778035 0.500678 0.725488
Si Si4 0.021274 0.896190 0.268474
Si Si5 0.642348 0.340059 0.390421
Si Si6 0.495248 0.119186 0.083420
Si Si7 0.025382 0.758482 0.541672
O O1 0.496684 0.257726 0.445479
O O2 0.575556 0.090358 0.202571
O O3 0.500000 0.000000 0.500000
O O4 0.868391 0.031162 0.257294
O O5 0.501100 0.392795 0.143856
O O6 0.804480 0.339791 0.154609
O O7 0.810825 0.473548 0.877481
O O8 0.972046 0.219282 0.824068
O O9 0.000000 0.500000 0.500000
O O10 0.808849 0.360918 0.654739
O O11 0.922552 0.890779 0.487771
O O12 0.297466 0.858369 0.121932
O O13 0.500000 0.500000 0.500000
O O14 0.804769 0.259919 0.432288
O O15 0.218861 0.240077 0.247910
O O16 0.500000 0.000000 0.000000
#
# Coordination Sequence:
#
# PCOD9014931 Si02
#       7
#     2   2   2   2   2   2   2
#     4  12  27  49  76 109 149 198 252 311 381 449
#     4  10  22  42  70 102 143 198 246 295 386 436
#     4  10  21  41  70 101 143 196 252 306 367 448
#     4  11  24  47  75 104 150 196 249 316 374 445
#     4  12  26  48  74 109 157 200 248 315 380 452
#     4  12  26  43  72 112 143 191 253 312 376 449
#     4  11  25  44  70 107 149 196 251 308 376 447
#
# _framework density 24.123998
#
# number of rings (size 3 to 8) (size 9 to 14) (size 15 to 20)
#    0.000    0.857    4.286    2.143    4.000    1.143 
#    0.000    2.143    0.000    0.000    0.000    0.000 
#    0.000    0.000    0.000    0.000    0.000    0.000 
#
# Total GULP energy -78093.109443 kJ/mol
# GULP energy per Si atom -5578.079246 kJ/mol
# Density = 2.406909 g / cm^3
# Si number density = 24.123998 Si / 1000 Ang^3
#
#
#
# Elastic Constant Matrix: (Units=GPa)
#
#
# Indices 1 2 3 4 5 6 
#
# 1 87.3473 37.2614 40.1740 -2.1150 23.6224 0.6008
# 2 37.2614 94.2829 36.2208 4.8016 15.8269 7.3506
# 3 40.1740 36.2208 109.5581 -19.1789 8.8761 6.6566
# 4 -2.1150 4.8016 -19.1789 51.2914 -5.7190 -4.7017
# 5 23.6224 15.8269 8.8761 -5.7190 56.4493 -6.8702
# 6 0.6008 7.3506 6.6566 -4.7017 -6.8702 29.5678
#
#
#
# Elastic Compliance Matrix: (Units=1/GPa)
#
#
# Indices 1 2 3 4 5 6 
#
# 1 0.016606 -0.003866 -0.004620 -0.001241 -0.005234 0.000250
# 2 -0.003866 0.014413 -0.003500 -0.003476 -0.002699 -0.003896
# 3 -0.004620 -0.003500 0.012797 0.004993 0.001309 -0.000819
# 4 -0.001241 -0.003476 0.004993 0.022405 0.003482 0.004137
# 5 -0.005234 -0.002699 0.001309 0.003482 0.021545 0.006042
# 6 0.000250 -0.003896 -0.000819 0.004137 0.006042 0.037030
#
#
# Mechanical properties :
#
#
# Convention : Reuss Voigt Hill
#
# Bulk Modulus (GPa) = 50.39378 57.61118 54.00248
# Shear Modulus (GPa) = 32.17870 39.29717 35.73794
#
# Velocity S-wave (km/s) = 3.65620 4.04042 3.85311
# Velocity P-wave (km/s) = 6.22564 6.76016 6.49840
#
# Compressibility (1/GPa) = 0.01984372
#
# Stress axis : x y z
#
# Youngs Moduli (GPa) = 60.21845 69.38270 78.14533
#
# Poissons Ratio (x) = 0.26822 0.36101
# Poissons Ratio (y) = 0.23279 0.27355
# Poissons Ratio (z) = 0.27820 0.24287
#
# Static dielectric constant tensor:
#      x y z
#    x 1.957390 0.070720 -0.027650 
#    y 0.070720 2.099640 -0.005450 
#    z -0.027650 -0.005450 1.892080 
# 
# From -- ./inp_files/186302.got.cif
#   From: 2010.05.17/outbox.cif.g08.bks.cpg/sg2_94_cif.got.tgz:186302.got - 2010.06.03 11:33:40.
