data_PCOD9014534
_publ_section_title
;
Structure prediction by ZEFSAII (Michael W. Deem and Ramdas Pophale) SiO2 
 PCOD9014534
Probable space group: P -1
;
_chemical_formula_sum "Si O2"
_cell_formula_units_Z 15
_cell_length_a 11.489075
_cell_length_b 21.173492
_cell_length_c 8.653872
_cell_angle_alpha 36.992111
_cell_angle_beta 134.658924
_cell_angle_gamma 150.037950
_cell_volume 632.203148
_symmetry_space_group_name_H-M "P -1"
_symmetry_group_IT_number 2
_symmetry_cell_setting 'triclinic'
loop_
_space_group_symop_operation_xyz
x,y,z
-x,-y,-z
loop_
_atom_site_type_symbol
_atom_site_label
_atom_site_fract_x
_atom_site_fract_y
_atom_site_fract_z
Si Si1 0.219776 0.903841 0.047246
Si Si2 0.971728 0.813799 0.686555
Si Si3 0.510246 0.333718 0.069928
Si Si4 0.974483 0.964639 0.867406
Si Si5 0.500000 0.500000 0.000000
Si Si6 0.936447 0.403168 0.482158
Si Si7 0.245051 0.589550 0.139913
Si Si8 0.376747 0.886961 0.752798
O O1 0.155745 0.753660 0.262641
O O2 0.473810 0.032093 0.108206
O O3 0.143110 0.919090 0.784204
O O4 0.064715 0.890682 0.057165
O O5 0.124868 0.820909 0.688384
O O6 0.754552 0.648500 0.868250
O O7 0.888830 0.884788 0.395242
O O8 0.293791 0.156279 0.196514
O O9 0.728601 0.369974 0.270613
O O10 0.449177 0.396597 0.008851
O O11 0.590214 0.400047 0.841265
O O12 0.000000 0.000000 0.000000
O O13 0.000000 0.500000 0.500000
O O14 0.167104 0.501093 0.399718
O O15 0.354078 0.753468 0.955021
O O16 0.000000 0.500000 0.000000
O O17 0.500000 0.000000 0.500000
#
# Coordination Sequence:
#
# PCOD9014534 Si02
#       8
#     2   2   2   2   1   2   2   2
#     4  12  25  46  71 114 146 198 259 315 383 451
#     4  12  26  50  74 111 152 201 253 318 383 467
#     4  11  24  46  72 106 150 201 251 316 381 463
#     4  12  27  49  74 108 153 200 255 312 391 461
#     4  12  26  48  78 106 156 206 252 306 404 458
#     4  11  24  45  76 109 152 194 261 320 384 461
#     4  10  21  41  68 106 145 195 249 313 377 442
#     4  12  24  45  80 111 149 200 262 321 380 450
#
# _framework density 23.726552000000002
#
# number of rings (size 3 to 8) (size 9 to 14) (size 15 to 20)
#    0.000    0.533    1.333    8.800    0.000    2.133 
#    7.200    1.333    0.000    0.000    0.000    0.000 
#    0.000    0.000    0.000    0.000    0.000    0.000 
#
# Total GULP energy -83750.245128 kJ/mol
# GULP energy per Si atom -5583.349675 kJ/mol
# Density = 2.367255 g / cm^3
# Si number density = 23.726552 Si / 1000 Ang^3
#
#
#
# Elastic Constant Matrix: (Units=GPa)
#
#
# Indices 1 2 3 4 5 6 
#
# 1 161.7164 28.1900 30.5128 -17.4482 -16.8735 -13.4939
# 2 28.1900 122.2533 46.4312 -17.0514 -1.2178 -12.8185
# 3 30.5128 46.4312 66.1524 -6.2302 -12.8205 -12.0295
# 4 -17.4482 -17.0514 -6.2302 21.6346 2.2913 -4.0005
# 5 -16.8735 -1.2178 -12.8205 2.2913 31.4010 -9.9567
# 6 -13.4939 -12.8185 -12.0295 -4.0005 -9.9567 51.9124
#
#
#
# Elastic Compliance Matrix: (Units=1/GPa)
#
#
# Indices 1 2 3 4 5 6 
#
# 1 0.007799 0.000045 -0.001796 0.005915 0.003925 0.002831
# 2 0.000045 0.012626 -0.008527 0.008085 -0.003188 0.001165
# 3 -0.001796 -0.008527 0.024784 -0.001205 0.010527 0.005097
# 4 0.005915 0.008085 -0.001205 0.058362 0.001278 0.007997
# 5 0.003925 -0.003188 0.010527 0.001278 0.041435 0.010718
# 6 0.002831 0.001165 0.005097 0.007997 0.010718 0.024140
#
#
# Mechanical properties :
#
#
# Convention : Reuss Voigt Hill
#
# Bulk Modulus (GPa) = 40.56574 62.26556 51.41565
# Shear Modulus (GPa) = 25.26286 37.32216 31.29251
#
# Velocity S-wave (km/s) = 3.26659 3.97042 3.63558
# Velocity P-wave (km/s) = 5.60016 6.87888 6.27219
#
# Compressibility (1/GPa) = 0.02465134
#
# Stress axis : x y z
#
# Youngs Moduli (GPa) = 128.22619 79.20131 40.34897
#
# Poissons Ratio (x) = -0.00355 0.07247
# Poissons Ratio (y) = -0.00575 0.34407
# Poissons Ratio (z) = 0.23030 0.67538
#
# Static dielectric constant tensor:
#      x y z
#    x 1.924240 0.043870 -0.026150 
#    y 0.043870 1.884940 0.044860 
#    z -0.026150 0.044860 1.926660 
# 
# From -- ./inp_files/281528.got.cif
#   From: 2010.05.17/outbox.cif.g08.bks.cpg/sg2_141_cif.got.tgz:281528.got - 2010.06.03 11:33:40.
