data_PCOD9014018
_publ_section_title
;
Structure prediction by ZEFSAII (Michael W. Deem and Ramdas Pophale) SiO2 
 PCOD9014018
Probable space group: P -1
;
_chemical_formula_sum "Si O2"
_cell_formula_units_Z 16
_cell_length_a 15.884315
_cell_length_b 6.445695
_cell_length_c 8.827011
_cell_angle_alpha 92.792582
_cell_angle_beta 51.500129
_cell_angle_gamma 93.296173
_cell_volume 706.022490
_symmetry_space_group_name_H-M "P -1"
_symmetry_group_IT_number 2
_symmetry_cell_setting 'triclinic'
loop_
_space_group_symop_operation_xyz
x,y,z
-x,-y,-z
loop_
_atom_site_type_symbol
_atom_site_label
_atom_site_fract_x
_atom_site_fract_y
_atom_site_fract_z
Si Si1 0.761484 0.248942 0.225141
Si Si2 0.123643 0.418322 0.685172
Si Si3 0.954953 0.223511 0.432351
Si Si4 0.535740 0.484924 0.194211
Si Si5 0.068732 0.857274 0.197991
Si Si6 0.494217 0.757942 0.512265
Si Si7 0.420116 0.803505 0.116680
Si Si8 0.234067 0.034342 0.501798
O O1 0.831161 0.443507 0.222368
O O2 0.634782 0.292572 0.360217
O O3 0.774494 0.058430 0.322404
O O4 0.816763 0.189660 0.003842
O O5 0.083045 0.580517 0.611775
O O6 0.223906 0.280982 0.517739
O O7 0.023054 0.252339 0.813002
O O8 0.952578 0.244552 0.616123
O O9 0.866463 0.044324 0.488362
O O10 0.057612 0.105849 0.246268
O O11 0.565115 0.649456 0.300991
O O12 0.470134 0.316704 0.365129
O O13 0.472146 0.633322 0.160453
O O14 0.608444 0.336768 0.005154
O O15 0.500000 0.000000 0.500000
O O16 0.328034 0.913559 0.313884
O O17 0.500000 0.000000 0.000000
#
# Coordination Sequence:
#
# PCOD9014018 Si02
#       8
#     2   2   2   2   2   2   2   2
#     4  11  24  40  65  93 131 166 218 264 319 393
#     4  10  22  40  67  94 128 169 209 264 321 387
#     4   9  21  41  64  92 132 164 209 265 315 388
#     4  10  24  42  68  91 127 172 219 274 324 389
#     4  10  21  41  66  94 128 167 207 267 325 378
#     4  11  24  45  65  94 135 175 216 272 331 381
#     4  11  23  41  68  96 128 174 219 272 331 387
#     4  10  23  40  61  94 131 168 212 264 317 386
#
# _framework density 22.662168000000001
#
# number of rings (size 3 to 8) (size 9 to 14) (size 15 to 20)
#    0.000    1.750    1.250    1.500    3.500    7.500 
#    0.000    0.000    0.000    0.000    0.000    0.000 
#    0.000    0.000    0.000    0.000    0.000    0.000 
#
# Total GULP energy -89161.185285 kJ/mol
# GULP energy per Si atom -5572.574080 kJ/mol
# Density = 2.261059 g / cm^3
# Si number density = 22.662168 Si / 1000 Ang^3
#
#
#
# Elastic Constant Matrix: (Units=GPa)
#
#
# Indices 1 2 3 4 5 6 
#
# 1 68.2775 21.3534 22.1844 6.8920 3.3044 -6.7487
# 2 21.3534 139.3313 55.5558 35.6531 9.7712 -21.1617
# 3 22.1844 55.5558 112.0922 35.6705 14.4343 0.2877
# 4 6.8920 35.6531 35.6705 33.4893 -1.6229 -4.7322
# 5 3.3044 9.7712 14.4343 -1.6229 22.5794 -0.7507
# 6 -6.7487 -21.1617 0.2877 -4.7322 -0.7507 26.3499
#
#
#
# Elastic Compliance Matrix: (Units=1/GPa)
#
#
# Indices 1 2 3 4 5 6 
#
# 1 0.016228 -0.001141 -0.003358 0.001993 0.000530 0.003650
# 2 -0.001141 0.012098 -0.002321 -0.009282 -0.003997 0.007668
# 3 -0.003358 -0.002321 0.017614 -0.017031 -0.011198 -0.006294
# 4 0.001993 -0.009282 -0.017031 0.059012 0.019000 0.004381
# 5 0.000530 -0.003997 -0.011198 0.019000 0.054531 0.002014
# 6 0.003650 0.007668 -0.006294 0.004381 0.002014 0.045957
#
#
# Mechanical properties :
#
#
# Convention : Reuss Voigt Hill
#
# Bulk Modulus (GPa) = 30.96100 57.54315 44.25208
# Shear Modulus (GPa) = 21.75362 31.19089 26.47225
#
# Velocity S-wave (km/s) = 3.10160 3.71393 3.42149
# Velocity P-wave (km/s) = 5.14958 6.62102 5.93111
#
# Compressibility (1/GPa) = 0.03229870
#
# Stress axis : x y z
#
# Youngs Moduli (GPa) = 61.62213 82.66061 56.77249
#
# Poissons Ratio (x) = 0.09431 0.19066
# Poissons Ratio (y) = 0.07031 0.13179
# Poissons Ratio (z) = 0.20694 0.19188
#
# Static dielectric constant tensor:
#      x y z
#    x 1.899510 -0.015220 -0.003510 
#    y -0.015220 1.880400 0.061390 
#    z -0.003510 0.061390 1.903160 
# 
# From -- ./inp_files/90795.got.cif
#   From: 2010.05.17/outbox.cif.g08.bks.cpg/sg2_46_cif.got.tgz:90795.got - 2010.06.03 11:33:40.
