data_PCOD9014819
_publ_section_title
;
Structure prediction by ZEFSAII (Michael W. Deem and Ramdas Pophale) SiO2 
 PCOD9014819
Probable space group: P -1
;
_chemical_formula_sum "Si O2"
_cell_formula_units_Z 16
_cell_length_a 13.710477
_cell_length_b 9.293317
_cell_length_c 5.145252
_cell_angle_alpha 69.521259
_cell_angle_beta 102.510808
_cell_angle_gamma 98.025146
_cell_volume 598.110132
_symmetry_space_group_name_H-M "P -1"
_symmetry_group_IT_number 2
_symmetry_cell_setting 'triclinic'
loop_
_space_group_symop_operation_xyz
x,y,z
-x,-y,-z
loop_
_atom_site_type_symbol
_atom_site_label
_atom_site_fract_x
_atom_site_fract_y
_atom_site_fract_z
Si Si1 0.564443 0.165318 0.673490
Si Si2 0.036325 0.231678 0.239154
Si Si3 0.938441 0.334916 0.611172
Si Si4 0.791227 0.494718 0.768077
Si Si5 0.689409 0.257812 0.203294
Si Si6 0.413385 0.373346 0.614626
Si Si7 0.342759 0.153162 0.084857
Si Si8 0.782669 0.940263 0.444233
O O1 0.618761 0.257168 0.411312
O O2 0.452749 0.217435 0.605419
O O3 0.581920 0.984780 0.767090
O O4 0.620069 0.217899 0.937373
O O5 0.117850 0.379663 0.207838
O O6 0.102168 0.093394 0.447654
O O7 0.952882 0.259393 0.388055
O O8 0.991334 0.234008 0.923897
O O9 0.834565 0.373654 0.665019
O O10 0.000000 0.500000 0.500000
O O11 0.693018 0.568231 0.558593
O O12 0.755869 0.408794 0.064878
O O13 0.755790 0.113500 0.366555
O O14 0.500000 0.500000 0.500000
O O15 0.400272 0.315759 0.941412
O O16 0.271188 0.151392 0.290093
O O17 0.266906 0.111262 0.825871
#
# Coordination Sequence:
#
# PCOD9014819 Si02
#       8
#     2   2   2   2   2   2   2   2
#     4  10  23  43  62  89 129 173 216 256 305 383
#     4  11  22  42  69  95 123 163 223 258 315 383
#     4  10  23  41  64  98 126 165 208 268 319 381
#     4  11  23  42  65  95 134 168 206 268 327 371
#     4  10  23  42  63  92 132 167 208 261 324 369
#     4  12  24  42  65 100 131 169 218 261 313 383
#     4  10  22  42  64  91 128 171 213 258 316 364
#     4  10  21  41  69  94 121 168 217 262 307 384
#
# _framework density 26.750928999999999
#
# number of rings (size 3 to 8) (size 9 to 14) (size 15 to 20)
#    0.000    1.500    2.500    2.625    1.750    5.500 
#    0.000    5.000    0.000    0.000    0.000    0.000 
#    0.000    0.000    0.000    0.000    0.000    0.000 
#
# Total GULP energy -89777.192013 kJ/mol
# GULP energy per Si atom -5611.074501 kJ/mol
# Density = 2.669004 g / cm^3
# Si number density = 26.750929 Si / 1000 Ang^3
#
#
#
# Elastic Constant Matrix: (Units=GPa)
#
#
# Indices 1 2 3 4 5 6 
#
# 1 181.9968 23.2679 67.1825 -7.0145 -3.2344 -19.6613
# 2 23.2679 56.8522 21.1136 -9.8597 -9.1476 -8.6607
# 3 67.1825 21.1136 173.2642 1.3033 -19.8560 -12.5747
# 4 -7.0145 -9.8597 1.3033 37.9385 -10.2241 2.8053
# 5 -3.2344 -9.1476 -19.8560 -10.2241 45.6676 -11.3173
# 6 -19.6613 -8.6607 -12.5747 2.8053 -11.3173 47.0842
#
#
#
# Elastic Compliance Matrix: (Units=1/GPa)
#
#
# Indices 1 2 3 4 5 6 
#
# 1 0.006776 -0.001535 -0.002340 0.000738 -0.000228 0.001824
# 2 -0.001535 0.021399 -0.001049 0.006691 0.006239 0.004116
# 3 -0.002340 -0.001049 0.007277 -0.000229 0.003118 0.001537
# 4 0.000738 0.006691 -0.000229 0.030413 0.008527 0.001715
# 5 -0.000228 0.006239 0.003118 0.008527 0.028430 0.008211
# 6 0.001824 0.004116 0.001537 0.001715 0.008211 0.025039
#
#
# Mechanical properties :
#
#
# Convention : Reuss Voigt Hill
#
# Bulk Modulus (GPa) = 39.05600 70.58237 54.81919
# Shear Modulus (GPa) = 36.30673 46.17467 41.24070
#
# Velocity S-wave (km/s) = 3.68803 4.15914 3.93065
# Velocity P-wave (km/s) = 5.72425 7.03611 6.41381
#
# Compressibility (1/GPa) = 0.02560426
#
# Stress axis : x y z
#
# Youngs Moduli (GPa) = 147.58204 46.73213 137.41833
#
# Poissons Ratio (x) = 0.07174 0.32150
# Poissons Ratio (y) = 0.22656 0.14414
# Poissons Ratio (z) = 0.34528 0.04902
#
# Static dielectric constant tensor:
#      x y z
#    x 2.048540 0.064750 0.052210 
#    y 0.064750 2.161970 0.007040 
#    z 0.052210 0.007040 2.101960 
# 
# From -- ./inp_files/68561.got.cif
#   From: 2010.05.17/outbox.cif.g08.bks.cpg/sg2_35_cif.got.tgz:68561.got - 2010.06.03 11:33:40.
