data_PCOD9014147
_publ_section_title
;
Structure prediction by ZEFSAII (Michael W. Deem and Ramdas Pophale) SiO2 
 PCOD9014147
Probable space group: P -1
;
_chemical_formula_sum "Si O2"
_cell_formula_units_Z 10
_cell_length_a 12.781302
_cell_length_b 4.921740
_cell_length_c 18.246029
_cell_angle_alpha 105.155171
_cell_angle_beta 22.800802
_cell_angle_gamma 94.302127
_cell_volume 384.743217
_symmetry_space_group_name_H-M "P -1"
_symmetry_group_IT_number 2
_symmetry_cell_setting 'triclinic'
loop_
_space_group_symop_operation_xyz
x,y,z
-x,-y,-z
loop_
_atom_site_type_symbol
_atom_site_label
_atom_site_fract_x
_atom_site_fract_y
_atom_site_fract_z
Si Si1 0.627431 0.715690 0.133715
Si Si2 0.039991 0.286871 0.262832
Si Si3 0.421558 0.399426 0.123228
Si Si4 0.980411 0.956408 0.096380
Si Si5 0.343109 0.051782 0.487711
O O1 0.438209 0.633385 0.189789
O O2 0.856817 0.844096 0.963334
O O3 0.428053 0.961993 0.341315
O O4 0.828836 0.397666 0.025609
O O5 0.109590 0.383713 0.306281
O O6 0.936091 0.606774 0.306813
O O7 0.761273 0.201576 0.434132
O O8 0.333256 0.953385 0.040458
O O9 0.500000 0.500000 0.000000
O O10 0.631474 0.049243 0.341476
O O11 0.000000 0.000000 0.000000
#
# Coordination Sequence:
#
# PCOD9014147 Si02
#       5
#     2   2   2   2   2
#     4  11  24  40  72  95 126 172 213 253 324 383
#     4  11  24  42  67  88 135 165 211 268 319 362
#     4  11  26  47  63  89 136 177 209 258 323 381
#     4  10  21  41  66  99 132 160 203 270 326 373
#     4  11  21  42  67  99 123 159 216 273 309 372
#
# _framework density 25.991358999999999
#
# number of rings (size 3 to 8) (size 9 to 14) (size 15 to 20)
#    0.000    1.200    2.000    6.000    5.600    1.600 
#    0.000    6.000    0.000    0.000    0.000    0.000 
#    0.000    0.000    0.000    0.000    0.000    0.000 
#
# Total GULP energy -55991.817284 kJ/mol
# GULP energy per Si atom -5599.181728 kJ/mol
# Density = 2.593220 g / cm^3
# Si number density = 25.991359 Si / 1000 Ang^3
#
#
#
# Elastic Constant Matrix: (Units=GPa)
#
#
# Indices 1 2 3 4 5 6 
#
# 1 120.6842 40.7435 13.3096 15.9762 -3.8267 4.1480
# 2 40.7435 173.1523 27.4870 -2.5646 -12.3285 9.6128
# 3 13.3096 27.4870 56.6114 17.0348 -8.8875 2.0028
# 4 15.9762 -2.5646 17.0348 50.4644 1.8308 -2.9379
# 5 -3.8267 -12.3285 -8.8875 1.8308 27.7664 11.8429
# 6 4.1480 9.6128 2.0028 -2.9379 11.8429 62.6979
#
#
#
# Elastic Compliance Matrix: (Units=1/GPa)
#
#
# Indices 1 2 3 4 5 6 
#
# 1 0.009493 -0.002180 -0.000084 -0.003150 0.000770 -0.000584
# 2 -0.002180 0.007030 -0.003101 0.001947 0.002194 -0.001158
# 3 -0.000084 -0.003101 0.022896 -0.008244 0.007347 -0.002024
# 4 -0.003150 0.001947 -0.008244 0.023994 -0.004724 0.002190
# 5 0.000770 0.002194 0.007347 -0.004724 0.043633 -0.009085
# 6 -0.000584 -0.001158 -0.002024 0.002190 -0.009085 0.018049
#
#
# Mechanical properties :
#
#
# Convention : Reuss Voigt Hill
#
# Bulk Modulus (GPa) = 34.85811 57.05867 45.95839
# Shear Modulus (GPa) = 34.39104 46.11292 40.25198
#
# Velocity S-wave (km/s) = 3.64149 4.21665 3.93958
# Velocity P-wave (km/s) = 5.57863 6.76073 6.19793
#
# Compressibility (1/GPa) = 0.02868773
#
# Stress axis : x y z
#
# Youngs Moduli (GPa) = 105.34425 142.25221 43.67646
#
# Poissons Ratio (x) = 0.31006 0.00367
# Poissons Ratio (y) = 0.22962 0.13546
# Poissons Ratio (z) = 0.00886 0.44118
#
# Static dielectric constant tensor:
#      x y z
#    x 2.082490 0.076770 0.089060 
#    y 0.076770 2.040760 -0.071410 
#    z 0.089060 -0.071410 2.040630 
# 
# From -- ./inp_files/22185.got.cif
#   From: 2010.05.17/outbox.cif.g08.bks.cpg/sg2_12_cif.got.tgz:22185.got - 2010.06.03 11:33:40.
