data_PCOD9014428
_publ_section_title
;
Structure prediction by ZEFSAII (Michael W. Deem and Ramdas Pophale) SiO2 
 PCOD9014428
Probable space group: P -1
;
_chemical_formula_sum "Si O2"
_cell_formula_units_Z 15
_cell_length_a 12.773591
_cell_length_b 16.472343
_cell_length_c 8.360780
_cell_angle_alpha 110.228137
_cell_angle_beta 69.226266
_cell_angle_gamma 48.075158
_cell_volume 668.372014
_symmetry_space_group_name_H-M "P -1"
_symmetry_group_IT_number 2
_symmetry_cell_setting 'triclinic'
loop_
_space_group_symop_operation_xyz
x,y,z
-x,-y,-z
loop_
_atom_site_type_symbol
_atom_site_label
_atom_site_fract_x
_atom_site_fract_y
_atom_site_fract_z
Si Si1 0.652918 0.384945 0.669079
Si Si2 0.308050 0.490131 0.769168
Si Si3 0.000000 0.500000 0.500000
Si Si4 0.692853 0.547083 0.626812
Si Si5 0.771709 0.721657 0.491804
Si Si6 0.215480 0.100615 0.508592
Si Si7 0.894534 0.997907 0.668742
Si Si8 0.359091 0.280889 0.761307
O O1 0.462094 0.470257 0.707100
O O2 0.731515 0.424549 0.593783
O O3 0.907496 0.148587 0.391575
O O4 0.500000 0.500000 0.000000
O O5 0.314600 0.453429 0.560693
O O6 0.416480 0.340523 0.728425
O O7 0.007281 0.711270 0.123254
O O8 0.086576 0.542116 0.491223
O O9 0.263041 0.292935 0.324651
O O10 0.404107 0.775396 0.987073
O O11 0.727151 0.854373 0.594522
O O12 0.636957 0.772076 0.445726
O O13 0.074388 0.481270 0.133281
O O14 0.093486 0.105465 0.485183
O O15 0.455885 0.895620 0.336331
O O16 0.000000 0.000000 0.500000
#
# Coordination Sequence:
#
# PCOD9014428 Si02
#       8
#     2   2   1   2   2   2   2   2
#     4  12  24  45  74 102 137 182 239 298 345 417
#     4  11  24  44  70 104 142 180 231 299 362 406
#     4  12  24  46  68  98 156 186 220 292 360 422
#     4  12  27  46  69 105 146 185 232 292 362 417
#     4  10  22  41  64  96 137 192 234 286 345 417
#     4  11  22  40  70 101 135 185 242 284 344 431
#     4  12  24  43  71 105 133 184 239 290 354 415
#     4  10  21  41  67  97 137 186 240 283 347 419
#
# _framework density 22.442591
#
# number of rings (size 3 to 8) (size 9 to 14) (size 15 to 20)
#    0.000    0.800    4.000    3.200    1.867    1.600 
#    2.400    3.333    0.000    0.000    0.000    0.000 
#    0.000    0.000    0.000    0.000    0.000    0.000 
#
# Total GULP energy -83688.654902 kJ/mol
# GULP energy per Si atom -5579.243660 kJ/mol
# Density = 2.239151 g / cm^3
# Si number density = 22.442591 Si / 1000 Ang^3
#
#
#
# Elastic Constant Matrix: (Units=GPa)
#
#
# Indices 1 2 3 4 5 6 
#
# 1 182.7527 66.1588 13.1972 39.9682 -11.3886 21.8577
# 2 66.1588 156.8141 20.4392 59.4407 -9.3268 22.2304
# 3 13.1972 20.4392 43.8047 15.4847 7.9386 4.0087
# 4 39.9682 59.4407 15.4847 45.7331 -7.6066 6.4582
# 5 -11.3886 -9.3268 7.9386 -7.6066 26.0928 0.8327
# 6 21.8577 22.2304 4.0087 6.4582 0.8327 53.9207
#
#
#
# Elastic Compliance Matrix: (Units=1/GPa)
#
#
# Indices 1 2 3 4 5 6 
#
# 1 0.007125 -0.000938 -0.000288 -0.004354 0.001656 -0.001984
# 2 -0.000938 0.013291 0.000111 -0.016091 -0.000282 -0.003176
# 3 -0.000288 0.000111 0.029346 -0.011828 -0.012447 -0.000502
# 4 -0.004354 -0.016091 -0.011828 0.052016 0.011018 0.002878
# 5 0.001656 -0.000282 -0.012447 0.011018 0.045999 -0.001660
# 6 -0.001984 -0.003176 -0.000502 0.002878 -0.001660 0.020378
#
#
# Mechanical properties :
#
#
# Convention : Reuss Voigt Hill
#
# Bulk Modulus (GPa) = 21.03874 64.77355 42.90614
# Shear Modulus (GPa) = 26.84851 44.05440 35.45145
#
# Velocity S-wave (km/s) = 3.46254 4.43536 3.97879
# Velocity P-wave (km/s) = 5.03789 7.42660 6.34566
#
# Compressibility (1/GPa) = 0.04753136
#
# Stress axis : x y z
#
# Youngs Moduli (GPa) = 140.34821 75.23864 34.07571
#
# Poissons Ratio (x) = 0.07059 0.00982
# Poissons Ratio (y) = 0.13167 -0.00377
# Poissons Ratio (z) = 0.04044 -0.00833
#
# Static dielectric constant tensor:
#      x y z
#    x 1.801940 -0.013560 0.003000 
#    y -0.013560 1.870850 -0.017640 
#    z 0.003000 -0.017640 1.761200 
# 
# From -- ./inp_files/273647.got.cif
#   From: 2010.05.17/outbox.cif.g08.bks.cpg/sg2_137_cif.got.tgz:273647.got - 2010.06.03 11:33:40.
