data_PCOD9014046
_publ_section_title
;
Structure prediction by ZEFSAII (Michael W. Deem and Ramdas Pophale) SiO2 
 PCOD9014046
Probable space group: P -1
;
_chemical_formula_sum "Si O2"
_cell_formula_units_Z 16
_cell_length_a 12.131249
_cell_length_b 9.099608
_cell_length_c 28.499262
_cell_angle_alpha 29.538744
_cell_angle_beta 29.463918
_cell_angle_gamma 41.297869
_cell_volume 762.661657
_symmetry_space_group_name_H-M "P -1"
_symmetry_group_IT_number 2
_symmetry_cell_setting 'triclinic'
loop_
_space_group_symop_operation_xyz
x,y,z
-x,-y,-z
loop_
_atom_site_type_symbol
_atom_site_label
_atom_site_fract_x
_atom_site_fract_y
_atom_site_fract_z
Si Si1 0.310487 0.178755 0.731457
Si Si2 0.577813 0.794210 0.918749
Si Si3 0.792959 0.111126 0.576413
Si Si4 0.846829 0.819802 0.004371
Si Si5 0.260383 0.247218 0.624421
Si Si6 0.636133 0.182839 0.437309
Si Si7 0.920205 0.713924 0.898078
Si Si8 0.912121 0.153540 0.627772
O O1 0.537219 0.991026 0.696386
O O2 0.276467 0.313689 0.654786
O O3 0.344887 0.459334 0.675357
O O4 0.084758 0.993935 0.875309
O O5 0.729827 0.689275 0.935805
O O6 0.723719 0.034244 0.767073
O O7 0.500000 0.500000 0.000000
O O8 0.357419 0.969398 0.967362
O O9 0.778059 0.456976 0.472436
O O10 0.834791 0.082709 0.623509
O O11 0.000000 0.000000 0.500000
O O12 0.827601 0.722916 0.983539
O O13 0.886510 0.533293 0.102080
O O14 0.494469 0.123003 0.553891
O O15 0.055344 0.022048 0.754209
O O16 0.500000 0.000000 0.500000
O O17 0.878438 0.052676 0.383921
O O18 0.000000 0.500000 0.500000
#
# Coordination Sequence:
#
# PCOD9014046 Si02
#       8
#     2   2   2   2   2   2   2   2
#     4  10  21  42  66  95 128 170 229 271 339 399
#     4  12  27  46  68 103 146 184 228 288 359 419
#     4  11  22  40  67  99 132 172 222 281 332 407
#     4  10  24  46  74  97 133 186 239 289 332 420
#     4  10  21  41  66  95 128 172 218 282 339 395
#     4  11  21  38  63  88 132 173 207 268 336 411
#     4  10  23  47  70 102 131 181 243 283 345 404
#     4  12  26  42  61 102 133 173 225 275 347 407
#
# _framework density 20.979158000000002
#
# number of rings (size 3 to 8) (size 9 to 14) (size 15 to 20)
#    0.000    1.250    0.000    7.125    3.500    1.500 
#   13.500    0.000    0.000    0.000    0.000    0.000 
#    0.000    0.000    0.000    0.000    0.000    0.000 
#
# Total GULP energy -89340.619932 kJ/mol
# GULP energy per Si atom -5583.788746 kJ/mol
# Density = 2.093141 g / cm^3
# Si number density = 20.979158 Si / 1000 Ang^3
#
#
#
# Elastic Constant Matrix: (Units=GPa)
#
#
# Indices 1 2 3 4 5 6 
#
# 1 129.8162 29.3640 36.6616 5.6889 -23.9522 -3.6033
# 2 29.3640 105.1051 25.5237 18.3261 -14.9942 -8.0868
# 3 36.6616 25.5237 87.2793 9.0542 -10.2106 -1.3040
# 4 5.6889 18.3261 9.0542 28.1259 0.4407 -12.3612
# 5 -23.9522 -14.9942 -10.2106 0.4407 26.7180 2.0058
# 6 -3.6033 -8.0868 -1.3040 -12.3612 2.0058 31.5497
#
#
#
# Elastic Compliance Matrix: (Units=1/GPa)
#
#
# Indices 1 2 3 4 5 6 
#
# 1 0.010180 -0.000938 -0.003078 -0.000522 0.007424 0.000119
# 2 -0.000938 0.012271 -0.001781 -0.007453 0.005511 -0.000306
# 3 -0.003078 -0.001781 0.013800 -0.003428 0.001698 -0.001689
# 4 -0.000522 -0.007453 -0.003428 0.049584 -0.008117 0.017831
# 5 0.007424 0.005511 0.001698 -0.008117 0.048253 -0.003917
# 6 0.000119 -0.000306 -0.001689 0.017831 -0.003917 0.038797
#
#
# Mechanical properties :
#
#
# Convention : Reuss Voigt Hill
#
# Bulk Modulus (GPa) = 40.55413 56.14438 48.34925
# Shear Modulus (GPa) = 25.94733 32.65548 29.30141
#
# Velocity S-wave (km/s) = 3.52065 3.94962 3.74129
# Velocity P-wave (km/s) = 5.99160 6.90068 6.46215
#
# Compressibility (1/GPa) = 0.02465840
#
# Stress axis : x y z
#
# Youngs Moduli (GPa) = 98.22821 81.49289 72.46227
#
# Poissons Ratio (x) = 0.07641 0.22302
# Poissons Ratio (y) = 0.09210 0.12908
# Poissons Ratio (z) = 0.30232 0.14516
#
# Static dielectric constant tensor:
#      x y z
#    x 1.650920 0.002700 -0.008770 
#    y 0.002700 1.775820 0.009600 
#    z -0.008770 0.009600 1.793930 
# 
# From -- ./inp_files/618199.got.cif
#   From: 2010.05.17/outbox.cif.g08.bks.cpg/sg2_310_cif.got.tgz:618199.got - 2010.06.03 11:33:40.
