data_PCOD9014464
_publ_section_title
;
Structure prediction by ZEFSAII (Michael W. Deem and Ramdas Pophale) SiO2 
 PCOD9014464
Probable space group: P -1
;
_chemical_formula_sum "Si O2"
_cell_formula_units_Z 16
_cell_length_a 17.790497
_cell_length_b 9.220619
_cell_length_c 11.487844
_cell_angle_alpha 51.106770
_cell_angle_beta 151.312472
_cell_angle_gamma 132.765032
_cell_volume 661.326175
_symmetry_space_group_name_H-M "P -1"
_symmetry_group_IT_number 2
_symmetry_cell_setting 'triclinic'
loop_
_space_group_symop_operation_xyz
x,y,z
-x,-y,-z
loop_
_atom_site_type_symbol
_atom_site_label
_atom_site_fract_x
_atom_site_fract_y
_atom_site_fract_z
Si Si1 0.915055 0.660918 0.272160
Si Si2 0.783602 0.916482 0.114538
Si Si3 0.430702 0.652776 0.094449
Si Si4 0.790485 0.997905 0.585079
Si Si5 0.834172 0.313720 0.860641
Si Si6 0.324823 0.996790 0.844719
Si Si7 0.420536 0.870873 0.573267
Si Si8 0.336761 0.443585 0.383417
O O1 0.878169 0.769505 0.281062
O O2 0.000000 0.500000 0.500000
O O3 0.032308 0.824514 0.261142
O O4 0.731612 0.537070 0.040291
O O5 0.798675 0.984967 0.233595
O O6 0.583084 0.826373 0.861853
O O7 0.852342 0.108089 0.027114
O O8 0.585200 0.588911 0.371923
O O9 0.510331 0.805727 0.021786
O O10 0.377548 0.803636 0.029328
O O11 0.739746 0.011329 0.372421
O O12 0.660940 0.030001 0.487653
O O13 0.789034 0.773311 0.712550
O O14 0.740242 0.293546 0.619963
O O15 0.724182 0.373747 0.777921
O O16 0.000000 0.500000 0.000000
O O17 0.500000 0.000000 0.500000
O O18 0.500000 0.500000 0.500000
#
# Coordination Sequence:
#
# PCOD9014464 Si02
#       8
#     2   2   2   2   2   2   2   2
#     4  12  26  45  62 104 145 183 226 288 362 407
#     4  11  24  44  72  96 142 184 239 285 339 427
#     4  10  21  41  67  99 138 180 234 281 342 417
#     4  11  24  45  69 104 146 178 230 293 347 415
#     4  11  24  45  65 104 137 174 229 291 351 405
#     4  10  21  43  71 100 135 190 235 284 342 408
#     4  10  22  44  71  99 133 184 231 279 341 418
#     4  11  22  41  72  97 129 182 232 275 340 414
#
# _framework density 24.193811
#
# number of rings (size 3 to 8) (size 9 to 14) (size 15 to 20)
#    0.000    1.250    1.250    6.000    0.000    4.000 
#    4.500    3.750    0.000    0.000    0.000    0.000 
#    0.000    0.000    0.000    0.000    0.000    0.000 
#
# Total GULP energy -89311.975872 kJ/mol
# GULP energy per Si atom -5581.998492 kJ/mol
# Density = 2.413874 g / cm^3
# Si number density = 24.193811 Si / 1000 Ang^3
#
#
#
# Elastic Constant Matrix: (Units=GPa)
#
#
# Indices 1 2 3 4 5 6 
#
# 1 142.4994 25.3109 27.9000 -4.3853 9.9851 -25.6793
# 2 25.3109 124.9334 29.0227 19.9370 4.9824 -1.4405
# 3 27.9000 29.0227 49.6912 8.5116 -0.9860 -15.0445
# 4 -4.3853 19.9370 8.5116 51.3557 -4.4083 20.8915
# 5 9.9851 4.9824 -0.9860 -4.4083 31.8297 -7.1749
# 6 -25.6793 -1.4405 -15.0445 20.8915 -7.1749 32.3731
#
#
#
# Elastic Compliance Matrix: (Units=1/GPa)
#
#
# Indices 1 2 3 4 5 6 
#
# 1 0.008846 -0.000930 -0.002319 -0.001210 -0.001435 0.006361
# 2 -0.000930 0.009914 -0.005354 -0.002575 -0.002143 -0.001597
# 3 -0.002319 -0.005354 0.033842 -0.012621 0.006083 0.023142
# 4 -0.001210 -0.002575 -0.012621 0.034292 -0.001486 -0.029398
# 5 -0.001435 -0.002143 0.006083 -0.001486 0.034483 0.010194
# 6 0.006361 -0.001597 0.023142 -0.029398 0.010194 0.067850
#
#
# Mechanical properties :
#
#
# Convention : Reuss Voigt Hill
#
# Bulk Modulus (GPa) = 28.25060 53.51012 40.88036
# Shear Modulus (GPa) = 22.91134 38.77109 30.84121
#
# Velocity S-wave (km/s) = 3.08066 4.00749 3.57425
# Velocity P-wave (km/s) = 4.93519 6.60141 5.82815
#
# Compressibility (1/GPa) = 0.03539747
#
# Stress axis : x y z
#
# Youngs Moduli (GPa) = 113.04020 100.86487 29.54891
#
# Poissons Ratio (x) = 0.09378 0.06853
# Poissons Ratio (y) = 0.10510 0.15819
# Poissons Ratio (z) = 0.26218 0.53999
#
# Static dielectric constant tensor:
#      x y z
#    x 2.049120 0.058120 -0.200140 
#    y 0.058120 2.016210 -0.057880 
#    z -0.200140 -0.057880 2.548930 
# 
# From -- ./inp_files/461954.got.cif
#   From: 2010.05.17/outbox.cif.g08.bks.cpg/sg2_231_cif.got.tgz:461954.got - 2010.06.03 11:33:40.
