data_PCOD9014253
_publ_section_title
;
Structure prediction by ZEFSAII (Michael W. Deem and Ramdas Pophale) SiO2 
 PCOD9014253
Probable space group: P -1
;
_chemical_formula_sum "Si O2"
_cell_formula_units_Z 14
_cell_length_a 9.764715
_cell_length_b 11.706530
_cell_length_c 14.652211
_cell_angle_alpha 28.688324
_cell_angle_beta 116.932577
_cell_angle_gamma 98.795954
_cell_volume 588.421856
_symmetry_space_group_name_H-M "P -1"
_symmetry_group_IT_number 2
_symmetry_cell_setting 'triclinic'
loop_
_space_group_symop_operation_xyz
x,y,z
-x,-y,-z
loop_
_atom_site_type_symbol
_atom_site_label
_atom_site_fract_x
_atom_site_fract_y
_atom_site_fract_z
Si Si1 0.112802 0.826265 0.013057
Si Si2 0.130953 0.285026 0.109563
Si Si3 0.409551 0.792753 0.661431
Si Si4 0.886095 0.372994 0.311144
Si Si5 0.321052 0.856349 0.793685
Si Si6 0.638566 0.013184 0.097359
Si Si7 0.040016 0.599452 0.320484
O O1 0.299910 0.778792 0.063023
O O2 0.978132 0.839254 0.885250
O O3 0.141163 0.601101 0.256580
O O4 0.015399 0.125198 0.830487
O O5 0.330626 0.038574 0.387802
O O6 0.000000 0.500000 0.000000
O O7 0.145115 0.461312 0.908818
O O8 0.379155 0.901478 0.680496
O O9 0.258935 0.709581 0.666344
O O10 0.605251 0.478930 0.935918
O O11 0.878089 0.573669 0.249367
O O12 0.097752 0.080711 0.578873
O O13 0.415449 0.915526 0.863397
O O14 0.823766 0.688922 0.381049
O O15 0.500000 0.000000 0.000000
#
# Coordination Sequence:
#
# PCOD9014253 Si02
#       7
#     2   2   2   2   2   2   2
#     4  10  22  40  64  90 124 156 208 263 297 379
#     4  11  22  37  68  94 117 166 214 249 316 377
#     4  11  23  41  65  88 132 162 207 267 304 381
#     4  10  21  41  67  90 124 168 203 258 324 370
#     4  10  23  41  59  95 126 162 208 258 316 366
#     4  11  24  38  63  91 124 163 201 253 318 371
#     4   9  21  41  63  91 119 160 208 250 315 366
#
# _framework density 23.792453999999999
#
# number of rings (size 3 to 8) (size 9 to 14) (size 15 to 20)
#    0.000    1.714    1.429    2.571    6.000    0.571 
#    0.000    8.571    0.000    0.000    0.000    0.000 
#    0.000    0.000    0.000    0.000    0.000    0.000 
#
# Total GULP energy -78349.565115 kJ/mol
# GULP energy per Si atom -5596.397508 kJ/mol
# Density = 2.373830 g / cm^3
# Si number density = 23.792454 Si / 1000 Ang^3
#
#
#
# Elastic Constant Matrix: (Units=GPa)
#
#
# Indices 1 2 3 4 5 6 
#
# 1 50.3099 28.4061 31.6066 16.3128 -2.3549 12.4304
# 2 28.4061 188.7041 29.8242 24.6234 12.8088 6.8434
# 3 31.6066 29.8242 131.4543 25.3669 -5.6197 -2.2361
# 4 16.3128 24.6234 25.3669 43.3665 -4.4907 8.2632
# 5 -2.3549 12.8088 -5.6197 -4.4907 35.2160 8.5063
# 6 12.4304 6.8434 -2.2361 8.2632 8.5063 27.0589
#
#
#
# Elastic Compliance Matrix: (Units=1/GPa)
#
#
# Indices 1 2 3 4 5 6 
#
# 1 0.030076 -0.003051 -0.006022 -0.002778 0.005272 -0.014351
# 2 -0.003051 0.006353 -0.000243 -0.002997 -0.003357 0.001745
# 3 -0.006022 -0.000243 0.010049 -0.004524 -0.000546 0.005212
# 4 -0.002778 -0.002997 -0.004524 0.031006 0.006517 -0.009857
# 5 0.005272 -0.003357 -0.000546 0.006517 0.034181 -0.014353
# 6 -0.014351 0.001745 0.005212 -0.009857 -0.014353 0.051060
#
#
# Mechanical properties :
#
#
# Convention : Reuss Voigt Hill
#
# Bulk Modulus (GPa) = 35.91194 61.12691 48.51942
# Shear Modulus (GPa) = 26.22783 39.83705 33.03244
#
# Velocity S-wave (km/s) = 3.32378 4.09633 3.73011
# Velocity P-wave (km/s) = 5.46412 6.93691 6.24409
#
# Compressibility (1/GPa) = 0.02784589
#
# Stress axis : x y z
#
# Youngs Moduli (GPa) = 33.24922 157.41429 99.51623
#
# Poissons Ratio (x) = 0.48019 0.59928
# Poissons Ratio (y) = 0.10143 0.02421
# Poissons Ratio (z) = 0.20022 0.03829
#
# Static dielectric constant tensor:
#      x y z
#    x 2.027510 0.022800 -0.028620 
#    y 0.022800 1.940700 -0.032670 
#    z -0.028620 -0.032670 1.907530 
# 
# From -- ./inp_files/387677.got.cif
#   From: 2010.05.17/outbox.cif.g08.bks.cpg/sg2_194_cif.got.tgz:387677.got - 2010.06.03 11:33:40.
