data_PCOD9014998
_publ_section_title
;
Structure prediction by ZEFSAII (Michael W. Deem and Ramdas Pophale) SiO2 
 PCOD9014998
Probable space group: P -1
;
_chemical_formula_sum "Si O2"
_cell_formula_units_Z 13
_cell_length_a 8.056421
_cell_length_b 8.870759
_cell_length_c 14.764809
_cell_angle_alpha 146.230817
_cell_angle_beta 60.835397
_cell_angle_gamma 125.427410
_cell_volume 477.896460
_symmetry_space_group_name_H-M "P -1"
_symmetry_group_IT_number 2
_symmetry_cell_setting 'triclinic'
loop_
_space_group_symop_operation_xyz
x,y,z
-x,-y,-z
loop_
_atom_site_type_symbol
_atom_site_label
_atom_site_fract_x
_atom_site_fract_y
_atom_site_fract_z
Si Si1 0.000000 0.000000 0.500000
Si Si2 0.911103 0.764348 0.999975
Si Si3 0.267478 0.618834 0.825031
Si Si4 0.628239 0.045713 0.290298
Si Si5 0.270110 0.781607 0.107119
Si Si6 0.311573 0.371613 0.351429
Si Si7 0.301471 0.662731 0.309590
O O1 0.155813 0.843624 0.420440
O O2 0.875233 0.701471 0.326793
O O3 0.830342 0.994518 0.181196
O O4 0.881647 0.514469 0.958033
O O5 0.765200 0.598233 0.875084
O O6 0.142243 0.829519 0.940750
O O7 0.473294 0.664688 0.740228
O O8 0.330303 0.693373 0.949880
O O9 0.672909 0.387161 0.457539
O O10 0.451755 0.895683 0.189151
O O11 0.528012 0.879248 0.327309
O O12 0.181395 0.043070 0.251594
O O13 0.270645 0.514452 0.341695
#
# Coordination Sequence:
#
# PCOD9014998 Si02
#       7
#     1   2   2   2   2   2   2
#     4  10  22  40  66 102 122 166 232 286 298 386
#     4  10  23  43  69  95 136 179 230 270 330 405
#     4  11  23  43  70  98 132 180 230 268 328 406
#     4  11  22  43  67  99 135 183 226 268 328 414
#     4  11  24  43  68 101 140 177 215 283 349 390
#     4  12  24  42  72 103 134 174 227 282 334 395
#     4  10  21  41  70  95 131 176 237 262 331 404
#
# _framework density 27.202546000000002
#
# number of rings (size 3 to 8) (size 9 to 14) (size 15 to 20)
#    0.000    1.231    1.538    5.538    2.154    0.000 
#    0.000    7.692    0.000    0.000    0.000    0.000 
#    0.000    0.000    0.000    0.000    0.000    0.000 
#
# Total GULP energy -72656.055095 kJ/mol
# GULP energy per Si atom -5588.927315 kJ/mol
# Density = 2.714063 g / cm^3
# Si number density = 27.202546 Si / 1000 Ang^3
#
#
#
# Elastic Constant Matrix: (Units=GPa)
#
#
# Indices 1 2 3 4 5 6 
#
# 1 101.8076 44.2463 63.9015 7.7854 -8.0519 0.0698
# 2 44.2463 114.0886 59.8324 23.9503 -15.1838 -18.4113
# 3 63.9015 59.8324 188.2044 37.9301 -14.2948 5.5932
# 4 7.7854 23.9503 37.9301 25.6622 -7.9127 -2.4534
# 5 -8.0519 -15.1838 -14.2948 -7.9127 63.2727 -6.9773
# 6 0.0698 -18.4113 5.5932 -2.4534 -6.9773 24.0359
#
#
#
# Elastic Compliance Matrix: (Units=1/GPa)
#
#
# Indices 1 2 3 4 5 6 
#
# 1 0.014342 -0.004850 -0.004653 0.006957 0.000272 -0.001885
# 2 -0.004850 0.015817 -0.001819 -0.008442 0.003100 0.012591
# 3 -0.004653 -0.001819 0.010099 -0.012602 -0.000905 -0.005279
# 4 0.006957 -0.008442 -0.012602 0.065226 0.004661 0.004456
# 5 0.000272 0.003100 -0.000905 0.004661 0.017871 0.008248
# 6 -0.001885 0.012591 -0.005279 0.004456 0.008248 0.055332
#
#
# Mechanical properties :
#
#
# Convention : Reuss Voigt Hill
#
# Bulk Modulus (GPa) = 56.77344 82.22902 69.50123
# Shear Modulus (GPa) = 24.13101 38.33550 31.23325
#
# Velocity S-wave (km/s) = 2.98163 3.75809 3.39215
# Velocity P-wave (km/s) = 5.72446 7.00892 6.39900
#
# Compressibility (1/GPa) = 0.01761387
#
# Stress axis : x y z
#
# Youngs Moduli (GPa) = 69.72674 63.22392 99.01692
#
# Poissons Ratio (x) = 0.30666 0.46071
# Poissons Ratio (y) = 0.33820 0.18009
# Poissons Ratio (z) = 0.32443 0.11499
#
# Static dielectric constant tensor:
#      x y z
#    x 2.142350 0.041520 0.026830 
#    y 0.041520 2.258480 -0.021130 
#    z 0.026830 -0.021130 2.056520 
# 
# From -- ./inp_files/495954.got.cif
#   From: 2010.05.17/outbox.cif.g08.bks.cpg/sg2_248_cif.got.tgz:495954.got - 2010.06.03 11:33:40.
