data_PCOD9014124
_publ_section_title
;
Structure prediction by ZEFSAII (Michael W. Deem and Ramdas Pophale) SiO2 
 PCOD9014124
Probable space group: P -1
;
_chemical_formula_sum "Si O2"
_cell_formula_units_Z 16
_cell_length_a 5.757322
_cell_length_b 13.519271
_cell_length_c 11.572745
_cell_angle_alpha 92.268385
_cell_angle_beta 62.217445
_cell_angle_gamma 65.571217
_cell_volume 694.741131
_symmetry_space_group_name_H-M "P -1"
_symmetry_group_IT_number 2
_symmetry_cell_setting 'triclinic'
loop_
_space_group_symop_operation_xyz
x,y,z
-x,-y,-z
loop_
_atom_site_type_symbol
_atom_site_label
_atom_site_fract_x
_atom_site_fract_y
_atom_site_fract_z
Si Si1 0.194675 0.872016 0.995722
Si Si2 0.347078 0.147788 0.436016
Si Si3 0.743143 0.881046 0.294131
Si Si4 0.602371 0.693531 0.276927
Si Si5 0.696997 0.704723 0.006633
Si Si6 0.731824 0.500849 0.853933
Si Si7 0.234438 0.740481 0.577343
Si Si8 0.301247 0.669849 0.809627
O O1 0.496909 0.828312 0.001331
O O2 0.304751 0.783123 0.859456
O O3 0.987975 0.853662 0.137328
O O4 0.000000 0.000000 0.000000
O O5 0.159522 0.160599 0.598617
O O6 0.575027 0.196093 0.420283
O O7 0.106046 0.195411 0.390065
O O8 0.552227 0.015698 0.354982
O O9 0.545957 0.822158 0.302146
O O10 0.418437 0.673523 0.418158
O O11 0.952487 0.611423 0.221677
O O12 0.559059 0.679581 0.151411
O O13 0.760038 0.607830 0.896320
O O14 0.027540 0.682567 0.953008
O O15 0.578330 0.547441 0.768567
O O16 0.500000 0.500000 0.000000
O O17 0.234001 0.677720 0.690908
#
# Coordination Sequence:
#
# PCOD9014124 Si02
#       8
#     2   2   2   2   2   2   2   2
#     4  11  23  38  64  98 133 172 223 276 331 403
#     4  10  24  44  68  95 142 179 219 276 347 399
#     4  10  21  41  66  98 130 177 230 275 329 412
#     4  11  22  43  69  97 124 178 228 281 321 414
#     4  11  23  42  68  93 132 171 225 275 341 397
#     4  11  23  43  69  97 130 170 227 279 345 385
#     4  11  26  44  69  99 138 179 221 277 344 405
#     4  11  25  42  64  96 134 175 214 283 338 402
#
# _framework density 23.030159000000001
#
# number of rings (size 3 to 8) (size 9 to 14) (size 15 to 20)
#    0.000    1.250    2.500    2.625    5.250    8.500 
#    0.000    0.625    0.000    0.000    0.000    0.000 
#    0.000    0.000    0.000    0.000    0.000    0.000 
#
# Total GULP energy -89206.732071 kJ/mol
# GULP energy per Si atom -5575.420754 kJ/mol
# Density = 2.297774 g / cm^3
# Si number density = 23.030159 Si / 1000 Ang^3
#
#
#
# Elastic Constant Matrix: (Units=GPa)
#
#
# Indices 1 2 3 4 5 6 
#
# 1 81.2860 40.7992 13.1436 -8.0959 9.8129 -23.1625
# 2 40.7992 81.8907 9.9526 -13.3309 8.1603 -19.5265
# 3 13.1436 9.9526 96.0883 -20.7101 14.1895 -6.8435
# 4 -8.0959 -13.3309 -20.7101 31.0714 -11.3500 10.9242
# 5 9.8129 8.1603 14.1895 -11.3500 31.9912 -10.5948
# 6 -23.1625 -19.5265 -6.8435 10.9242 -10.5948 35.4341
#
#
#
# Elastic Compliance Matrix: (Units=1/GPa)
#
#
# Indices 1 2 3 4 5 6 
#
# 1 0.018475 -0.007385 -0.001577 -0.002770 -0.001368 0.008147
# 2 -0.007385 0.017407 0.000411 0.004760 0.000500 0.003526
# 3 -0.001577 0.000411 0.012549 0.007595 -0.003032 -0.001629
# 4 -0.002770 0.004760 0.007595 0.045081 0.009337 -0.008827
# 5 -0.001368 0.000500 -0.003032 0.009337 0.038687 0.007484
# 6 0.008147 0.003526 -0.001629 -0.008827 0.007484 0.040135
#
#
# Mechanical properties :
#
#
# Convention : Reuss Voigt Hill
#
# Bulk Modulus (GPa) = 31.92009 43.00620 37.46315
# Shear Modulus (GPa) = 25.01535 32.72398 28.86966
#
# Velocity S-wave (km/s) = 3.29933 3.77360 3.54440
# Velocity P-wave (km/s) = 5.32957 6.14012 5.74915
#
# Compressibility (1/GPa) = 0.03132823
#
# Stress axis : x y z
#
# Youngs Moduli (GPa) = 54.12842 57.44976 79.68837
#
# Poissons Ratio (x) = 0.42424 0.12566
# Poissons Ratio (y) = 0.39971 -0.03272
# Poissons Ratio (z) = 0.08535 -0.02359
#
# Static dielectric constant tensor:
#      x y z
#    x 2.028940 0.009530 -0.002650 
#    y 0.009530 1.842230 -0.020180 
#    z -0.002650 -0.020180 1.862590 
# 
# From -- ./inp_files/81667.got.cif
#   From: 2010.05.17/outbox.cif.g08.bks.cpg/sg2_41_cif.got.tgz:81667.got - 2010.06.03 11:33:40.
