data_PCOD9014077
_publ_section_title
;
Structure prediction by ZEFSAII (Michael W. Deem and Ramdas Pophale) SiO2 
 PCOD9014077
Probable space group: P -1
;
_chemical_formula_sum "Si O2"
_cell_formula_units_Z 16
_cell_length_a 15.773032
_cell_length_b 14.327723
_cell_length_c 13.007779
_cell_angle_alpha 143.138694
_cell_angle_beta 152.583276
_cell_angle_gamma 38.053569
_cell_volume 779.623259
_symmetry_space_group_name_H-M "P -1"
_symmetry_group_IT_number 2
_symmetry_cell_setting 'triclinic'
loop_
_space_group_symop_operation_xyz
x,y,z
-x,-y,-z
loop_
_atom_site_type_symbol
_atom_site_label
_atom_site_fract_x
_atom_site_fract_y
_atom_site_fract_z
Si Si1 0.571398 0.502233 0.195326
Si Si2 0.712669 0.158106 0.062176
Si Si3 0.525847 0.310453 0.381202
Si Si4 0.149128 0.843760 0.568636
Si Si5 0.884141 0.611004 0.064704
Si Si6 0.048881 0.119373 0.077106
Si Si7 0.721438 0.389416 0.850608
Si Si8 0.399641 0.184037 0.586430
O O1 0.746179 0.337950 0.244741
O O2 0.429976 0.499538 0.135322
O O3 0.582032 0.687105 0.367355
O O4 0.500000 0.500000 0.000000
O O5 0.747284 0.121406 0.186322
O O6 0.501711 0.196159 0.815497
O O7 0.838984 0.003641 0.999437
O O8 0.500000 0.500000 0.500000
O O9 0.688577 0.220046 0.398226
O O10 0.607515 0.295464 0.571152
O O11 0.319864 0.284363 0.111010
O O12 0.023782 0.717149 0.343309
O O13 0.000000 0.000000 0.500000
O O14 0.826045 0.497855 0.989802
O O15 0.000000 0.500000 0.000000
O O16 0.176160 0.205127 0.358728
O O17 0.876083 0.255135 0.962091
O O18 0.000000 0.000000 0.000000
O O19 0.500000 0.000000 0.500000
#
# Coordination Sequence:
#
# PCOD9014077 Si02
#       8
#     2   2   2   2   2   2   2   2
#     4  10  21  41  66  96 132 171 222 282 336 396
#     4  10  22  41  63  92 131 174 213 278 350 379
#     4  10  21  43  67  99 136 175 234 278 330 421
#     4  12  25  45  67 101 146 171 228 296 342 403
#     4  11  24  43  72 102 134 181 239 279 336 420
#     4  11  23  43  63  98 134 170 234 275 325 424
#     4  11  22  40  72  98 130 183 225 279 344 402
#     4   9  20  40  65  90 126 176 220 267 332 405
#
# _framework density 20.522732999999999
#
# number of rings (size 3 to 8) (size 9 to 14) (size 15 to 20)
#    0.000    1.500    2.500    4.500    1.750    0.500 
#   11.250    3.125    0.000    0.000    0.000    0.000 
#    0.000    0.000    0.000    0.000    0.000    0.000 
#
# Total GULP energy -89089.641474 kJ/mol
# GULP energy per Si atom -5568.102592 kJ/mol
# Density = 2.047602 g / cm^3
# Si number density = 20.522733 Si / 1000 Ang^3
#
#
#
# Elastic Constant Matrix: (Units=GPa)
#
#
# Indices 1 2 3 4 5 6 
#
# 1 98.1852 -2.6983 46.4975 2.9617 -9.6466 -6.4931
# 2 -2.6983 68.5357 24.5273 -8.4741 -5.6756 2.3318
# 3 46.4975 24.5273 121.2836 -25.4856 -19.1191 -2.4833
# 4 2.9617 -8.4741 -25.4856 38.3405 5.2473 -3.0008
# 5 -9.6466 -5.6756 -19.1191 5.2473 37.1633 0.2790
# 6 -6.4931 2.3318 -2.4833 -3.0008 0.2790 39.7917
#
#
#
# Elastic Compliance Matrix: (Units=1/GPa)
#
#
# Indices 1 2 3 4 5 6 
#
# 1 0.013707 0.002327 -0.006547 -0.004963 0.001236 0.001309
# 2 0.002327 0.016268 -0.003911 0.000619 0.000995 -0.000778
# 3 -0.006547 -0.003911 0.013909 0.008436 0.003663 0.000639
# 4 -0.004963 0.000619 0.008436 0.032579 -0.001470 0.002148
# 5 0.001236 0.000995 0.003663 -0.001470 0.029473 0.000055
# 6 0.001309 -0.000778 0.000639 0.002148 0.000055 0.025592
#
#
# Mechanical properties :
#
#
# Convention : Reuss Voigt Hill
#
# Bulk Modulus (GPa) = 36.20322 47.18418 41.69370
# Shear Modulus (GPa) = 31.84813 37.70430 34.77622
#
# Velocity S-wave (km/s) = 3.94362 4.29090 4.12092
# Velocity P-wave (km/s) = 6.19799 6.89857 6.55764
#
# Compressibility (1/GPa) = 0.02762185
#
# Stress axis : x y z
#
# Youngs Moduli (GPa) = 72.95667 61.47216 71.89596
#
# Poissons Ratio (x) = -0.14303 0.47068
# Poissons Ratio (y) = -0.16975 0.28117
# Poissons Ratio (z) = 0.47762 0.24041
#
# Static dielectric constant tensor:
#      x y z
#    x 1.676600 -0.117550 -0.056600 
#    y -0.117550 1.591340 -0.013020 
#    z -0.056600 -0.013020 1.860990 
# 
# From -- ./inp_files/455137.got.cif
#   From: 2010.05.17/outbox.cif.g08.bks.cpg/sg2_228_cif.got.tgz:455137.got - 2010.06.03 11:33:40.
