data_PCOD9014871
_publ_section_title
;
Structure prediction by ZEFSAII (Michael W. Deem and Ramdas Pophale) SiO2 
 PCOD9014871
Probable space group: P -1
;
_chemical_formula_sum "Si O2"
_cell_formula_units_Z 14
_cell_length_a 13.795297
_cell_length_b 9.306497
_cell_length_c 8.111068
_cell_angle_alpha 102.059406
_cell_angle_beta 44.009413
_cell_angle_gamma 125.068385
_cell_volume 552.623416
_symmetry_space_group_name_H-M "P -1"
_symmetry_group_IT_number 2
_symmetry_cell_setting 'triclinic'
loop_
_space_group_symop_operation_xyz
x,y,z
-x,-y,-z
loop_
_atom_site_type_symbol
_atom_site_label
_atom_site_fract_x
_atom_site_fract_y
_atom_site_fract_z
Si Si1 0.796538 0.306579 0.740015
Si Si2 0.024217 0.790015 0.298909
Si Si3 0.256219 0.599886 0.636819
Si Si4 0.455055 0.685885 0.733313
Si Si5 0.233153 0.889168 0.599173
Si Si6 0.924505 0.856648 0.798784
Si Si7 0.517411 0.563443 0.181663
O O1 0.735802 0.181750 0.623772
O O2 0.000000 0.500000 0.500000
O O3 0.807857 0.196982 0.848767
O O4 0.653213 0.331152 0.977270
O O5 0.892671 0.591657 0.321704
O O6 0.959180 0.807835 0.562552
O O7 0.048243 0.951157 0.202080
O O8 0.301449 0.573888 0.757136
O O9 0.215230 0.745892 0.717299
O O10 0.431722 0.665553 0.336278
O O11 0.565929 0.616852 0.641549
O O12 0.598211 0.894546 0.536226
O O13 0.056267 0.866877 0.769408
O O14 0.716591 0.696785 0.039059
O O15 0.500000 0.500000 0.000000
#
# Coordination Sequence:
#
# PCOD9014871 Si02
#       7
#     2   2   2   2   2   2   2
#     4  11  22  43  70 102 131 178 241 287 336 404
#     4  10  21  41  69  97 135 176 227 286 342 397
#     4  12  25  45  69 101 145 183 228 281 353 412
#     4  12  27  44  68 102 145 185 224 286 355 407
#     4  11  24  45  71  99 141 182 235 282 338 416
#     4  10  23  43  71 101 132 177 239 286 331 402
#     4  12  25  44  71 102 135 185 234 282 339 411
#
# _framework density 25.333707
#
# number of rings (size 3 to 8) (size 9 to 14) (size 15 to 20)
#    0.000    0.857    2.857    4.714    6.000    0.571 
#    0.000    1.429    0.000    0.000    0.000    0.000 
#    0.000    0.000    0.000    0.000    0.000    0.000 
#
# Total GULP energy -78395.678615 kJ/mol
# GULP energy per Si atom -5599.691330 kJ/mol
# Density = 2.527605 g / cm^3
# Si number density = 25.333707 Si / 1000 Ang^3
#
#
#
# Elastic Constant Matrix: (Units=GPa)
#
#
# Indices 1 2 3 4 5 6 
#
# 1 162.5073 41.8272 17.2661 3.0085 0.7534 -27.4637
# 2 41.8272 102.0948 6.9959 -15.9301 -0.9179 -31.4086
# 3 17.2661 6.9959 56.8016 5.0266 -12.0219 -4.8278
# 4 3.0085 -15.9301 5.0266 22.0823 3.0231 -3.6500
# 5 0.7534 -0.9179 -12.0219 3.0231 40.5040 10.9983
# 6 -27.4637 -31.4086 -4.8278 -3.6500 10.9983 52.6644
#
#
#
# Elastic Compliance Matrix: (Units=1/GPa)
#
#
# Indices 1 2 3 4 5 6 
#
# 1 0.007428 -0.002488 -0.001854 -0.001825 -0.001248 0.002354
# 2 -0.002488 0.016448 -0.002638 0.015075 -0.004260 0.010205
# 3 -0.001854 -0.002638 0.020513 -0.007785 0.007389 -0.002742
# 4 -0.001825 0.015075 -0.007785 0.061864 -0.010289 0.013762
# 5 -0.001248 -0.004260 0.007389 -0.010289 0.030163 -0.009526
# 6 0.002354 0.010205 -0.002742 0.013762 -0.009526 0.028994
#
#
# Mechanical properties :
#
#
# Convention : Reuss Voigt Hill
#
# Bulk Modulus (GPa) = 32.86244 50.39799 41.63022
# Shear Modulus (GPa) = 26.38324 40.07109 33.22717
#
# Velocity S-wave (km/s) = 3.23062 3.98141 3.62550
# Velocity P-wave (km/s) = 5.18805 6.40877 5.83045
#
# Compressibility (1/GPa) = 0.03042987
#
# Stress axis : x y z
#
# Youngs Moduli (GPa) = 134.61921 60.79694 48.74893
#
# Poissons Ratio (x) = 0.15126 0.09039
# Poissons Ratio (y) = 0.33493 0.12859
# Poissons Ratio (z) = 0.24960 0.16037
#
# Static dielectric constant tensor:
#      x y z
#    x 1.966190 -0.036260 0.006130 
#    y -0.036260 2.038410 -0.023410 
#    z 0.006130 -0.023410 2.048840 
# 
# From -- ./inp_files/242530.got.cif
#   From: 2010.05.17/outbox.cif.g08.bks.cpg/sg2_122_cif.got.tgz:242530.got - 2010.06.03 11:33:40.
