data_PCOD9014596
_publ_section_title
;
Structure prediction by ZEFSAII (Michael W. Deem and Ramdas Pophale) SiO2 
 PCOD9014596
Probable space group: P -1
;
_chemical_formula_sum "Si O2"
_cell_formula_units_Z 16
_cell_length_a 9.841035
_cell_length_b 29.873168
_cell_length_c 16.193315
_cell_angle_alpha 18.926929
_cell_angle_beta 146.829189
_cell_angle_gamma 137.693412
_cell_volume 807.436913
_symmetry_space_group_name_H-M "P -1"
_symmetry_group_IT_number 2
_symmetry_cell_setting 'triclinic'
loop_
_space_group_symop_operation_xyz
x,y,z
-x,-y,-z
loop_
_atom_site_type_symbol
_atom_site_label
_atom_site_fract_x
_atom_site_fract_y
_atom_site_fract_z
Si Si1 0.269680 0.385234 0.814722
Si Si2 0.125796 0.166390 0.227503
Si Si3 0.568199 0.366713 0.829986
Si Si4 0.150817 0.341596 0.228269
Si Si5 0.260204 0.643743 0.773930
Si Si6 0.351403 0.838212 0.918057
Si Si7 0.521392 0.194858 0.523398
Si Si8 0.780392 0.861075 0.226880
O O1 0.373445 0.388685 0.769419
O O2 0.000000 0.500000 0.500000
O O3 0.210790 0.237113 0.067566
O O4 0.488497 0.404112 0.956145
O O5 0.316162 0.182122 0.370673
O O6 0.834396 0.232031 0.999718
O O7 0.173910 0.998724 0.527293
O O8 0.500000 0.500000 0.500000
O O9 0.558549 0.238022 0.989170
O O10 0.860553 0.340994 0.057305
O O11 0.355097 0.267513 0.390539
O O12 0.239222 0.242149 0.527198
O O13 0.146636 0.507952 0.948284
O O14 0.331284 0.697481 0.627887
O O15 0.067457 0.787083 0.466944
O O16 0.585550 0.846687 0.080384
O O17 0.705069 0.030469 0.916985
#
# Coordination Sequence:
#
# PCOD9014596 Si02
#       8
#     2   2   2   2   2   2   2   2
#     4  11  25  42  65  92 129 169 212 268 326 379
#     4   9  20  41  67  92 128 169 213 260 318 384
#     4  12  25  41  67  93 129 169 219 263 316 388
#     4  12  24  42  67 100 129 168 218 268 316 384
#     4  11  24  42  65  95 133 167 212 269 325 384
#     4  10  21  41  68  94 126 171 213 258 319 385
#     4  10  22  43  66  94 131 172 212 265 324 382
#     4  11  23  42  68  95 130 172 213 262 327 381
#
# _framework density 19.81579
#
# number of rings (size 3 to 8) (size 9 to 14) (size 15 to 20)
#    0.000    1.250    2.500    3.000    5.250    0.500 
#    2.250    0.000    0.000    0.000    0.000    0.000 
#    0.000    0.000    0.000    0.000    0.000    0.000 
#
# Total GULP energy -89354.431199 kJ/mol
# GULP energy per Si atom -5584.651950 kJ/mol
# Density = 1.977069 g / cm^3
# Si number density = 19.815790 Si / 1000 Ang^3
#
#
#
# Elastic Constant Matrix: (Units=GPa)
#
#
# Indices 1 2 3 4 5 6 
#
# 1 174.7500 23.8938 50.6419 0.1939 2.4101 -14.7218
# 2 23.8938 39.7703 24.4275 3.4476 -7.2346 -10.5612
# 3 50.6419 24.4275 94.9258 3.6204 6.3269 -11.3683
# 4 0.1939 3.4476 3.6204 26.9964 8.4704 7.8670
# 5 2.4101 -7.2346 6.3269 8.4704 32.8573 -8.3440
# 6 -14.7218 -10.5612 -11.3683 7.8670 -8.3440 16.8219
#
#
#
# Elastic Compliance Matrix: (Units=1/GPa)
#
#
# Indices 1 2 3 4 5 6 
#
# 1 0.007124 -0.000312 -0.003080 -0.001921 0.001980 0.005838
# 2 -0.000312 0.063528 -0.008259 -0.044474 0.046897 0.078091
# 3 -0.003080 -0.008259 0.014478 0.000937 -0.004862 -0.000946
# 4 -0.001921 -0.044474 0.000937 0.090151 -0.058505 -0.100149
# 5 0.001980 0.046897 -0.004862 -0.058505 0.080848 0.095352
# 6 0.005838 0.078091 -0.000946 -0.100149 0.095352 0.207076
#
#
# Mechanical properties :
#
#
# Convention : Reuss Voigt Hill
#
# Bulk Modulus (GPa) = 16.17359 56.37471 36.27415
# Shear Modulus (GPa) = 9.85967 29.36732 19.61350
#
# Velocity S-wave (km/s) = 2.23304 3.85387 3.14951
# Velocity P-wave (km/s) = 3.85076 6.95085 5.61883
#
# Compressibility (1/GPa) = 0.06182918
#
# Stress axis : x y z
#
# Youngs Moduli (GPa) = 140.36467 15.74104 69.06968
#
# Poissons Ratio (x) = 0.00490 0.21274
# Poissons Ratio (y) = 0.04373 0.57045
# Poissons Ratio (z) = 0.43234 0.13001
#
# Static dielectric constant tensor:
#      x y z
#    x 1.723900 0.023890 -0.001490 
#    y 0.023890 1.684630 -0.023710 
#    z -0.001490 -0.023710 1.742140 
# 
# From -- ./inp_files/308305.got.cif
#   From: 2010.05.17/outbox.cif.g08.bks.cpg/sg2_155_cif.got.tgz:308305.got - 2010.06.03 11:33:40.
