data_PCOD9014660
_publ_section_title
;
Structure prediction by ZEFSAII (Michael W. Deem and Ramdas Pophale) SiO2 
 PCOD9014660
Probable space group: P -1
;
_chemical_formula_sum "Si O2"
_cell_formula_units_Z 14
_cell_length_a 12.125182
_cell_length_b 8.322258
_cell_length_c 11.637065
_cell_angle_alpha 71.893774
_cell_angle_beta 38.718904
_cell_angle_gamma 94.604117
_cell_volume 586.313628
_symmetry_space_group_name_H-M "P -1"
_symmetry_group_IT_number 2
_symmetry_cell_setting 'triclinic'
loop_
_space_group_symop_operation_xyz
x,y,z
-x,-y,-z
loop_
_atom_site_type_symbol
_atom_site_label
_atom_site_fract_x
_atom_site_fract_y
_atom_site_fract_z
Si Si1 0.489784 0.025069 0.705077
Si Si2 0.648106 0.430184 0.350041
Si Si3 0.596598 0.819707 0.029825
Si Si4 0.963276 0.345710 0.864704
Si Si5 0.863129 0.582314 0.537601
Si Si6 0.730257 0.535283 0.001765
Si Si7 0.663541 0.813077 0.724055
O O1 0.578775 0.219743 0.511420
O O2 0.422621 0.060578 0.877964
O O3 0.654703 0.959153 0.606054
O O4 0.266414 0.844564 0.879613
O O5 0.500000 0.500000 0.500000
O O6 0.636887 0.430331 0.223062
O O7 0.880116 0.592893 0.171357
O O8 0.366305 0.615867 0.253227
O O9 0.752819 0.746190 0.945450
O O10 0.661306 0.901763 0.830247
O O11 0.048992 0.320160 0.680670
O O12 0.935770 0.531431 0.819625
O O13 0.827078 0.742778 0.597337
O O14 0.000000 0.500000 0.500000
O O15 0.564934 0.394737 0.068621
#
# Coordination Sequence:
#
# PCOD9014660 Si02
#       7
#     2   2   2   2   2   2   2
#     4  11  24  44  67  99 133 174 217 275 330 389
#     4  12  23  46  69  95 134 175 222 270 332 391
#     4  11  20  43  68  94 137 176 214 275 333 388
#     4  11  24  42  65 100 131 170 225 268 330 392
#     4  11  20  39  66  98 134 177 219 267 328 397
#     4  10  21  41  68  97 127 178 222 267 329 393
#     4  10  22  39  67 100 134 173 219 273 332 387
#
# _framework density 23.878008000000001
#
# number of rings (size 3 to 8) (size 9 to 14) (size 15 to 20)
#    0.000    1.143    2.857    6.000    0.000    2.857 
#    2.571    1.429    0.000    0.000    0.000    0.000 
#    0.000    0.000    0.000    0.000    0.000    0.000 
#
# Total GULP energy -78282.661481 kJ/mol
# GULP energy per Si atom -5591.618677 kJ/mol
# Density = 2.382366 g / cm^3
# Si number density = 23.878008 Si / 1000 Ang^3
#
#
#
# Elastic Constant Matrix: (Units=GPa)
#
#
# Indices 1 2 3 4 5 6 
#
# 1 108.0619 32.1379 25.3498 -7.2495 2.1457 -11.4402
# 2 32.1379 71.3379 5.4517 -4.8839 -2.7389 -16.6389
# 3 25.3498 5.4517 50.6487 -8.8941 9.3723 4.5256
# 4 -7.2495 -4.8839 -8.8941 37.3317 1.6848 5.2275
# 5 2.1457 -2.7389 9.3723 1.6848 42.0763 1.9748
# 6 -11.4402 -16.6389 4.5256 5.2275 1.9748 47.7493
#
#
#
# Elastic Compliance Matrix: (Units=1/GPa)
#
#
# Indices 1 2 3 4 5 6 
#
# 1 0.012177 -0.004595 -0.005797 0.000112 0.000280 0.001842
# 2 -0.004595 0.017306 -0.000094 0.000623 0.001130 0.004824
# 3 -0.005797 -0.000094 0.025003 0.005645 -0.005309 -0.004190
# 4 0.000112 0.000623 0.005645 0.028805 -0.002219 -0.003353
# 5 0.000280 0.001130 -0.005309 -0.002219 0.025089 0.000170
# 6 0.001842 0.004824 -0.004190 -0.003353 0.000170 0.023822
#
#
# Mechanical properties :
#
#
# Convention : Reuss Voigt Hill
#
# Bulk Modulus (GPa) = 29.83686 39.54745 34.69215
# Shear Modulus (GPa) = 30.42363 36.57208 33.49786
#
# Velocity S-wave (km/s) = 3.57337 3.91784 3.74956
# Velocity P-wave (km/s) = 5.43580 6.08804 5.77114
#
# Compressibility (1/GPa) = 0.03351559
#
# Stress axis : x y z
#
# Youngs Moduli (GPa) = 82.11990 57.78320 39.99440
#
# Poissons Ratio (x) = 0.26551 0.23185
# Poissons Ratio (y) = 0.37733 0.00375
# Poissons Ratio (z) = 0.47605 0.00542
#
# Static dielectric constant tensor:
#      x y z
#    x 1.910230 -0.001390 0.009080 
#    y -0.001390 1.978870 0.012010 
#    z 0.009080 0.012010 1.903520 
# 
# From -- ./inp_files/177135.got.cif
#   From: 2010.05.17/outbox.cif.g08.bks.cpg/sg2_89_cif.got.tgz:177135.got - 2010.06.03 11:33:40.
