data_PCOD9014708
_publ_section_title
;
Structure prediction by ZEFSAII (Michael W. Deem and Ramdas Pophale) SiO2 
 PCOD9014708
Probable space group: P -1
;
_chemical_formula_sum "Si O2"
_cell_formula_units_Z 14
_cell_length_a 9.586720
_cell_length_b 6.854955
_cell_length_c 15.635336
_cell_angle_alpha 86.420583
_cell_angle_beta 121.896891
_cell_angle_gamma 52.719275
_cell_volume 572.127045
_symmetry_space_group_name_H-M "P -1"
_symmetry_group_IT_number 2
_symmetry_cell_setting 'triclinic'
loop_
_space_group_symop_operation_xyz
x,y,z
-x,-y,-z
loop_
_atom_site_type_symbol
_atom_site_label
_atom_site_fract_x
_atom_site_fract_y
_atom_site_fract_z
Si Si1 0.788450 0.459152 0.628330
Si Si2 0.712325 0.033584 0.276585
Si Si3 0.883945 0.954927 0.032907
Si Si4 0.055338 0.071876 0.232335
Si Si5 0.735326 0.724817 0.773853
Si Si6 0.638862 0.527159 0.212814
Si Si7 0.853298 0.429054 0.467075
O O1 0.678798 0.684849 0.662583
O O2 0.693105 0.585369 0.498294
O O3 0.776268 0.241605 0.655981
O O4 0.090259 0.230741 0.720230
O O5 0.505040 0.085352 0.249637
O O6 0.583345 0.344348 0.193368
O O7 0.914166 0.915274 0.418308
O O8 0.107185 0.922459 0.881919
O O9 0.604683 0.149741 0.910450
O O10 0.051792 0.611580 0.110801
O O11 0.000000 0.000000 0.000000
O O12 0.180576 0.128603 0.215444
O O13 0.882964 0.332750 0.239069
O O14 0.707221 0.506142 0.333416
O O15 0.000000 0.500000 0.500000
#
# Coordination Sequence:
#
# PCOD9014708 Si02
#       7
#     2   2   2   2   2   2   2
#     4   8  21  42  65  99 137 167 223 272 332 392
#     4   9  21  40  68  92 133 174 217 267 333 389
#     4  11  24  43  64  99 135 172 223 274 329 396
#     4  10  23  40  68  97 130 175 226 267 332 396
#     4  11  21  45  68 102 135 169 224 277 326 396
#     4  11  21  44  68  87 138 179 210 275 333 390
#     4  10  21  41  69 100 126 174 228 265 332 399
#
# _framework density 24.470089999999999
#
# number of rings (size 3 to 8) (size 9 to 14) (size 15 to 20)
#    0.857    1.143    1.429    1.714    0.000    2.286 
#    2.571    5.000    0.000    0.000    0.000    0.000 
#    0.000    0.000    0.000    0.000    0.000    0.000 
#
# Total GULP energy -78247.905785 kJ/mol
# GULP energy per Si atom -5589.136127 kJ/mol
# Density = 2.441439 g / cm^3
# Si number density = 24.470090 Si / 1000 Ang^3
#
#
#
# Elastic Constant Matrix: (Units=GPa)
#
#
# Indices 1 2 3 4 5 6 
#
# 1 140.4922 36.2041 5.5908 7.5494 -11.0341 2.3091
# 2 36.2041 82.0035 24.3454 -6.2543 -2.1990 11.1943
# 3 5.5908 24.3454 75.7519 -0.0626 -18.6979 6.1622
# 4 7.5494 -6.2543 -0.0626 35.7035 -4.2803 -6.0977
# 5 -11.0341 -2.1990 -18.6979 -4.2803 29.7566 1.4648
# 6 2.3091 11.1943 6.1622 -6.0977 1.4648 28.7803
#
#
#
# Elastic Compliance Matrix: (Units=1/GPa)
#
#
# Indices 1 2 3 4 5 6 
#
# 1 0.008566 -0.004339 0.001643 -0.002137 0.003580 0.000013
# 2 -0.004339 0.016398 -0.005401 0.002690 -0.003200 -0.004141
# 3 0.001643 -0.005401 0.017861 -0.000310 0.011512 -0.002507
# 4 -0.002137 0.002690 -0.000310 0.030254 0.003296 0.005434
# 5 0.003580 -0.003200 0.011512 0.003296 0.042551 -0.002975
# 6 0.000013 -0.004141 -0.002507 0.005434 -0.002975 0.038195
#
#
# Mechanical properties :
#
#
# Convention : Reuss Voigt Hill
#
# Bulk Modulus (GPa) = 37.54813 47.83647 42.69230
# Shear Modulus (GPa) = 27.94935 34.32188 31.13562
#
# Velocity S-wave (km/s) = 3.38329 3.74920 3.57093
# Velocity P-wave (km/s) = 5.53534 6.19140 5.87254
#
# Compressibility (1/GPa) = 0.02663248
#
# Stress axis : x y z
#
# Youngs Moduli (GPa) = 116.73702 60.98304 55.98941
#
# Poissons Ratio (x) = 0.26458 -0.09199
# Poissons Ratio (y) = 0.50647 0.30237
# Poissons Ratio (z) = -0.19179 0.32934
#
# Static dielectric constant tensor:
#      x y z
#    x 1.967670 0.006820 -0.022060 
#    y 0.006820 1.943690 -0.012130 
#    z -0.022060 -0.012130 1.979640 
# 
# From -- ./inp_files/494905.got.cif
#   From: 2010.05.17/outbox.cif.g08.bks.cpg/sg2_248_cif.got.tgz:494905.got - 2010.06.03 11:33:40.
