data_PCOD9014592
_publ_section_title
;
Structure prediction by ZEFSAII (Michael W. Deem and Ramdas Pophale) SiO2 
 PCOD9014592
Probable space group: P -1
;
_chemical_formula_sum "Si O2"
_cell_formula_units_Z 12
_cell_length_a 5.260631
_cell_length_b 15.695298
_cell_length_c 9.581251
_cell_angle_alpha 133.485166
_cell_angle_beta 84.528686
_cell_angle_gamma 69.913537
_cell_volume 470.896401
_symmetry_space_group_name_H-M "P -1"
_symmetry_group_IT_number 2
_symmetry_cell_setting 'triclinic'
loop_
_space_group_symop_operation_xyz
x,y,z
-x,-y,-z
loop_
_atom_site_type_symbol
_atom_site_label
_atom_site_fract_x
_atom_site_fract_y
_atom_site_fract_z
Si Si1 0.451429 0.379588 0.412562
Si Si2 0.590796 0.223550 0.736847
Si Si3 0.930950 0.932581 0.242440
Si Si4 0.617279 0.988391 0.823457
Si Si5 0.191385 0.426284 0.190269
Si Si6 0.817631 0.303521 0.556351
O O1 0.500000 0.500000 0.500000
O O2 0.357742 0.341851 0.230977
O O3 0.733334 0.268199 0.369604
O O4 0.159304 0.462612 0.622101
O O5 0.705880 0.066112 0.506774
O O6 0.632438 0.291767 0.676842
O O7 0.264942 0.323375 0.941927
O O8 0.832461 0.197321 0.816949
O O9 0.697129 0.920916 0.146953
O O10 0.140268 0.970681 0.184049
O O11 0.819201 0.819680 0.581449
O O12 0.500000 0.000000 0.000000
O O13 0.279317 0.535961 0.265380
#
# Coordination Sequence:
#
# PCOD9014592 Si02
#       6
#     2   2   2   2   2   2
#     4   9  21  40  58  96 131 168 225 274 326 403
#     4  10  23  43  68  97 137 180 220 279 340 409
#     4  10  25  47  65 105 136 179 231 279 332 410
#     4  11  25  45  74  99 137 180 229 283 339 398
#     4  10  21  41  68  93 134 177 219 280 346 390
#     4  10  23  40  64 101 132 171 227 281 330 414
#
# _framework density 25.483311
#
# number of rings (size 3 to 8) (size 9 to 14) (size 15 to 20)
#    0.000    2.000    0.000    1.000    7.000   10.667 
#   15.000    0.000    0.000    0.000    0.000    0.000 
#    0.000    0.000    0.000    0.000    0.000    0.000 
#
# Total GULP energy -67135.293751 kJ/mol
# GULP energy per Si atom -5594.607813 kJ/mol
# Density = 2.542531 g / cm^3
# Si number density = 25.483311 Si / 1000 Ang^3
#
#
#
# Elastic Constant Matrix: (Units=GPa)
#
#
# Indices 1 2 3 4 5 6 
#
# 1 80.9224 22.3821 5.2301 -10.0076 -1.8208 3.6438
# 2 22.3821 122.7529 4.4028 -14.4968 -5.5022 1.0033
# 3 5.2301 4.4028 134.2538 -11.8130 -8.9959 27.8876
# 4 -10.0076 -14.4968 -11.8130 32.6028 6.7222 -2.6057
# 5 -1.8208 -5.5022 -8.9959 6.7222 6.1117 -4.9283
# 6 3.6438 1.0033 27.8876 -2.6057 -4.9283 31.3510
#
#
#
# Elastic Compliance Matrix: (Units=1/GPa)
#
#
# Indices 1 2 3 4 5 6 
#
# 1 0.013413 -0.002144 0.000005 0.003733 -0.003423 -0.001722
# 2 -0.002144 0.009062 0.000201 0.002267 0.006065 0.000923
# 3 0.000005 0.000201 0.009546 0.001614 0.006542 -0.007336
# 4 0.003733 0.002267 0.001614 0.042360 -0.045564 -0.005584
# 5 -0.003423 0.006065 0.006542 -0.045564 0.252190 0.030241
# 6 -0.001722 0.000923 -0.007336 -0.005584 0.030241 0.042883
#
#
# Mechanical properties :
#
#
# Convention : Reuss Voigt Hill
#
# Bulk Modulus (GPa) = 35.53272 44.66214 40.09743
# Shear Modulus (GPa) = 13.06467 34.40738 23.73602
#
# Velocity S-wave (km/s) = 2.26669 3.67848 3.05525
# Velocity P-wave (km/s) = 4.56337 5.96705 5.31178
#
# Compressibility (1/GPa) = 0.02814308
#
# Stress axis : x y z
#
# Youngs Moduli (GPa) = 74.55729 110.34739 104.75537
#
# Poissons Ratio (x) = 0.23660 -0.00049
# Poissons Ratio (y) = 0.15986 -0.02101
# Poissons Ratio (z) = -0.00035 -0.02213
#
# Static dielectric constant tensor:
#      x y z
#    x 1.865490 -0.165100 0.012520 
#    y -0.165100 1.886070 -0.014680 
#    z 0.012520 -0.014680 1.983240 
# 
# From -- ./inp_files/24995.got.cif
#   From: 2010.05.17/outbox.cif.g08.bks.cpg/sg2_13_cif.got.tgz:24995.got - 2010.06.03 11:33:40.
