data_PCOD9014740
_publ_section_title
;
Structure prediction by ZEFSAII (Michael W. Deem and Ramdas Pophale) SiO2 
 PCOD9014740
Probable space group: P -1
;
_chemical_formula_sum "Si O2"
_cell_formula_units_Z 16
_cell_length_a 5.722928
_cell_length_b 29.026361
_cell_length_c 5.158673
_cell_angle_alpha 95.242947
_cell_angle_beta 95.946893
_cell_angle_gamma 50.091776
_cell_volume 653.447185
_symmetry_space_group_name_H-M "P -1"
_symmetry_group_IT_number 2
_symmetry_cell_setting 'triclinic'
loop_
_space_group_symop_operation_xyz
x,y,z
-x,-y,-z
loop_
_atom_site_type_symbol
_atom_site_label
_atom_site_fract_x
_atom_site_fract_y
_atom_site_fract_z
Si Si1 0.609086 0.625393 0.440437
Si Si2 0.159013 0.074715 0.215840
Si Si3 0.458441 0.262513 0.638264
Si Si4 0.115792 0.030498 0.683876
Si Si5 0.943176 0.294829 0.260066
Si Si6 0.138136 0.794467 0.861424
Si Si7 0.298489 0.596618 0.004387
Si Si8 0.235869 0.516716 0.286474
O O1 0.634681 0.671684 0.326705
O O2 0.418250 0.660702 0.693041
O O3 0.928824 0.558940 0.437449
O O4 0.388090 0.618178 0.260872
O O5 0.037168 0.080730 0.494359
O O6 0.096335 0.134064 0.141516
O O7 0.520102 0.020683 0.261099
O O8 0.014581 0.057902 0.975742
O O9 0.703741 0.228131 0.414657
O O10 0.167560 0.269836 0.516389
O O11 0.607280 0.228204 0.904411
O O12 0.000000 0.000000 0.500000
O O13 0.002653 0.238214 0.105479
O O14 0.958812 0.342635 0.146702
O O15 0.615252 0.546929 0.859740
O O16 0.198195 0.559389 0.076402
O O17 0.500000 0.500000 0.500000
#
# Coordination Sequence:
#
# PCOD9014740 Si02
#       8
#     2   2   2   2   2   2   2   2
#     4  11  23  42  64  91 128 169 220 282 345 413
#     4  10  22  40  66 103 142 177 235 277 330 398
#     4  11  25  43  69  95 137 179 232 279 344 405
#     4  10  21  41  69 101 141 187 223 279 336 389
#     4  11  26  44  68  93 132 178 227 278 350 411
#     4  11  25  44  67 102 138 183 228 288 332 402
#     4  11  23  41  65  91 127 168 218 280 350 417
#     4  11  25  41  63  95 125 165 220 280 350 418
#
# _framework density 24.485530000000001
#
# number of rings (size 3 to 8) (size 9 to 14) (size 15 to 20)
#    0.000    1.250    1.250    3.750    3.500    6.000 
#    0.000    0.000    0.000    0.000    0.000    0.000 
#    0.000    0.000    0.000    0.000    0.000    0.000 
#
# Total GULP energy -89458.278280 kJ/mol
# GULP energy per Si atom -5591.142393 kJ/mol
# Density = 2.442980 g / cm^3
# Si number density = 24.485530 Si / 1000 Ang^3
#
#
#
# Elastic Constant Matrix: (Units=GPa)
#
#
# Indices 1 2 3 4 5 6 
#
# 1 44.8323 4.8572 17.2529 -6.5670 10.2579 13.1785
# 2 4.8572 113.7106 45.1850 -23.6038 3.5537 32.4494
# 3 17.2529 45.1850 115.5396 -11.6666 16.6420 10.7068
# 4 -6.5670 -23.6038 -11.6666 42.3614 1.0180 -5.9640
# 5 10.2579 3.5537 16.6420 1.0180 39.6211 5.3835
# 6 13.1785 32.4494 10.7068 -5.9640 5.3835 24.0600
#
#
#
# Elastic Compliance Matrix: (Units=1/GPa)
#
#
# Indices 1 2 3 4 5 6 
#
# 1 0.032408 0.009122 -0.004955 0.005213 -0.003767 -0.025714
# 2 0.009122 0.020427 -0.006314 0.006995 0.002149 -0.028483
# 3 -0.004955 -0.006314 0.011813 0.000034 -0.004049 0.006888
# 4 0.005213 0.006995 0.000034 0.027667 -0.002023 -0.004994
# 5 -0.003767 0.002149 -0.004049 -0.002023 0.028580 -0.005929
# 6 -0.025714 -0.028483 0.006888 -0.004994 -0.005929 0.091085
#
#
# Mechanical properties :
#
#
# Convention : Reuss Voigt Hill
#
# Bulk Modulus (GPa) = 16.56901 45.40806 30.98854
# Shear Modulus (GPa) = 21.15134 34.99434 28.07284
#
# Velocity S-wave (km/s) = 2.94229 3.78456 3.38968
# Velocity P-wave (km/s) = 4.28069 6.13859 5.29181
#
# Compressibility (1/GPa) = 0.06035362
#
# Stress axis : x y z
#
# Youngs Moduli (GPa) = 30.85648 48.95554 84.65446
#
# Poissons Ratio (x) = -0.44659 0.41947
# Poissons Ratio (y) = -0.28149 0.53454
# Poissons Ratio (z) = 0.15289 0.30912
#
# Static dielectric constant tensor:
#      x y z
#    x 2.011560 0.006940 -0.092350 
#    y 0.006940 1.931610 0.037850 
#    z -0.092350 0.037850 2.017900 
# 
# From -- ./inp_files/14379.got.cif
#   From: 2010.05.17/outbox.cif.g08.bks.cpg/sg2_8_cif.got.tgz:14379.got - 2010.06.03 11:33:40.
