data_PCOD9014259
_publ_section_title
;
Structure prediction by ZEFSAII (Michael W. Deem and Ramdas Pophale) SiO2 
 PCOD9014259
Probable space group: P -1
;
_chemical_formula_sum "Si O2"
_cell_formula_units_Z 10
_cell_length_a 13.920294
_cell_length_b 17.971281
_cell_length_c 10.237724
_cell_angle_alpha 31.005276
_cell_angle_beta 34.050588
_cell_angle_gamma 15.624623
_cell_volume 355.237862
_symmetry_space_group_name_H-M "P -1"
_symmetry_group_IT_number 2
_symmetry_cell_setting 'triclinic'
loop_
_space_group_symop_operation_xyz
x,y,z
-x,-y,-z
loop_
_atom_site_type_symbol
_atom_site_label
_atom_site_fract_x
_atom_site_fract_y
_atom_site_fract_z
Si Si1 0.985047 0.940227 0.464599
Si Si2 0.228750 0.636364 0.219682
Si Si3 0.633212 0.930949 0.807224
Si Si4 0.562396 0.164630 0.020647
Si Si5 0.458308 0.804186 0.713331
O O1 0.577707 0.286651 0.370374
O O2 0.974072 0.778290 0.692540
O O3 0.000000 0.000000 0.500000
O O4 0.283161 0.795850 0.258298
O O5 0.958667 0.801963 0.154910
O O6 0.947042 0.831681 0.360252
O O7 0.367261 0.700255 0.962949
O O8 0.627979 0.785241 0.952206
O O9 0.410696 0.193236 0.556687
O O10 0.500000 0.000000 0.000000
O O11 0.380463 0.296083 0.171398
#
# Coordination Sequence:
#
# PCOD9014259 Si02
#       5
#     2   2   2   2   2
#     4  12  23  41  64  95 133 159 210 262 313 369
#     4   9  20  41  71  91 118 173 211 254 310 364
#     4  12  23  39  64  95 133 163 202 264 320 366
#     4  10  21  41  67  91 121 168 210 258 300 373
#     4   9  20  41  67  93 123 162 219 251 306 379
#
# _framework density 28.150153
#
# number of rings (size 3 to 8) (size 9 to 14) (size 15 to 20)
#    1.200    0.400    4.000    1.200    0.000    0.800 
#    0.000    5.000    0.000    0.000    0.000    0.000 
#    0.000    0.000    0.000    0.000    0.000    0.000 
#
# Total GULP energy -55757.554713 kJ/mol
# GULP energy per Si atom -5575.755471 kJ/mol
# Density = 2.808608 g / cm^3
# Si number density = 28.150153 Si / 1000 Ang^3
#
#
#
# Elastic Constant Matrix: (Units=GPa)
#
#
# Indices 1 2 3 4 5 6 
#
# 1 279.9926 14.1676 105.7524 27.4408 -13.6971 -13.9402
# 2 14.1676 102.8432 19.9599 2.4574 -7.5445 -20.9688
# 3 105.7524 19.9599 176.7776 25.9798 -6.6073 5.1848
# 4 27.4408 2.4574 25.9798 25.4312 8.0712 -7.0024
# 5 -13.6971 -7.5445 -6.6073 8.0712 75.5735 7.9150
# 6 -13.9402 -20.9688 5.1848 -7.0024 7.9150 31.2680
#
#
#
# Elastic Compliance Matrix: (Units=1/GPa)
#
#
# Indices 1 2 3 4 5 6 
#
# 1 0.004939 0.000412 -0.002720 -0.002188 0.000695 0.002264
# 2 0.000412 0.011960 -0.002413 0.003577 -0.000318 0.009486
# 3 -0.002720 -0.002413 0.009052 -0.008432 0.001653 -0.006639
# 4 -0.002188 0.003577 -0.008432 0.057700 -0.008822 0.017977
# 5 0.000695 -0.000318 0.001653 -0.008822 0.015037 -0.005959
# 6 0.002264 0.009486 -0.006639 0.017977 -0.005959 0.045988
#
#
# Mechanical properties :
#
#
# Convention : Reuss Voigt Hill
#
# Bulk Modulus (GPa) = 60.56835 93.26368 76.91602
# Shear Modulus (GPa) = 31.32397 54.43677 42.88037
#
# Velocity S-wave (km/s) = 3.33940 4.40227 3.90715
# Velocity P-wave (km/s) = 6.03587 7.68392 6.90921
#
# Compressibility (1/GPa) = 0.01651027
#
# Stress axis : x y z
#
# Youngs Moduli (GPa) = 202.46248 83.60887 110.46985
#
# Poissons Ratio (x) = -0.03447 0.30050
# Poissons Ratio (y) = -0.08348 0.26656
# Poissons Ratio (z) = 0.55074 0.20174
#
# Static dielectric constant tensor:
#      x y z
#    x 2.544860 0.148050 0.015830 
#    y 0.148050 2.280380 -0.069210 
#    z 0.015830 -0.069210 2.230810 
# 
# From -- ./inp_files/457039.got.cif
#   From: 2010.05.17/outbox.cif.g08.bks.cpg/sg2_229_cif.got.tgz:457039.got - 2010.06.03 11:33:40.
