data_PCOD9014211
_publ_section_title
;
Structure prediction by ZEFSAII (Michael W. Deem and Ramdas Pophale) SiO2 
 PCOD9014211
Probable space group: P -1
;
_chemical_formula_sum "Si O2"
_cell_formula_units_Z 16
_cell_length_a 10.871736
_cell_length_b 17.932840
_cell_length_c 5.871515
_cell_angle_alpha 49.117944
_cell_angle_beta 69.281243
_cell_angle_gamma 48.103763
_cell_volume 637.125795
_symmetry_space_group_name_H-M "P -1"
_symmetry_group_IT_number 2
_symmetry_cell_setting 'triclinic'
loop_
_space_group_symop_operation_xyz
x,y,z
-x,-y,-z
loop_
_atom_site_type_symbol
_atom_site_label
_atom_site_fract_x
_atom_site_fract_y
_atom_site_fract_z
Si Si1 0.376804 0.759183 0.431201
Si Si2 0.187736 0.244375 0.430077
Si Si3 0.255226 0.067982 0.376241
Si Si4 0.411631 0.160551 0.834720
Si Si5 0.958598 0.232564 0.951517
Si Si6 0.630446 0.503322 0.563836
Si Si7 0.771856 0.151333 0.147979
Si Si8 0.856645 0.583397 0.232907
O O1 0.423658 0.853799 0.203374
O O2 0.527528 0.609687 0.613003
O O3 0.297297 0.786374 0.679284
O O4 0.292997 0.781282 0.192284
O O5 0.282640 0.114133 0.494542
O O6 0.338893 0.222926 0.512328
O O7 0.060939 0.250401 0.671228
O O8 0.088943 0.373425 0.099100
O O9 0.255439 0.952191 0.629099
O O10 0.375546 0.063284 0.118864
O O11 0.064857 0.185588 0.203551
O O12 0.280116 0.279102 0.845825
O O13 0.775567 0.362829 0.830975
O O14 0.951727 0.121688 0.098576
O O15 0.500000 0.500000 0.500000
O O16 0.746704 0.539390 0.316690
O O17 0.000000 0.500000 0.500000
#
# Coordination Sequence:
#
# PCOD9014211 Si02
#       8
#     2   2   2   2   2   2   2   2
#     4  11  28  48  72 106 148 195 239 299 372 442
#     4  10  22  42  71 102 143 185 249 302 362 432
#     4  10  24  44  72 104 140 189 248 306 359 427
#     4   9  22  41  66 103 138 188 242 294 365 437
#     4  11  25  45  70 106 140 192 246 301 370 431
#     4  11  23  46  71 107 150 191 244 300 372 443
#     4  12  28  48  72 105 148 196 244 298 366 436
#     4  10  21  41  67 104 144 189 245 300 366 434
#
# _framework density 25.112781999999999
#
# number of rings (size 3 to 8) (size 9 to 14) (size 15 to 20)
#    0.000    1.500    1.250    2.625   10.500    4.000 
#    4.500    0.000    0.000    0.000    0.000    0.000 
#    0.000    0.000    0.000    0.000    0.000    0.000 
#
# Total GULP energy -89235.750579 kJ/mol
# GULP energy per Si atom -5577.234411 kJ/mol
# Density = 2.505562 g / cm^3
# Si number density = 25.112782 Si / 1000 Ang^3
#
#
#
# Elastic Constant Matrix: (Units=GPa)
#
#
# Indices 1 2 3 4 5 6 
#
# 1 133.7988 13.8448 40.4580 -1.6028 -7.2329 23.1763
# 2 13.8448 71.6413 37.0798 6.1850 0.7174 15.3536
# 3 40.4580 37.0798 118.2371 -7.2848 -6.3239 5.9568
# 4 -1.6028 6.1850 -7.2848 24.6209 18.3459 -1.2346
# 5 -7.2329 0.7174 -6.3239 18.3459 38.8600 -15.0456
# 6 23.1763 15.3536 5.9568 -1.2346 -15.0456 38.8229
#
#
#
# Elastic Compliance Matrix: (Units=1/GPa)
#
#
# Indices 1 2 3 4 5 6 
#
# 1 0.009331 0.001236 -0.003350 -0.000226 -0.001028 -0.005951
# 2 0.001236 0.019394 -0.006544 -0.005997 -0.001532 -0.008188
# 3 -0.003350 -0.006544 0.011817 0.004839 0.000317 0.003051
# 4 -0.000226 -0.005997 0.004839 0.069844 -0.035972 -0.009956
# 5 -0.001028 -0.001532 0.000317 -0.035972 0.050138 0.019458
# 6 -0.005951 -0.008188 0.003051 -0.009956 0.019458 0.039305
#
#
# Mechanical properties :
#
#
# Convention : Reuss Voigt Hill
#
# Bulk Modulus (GPa) = 43.05267 56.27138 49.66202
# Shear Modulus (GPa) = 22.23322 35.94707 29.09015
#
# Velocity S-wave (km/s) = 2.97869 3.78752 3.40719
# Velocity P-wave (km/s) = 5.38619 6.44850 5.94114
#
# Compressibility (1/GPa) = 0.02322736
#
# Stress axis : x y z
#
# Youngs Moduli (GPa) = 107.16462 51.56105 84.62150
#
# Poissons Ratio (x) = -0.06371 0.28345
# Poissons Ratio (y) = -0.13241 0.55375
# Poissons Ratio (z) = 0.35896 0.33741
#
# Static dielectric constant tensor:
#      x y z
#    x 1.981260 -0.015080 -0.017830 
#    y -0.015080 2.081000 0.006290 
#    z -0.017830 0.006290 2.061380 
# 
# From -- ./inp_files/80106.got.cif
#   From: 2010.05.17/outbox.cif.g08.bks.cpg/sg2_41_cif.got.tgz:80106.got - 2010.06.03 11:33:40.
