data_PCOD9014054
_publ_section_title
;
Structure prediction by ZEFSAII (Michael W. Deem and Ramdas Pophale) SiO2 
 PCOD9014054
Probable space group: P -1
;
_chemical_formula_sum "Si O2"
_cell_formula_units_Z 16
_cell_length_a 8.800511
_cell_length_b 14.187173
_cell_length_c 11.613451
_cell_angle_alpha 30.473497
_cell_angle_beta 69.195020
_cell_angle_gamma 79.547716
_cell_volume 663.189383
_symmetry_space_group_name_H-M "P -1"
_symmetry_group_IT_number 2
_symmetry_cell_setting 'triclinic'
loop_
_space_group_symop_operation_xyz
x,y,z
-x,-y,-z
loop_
_atom_site_type_symbol
_atom_site_label
_atom_site_fract_x
_atom_site_fract_y
_atom_site_fract_z
Si Si1 0.070299 0.021862 0.829989
Si Si2 0.533058 0.772873 0.494847
Si Si3 0.451807 0.201438 0.286323
Si Si4 0.968672 0.346299 0.399525
Si Si5 0.506991 0.189257 0.020414
Si Si6 0.098259 0.212774 0.289563
Si Si7 0.877371 0.374621 0.759679
Si Si8 0.704661 0.560902 0.217525
O O1 0.265928 0.142111 0.651858
O O2 0.959448 0.135201 0.671458
O O3 0.063471 0.807571 0.016116
O O4 0.000000 0.000000 0.000000
O O5 0.479559 0.695998 0.720355
O O6 0.458031 0.602307 0.608764
O O7 0.464329 0.958257 0.285123
O O8 0.253213 0.183743 0.355752
O O9 0.500000 0.000000 0.500000
O O10 0.503783 0.260440 0.079917
O O11 0.993454 0.321158 0.283823
O O12 0.125372 0.488673 0.274308
O O13 0.818088 0.439596 0.375128
O O14 0.701165 0.280035 0.843560
O O15 0.377299 0.270948 0.894010
O O16 0.176558 0.337076 0.027304
O O17 0.000000 0.000000 0.500000
O O18 0.000000 0.500000 0.500000
#
# Coordination Sequence:
#
# PCOD9014054 Si02
#       8
#     2   2   2   2   2   2   2   2
#     4  11  23  45  75  98 129 175 233 290 327 390
#     4  10  21  41  66  95 132 171 229 273 337 392
#     4   9  19  36  64  94 123 176 214 273 331 392
#     4  12  26  43  67 100 136 182 220 275 347 391
#     4   9  22  39  65  93 134 170 221 280 331 394
#     4  11  26  43  64 100 145 180 219 270 339 413
#     4  11  24  44  73  99 128 173 237 284 328 397
#     4  11  26  40  65  98 140 177 214 272 338 422
#
# _framework density 24.125838999999999
#
# number of rings (size 3 to 8) (size 9 to 14) (size 15 to 20)
#    0.000    1.500    2.500    1.125    8.750    1.000 
#    0.000    1.250    0.000    0.000    0.000    0.000 
#    0.000    0.000    0.000    0.000    0.000    0.000 
#
# Total GULP energy -89383.612692 kJ/mol
# GULP energy per Si atom -5586.475793 kJ/mol
# Density = 2.407093 g / cm^3
# Si number density = 24.125839 Si / 1000 Ang^3
#
#
#
# Elastic Constant Matrix: (Units=GPa)
#
#
# Indices 1 2 3 4 5 6 
#
# 1 80.7889 -7.4084 37.8688 -18.2488 35.7576 -23.8552
# 2 -7.4084 57.4323 21.5193 -17.1367 1.0804 -4.0038
# 3 37.8688 21.5193 118.1264 -15.5780 9.7777 -11.4603
# 4 -18.2488 -17.1367 -15.5780 42.5232 -11.7554 4.4064
# 5 35.7576 1.0804 9.7777 -11.7554 42.8143 -18.6530
# 6 -23.8552 -4.0038 -11.4603 4.4064 -18.6530 29.2130
#
#
#
# Elastic Compliance Matrix: (Units=1/GPa)
#
#
# Indices 1 2 3 4 5 6 
#
# 1 0.028842 0.010074 -0.007668 0.008184 -0.015697 0.010668
# 2 0.010074 0.024532 -0.005452 0.011005 -0.001901 0.006576
# 3 -0.007668 -0.005452 0.011576 -0.000183 0.003858 0.000023
# 4 0.008184 0.011005 -0.000183 0.031971 0.004355 0.006078
# 5 -0.015697 -0.001901 0.003858 0.004355 0.043646 0.015647
# 6 0.010668 0.006576 0.000023 0.006078 0.015647 0.052927
#
#
# Mechanical properties :
#
#
# Convention : Reuss Voigt Hill
#
# Bulk Modulus (GPa) = 16.98987 40.03411 28.51199
# Shear Modulus (GPa) = 22.80979 36.53463 29.67221
#
# Velocity S-wave (km/s) = 3.07815 3.89567 3.51079
# Velocity P-wave (km/s) = 4.43744 6.07165 5.31769
#
# Compressibility (1/GPa) = 0.05885860
#
# Stress axis : x y z
#
# Youngs Moduli (GPa) = 34.67178 40.76280 86.38818
#
# Poissons Ratio (x) = -0.41066 0.66242
# Poissons Ratio (y) = -0.34929 0.47099
# Poissons Ratio (z) = 0.26586 0.22224
#
# Static dielectric constant tensor:
#      x y z
#    x 2.026150 -0.002650 0.037310 
#    y -0.002650 2.004220 0.019270 
#    z 0.037310 0.019270 1.927910 
# 
# From -- ./inp_files/398103.got.cif
#   From: 2010.05.17/outbox.cif.g08.bks.cpg/sg2_200_cif.got.tgz:398103.got - 2010.06.03 11:33:40.
