data_PCOD9014208
_publ_section_title
;
Structure prediction by ZEFSAII (Michael W. Deem and Ramdas Pophale) SiO2 
 PCOD9014208
Probable space group: P -1
;
_chemical_formula_sum "Si O2"
_cell_formula_units_Z 14
_cell_length_a 6.707351
_cell_length_b 10.096526
_cell_length_c 10.350624
_cell_angle_alpha 111.314713
_cell_angle_beta 113.329812
_cell_angle_gamma 106.032238
_cell_volume 522.318341
_symmetry_space_group_name_H-M "P -1"
_symmetry_group_IT_number 2
_symmetry_cell_setting 'triclinic'
loop_
_space_group_symop_operation_xyz
x,y,z
-x,-y,-z
loop_
_atom_site_type_symbol
_atom_site_label
_atom_site_fract_x
_atom_site_fract_y
_atom_site_fract_z
Si Si1 0.897944 0.792446 0.531288
Si Si2 0.000000 0.500000 0.000000
Si Si3 0.607667 0.326317 0.037123
Si Si4 0.947692 0.845789 0.261776
Si Si5 0.197411 0.899467 0.105133
Si Si6 0.639102 0.752705 0.799099
Si Si7 0.335569 0.550938 0.354884
Si Si8 0.000000 0.500000 0.500000
O O1 0.972708 0.824985 0.411191
O O2 0.599591 0.705482 0.440503
O O3 0.985780 0.670869 0.564479
O O4 0.004469 0.969886 0.686004
O O5 0.798549 0.475100 0.055021
O O6 0.810763 0.494613 0.835484
O O7 0.334698 0.266128 0.892340
O O8 0.682490 0.187380 0.976793
O O9 0.590448 0.341492 0.192159
O O10 0.144133 0.827802 0.212060
O O11 0.365227 0.093211 0.208905
O O12 0.915508 0.839949 0.964673
O O13 0.630750 0.607371 0.665340
O O14 0.172917 0.566097 0.432145
#
# Coordination Sequence:
#
# PCOD9014208 Si02
#       8
#     2   1   2   2   2   2   2   1
#     4  11  26  48  72 104 145 200 245 300 358 444
#     4  12  26  46  74 112 144 188 248 298 372 432
#     4  11  23  41  72 105 140 189 238 304 361 437
#     4  10  24  45  72 101 143 190 248 299 362 426
#     4  10  21  41  67 104 140 181 239 301 363 427
#     4  10  23  40  67 102 145 184 233 299 367 426
#     4  12  27  48  74 108 149 192 242 305 362 439
#     4  12  30  48  76 108 150 200 246 292 376 434
#
# _framework density 26.803577000000001
#
# number of rings (size 3 to 8) (size 9 to 14) (size 15 to 20)
#    0.000    1.143    2.857    1.714    4.000    2.857 
#    0.000    2.857    0.000    0.000    0.000    0.000 
#    0.000    0.000    0.000    0.000    0.000    0.000 
#
# Total GULP energy -78063.525509 kJ/mol
# GULP energy per Si atom -5575.966108 kJ/mol
# Density = 2.674257 g / cm^3
# Si number density = 26.803577 Si / 1000 Ang^3
#
#
#
# Elastic Constant Matrix: (Units=GPa)
#
#
# Indices 1 2 3 4 5 6 
#
# 1 160.9482 57.4309 29.3733 -4.6063 -34.8560 28.6795
# 2 57.4309 147.2411 31.3587 15.9988 -15.6725 10.6890
# 3 29.3733 31.3587 55.3632 -5.5999 -13.8519 16.7197
# 4 -4.6063 15.9988 -5.5999 44.4857 18.0401 -4.7126
# 5 -34.8560 -15.6725 -13.8519 18.0401 49.9935 -19.2130
# 6 28.6795 10.6890 16.7197 -4.7126 -19.2130 58.1625
#
#
#
# Elastic Compliance Matrix: (Units=1/GPa)
#
#
# Indices 1 2 3 4 5 6 
#
# 1 0.008606 -0.002388 -0.001603 -0.000353 0.004168 -0.001996
# 2 -0.002388 0.009336 -0.004268 -0.004950 0.002263 0.001035
# 3 -0.001603 -0.004268 0.023295 0.003402 0.001041 -0.004502
# 4 -0.000353 -0.004950 0.003402 0.029370 -0.012025 -0.001487
# 5 0.004168 0.002263 0.001041 -0.012025 0.030704 0.006398
# 6 -0.001996 0.001035 -0.004502 -0.001487 0.006398 0.021274
#
#
# Mechanical properties :
#
#
# Convention : Reuss Voigt Hill
#
# Bulk Modulus (GPa) = 40.45779 66.65315 53.55547
# Shear Modulus (GPa) = 33.93424 46.88766 40.41095
#
# Velocity S-wave (km/s) = 3.56200 4.18701 3.88709
# Velocity P-wave (km/s) = 5.66075 6.94953 6.33798
#
# Compressibility (1/GPa) = 0.02471712
#
# Stress axis : x y z
#
# Youngs Moduli (GPa) = 116.19561 107.11563 42.92808
#
# Poissons Ratio (x) = 0.25584 0.06883
# Poissons Ratio (y) = 0.27752 0.18321
# Poissons Ratio (z) = 0.18632 0.45716
#
# Static dielectric constant tensor:
#      x y z
#    x 2.175970 -0.114110 0.173180 
#    y -0.114110 2.190250 -0.055990 
#    z 0.173180 -0.055990 2.498030 
# 
# From -- ./inp_files/365070.got.cif
#   From: 2010.05.17/outbox.cif.g08.bks.cpg/sg2_183_cif.got.tgz:365070.got - 2010.06.03 11:33:40.
