data_PCOD9014923
_publ_section_title
;
Structure prediction by ZEFSAII (Michael W. Deem and Ramdas Pophale) SiO2 
 PCOD9014923
Probable space group: P -1
;
_chemical_formula_sum "Si O2"
_cell_formula_units_Z 16
_cell_length_a 17.538970
_cell_length_b 12.466555
_cell_length_c 9.726790
_cell_angle_alpha 60.569858
_cell_angle_beta 28.195767
_cell_angle_gamma 51.727727
_cell_volume 780.323893
_symmetry_space_group_name_H-M "P -1"
_symmetry_group_IT_number 2
_symmetry_cell_setting 'triclinic'
loop_
_space_group_symop_operation_xyz
x,y,z
-x,-y,-z
loop_
_atom_site_type_symbol
_atom_site_label
_atom_site_fract_x
_atom_site_fract_y
_atom_site_fract_z
Si Si1 0.982140 0.360946 0.626186
Si Si2 0.392715 0.126634 0.489725
Si Si3 0.022571 0.194902 0.390636
Si Si4 0.008453 0.641499 0.936149
Si Si5 0.645858 0.145667 0.666329
Si Si6 0.298400 0.623284 0.722028
Si Si7 0.723312 0.115049 0.870460
Si Si8 0.308418 0.120224 0.330747
O O1 0.030401 0.281972 0.453485
O O2 0.000000 0.500000 0.500000
O O3 0.142663 0.265091 0.531454
O O4 0.803241 0.370785 0.976643
O O5 0.392537 0.062805 0.380391
O O6 0.500000 0.000000 0.500000
O O7 0.532887 0.189388 0.202986
O O8 0.192204 0.239261 0.776483
O O9 0.960157 0.294208 0.295327
O O10 0.873377 0.142251 0.690444
O O11 0.199567 0.051638 0.162565
O O12 0.165403 0.612991 0.819498
O O13 0.000000 0.500000 0.000000
O O14 0.673166 0.244128 0.452551
O O15 0.695574 0.171718 0.723435
O O16 0.761869 0.984053 0.551155
O O17 0.448044 0.148415 0.995421
O O18 0.500000 0.500000 0.500000
#
# Coordination Sequence:
#
# PCOD9014923 Si02
#       8
#     2   2   2   2   2   2   2   2
#     4  12  25  44  68  99 139 184 231 285 354 424
#     4  11  23  42  68 103 137 180 233 285 346 420
#     4  11  23  42  70 102 136 180 227 291 355 414
#     4  12  26  46  70 102 144 187 236 285 354 425
#     4  10  21  42  68  96 136 174 226 287 350 418
#     4  12  27  48  68 100 138 188 241 290 347 425
#     4  10  21  41  70 101 137 171 231 290 352 411
#     4  10  22  40  67 102 134 180 224 284 357 413
#
# _framework density 20.504306
#
# number of rings (size 3 to 8) (size 9 to 14) (size 15 to 20)
#    0.000    1.000    5.000    1.500    0.000    3.500 
#    0.000    1.250    0.000    0.000    0.000    0.000 
#    0.000    0.000    0.000    0.000    0.000    0.000 
#
# Total GULP energy -89167.702163 kJ/mol
# GULP energy per Si atom -5572.981385 kJ/mol
# Density = 2.045764 g / cm^3
# Si number density = 20.504306 Si / 1000 Ang^3
#
#
#
# Elastic Constant Matrix: (Units=GPa)
#
#
# Indices 1 2 3 4 5 6 
#
# 1 94.7704 40.8052 39.1249 1.6901 -5.4492 -3.0377
# 2 40.8052 133.3304 53.9641 -12.4317 -3.5216 0.0353
# 3 39.1249 53.9641 98.0544 -7.7289 0.1151 -4.8217
# 4 1.6901 -12.4317 -7.7289 26.6334 -7.0875 -6.0050
# 5 -5.4492 -3.5216 0.1151 -7.0875 27.8898 -0.9037
# 6 -3.0377 0.0353 -4.8217 -6.0050 -0.9037 35.6192
#
#
#
# Elastic Compliance Matrix: (Units=1/GPa)
#
#
# Indices 1 2 3 4 5 6 
#
# 1 0.013576 -0.002699 -0.004151 -0.002864 0.001606 0.000157
# 2 -0.002699 0.010561 -0.004399 0.004322 0.001921 -0.000059
# 3 -0.004151 -0.004399 0.014594 0.002735 -0.000665 0.002070
# 4 -0.002864 0.004322 0.002735 0.045505 0.011801 0.008093
# 5 0.001606 0.001921 -0.000665 0.011801 0.039512 0.003037
# 6 0.000157 -0.000059 0.002070 0.008093 0.003037 0.029810
#
#
# Mechanical properties :
#
#
# Convention : Reuss Voigt Hill
#
# Bulk Modulus (GPa) = 61.61125 65.99371 63.80248
# Shear Modulus (GPa) = 27.55301 30.84588 29.19945
#
# Velocity S-wave (km/s) = 3.66972 3.88282 3.77777
# Velocity P-wave (km/s) = 6.93318 7.23580 7.08611
#
# Compressibility (1/GPa) = 0.01623080
#
# Stress axis : x y z
#
# Youngs Moduli (GPa) = 73.65722 94.69127 68.51997
#
# Poissons Ratio (x) = 0.25560 0.28446
# Poissons Ratio (y) = 0.19883 0.30145
# Poissons Ratio (z) = 0.30578 0.41659
#
# Static dielectric constant tensor:
#      x y z
#    x 1.731160 0.071240 -0.062290 
#    y 0.071240 1.627700 0.085980 
#    z -0.062290 0.085980 1.771320 
# 
# From -- ./inp_files/297937.got.cif
#   From: 2010.05.17/outbox.cif.g08.bks.cpg/sg2_149_cif.got.tgz:297937.got - 2010.06.03 11:33:40.
