data_PCOD9014793
_publ_section_title
;
Structure prediction by ZEFSAII (Michael W. Deem and Ramdas Pophale) SiO2 
 PCOD9014793
Probable space group: P -1
;
_chemical_formula_sum "Si O2"
_cell_formula_units_Z 16
_cell_length_a 9.853009
_cell_length_b 20.039985
_cell_length_c 16.115217
_cell_angle_alpha 146.081405
_cell_angle_beta 151.346028
_cell_angle_gamma 32.021895
_cell_volume 761.585512
_symmetry_space_group_name_H-M "P -1"
_symmetry_group_IT_number 2
_symmetry_cell_setting 'triclinic'
loop_
_space_group_symop_operation_xyz
x,y,z
-x,-y,-z
loop_
_atom_site_type_symbol
_atom_site_label
_atom_site_fract_x
_atom_site_fract_y
_atom_site_fract_z
Si Si1 0.186783 0.084901 0.161584
Si Si2 0.755845 0.702049 0.991997
Si Si3 0.548517 0.409476 0.707706
Si Si4 0.463399 0.528458 0.608434
Si Si5 0.753093 0.730665 0.488951
Si Si6 0.612136 0.114093 0.695846
Si Si7 0.547977 0.297348 0.997647
Si Si8 0.364798 0.961962 0.967774
O O1 0.297214 0.133787 0.351525
O O2 0.926893 0.222060 0.124836
O O3 0.428839 0.012732 0.143558
O O4 0.000000 0.000000 0.000000
O O5 0.574957 0.734888 0.016013
O O6 0.095092 0.694051 0.182724
O O7 0.750653 0.564207 0.821611
O O8 0.543816 0.803992 0.913513
O O9 0.497723 0.426305 0.597736
O O10 0.312332 0.364228 0.580131
O O11 0.527828 0.547917 0.877763
O O12 0.500000 0.500000 0.500000
O O13 0.111920 0.650801 0.563884
O O14 0.492495 0.783721 0.331919
O O15 0.460133 0.218727 0.798277
O O16 0.500000 0.000000 0.500000
O O17 0.986887 0.029942 0.825717
O O18 0.500000 0.000000 0.000000
#
# Coordination Sequence:
#
# PCOD9014793 Si02
#       8
#     2   2   2   2   2   2   2   2
#     4  11  20  42  71  89 125 183 218 263 334 400
#     4  11  22  44  67  89 137 179 223 263 336 405
#     4  11  25  43  66 100 137 174 219 269 353 389
#     4  11  24  42  68  96 133 174 224 270 321 405
#     4  12  24  43  66 105 134 167 224 287 330 393
#     4  11  25  41  70  98 129 171 235 270 325 393
#     4  10  21  41  69  91 129 181 218 265 327 414
#     4  11  24  44  64  97 131 170 221 279 338 384
#
# _framework density 21.008803
#
# number of rings (size 3 to 8) (size 9 to 14) (size 15 to 20)
#    0.000    1.000    3.750    4.875    3.500    1.500 
#    4.500    1.250    0.000    0.000    0.000    0.000 
#    0.000    0.000    0.000    0.000    0.000    0.000 
#
# Total GULP energy -89176.400550 kJ/mol
# GULP energy per Si atom -5573.525034 kJ/mol
# Density = 2.096099 g / cm^3
# Si number density = 21.008803 Si / 1000 Ang^3
#
#
#
# Elastic Constant Matrix: (Units=GPa)
#
#
# Indices 1 2 3 4 5 6 
#
# 1 141.3087 27.9387 55.7079 23.5072 -16.1944 21.0665
# 2 27.9387 72.2227 16.9880 -1.7720 4.8757 20.0762
# 3 55.7079 16.9880 81.0561 7.1003 -16.5082 4.7646
# 4 23.5072 -1.7720 7.1003 33.0642 0.3707 -0.9298
# 5 -16.1944 4.8757 -16.5082 0.3707 37.6726 -3.9710
# 6 21.0665 20.0762 4.7646 -0.9298 -3.9710 34.2119
#
#
#
# Elastic Compliance Matrix: (Units=1/GPa)
#
#
# Indices 1 2 3 4 5 6 
#
# 1 0.012482 -0.002062 -0.006700 -0.007725 0.002193 -0.005498
# 2 -0.002062 0.018620 -0.003358 0.002975 -0.005828 -0.009785
# 3 -0.006700 -0.003358 0.018591 0.000641 0.006142 0.004237
# 4 -0.007725 0.002975 0.000641 0.035895 -0.003409 0.003502
# 5 0.002193 -0.005828 0.006142 -0.003409 0.031470 0.004775
# 6 -0.005498 -0.009785 0.004237 0.003502 0.004775 0.038417
#
#
# Mechanical properties :
#
#
# Convention : Reuss Voigt Hill
#
# Bulk Modulus (GPa) = 39.28666 55.09520 47.19093
# Shear Modulus (GPa) = 26.56795 33.91992 30.24393
#
# Velocity S-wave (km/s) = 3.55999 4.02251 3.79830
# Velocity P-wave (km/s) = 5.96982 6.91780 6.46122
#
# Compressibility (1/GPa) = 0.02545393
#
# Stress axis : x y z
#
# Youngs Moduli (GPa) = 80.11775 53.70594 53.78939
#
# Poissons Ratio (x) = 0.11073 0.36037
# Poissons Ratio (y) = 0.16518 0.18062
# Poissons Ratio (z) = 0.53677 0.18034
#
# Static dielectric constant tensor:
#      x y z
#    x 1.796610 -0.033780 -0.060100 
#    y -0.033780 1.856870 0.023590 
#    z -0.060100 0.023590 1.789060 
# 
# From -- ./inp_files/495162.got.cif
#   From: 2010.05.17/outbox.cif.g08.bks.cpg/sg2_248_cif.got.tgz:495162.got - 2010.06.03 11:33:40.
