data_PCOD9014825
_publ_section_title
;
Structure prediction by ZEFSAII (Michael W. Deem and Ramdas Pophale) SiO2 
 PCOD9014825
Probable space group: P -1
;
_chemical_formula_sum "Si O2"
_cell_formula_units_Z 16
_cell_length_a 18.596766
_cell_length_b 9.771132
_cell_length_c 9.403063
_cell_angle_alpha 96.873623
_cell_angle_beta 98.069581
_cell_angle_gamma 27.488646
_cell_volume 780.810742
_symmetry_space_group_name_H-M "P -1"
_symmetry_group_IT_number 2
_symmetry_cell_setting 'triclinic'
loop_
_space_group_symop_operation_xyz
x,y,z
-x,-y,-z
loop_
_atom_site_type_symbol
_atom_site_label
_atom_site_fract_x
_atom_site_fract_y
_atom_site_fract_z
Si Si1 0.312723 0.052957 0.185250
Si Si2 0.383453 0.599954 0.888083
Si Si3 0.792485 0.853294 0.140365
Si Si4 0.188280 0.705671 0.012825
Si Si5 0.059930 0.471055 0.369717
Si Si6 0.700001 0.715156 0.220485
Si Si7 0.880039 0.326998 0.499380
Si Si8 0.660632 0.675342 0.733087
O O1 0.235743 0.142438 0.325790
O O2 0.289682 0.255585 0.191501
O O3 0.496168 0.708123 0.188611
O O4 0.230752 0.122034 0.032855
O O5 0.253588 0.734554 0.959241
O O6 0.298490 0.855887 0.800571
O O7 0.500000 0.500000 0.000000
O O8 0.728381 0.820272 0.183391
O O9 0.961177 0.589405 0.221161
O O10 0.271086 0.443149 0.915813
O O11 0.258257 0.573026 0.173483
O O12 0.000000 0.000000 0.000000
O O13 0.047675 0.655354 0.412328
O O14 0.000000 0.500000 0.500000
O O15 0.821775 0.466030 0.344588
O O16 0.524922 0.012200 0.267998
O O17 0.728823 0.544482 0.578819
O O18 0.000000 0.000000 0.500000
#
# Coordination Sequence:
#
# PCOD9014825 Si02
#       8
#     2   2   2   2   2   2   2   2
#     4  10  21  41  69  94 127 174 213 269 327 393
#     4  10  23  42  64 101 139 165 219 278 334 394
#     4  11  23  41  67  98 130 170 212 273 333 392
#     4  12  25  40  69 104 133 172 227 280 331 394
#     4  11  24  44  64  91 133 172 219 265 329 399
#     4  12  23  43  68  94 133 176 223 269 331 402
#     4  11  26  45  64  94 132 173 223 277 330 390
#     4  11  22  42  70  93 130 175 222 269 330 393
#
# _framework density 20.491522
#
# number of rings (size 3 to 8) (size 9 to 14) (size 15 to 20)
#    0.000    1.000    3.750    3.375    5.250    2.000 
#    6.750    0.625    0.000    0.000    0.000    0.000 
#    0.000    0.000    0.000    0.000    0.000    0.000 
#
# Total GULP energy -89292.423346 kJ/mol
# GULP energy per Si atom -5580.776459 kJ/mol
# Density = 2.044488 g / cm^3
# Si number density = 20.491522 Si / 1000 Ang^3
#
#
#
# Elastic Constant Matrix: (Units=GPa)
#
#
# Indices 1 2 3 4 5 6 
#
# 1 103.3111 37.8229 24.7333 3.1020 -24.3525 -1.7660
# 2 37.8229 103.2132 23.4162 7.1455 -30.9344 -2.8872
# 3 24.7333 23.4162 69.0499 6.0628 -24.9537 5.8365
# 4 3.1020 7.1455 6.0628 27.0605 -3.8817 -7.4626
# 5 -24.3525 -30.9344 -24.9537 -3.8817 28.6999 -2.7885
# 6 -1.7660 -2.8872 5.8365 -7.4626 -2.7885 34.2764
#
#
#
# Elastic Compliance Matrix: (Units=1/GPa)
#
#
# Indices 1 2 3 4 5 6 
#
# 1 0.012517 -0.002047 -0.001250 0.000888 0.007593 0.001496
# 2 -0.002047 0.014926 0.001181 -0.001228 0.015399 0.001936
# 3 -0.001250 0.001181 0.021685 -0.003181 0.018359 -0.002856
# 4 0.000888 -0.001228 -0.003181 0.041008 0.003149 0.009668
# 5 0.007593 0.015399 0.018359 0.003149 0.074792 0.005332
# 6 0.001496 0.001936 -0.002856 0.009668 0.005332 0.032440
#
#
# Mechanical properties :
#
#
# Convention : Reuss Voigt Hill
#
# Bulk Modulus (GPa) = 22.27359 49.72432 35.99896
# Shear Modulus (GPa) = 23.08794 30.64748 26.86771
#
# Velocity S-wave (km/s) = 3.36029 3.87152 3.62493
# Velocity P-wave (km/s) = 5.09398 6.65608 5.92672
#
# Compressibility (1/GPa) = 0.04489622
#
# Stress axis : x y z
#
# Youngs Moduli (GPa) = 79.89162 66.99933 46.11490
#
# Poissons Ratio (x) = 0.13716 0.05762
# Poissons Ratio (y) = 0.16355 -0.05447
# Poissons Ratio (z) = 0.09983 -0.07913
#
# Static dielectric constant tensor:
#      x y z
#    x 2.268500 0.577810 -0.095080 
#    y 0.577810 2.566570 -0.112780 
#    z -0.095080 -0.112780 1.776300 
# 
# From -- ./inp_files/223609.got.cif
#   From: 2010.05.17/outbox.cif.g08.bks.cpg/sg2_112_cif.got.tgz:223609.got - 2010.06.03 11:33:40.
