data_PCOD9014450
_publ_section_title
;
Structure prediction by ZEFSAII (Michael W. Deem and Ramdas Pophale) SiO2 
 PCOD9014450
Probable space group: P -1
;
_chemical_formula_sum "Si O2"
_cell_formula_units_Z 16
_cell_length_a 5.406277
_cell_length_b 17.724574
_cell_length_c 8.781657
_cell_angle_alpha 96.253847
_cell_angle_beta 76.857038
_cell_angle_gamma 132.387660
_cell_volume 604.094922
_symmetry_space_group_name_H-M "P -1"
_symmetry_group_IT_number 2
_symmetry_cell_setting 'triclinic'
loop_
_space_group_symop_operation_xyz
x,y,z
-x,-y,-z
loop_
_atom_site_type_symbol
_atom_site_label
_atom_site_fract_x
_atom_site_fract_y
_atom_site_fract_z
Si Si1 0.586420 0.172129 0.983897
Si Si2 0.574234 0.065813 0.236522
Si Si3 0.743555 0.689367 0.276263
Si Si4 0.295071 0.478915 0.874309
Si Si5 0.786553 0.939178 0.287183
Si Si6 0.352757 0.657206 0.848018
Si Si7 0.853418 0.386882 0.488557
Si Si8 0.870404 0.226108 0.472257
O O1 0.314796 0.119553 0.872679
O O2 0.972905 0.247742 0.879779
O O3 0.578749 0.094365 0.067538
O O4 0.506217 0.230851 0.107241
O O5 0.836749 0.175668 0.309316
O O6 0.691658 0.007859 0.272703
O O7 0.167410 0.998806 0.306707
O O8 0.669593 0.583962 0.260284
O O9 0.380601 0.657148 0.332884
O O10 0.915445 0.763660 0.415816
O O11 0.461412 0.590811 0.822554
O O12 0.500000 0.500000 0.000000
O O13 0.914691 0.404337 0.983716
O O14 0.516529 0.853957 0.428341
O O15 0.271645 0.646395 0.676900
O O16 0.027122 0.340837 0.468889
O O17 0.000000 0.500000 0.500000
#
# Coordination Sequence:
#
# PCOD9014450 Si02
#       8
#     2   2   2   2   2   2   2   2
#     4  10  23  48  71 109 148 195 250 315 381 453
#     4  12  25  50  77 116 147 207 251 322 379 463
#     4  10  25  44  67 106 149 195 245 313 375 447
#     4  10  21  41  67  98 139 191 240 303 368 444
#     4  11  27  46  79 111 157 194 259 315 391 446
#     4  10  22  42  64 100 140 184 247 298 369 446
#     4  12  25  44  74 104 147 194 249 309 377 458
#     4  11  26  45  73 107 150 195 250 311 384 452
#
# _framework density 26.485904000000001
#
# number of rings (size 3 to 8) (size 9 to 14) (size 15 to 20)
#    0.000    1.250    1.250    3.000    5.250    7.000 
#    9.000    0.000    0.000    0.000    0.000    0.000 
#    0.000    0.000    0.000    0.000    0.000    0.000 
#
# Total GULP energy -89209.989969 kJ/mol
# GULP energy per Si atom -5575.624373 kJ/mol
# Density = 2.642562 g / cm^3
# Si number density = 26.485904 Si / 1000 Ang^3
#
#
#
# Elastic Constant Matrix: (Units=GPa)
#
#
# Indices 1 2 3 4 5 6 
#
# 1 73.3968 33.9042 26.5099 -1.9652 -27.0295 -17.4320
# 2 33.9042 102.2407 23.2014 20.9411 -17.0333 -27.7316
# 3 26.5099 23.2014 124.0487 29.2328 -6.0457 0.9589
# 4 -1.9652 20.9411 29.2328 57.1545 4.2351 -1.7910
# 5 -27.0295 -17.0333 -6.0457 4.2351 38.8863 -4.3742
# 6 -17.4320 -27.7316 0.9589 -1.7910 -4.3742 31.0252
#
#
#
# Elastic Compliance Matrix: (Units=1/GPa)
#
#
# Indices 1 2 3 4 5 6 
#
# 1 0.027634 -0.000082 -0.005772 0.003031 0.020040 0.018631
# 2 -0.000082 0.017550 -0.001530 -0.005860 0.009914 0.016747
# 3 -0.005772 -0.001530 0.010660 -0.005037 -0.003114 -0.005670
# 4 0.003031 -0.005860 -0.005037 0.022537 -0.003995 -0.002642
# 5 0.020040 0.009914 -0.003114 -0.003995 0.046932 0.026604
# 6 0.018631 0.016747 -0.005670 -0.002642 0.026604 0.061443
#
#
# Mechanical properties :
#
#
# Convention : Reuss Voigt Hill
#
# Bulk Modulus (GPa) = 24.34568 51.87971 38.11270
# Shear Modulus (GPa) = 23.23241 39.81790 31.52516
#
# Velocity S-wave (km/s) = 2.96490 3.88153 3.45376
# Velocity P-wave (km/s) = 4.57523 6.30226 5.50687
#
# Compressibility (1/GPa) = 0.04107504
#
# Stress axis : x y z
#
# Youngs Moduli (GPa) = 36.18789 56.98009 93.80813
#
# Poissons Ratio (x) = 0.00470 0.54143
# Poissons Ratio (y) = 0.00298 0.14354
# Poissons Ratio (z) = 0.20887 0.08718
#
# Static dielectric constant tensor:
#      x y z
#    x 2.252470 0.067180 -0.014550 
#    y 0.067180 2.193270 -0.098200 
#    z -0.014550 -0.098200 2.239490 
# 
# From -- ./inp_files/139128.got.cif
#   From: 2010.05.17/outbox.cif.g08.bks.cpg/sg2_70_cif.got.tgz:139128.got - 2010.06.03 11:33:40.
