data_PCOD9014442
_publ_section_title
;
Structure prediction by ZEFSAII (Michael W. Deem and Ramdas Pophale) SiO2 
 PCOD9014442
Probable space group: P -1
;
_chemical_formula_sum "Si O2"
_cell_formula_units_Z 14
_cell_length_a 9.164592
_cell_length_b 7.886623
_cell_length_c 11.659326
_cell_angle_alpha 125.128513
_cell_angle_beta 128.284737
_cell_angle_gamma 56.703376
_cell_volume 516.112958
_symmetry_space_group_name_H-M "P -1"
_symmetry_group_IT_number 2
_symmetry_cell_setting 'triclinic'
loop_
_space_group_symop_operation_xyz
x,y,z
-x,-y,-z
loop_
_atom_site_type_symbol
_atom_site_label
_atom_site_fract_x
_atom_site_fract_y
_atom_site_fract_z
Si Si1 0.571222 0.735122 0.064774
Si Si2 0.800017 0.103173 0.659423
Si Si3 0.503560 0.368442 0.764931
Si Si4 0.879299 0.982543 0.048684
Si Si5 0.851971 0.462474 0.506209
Si Si6 0.238628 0.402647 0.239684
Si Si7 0.312324 0.898347 0.642732
O O1 0.604340 0.638222 0.171005
O O2 0.681477 0.916007 0.191453
O O3 0.613704 0.547912 0.918499
O O4 0.339316 0.856057 0.993968
O O5 0.648605 0.141131 0.706404
O O6 0.790032 0.351272 0.717757
O O7 0.734371 0.014867 0.476513
O O8 0.001596 0.982055 0.769799
O O9 0.355230 0.440711 0.618289
O O10 0.855710 0.741928 0.940634
O O11 0.000000 0.000000 0.000000
O O12 0.858433 0.580985 0.675271
O O13 0.842478 0.225315 0.447709
O O14 0.000000 0.500000 0.500000
O O15 0.468655 0.270673 0.316025
#
# Coordination Sequence:
#
# PCOD9014442 Si02
#       7
#     2   2   2   2   2   2   2
#     4  10  25  42  65  98 143 175 224 282 342 404
#     4  11  20  41  72  96 133 178 232 272 335 403
#     4  11  22  43  67  98 135 184 221 278 354 397
#     4  11  23  38  63 104 136 172 229 284 324 402
#     4  11  23  40  70  99 136 176 225 285 344 398
#     4  10  21  41  67  98 133 178 230 274 335 411
#     4  10  21  45  69 100 130 182 237 272 331 416
#
# _framework density 27.125843
#
# number of rings (size 3 to 8) (size 9 to 14) (size 15 to 20)
#    0.000    1.429    4.286    1.286    2.000    2.286 
#    0.000    0.714    0.000    0.000    0.000    0.000 
#    0.000    0.000    0.000    0.000    0.000    0.000 
#
# Total GULP energy -78532.540564 kJ/mol
# GULP energy per Si atom -5609.467183 kJ/mol
# Density = 2.706410 g / cm^3
# Si number density = 27.125843 Si / 1000 Ang^3
#
#
#
# Elastic Constant Matrix: (Units=GPa)
#
#
# Indices 1 2 3 4 5 6 
#
# 1 128.2179 5.0426 21.6178 18.1355 -4.8940 5.6792
# 2 5.0426 56.1436 31.3010 7.9018 6.4893 11.5279
# 3 21.6178 31.3010 131.3740 0.9227 -5.4811 -11.0237
# 4 18.1355 7.9018 0.9227 49.0732 9.3745 -0.7479
# 5 -4.8940 6.4893 -5.4811 9.3745 39.0224 9.5302
# 6 5.6792 11.5279 -11.0237 -0.7479 9.5302 29.2279
#
#
#
# Elastic Compliance Matrix: (Units=1/GPa)
#
#
# Indices 1 2 3 4 5 6 
#
# 1 0.008925 0.001405 -0.002003 -0.004034 0.002545 -0.003977
# 2 0.001405 0.025089 -0.007283 -0.004458 -0.000832 -0.012758
# 3 -0.002003 -0.007283 0.010270 0.001782 0.000240 0.007102
# 4 -0.004034 -0.004458 0.001782 0.023931 -0.006734 0.006022
# 5 0.002545 -0.000832 0.000240 -0.006734 0.030201 -0.010096
# 6 -0.003977 -0.012758 0.007102 0.006022 -0.010096 0.046143
#
#
# Mechanical properties :
#
#
# Convention : Reuss Voigt Hill
#
# Bulk Modulus (GPa) = 35.05898 47.96204 41.51051
# Shear Modulus (GPa) = 29.44165 40.64963 35.04564
#
# Velocity S-wave (km/s) = 3.29807 3.87532 3.59829
# Velocity P-wave (km/s) = 5.23982 6.14360 5.70962
#
# Compressibility (1/GPa) = 0.02852336
#
# Stress axis : x y z
#
# Youngs Moduli (GPa) = 112.03928 39.85870 97.37080
#
# Poissons Ratio (x) = -0.05600 0.19500
# Poissons Ratio (y) = -0.15741 0.70912
# Poissons Ratio (z) = 0.22437 0.29028
#
# Static dielectric constant tensor:
#      x y z
#    x 2.161150 0.026630 0.035180 
#    y 0.026630 2.140000 0.018970 
#    z 0.035180 0.018970 2.013920 
# 
# From -- ./inp_files/159980.got.cif
#   From: 2010.05.17/outbox.cif.g08.bks.cpg/sg2_80_cif.got.tgz:159980.got - 2010.06.03 11:33:40.
