data_PCOD9014984
_publ_section_title
;
Structure prediction by ZEFSAII (Michael W. Deem and Ramdas Pophale) SiO2 
 PCOD9014984
Probable space group: P -1
;
_chemical_formula_sum "Si O2"
_cell_formula_units_Z 10
_cell_length_a 4.718178
_cell_length_b 6.985684
_cell_length_c 16.169017
_cell_angle_alpha 66.035429
_cell_angle_beta 93.121983
_cell_angle_gamma 70.046268
_cell_volume 446.037462
_symmetry_space_group_name_H-M "P -1"
_symmetry_group_IT_number 2
_symmetry_cell_setting 'triclinic'
loop_
_space_group_symop_operation_xyz
x,y,z
-x,-y,-z
loop_
_atom_site_type_symbol
_atom_site_label
_atom_site_fract_x
_atom_site_fract_y
_atom_site_fract_z
Si Si1 0.034577 0.275359 0.991639
Si Si2 0.215077 0.027017 0.430256
Si Si3 0.137789 0.620089 0.408575
Si Si4 0.699865 0.508197 0.322927
Si Si5 0.545763 0.219931 0.886776
O O1 0.215911 0.247256 0.912422
O O2 0.706626 0.281527 0.957357
O O3 0.000000 0.500000 0.000000
O O4 0.237303 0.042538 0.084022
O O5 0.006807 0.280111 0.348791
O O6 0.500000 0.000000 0.500000
O O7 0.218890 0.832237 0.400759
O O8 0.000000 0.000000 0.500000
O O9 0.463012 0.473617 0.392330
O O10 0.000000 0.500000 0.500000
O O11 0.853080 0.677613 0.330812
O O12 0.505179 0.615330 0.220066
#
# Coordination Sequence:
#
# PCOD9014984 Si02
#       5
#     2   2   2   2   2
#     4  10  21  41  70  93 136 170 206 262 332 403
#     4  12  26  42  65  92 125 176 229 276 334 383
#     4  12  26  43  66  94 128 182 228 276 335 385
#     4  12  26  42  67  95 138 170 229 285 317 398
#     4  10  23  41  63 103 129 169 214 266 330 387
#
# _framework density 22.419640999999999
#
# number of rings (size 3 to 8) (size 9 to 14) (size 15 to 20)
#    0.000    0.800    2.000    4.800    0.000    3.200 
#    0.000    0.000    0.000    0.000    0.000    0.000 
#    0.000    0.000    0.000    0.000    0.000    0.000 
#
# Total GULP energy -55696.727665 kJ/mol
# GULP energy per Si atom -5569.672766 kJ/mol
# Density = 2.236861 g / cm^3
# Si number density = 22.419641 Si / 1000 Ang^3
#
#
#
# Elastic Constant Matrix: (Units=GPa)
#
#
# Indices 1 2 3 4 5 6 
#
# 1 131.7296 38.0509 22.2146 -7.5821 18.0333 -0.0515
# 2 38.0509 136.9080 58.1080 -24.9356 7.5207 28.9639
# 3 22.2146 58.1080 115.5798 -27.8599 4.2966 5.1969
# 4 -7.5821 -24.9356 -27.8599 19.9268 -0.8155 -1.6829
# 5 18.0333 7.5207 4.2966 -0.8155 28.4477 1.6833
# 6 -0.0515 28.9639 5.1969 -1.6829 1.6833 43.4512
#
#
#
# Elastic Compliance Matrix: (Units=1/GPa)
#
#
# Indices 1 2 3 4 5 6 
#
# 1 0.009082 -0.002526 -0.000470 -0.000409 -0.005144 0.001934
# 2 -0.002526 0.012861 -0.003206 0.009969 -0.000568 -0.007784
# 3 -0.000470 -0.003206 0.014078 0.015559 -0.000598 0.001079
# 4 -0.000409 0.009969 0.015559 0.083735 -0.002019 -0.005185
# 5 -0.005144 -0.000568 -0.000598 -0.002019 0.038663 -0.001132
# 6 0.001934 -0.007784 0.001079 -0.005185 -0.001132 0.027919
#
#
# Mechanical properties :
#
#
# Convention : Reuss Voigt Hill
#
# Bulk Modulus (GPa) = 42.34288 68.99607 55.66947
# Shear Modulus (GPa) = 24.19969 36.08808 30.14388
#
# Velocity S-wave (km/s) = 3.28898 4.01641 3.67076
# Velocity P-wave (km/s) = 5.77501 7.23536 6.54603
#
# Compressibility (1/GPa) = 0.02361672
#
# Stress axis : x y z
#
# Youngs Moduli (GPa) = 110.11310 77.75671 71.03071
#
# Poissons Ratio (x) = 0.19639 0.03340
# Poissons Ratio (y) = 0.27811 0.22774
# Poissons Ratio (z) = 0.05177 0.24930
#
# Static dielectric constant tensor:
#      x y z
#    x 1.813960 0.000480 -0.014830 
#    y 0.000480 2.615480 -0.376910 
#    z -0.014830 -0.376910 2.009460 
# 
# From -- ./inp_files/546185.got.cif
#   From: 2010.05.17/outbox.cif.g08.bks.cpg/sg2_274_cif.got.tgz:546185.got - 2010.06.03 11:33:40.
