data_PCOD9014001
_publ_section_title
;
Structure prediction by ZEFSAII (Michael W. Deem and Ramdas Pophale) SiO2 
 PCOD9014001
Probable space group: P -1
;
_chemical_formula_sum "Si O2"
_cell_formula_units_Z 15
_cell_length_a 7.493622
_cell_length_b 14.563157
_cell_length_c 9.127589
_cell_angle_alpha 66.498709
_cell_angle_beta 53.747691
_cell_angle_gamma 43.751718
_cell_volume 554.773729
_symmetry_space_group_name_H-M "P -1"
_symmetry_group_IT_number 2
_symmetry_cell_setting 'triclinic'
loop_
_space_group_symop_operation_xyz
x,y,z
-x,-y,-z
loop_
_atom_site_type_symbol
_atom_site_label
_atom_site_fract_x
_atom_site_fract_y
_atom_site_fract_z
Si Si1 0.311169 0.277568 0.016152
Si Si2 0.500000 0.500000 0.000000
Si Si3 0.725577 0.814603 0.448058
Si Si4 0.084125 0.488514 0.737046
Si Si5 0.867947 0.198399 0.971758
Si Si6 0.153866 0.060497 0.471605
Si Si7 0.226712 0.974013 0.176703
Si Si8 0.246050 0.520110 0.351513
O O1 0.219887 0.374474 0.861780
O O2 0.437710 0.138974 0.966749
O O3 0.597342 0.226498 0.002884
O O4 0.051608 0.376479 0.197288
O O5 0.252675 0.665170 0.979186
O O6 0.531581 0.464962 0.824659
O O7 0.738558 0.867877 0.560377
O O8 0.920784 0.658149 0.456324
O O9 0.394902 0.905044 0.500754
O O10 0.886404 0.837900 0.238607
O O11 0.305343 0.448812 0.520586
O O12 0.812891 0.507917 0.770143
O O13 0.021509 0.074934 0.083986
O O14 0.156819 0.059991 0.298575
O O15 0.864749 0.108638 0.662274
#
# Coordination Sequence:
#
# PCOD9014001 Si02
#       8
#     2   1   2   2   2   2   2   2
#     4  11  22  41  63  98 128 168 222 275 302 392
#     4  10  22  42  62  90 136 158 212 264 336 378
#     4  10  22  40  62  92 135 163 214 272 333 378
#     4  10  23  40  68  93 130 172 228 260 325 382
#     4  11  23  42  65  91 130 175 207 271 329 387
#     4  10  23  41  62  98 128 168 218 273 319 394
#     4  11  24  41  69  93 127 175 221 263 324 389
#     4  10  21  41  66  94 121 180 208 276 320 393
#
# _framework density 27.038052
#
# number of rings (size 3 to 8) (size 9 to 14) (size 15 to 20)
#    0.000    1.600    2.667    1.200    1.867    3.733 
#    2.400    1.333    0.000    0.000    0.000    0.000 
#    0.000    0.000    0.000    0.000    0.000    0.000 
#
# Total GULP energy -83688.329731 kJ/mol
# GULP energy per Si atom -5579.221982 kJ/mol
# Density = 2.697651 g / cm^3
# Si number density = 27.038052 Si / 1000 Ang^3
#
#
#
# Elastic Constant Matrix: (Units=GPa)
#
#
# Indices 1 2 3 4 5 6 
#
# 1 66.3310 6.3903 34.4940 -3.7514 12.9404 -14.5234
# 2 6.3903 109.4634 64.5511 9.2627 12.6459 -16.0256
# 3 34.4940 64.5511 155.1642 -15.8388 27.5118 -8.8143
# 4 -3.7514 9.2627 -15.8388 55.8787 -0.4940 2.7575
# 5 12.9404 12.6459 27.5118 -0.4940 42.8964 -1.3726
# 6 -14.5234 -16.0256 -8.8143 2.7575 -1.3726 19.8804
#
#
#
# Elastic Compliance Matrix: (Units=1/GPa)
#
#
# Indices 1 2 3 4 5 6 
#
# 1 0.022041 0.005208 -0.005518 -0.001864 -0.004097 0.017830
# 2 0.005208 0.015650 -0.007178 -0.004973 -0.001196 0.013845
# 3 -0.005518 -0.007178 0.011431 0.004303 -0.003681 -0.005600
# 4 -0.001864 -0.004973 0.004303 0.020120 -0.000702 -0.006301
# 5 -0.004097 -0.001196 -0.003681 -0.000702 0.027137 -0.003617
# 6 0.017830 0.013845 -0.005600 -0.006301 -0.003617 0.072628
#
#
# Mechanical properties :
#
#
# Convention : Reuss Voigt Hill
#
# Bulk Modulus (GPa) = 29.28396 60.20325 44.74361
# Shear Modulus (GPa) = 25.59323 38.76597 32.17960
#
# Velocity S-wave (km/s) = 3.07997 3.79061 3.45361
# Velocity P-wave (km/s) = 4.84793 6.43993 5.69979
#
# Compressibility (1/GPa) = 0.03414838
#
# Stress axis : x y z
#
# Youngs Moduli (GPa) = 45.36962 63.89774 87.47972
#
# Poissons Ratio (x) = -0.33280 0.48269
# Poissons Ratio (y) = -0.23630 0.62790
# Poissons Ratio (z) = 0.25034 0.45864
#
# Static dielectric constant tensor:
#      x y z
#    x 0.641360 -0.310760 1.375190 
#    y -0.310760 2.064950 0.375540 
#    z 1.375190 0.375540 0.881670 
# 
# From -- ./inp_files/206811.got.cif
#   From: 2010.05.17/outbox.cif.g08.bks.cpg/sg2_104_cif.got.tgz:206811.got - 2010.06.03 11:33:40.
