data_PCOD9014125
_publ_section_title
;
Structure prediction by ZEFSAII (Michael W. Deem and Ramdas Pophale) SiO2 
 PCOD9014125
Probable space group: P -1
;
_chemical_formula_sum "Si O2"
_cell_formula_units_Z 14
_cell_length_a 10.705297
_cell_length_b 11.958295
_cell_length_c 9.222025
_cell_angle_alpha 76.552798
_cell_angle_beta 52.272955
_cell_angle_gamma 116.778604
_cell_volume 578.707279
_symmetry_space_group_name_H-M "P -1"
_symmetry_group_IT_number 2
_symmetry_cell_setting 'triclinic'
loop_
_space_group_symop_operation_xyz
x,y,z
-x,-y,-z
loop_
_atom_site_type_symbol
_atom_site_label
_atom_site_fract_x
_atom_site_fract_y
_atom_site_fract_z
Si Si1 0.708072 0.683373 0.081405
Si Si2 0.921869 0.265637 0.728603
Si Si3 0.844710 0.992783 0.002490
Si Si4 0.504361 0.997526 0.705278
Si Si5 0.262252 0.468443 0.662560
Si Si6 0.924752 0.641095 0.732256
Si Si7 0.278534 0.651790 0.822774
O O1 0.447170 0.519559 0.397131
O O2 0.861414 0.692341 0.089518
O O3 0.772688 0.667916 0.885506
O O4 0.740407 0.836948 0.017023
O O5 0.980483 0.164555 0.755808
O O6 0.027011 0.352448 0.472401
O O7 0.057120 0.407615 0.721344
O O8 0.629252 0.116539 0.013234
O O9 0.000000 0.000000 0.000000
O O10 0.418299 0.848295 0.701629
O O11 0.795863 0.183402 0.455018
O O12 0.361816 0.038530 0.772898
O O13 0.398287 0.635410 0.619950
O O14 0.762031 0.449217 0.976503
O O15 0.000000 0.500000 0.000000
#
# Coordination Sequence:
#
# PCOD9014125 Si02
#       7
#     2   2   2   2   2   2   2
#     4  10  22  42  67  96 137 181 229 284 339 405
#     4  10  22  44  69 101 139 177 231 279 345 413
#     4  10  21  41  66  98 132 179 226 276 340 398
#     4  10  24  44  72 103 139 176 230 281 348 411
#     4  10  21  43  68  99 136 178 233 288 339 404
#     4  11  26  45  69 104 141 181 226 282 349 413
#     4  11  23  44  68 103 135 179 234 285 339 405
#
# _framework density 24.191849000000001
#
# number of rings (size 3 to 8) (size 9 to 14) (size 15 to 20)
#    0.857    0.857    2.857    0.429    4.000    3.429 
#    5.143    0.000    0.000    0.000    0.000    0.000 
#    0.000    0.000    0.000    0.000    0.000    0.000 
#
# Total GULP energy -77991.266525 kJ/mol
# GULP energy per Si atom -5570.804752 kJ/mol
# Density = 2.413679 g / cm^3
# Si number density = 24.191849 Si / 1000 Ang^3
#
#
#
# Elastic Constant Matrix: (Units=GPa)
#
#
# Indices 1 2 3 4 5 6 
#
# 1 33.5977 44.5103 12.9013 0.0490 2.4342 -11.9849
# 2 44.5103 171.8533 43.0825 5.6030 13.1539 -33.9689
# 3 12.9013 43.0825 121.7206 23.7309 12.6957 -2.9949
# 4 0.0490 5.6030 23.7309 41.2466 -6.5769 3.5644
# 5 2.4342 13.1539 12.6957 -6.5769 28.7353 6.4507
# 6 -11.9849 -33.9689 -2.9949 3.5644 6.4507 40.8602
#
#
#
# Elastic Compliance Matrix: (Units=1/GPa)
#
#
# Indices 1 2 3 4 5 6 
#
# 1 0.046189 -0.011005 -0.001476 0.002178 0.001405 0.003879
# 2 -0.011005 0.010856 -0.001573 -0.001980 -0.005297 0.006691
# 3 -0.001476 -0.001573 0.010907 -0.007019 -0.005709 0.000572
# 4 0.002178 -0.001980 -0.007019 0.031047 0.012315 -0.006174
# 5 0.001405 -0.005297 -0.005709 0.012315 0.045283 -0.012634
# 6 0.003879 0.006691 0.000572 -0.006174 -0.012634 0.033749
#
#
# Mechanical properties :
#
#
# Convention : Reuss Voigt Hill
#
# Bulk Modulus (GPa) = 25.09809 58.68444 41.89127
# Shear Modulus (GPa) = 22.78744 37.28024 30.03384
#
# Velocity S-wave (km/s) = 3.07244 3.92985 3.52730
# Velocity P-wave (km/s) = 4.79413 6.70091 5.82606
#
# Compressibility (1/GPa) = 0.03984367
#
# Stress axis : x y z
#
# Youngs Moduli (GPa) = 21.65040 92.11471 91.68584
#
# Poissons Ratio (x) = 1.01369 0.13535
# Poissons Ratio (y) = 0.23825 0.14422
# Poissons Ratio (z) = 0.03196 0.14489
#
# Static dielectric constant tensor:
#      x y z
#    x 2.160440 -0.032930 -0.083600 
#    y -0.032930 2.051960 -0.015470 
#    z -0.083600 -0.015470 2.063920 
# 
# From -- ./inp_files/272395.got.cif
#   From: 2010.05.17/outbox.cif.g08.bks.cpg/sg2_137_cif.got.tgz:272395.got - 2010.06.03 11:33:40.
