data_PCOD9014395
_publ_section_title
;
Structure prediction by ZEFSAII (Michael W. Deem and Ramdas Pophale) SiO2 
 PCOD9014395
Probable space group: P -1
;
_chemical_formula_sum "Si O2"
_cell_formula_units_Z 14
_cell_length_a 8.164777
_cell_length_b 12.522942
_cell_length_c 7.564558
_cell_angle_alpha 119.935108
_cell_angle_beta 113.082097
_cell_angle_gamma 75.795496
_cell_volume 615.407573
_symmetry_space_group_name_H-M "P -1"
_symmetry_group_IT_number 2
_symmetry_cell_setting 'triclinic'
loop_
_space_group_symop_operation_xyz
x,y,z
-x,-y,-z
loop_
_atom_site_type_symbol
_atom_site_label
_atom_site_fract_x
_atom_site_fract_y
_atom_site_fract_z
Si Si1 0.292715 0.333103 0.204521
Si Si2 0.966124 0.127288 0.201422
Si Si3 0.585868 0.126236 0.095262
Si Si4 0.308606 0.492659 0.010124
Si Si5 0.261453 0.294954 0.554881
Si Si6 0.588120 0.127930 0.674618
Si Si7 0.916930 0.253033 0.927346
O O1 0.248112 0.361852 0.413750
O O2 0.464886 0.239304 0.211193
O O3 0.328157 0.443005 0.177097
O O4 0.127413 0.261431 0.990626
O O5 0.138013 0.178102 0.406562
O O6 0.790868 0.117675 0.235432
O O7 0.916569 0.232015 0.120924
O O8 0.000000 0.000000 0.000000
O O9 0.583117 0.141870 0.895567
O O10 0.500000 0.000000 0.000000
O O11 0.213644 0.391145 0.768693
O O12 0.500000 0.500000 0.000000
O O13 0.188653 0.619118 0.059076
O O14 0.460006 0.235602 0.624241
O O15 0.792558 0.145988 0.717742
O O16 0.500000 0.000000 0.500000
#
# Coordination Sequence:
#
# PCOD9014395 Si02
#       7
#     2   2   2   2   2   2   2
#     4  11  24  43  66  99 135 171 225 270 332 394
#     4  10  21  41  67  96 134 173 218 278 329 388
#     4  11  21  40  64  97 139 171 215 283 325 390
#     4  12  23  46  67  97 138 171 227 276 325 396
#     4  11  23  43  69  96 130 181 220 268 340 389
#     4  11  21  41  66  97 130 173 222 272 334 395
#     4  10  22  42  67  92 137 177 210 286 327 381
#
# _framework density 22.74915
#
# number of rings (size 3 to 8) (size 9 to 14) (size 15 to 20)
#    0.000    1.143    2.857    5.571    0.000    2.857 
#    5.143    1.429    0.000    0.000    0.000    0.000 
#    0.000    0.000    0.000    0.000    0.000    0.000 
#
# Total GULP energy -78189.900668 kJ/mol
# GULP energy per Si atom -5584.992905 kJ/mol
# Density = 2.269737 g / cm^3
# Si number density = 22.749150 Si / 1000 Ang^3
#
#
#
# Elastic Constant Matrix: (Units=GPa)
#
#
# Indices 1 2 3 4 5 6 
#
# 1 92.3316 11.5721 13.0575 -7.7864 26.3150 4.5756
# 2 11.5721 111.0541 7.9017 -14.1193 -9.9225 7.7387
# 3 13.0575 7.9017 79.3310 -2.2588 6.1618 5.3626
# 4 -7.7864 -14.1193 -2.2588 33.0186 2.0039 -7.0739
# 5 26.3150 -9.9225 6.1618 2.0039 40.4461 -2.8440
# 6 4.5756 7.7387 5.3626 -7.0739 -2.8440 36.8293
#
#
#
# Elastic Compliance Matrix: (Units=1/GPa)
#
#
# Indices 1 2 3 4 5 6 
#
# 1 0.014345 -0.001828 -0.001238 0.002805 -0.009833 -0.001438
# 2 -0.001828 0.010065 -0.000824 0.003421 0.003556 -0.000836
# 3 -0.001238 -0.000824 0.013124 -0.000020 -0.001515 -0.001705
# 4 0.002805 0.003421 -0.000020 0.033667 -0.002283 0.005226
# 5 -0.009833 0.003556 -0.001515 -0.002283 0.032533 0.002769
# 6 -0.001438 -0.000836 -0.001705 0.005226 0.002769 0.028972
#
#
# Mechanical properties :
#
#
# Convention : Reuss Voigt Hill
#
# Bulk Modulus (GPa) = 33.61044 38.64214 36.12629
# Shear Modulus (GPa) = 33.24370 38.73783 35.99076
#
# Velocity S-wave (km/s) = 3.82686 4.13101 3.98184
# Velocity P-wave (km/s) = 5.85943 6.30688 6.08727
#
# Compressibility (1/GPa) = 0.02975266
#
# Stress axis : x y z
#
# Youngs Moduli (GPa) = 69.70994 99.35685 76.19871
#
# Poissons Ratio (x) = 0.18167 0.09435
# Poissons Ratio (y) = 0.12746 0.06277
# Poissons Ratio (z) = 0.08631 0.08185
#
# Static dielectric constant tensor:
#      x y z
#    x 1.794340 -0.091610 -0.100460 
#    y -0.091610 1.696970 -0.183490 
#    z -0.100460 -0.183490 1.688220 
# 
# From -- ./inp_files/182878.got.cif
#   From: 2010.05.17/outbox.cif.g08.bks.cpg/sg2_92_cif.got.tgz:182878.got - 2010.06.03 11:33:40.
