data_PCOD9014989
_publ_section_title
;
Structure prediction by ZEFSAII (Michael W. Deem and Ramdas Pophale) SiO2 
 PCOD9014989
Probable space group: P -1
;
_chemical_formula_sum "Si O2"
_cell_formula_units_Z 12
_cell_length_a 7.859436
_cell_length_b 9.537669
_cell_length_c 12.912666
_cell_angle_alpha 138.701464
_cell_angle_beta 116.017295
_cell_angle_gamma 88.243863
_cell_volume 495.855531
_symmetry_space_group_name_H-M "P -1"
_symmetry_group_IT_number 2
_symmetry_cell_setting 'triclinic'
loop_
_space_group_symop_operation_xyz
x,y,z
-x,-y,-z
loop_
_atom_site_type_symbol
_atom_site_label
_atom_site_fract_x
_atom_site_fract_y
_atom_site_fract_z
Si Si1 0.886486 0.775211 0.763033
Si Si2 0.727927 0.253255 0.493840
Si Si3 0.304731 0.454378 0.098774
Si Si4 0.706535 0.052364 0.151058
Si Si5 0.993885 0.647000 0.202616
Si Si6 0.334284 0.128206 0.440137
O O1 0.737129 0.515224 0.633964
O O2 0.760270 0.815845 0.657566
O O3 0.080441 0.755260 0.748238
O O4 0.000000 0.000000 0.000000
O O5 0.694370 0.144481 0.311748
O O6 0.951078 0.297419 0.631433
O O7 0.525282 0.082636 0.420464
O O8 0.109958 0.486770 0.117049
O O9 0.532759 0.653898 0.321251
O O10 0.249972 0.470064 0.971815
O O11 0.277723 0.192181 0.969122
O O12 0.500000 0.000000 0.000000
O O13 0.139018 0.899704 0.319111
#
# Coordination Sequence:
#
# PCOD9014989 Si02
#       6
#     2   2   2   2   2   2
#     4  12  24  43  72  97 131 184 230 276 327 399
#     4  11  24  40  67 103 138 173 220 282 337 396
#     4  10  21  41  70  94 132 177 223 268 328 393
#     4  12  25  45  64 100 143 174 222 281 343 396
#     4  10  22  44  71  98 137 173 233 271 325 399
#     4  11  22  45  71 100 132 177 231 274 324 401
#
# _framework density 24.200597999999999
#
# number of rings (size 3 to 8) (size 9 to 14) (size 15 to 20)
#    0.000    1.000    1.667    7.000    2.333    0.667 
#    3.000    3.333    0.000    0.000    0.000    0.000 
#    0.000    0.000    0.000    0.000    0.000    0.000 
#
# Total GULP energy -67153.765653 kJ/mol
# GULP energy per Si atom -5596.147138 kJ/mol
# Density = 2.414552 g / cm^3
# Si number density = 24.200598 Si / 1000 Ang^3
#
#
#
# Elastic Constant Matrix: (Units=GPa)
#
#
# Indices 1 2 3 4 5 6 
#
# 1 41.9790 2.3136 28.3929 -9.3925 9.7087 -10.5116
# 2 2.3136 153.8039 79.9595 -29.3626 12.4501 -23.2166
# 3 28.3929 79.9595 191.9205 -39.9682 15.3665 -1.8249
# 4 -9.3925 -29.3626 -39.9682 68.9016 -6.6790 11.5005
# 5 9.7087 12.4501 15.3665 -6.6790 28.1638 -13.7689
# 6 -10.5116 -23.2166 -1.8249 11.5005 -13.7689 33.1537
#
#
#
# Elastic Compliance Matrix: (Units=1/GPa)
#
#
# Indices 1 2 3 4 5 6 
#
# 1 0.031572 0.004839 -0.006141 0.000542 -0.004078 0.011179
# 2 0.004839 0.010324 -0.004804 0.000929 0.000762 0.008494
# 3 -0.006141 -0.004804 0.009006 0.003233 -0.003524 -0.007401
# 4 0.000542 0.000929 0.003233 0.017693 -0.000850 -0.005490
# 5 -0.004078 0.000762 -0.003524 -0.000850 0.047650 0.019130
# 6 0.011179 0.008494 -0.007401 -0.005490 0.019130 0.049097
#
#
# Mechanical properties :
#
#
# Convention : Reuss Voigt Hill
#
# Bulk Modulus (GPa) = 25.84691 67.67061 46.75876
# Shear Modulus (GPa) = 26.25365 44.51299 35.38332
#
# Velocity S-wave (km/s) = 3.29726 4.29340 3.82787
# Velocity P-wave (km/s) = 5.01989 7.25264 6.23699
#
# Compressibility (1/GPa) = 0.03868934
#
# Stress axis : x y z
#
# Youngs Moduli (GPa) = 31.67365 96.85894 111.04158
#
# Poissons Ratio (x) = -0.46867 0.68190
# Poissons Ratio (y) = -0.15326 0.53345
# Poissons Ratio (z) = 0.19451 0.46532
#
# Static dielectric constant tensor:
#      x y z
#    x 1.953000 -0.000650 0.012590 
#    y -0.000650 1.942820 -0.043850 
#    z 0.012590 -0.043850 2.012990 
# 
# From -- ./inp_files/164554.got.cif
#   From: 2010.05.17/outbox.cif.g08.bks.cpg/sg2_83_cif.got.tgz:164554.got - 2010.06.03 11:33:40.
