data_PCOD9014056
_publ_section_title
;
Structure prediction by ZEFSAII (Michael W. Deem and Ramdas Pophale) SiO2 
 PCOD9014056
Probable space group: P -1
;
_chemical_formula_sum "Si O2"
_cell_formula_units_Z 16
_cell_length_a 8.836986
_cell_length_b 14.089641
_cell_length_c 7.771000
_cell_angle_alpha 83.068307
_cell_angle_beta 85.342694
_cell_angle_gamma 138.319324
_cell_volume 616.820092
_symmetry_space_group_name_H-M "P -1"
_symmetry_group_IT_number 2
_symmetry_cell_setting 'triclinic'
loop_
_space_group_symop_operation_xyz
x,y,z
-x,-y,-z
loop_
_atom_site_type_symbol
_atom_site_label
_atom_site_fract_x
_atom_site_fract_y
_atom_site_fract_z
Si Si1 0.987956 0.002869 0.746784
Si Si2 0.702058 0.397395 0.472489
Si Si3 0.739501 0.517715 0.817015
Si Si4 0.683513 0.949402 0.084955
Si Si5 0.252391 0.831889 0.770065
Si Si6 0.232220 0.940064 0.398791
Si Si7 0.813789 0.283610 0.704560
Si Si8 0.408415 0.333410 0.207481
O O1 0.828460 0.832800 0.789732
O O2 0.946292 0.058046 0.586815
O O3 0.858920 0.002643 0.908190
O O4 0.242536 0.090052 0.761736
O O5 0.707629 0.449860 0.650614
O O6 0.727467 0.297782 0.536358
O O7 0.499627 0.332153 0.377101
O O8 0.938664 0.548000 0.320088
O O9 0.644097 0.579818 0.784491
O O10 0.012773 0.656971 0.820196
O O11 0.589209 0.405896 0.015860
O O12 0.401610 0.806337 0.124893
O O13 0.737879 0.085056 0.097606
O O14 0.250885 0.902331 0.591117
O O15 0.506371 0.903194 0.720771
O O16 0.153619 0.811670 0.319561
#
# Coordination Sequence:
#
# PCOD9014056 Si02
#       8
#     2   2   2   2   2   2   2   2
#     4  11  24  43  65 104 130 176 224 273 341 402
#     4  11  24  44  71  95 138 180 230 271 335 403
#     4  11  23  47  66  99 142 175 229 279 330 404
#     4  10  23  43  66  93 139 171 217 287 334 388
#     4  10  21  41  66  95 132 176 212 282 333 387
#     4  10  23  39  69  98 133 169 222 273 340 400
#     4  10  23  44  66 100 134 177 222 281 332 401
#     4  11  26  42  69 103 135 183 224 275 339 398
#
# _framework density 25.939492999999999
#
# number of rings (size 3 to 8) (size 9 to 14) (size 15 to 20)
#    0.000    1.500    2.500    1.125    5.250    5.500 
#    4.500    3.750    0.000    0.000    0.000    0.000 
#    0.000    0.000    0.000    0.000    0.000    0.000 
#
# Total GULP energy -89648.176885 kJ/mol
# GULP energy per Si atom -5603.011055 kJ/mol
# Density = 2.588045 g / cm^3
# Si number density = 25.939493 Si / 1000 Ang^3
#
#
#
# Elastic Constant Matrix: (Units=GPa)
#
#
# Indices 1 2 3 4 5 6 
#
# 1 133.7355 26.7270 21.1621 -4.5148 1.4924 -5.1538
# 2 26.7270 77.4577 29.1544 -14.1496 -19.1019 1.2605
# 3 21.1621 29.1544 100.8164 -10.2454 -10.5257 -5.1468
# 4 -4.5148 -14.1496 -10.2454 30.4007 2.0533 -10.2650
# 5 1.4924 -19.1019 -10.5257 2.0533 53.6310 -1.9989
# 6 -5.1538 1.2605 -5.1468 -10.2650 -1.9989 47.4061
#
#
#
# Elastic Compliance Matrix: (Units=1/GPa)
#
#
# Indices 1 2 3 4 5 6 
#
# 1 0.008250 -0.002835 -0.001027 -0.000081 -0.001409 0.000784
# 2 -0.002835 0.017645 -0.003247 0.006498 0.005496 0.000509
# 3 -0.001027 -0.003247 0.011569 0.002796 0.001106 0.001883
# 4 -0.000081 0.006498 0.002796 0.039704 0.001673 0.008790
# 5 -0.001409 0.005496 0.001106 0.001673 0.020835 0.001062
# 6 0.000784 0.000509 0.001883 0.008790 0.001062 0.023318
#
#
# Mechanical properties :
#
#
# Convention : Reuss Voigt Hill
#
# Bulk Modulus (GPa) = 43.01935 51.78848 47.40391
# Shear Modulus (GPa) = 34.89464 41.95198 38.42331
#
# Velocity S-wave (km/s) = 3.67172 4.02593 3.85290
# Velocity P-wave (km/s) = 5.88183 6.45130 6.17313
#
# Compressibility (1/GPa) = 0.02324536
#
# Stress axis : x y z
#
# Youngs Moduli (GPa) = 121.21614 56.67360 86.43473
#
# Poissons Ratio (x) = 0.16066 0.08878
# Poissons Ratio (y) = 0.34363 0.28069
# Poissons Ratio (z) = 0.12450 0.18404
#
# Static dielectric constant tensor:
#      x y z
#    x 2.013680 0.018850 0.029980 
#    y 0.018850 1.999790 0.049630 
#    z 0.029980 0.049630 2.186930 
# 
# From -- ./inp_files/206964.got.cif
#   From: 2010.05.17/outbox.cif.g08.bks.cpg/sg2_104_cif.got.tgz:206964.got - 2010.06.03 11:33:40.
