data_PCOD9014846
_publ_section_title
;
Structure prediction by ZEFSAII (Michael W. Deem and Ramdas Pophale) SiO2 
 PCOD9014846
Probable space group: P -1
;
_chemical_formula_sum "Si O2"
_cell_formula_units_Z 14
_cell_length_a 14.071544
_cell_length_b 6.434625
_cell_length_c 19.164379
_cell_angle_alpha 65.412708
_cell_angle_beta 19.163564
_cell_angle_gamma 69.074600
_cell_volume 514.218791
_symmetry_space_group_name_H-M "P -1"
_symmetry_group_IT_number 2
_symmetry_cell_setting 'triclinic'
loop_
_space_group_symop_operation_xyz
x,y,z
-x,-y,-z
loop_
_atom_site_type_symbol
_atom_site_label
_atom_site_fract_x
_atom_site_fract_y
_atom_site_fract_z
Si Si1 0.327839 0.228825 0.318489
Si Si2 0.479598 0.508071 0.307694
Si Si3 0.699864 0.801125 0.960554
Si Si4 0.141726 0.998542 0.056412
Si Si5 0.711267 0.380144 0.424927
Si Si6 0.220780 0.108372 0.260358
Si Si7 0.725680 0.051674 0.229151
O O1 0.316983 0.410711 0.362678
O O2 0.109358 0.996037 0.511909
O O3 0.259287 0.271379 0.278293
O O4 0.657569 0.168985 0.095133
O O5 0.301489 0.528191 0.499793
O O6 0.682424 0.313792 0.213985
O O7 0.679488 0.747595 0.117903
O O8 0.865267 0.030211 0.851608
O O9 0.948917 0.631459 0.828430
O O10 0.664610 0.777652 0.906140
O O11 0.379588 0.875360 0.193366
O O12 0.825944 0.992881 0.245110
O O13 0.500000 0.500000 0.500000
O O14 0.551817 0.120058 0.575208
O O15 0.000000 0.000000 0.000000
#
# Coordination Sequence:
#
# PCOD9014846 Si02
#       7
#     2   2   2   2   2   2   2
#     4  10  21  41  69  96 128 176 234 285 341 394
#     4  12  23  41  68  97 138 181 231 279 335 413
#     4  10  22  42  66  96 137 175 223 284 342 394
#     4  11  23  40  68 100 136 178 233 277 338 413
#     4  12  28  45  68 105 142 177 228 282 343 412
#     4   9  20  43  69  95 132 180 227 288 340 402
#     4  12  24  42  68  99 136 182 225 279 340 404
#
# _framework density 27.225764999999999
#
# number of rings (size 3 to 8) (size 9 to 14) (size 15 to 20)
#    0.000    1.143    2.857    3.000    2.000    3.429 
#    0.000   17.143    0.000    0.000    0.000    0.000 
#    0.000    0.000    0.000    0.000    0.000    0.000 
#
# Total GULP energy -78135.122113 kJ/mol
# GULP energy per Si atom -5581.080151 kJ/mol
# Density = 2.716380 g / cm^3
# Si number density = 27.225765 Si / 1000 Ang^3
#
#
#
# Elastic Constant Matrix: (Units=GPa)
#
#
# Indices 1 2 3 4 5 6 
#
# 1 186.1197 37.0455 29.3168 12.7369 -17.2445 43.7470
# 2 37.0455 103.4471 60.9905 -5.6602 -5.4599 9.5441
# 3 29.3168 60.9905 119.1890 32.4801 -9.3296 -0.0269
# 4 12.7369 -5.6602 32.4801 53.9240 6.8629 -5.7955
# 5 -17.2445 -5.4599 -9.3296 6.8629 44.7228 20.7450
# 6 43.7470 9.5441 -0.0269 -5.7955 20.7450 53.7602
#
#
#
# Elastic Compliance Matrix: (Units=1/GPa)
#
#
# Indices 1 2 3 4 5 6 
#
# 1 0.010111 -0.003356 0.001845 -0.006545 0.010651 -0.012446
# 2 -0.003356 0.017688 -0.011343 0.010254 -0.004135 0.002286
# 3 0.001845 -0.011343 0.018023 -0.013745 0.006871 -0.003612
# 4 -0.006545 0.010254 -0.013745 0.032755 -0.015136 0.012870
# 5 0.010651 -0.004135 0.006871 -0.015136 0.041599 -0.025614
# 6 -0.012446 0.002286 -0.003612 0.012870 -0.025614 0.039593
#
#
# Mechanical properties :
#
#
# Convention : Reuss Voigt Hill
#
# Bulk Modulus (GPa) = 49.71766 73.71792 61.71779
# Shear Modulus (GPa) = 26.01685 49.24160 37.62923
#
# Velocity S-wave (km/s) = 3.09463 4.25742 3.72172
# Velocity P-wave (km/s) = 5.57403 7.16260 6.41766
#
# Compressibility (1/GPa) = 0.02011358
#
# Stress axis : x y z
#
# Youngs Moduli (GPa) = 98.90679 56.53480 55.48367
#
# Poissons Ratio (x) = 0.18973 -0.10236
# Poissons Ratio (y) = 0.33194 0.62936
# Poissons Ratio (z) = -0.18248 0.64128
#
# Static dielectric constant tensor:
#      x y z
#    x 2.430110 -0.046970 0.097730 
#    y -0.046970 2.117560 -0.013320 
#    z 0.097730 -0.013320 2.160180 
# 
# From -- ./inp_files/596711.got.cif
#   From: 2010.05.17/outbox.cif.g08.bks.cpg/sg2_299_cif.got.tgz:596711.got - 2010.06.03 11:33:40.
