data_PCOD9014622
_publ_section_title
;
Structure prediction by ZEFSAII (Michael W. Deem and Ramdas Pophale) SiO2 
 PCOD9014622
Probable space group: P -1
;
_chemical_formula_sum "Si O2"
_cell_formula_units_Z 14
_cell_length_a 9.269413
_cell_length_b 14.516134
_cell_length_c 9.218990
_cell_angle_alpha 129.452132
_cell_angle_beta 115.337829
_cell_angle_gamma 42.402755
_cell_volume 643.874130
_symmetry_space_group_name_H-M "P -1"
_symmetry_group_IT_number 2
_symmetry_cell_setting 'triclinic'
loop_
_space_group_symop_operation_xyz
x,y,z
-x,-y,-z
loop_
_atom_site_type_symbol
_atom_site_label
_atom_site_fract_x
_atom_site_fract_y
_atom_site_fract_z
Si Si1 0.220409 0.047999 0.171694
Si Si2 0.571682 0.540230 0.774727
Si Si3 0.397163 0.747849 0.443944
Si Si4 0.536867 0.769362 0.226414
Si Si5 0.978412 0.461951 0.792104
Si Si6 0.194168 0.844079 0.739244
Si Si7 0.187312 0.331823 0.335203
O O1 0.188116 0.196080 0.248668
O O2 0.022198 0.104827 0.241923
O O3 0.430342 0.924243 0.237079
O O4 0.226129 0.954352 0.944748
O O5 0.547711 0.420168 0.706906
O O6 0.806696 0.441088 0.704275
O O7 0.390638 0.664485 0.703687
O O8 0.550780 0.646952 0.003349
O O9 0.202415 0.854465 0.580351
O O10 0.589204 0.719355 0.580612
O O11 0.394909 0.804412 0.339499
O O12 0.776978 0.684038 0.296401
O O13 0.868058 0.620038 0.808022
O O14 0.000000 0.500000 0.000000
O O15 0.000000 0.500000 0.500000
#
# Coordination Sequence:
#
# PCOD9014622 Si02
#       7
#     2   2   2   2   2   2   2
#     4  10  25  46  63  90 140 172 212 265 331 390
#     4  10  21  41  68  95 134 170 217 270 315 388
#     4  12  23  37  68 101 127 169 225 265 316 379
#     4  10  23  44  64  99 134 172 210 270 332 373
#     4  10  22  43  65 100 128 169 218 261 329 380
#     4  10  22  42  65  93 128 179 217 264 323 382
#     4  12  24  42  70  98 125 173 220 265 322 392
#
# _framework density 21.743383000000001
#
# number of rings (size 3 to 8) (size 9 to 14) (size 15 to 20)
#    0.000    1.429    2.857    1.714    2.000    1.714 
#    7.714    0.000    0.000    0.000    0.000    0.000 
#    0.000    0.000    0.000    0.000    0.000    0.000 
#
# Total GULP energy -78290.101972 kJ/mol
# GULP energy per Si atom -5592.150141 kJ/mol
# Density = 2.169389 g / cm^3
# Si number density = 21.743383 Si / 1000 Ang^3
#
#
#
# Elastic Constant Matrix: (Units=GPa)
#
#
# Indices 1 2 3 4 5 6 
#
# 1 77.0137 39.2113 30.9704 4.4439 1.4707 14.1864
# 2 39.2113 121.6524 46.5558 2.2328 17.6445 28.5605
# 3 30.9704 46.5558 71.7572 4.7476 -2.4584 15.6082
# 4 4.4439 2.2328 4.7476 33.9397 13.5204 0.3657
# 5 1.4707 17.6445 -2.4584 13.5204 37.6403 -5.3514
# 6 14.1864 28.5605 15.6082 0.3657 -5.3514 41.4861
#
#
#
# Elastic Compliance Matrix: (Units=1/GPa)
#
#
# Indices 1 2 3 4 5 6 
#
# 1 0.016960 -0.003484 -0.004573 -0.001770 0.001091 -0.001524
# 2 -0.003484 0.015546 -0.007498 0.004751 -0.010497 -0.008086
# 3 -0.004573 -0.007498 0.021396 -0.004552 0.006665 -0.000424
# 4 -0.001770 0.004751 -0.004552 0.036437 -0.016019 -0.003341
# 5 0.001091 -0.010497 0.006665 -0.016019 0.038988 0.009516
# 6 -0.001524 -0.008086 -0.000424 -0.003341 0.009516 0.031609
#
#
# Mechanical properties :
#
#
# Convention : Reuss Voigt Hill
#
# Bulk Modulus (GPa) = 43.87603 55.98870 49.93237
# Shear Modulus (GPa) = 25.04459 32.85892 28.95176
#
# Velocity S-wave (km/s) = 3.39754 3.89165 3.65296
# Velocity P-wave (km/s) = 5.96773 6.78225 6.38799
#
# Compressibility (1/GPa) = 0.02279149
#
# Stress axis : x y z
#
# Youngs Moduli (GPa) = 58.96267 64.32374 46.73788
#
# Poissons Ratio (x) = 0.22413 0.21374
# Poissons Ratio (y) = 0.20545 0.35042
# Poissons Ratio (z) = 0.26965 0.48228
#
# Static dielectric constant tensor:
#      x y z
#    x 1.828510 -0.008600 -0.056210 
#    y -0.008600 1.769700 -0.022600 
#    z -0.056210 -0.022600 1.814700 
# 
# From -- ./inp_files/393133.got.cif
#   From: 2010.05.17/outbox.cif.g08.bks.cpg/sg2_197_cif.got.tgz:393133.got - 2010.06.03 11:33:40.
