data_PCOD9014856
_publ_section_title
;
Structure prediction by ZEFSAII (Michael W. Deem and Ramdas Pophale) SiO2 
 PCOD9014856
Probable space group: P -1
;
_chemical_formula_sum "Si O2"
_cell_formula_units_Z 16
_cell_length_a 13.776589
_cell_length_b 5.959496
_cell_length_c 11.002531
_cell_angle_alpha 107.151303
_cell_angle_beta 125.311525
_cell_angle_gamma 98.162826
_cell_volume 645.331609
_symmetry_space_group_name_H-M "P -1"
_symmetry_group_IT_number 2
_symmetry_cell_setting 'triclinic'
loop_
_space_group_symop_operation_xyz
x,y,z
-x,-y,-z
loop_
_atom_site_type_symbol
_atom_site_label
_atom_site_fract_x
_atom_site_fract_y
_atom_site_fract_z
Si Si1 0.041019 0.281294 0.435876
Si Si2 0.531626 0.281714 0.704146
Si Si3 0.314367 0.434687 0.357243
Si Si4 0.248499 0.900424 0.106889
Si Si5 0.964713 0.730575 0.860798
Si Si6 0.413558 0.207808 0.050343
Si Si7 0.358408 0.812329 0.644861
Si Si8 0.793101 0.911621 0.320663
O O1 0.051081 0.270372 0.296504
O O2 0.169042 0.269410 0.590219
O O3 0.000000 0.500000 0.500000
O O4 0.917680 0.022278 0.341583
O O5 0.565291 0.395440 0.612414
O O6 0.659333 0.241331 0.826023
O O7 0.526286 0.497541 0.821834
O O8 0.416271 0.016104 0.609553
O O9 0.177546 0.454066 0.225292
O O10 0.339309 0.544484 0.527762
O O11 0.281375 0.136094 0.263115
O O12 0.298306 0.045584 0.036481
O O13 0.099712 0.701942 0.969945
O O14 0.000000 0.000000 0.000000
O O15 0.533485 0.128191 0.160563
O O16 0.338981 0.201921 0.870371
O O17 0.229893 0.851746 0.595076
#
# Coordination Sequence:
#
# PCOD9014856 Si02
#       8
#     2   2   2   2   2   2   2   2
#     4  11  25  44  71 102 139 173 221 288 339 404
#     4  10  23  38  64  94 131 182 221 274 331 400
#     4  10  22  40  62  96 132 179 221 277 336 398
#     4   9  20  40  64  95 133 173 220 279 335 397
#     4  10  21  41  69  96 134 176 219 280 338 400
#     4  10  22  42  66  94 132 177 224 272 329 399
#     4  11  24  41  63  98 137 175 225 276 326 401
#     4  11  25  44  69  97 134 177 226 271 342 400
#
# _framework density 24.793455000000002
#
# number of rings (size 3 to 8) (size 9 to 14) (size 15 to 20)
#    0.000    1.750    1.250    1.500    1.750   10.500 
#    0.000    0.000    0.000    0.000    0.000    0.000 
#    0.000    0.000    0.000    0.000    0.000    0.000 
#
# Total GULP energy -89337.118973 kJ/mol
# GULP energy per Si atom -5583.569936 kJ/mol
# Density = 2.473702 g / cm^3
# Si number density = 24.793455 Si / 1000 Ang^3
#
#
#
# Elastic Constant Matrix: (Units=GPa)
#
#
# Indices 1 2 3 4 5 6 
#
# 1 118.0213 31.0189 38.9001 -14.7106 15.3126 -0.0456
# 2 31.0189 81.6180 49.6570 -28.7206 -6.3933 -18.7737
# 3 38.9001 49.6570 140.2151 -30.3426 -4.2404 -10.3939
# 4 -14.7106 -28.7206 -30.3426 23.3625 0.3303 11.7736
# 5 15.3126 -6.3933 -4.2404 0.3303 47.9301 0.0466
# 6 -0.0456 -18.7737 -10.3939 11.7736 0.0466 43.7666
#
#
#
# Elastic Compliance Matrix: (Units=1/GPa)
#
#
# Indices 1 2 3 4 5 6 
#
# 1 0.010612 -0.003223 -0.001731 0.001647 -0.003983 -0.002221
# 2 -0.003223 0.023956 -0.002335 0.022486 0.003860 0.003665
# 3 -0.001731 -0.002335 0.010652 0.010514 0.001113 -0.001304
# 4 0.001647 0.022486 0.010514 0.091368 0.002786 -0.012438
# 5 -0.003983 0.003860 0.001113 0.002786 0.022729 0.001142
# 6 -0.002221 0.003665 -0.001304 -0.012438 0.001142 0.027453
#
#
# Mechanical properties :
#
#
# Convention : Reuss Voigt Hill
#
# Bulk Modulus (GPa) = 32.63733 64.33403 48.48568
# Shear Modulus (GPa) = 23.63369 37.69707 30.66538
#
# Velocity S-wave (km/s) = 3.09078 3.90352 3.52068
# Velocity P-wave (km/s) = 5.09210 6.80595 6.01043
#
# Compressibility (1/GPa) = 0.03063976
#
# Stress axis : x y z
#
# Youngs Moduli (GPa) = 94.23332 41.74317 93.88301
#
# Poissons Ratio (x) = 0.13454 0.16255
# Poissons Ratio (y) = 0.30373 0.21925
# Poissons Ratio (z) = 0.16315 0.09749
#
# Static dielectric constant tensor:
#      x y z
#    x 1.988250 0.024190 -0.006480 
#    y 0.024190 1.993680 -0.034980 
#    z -0.006480 -0.034980 1.991290 
# 
# From -- ./inp_files/442192.got.cif
#   From: 2010.05.17/outbox.cif.g08.bks.cpg/sg2_222_cif.got.tgz:442192.got - 2010.06.03 11:33:40.
