data_PCOD9014910
_publ_section_title
;
Structure prediction by ZEFSAII (Michael W. Deem and Ramdas Pophale) SiO2 
 PCOD9014910
Probable space group: P -1
;
_chemical_formula_sum "Si O2"
_cell_formula_units_Z 16
_cell_length_a 7.387034
_cell_length_b 13.546986
_cell_length_c 12.430116
_cell_angle_alpha 127.814600
_cell_angle_beta 41.876276
_cell_angle_gamma 104.397641
_cell_volume 602.857494
_symmetry_space_group_name_H-M "P -1"
_symmetry_group_IT_number 2
_symmetry_cell_setting 'triclinic'
loop_
_space_group_symop_operation_xyz
x,y,z
-x,-y,-z
loop_
_atom_site_type_symbol
_atom_site_label
_atom_site_fract_x
_atom_site_fract_y
_atom_site_fract_z
Si Si1 0.045210 0.133137 0.610530
Si Si2 0.181432 0.961236 0.638066
Si Si3 0.677452 0.676744 0.156430
Si Si4 0.454082 0.345593 0.320376
Si Si5 0.042893 0.629769 0.748202
Si Si6 0.254690 0.163138 0.160562
Si Si7 0.655955 0.021698 0.191934
Si Si8 0.268617 0.600808 0.983228
O O1 0.092685 0.086940 0.682564
O O2 0.777233 0.278777 0.830956
O O3 0.329261 0.143936 0.432840
O O4 0.000000 0.000000 0.500000
O O5 0.417821 0.819624 0.393227
O O6 0.919258 0.916671 0.759329
O O7 0.296915 0.012082 0.725840
O O8 0.938829 0.641669 0.107210
O O9 0.596997 0.545977 0.120441
O O10 0.812723 0.673788 0.976774
O O11 0.162861 0.467859 0.572156
O O12 0.694475 0.329471 0.295045
O O13 0.432622 0.207052 0.200156
O O14 0.547934 0.396669 0.202154
O O15 0.949241 0.700391 0.721495
O O16 0.409905 0.073021 0.928729
O O17 0.000000 0.000000 0.000000
#
# Coordination Sequence:
#
# PCOD9014910 Si02
#       8
#     2   2   2   2   2   2   2   2
#     4  12  25  44  69 106 146 185 234 295 360 426
#     4  11  24  44  71  98 141 188 236 287 356 426
#     4  10  21  41  70 100 131 182 238 285 351 429
#     4  10  22  42  62  97 139 179 230 291 354 422
#     4  10  22  40  69  96 136 184 228 292 360 416
#     4  11  23  43  66  98 136 185 237 288 346 423
#     4  10  23  44  68  98 132 188 235 283 353 423
#     4  10  22  40  68  99 137 179 228 294 353 413
#
# _framework density 26.540268999999999
#
# number of rings (size 3 to 8) (size 9 to 14) (size 15 to 20)
#    0.000    1.500    1.250    3.000    3.500    2.000 
#    4.500    3.750    0.000    0.000    0.000    0.000 
#    0.000    0.000    0.000    0.000    0.000    0.000 
#
# Total GULP energy -89507.167461 kJ/mol
# GULP energy per Si atom -5594.197966 kJ/mol
# Density = 2.647986 g / cm^3
# Si number density = 26.540269 Si / 1000 Ang^3
#
#
#
# Elastic Constant Matrix: (Units=GPa)
#
#
# Indices 1 2 3 4 5 6 
#
# 1 78.8594 17.0058 18.6417 11.1496 11.3134 5.2763
# 2 17.0058 105.6582 35.0708 17.1194 -6.9684 -8.0383
# 3 18.6417 35.0708 169.7593 25.0076 9.6208 1.4216
# 4 11.1496 17.1194 25.0076 41.6269 0.8852 2.9498
# 5 11.3134 -6.9684 9.6208 0.8852 34.4257 11.8831
# 6 5.2763 -8.0383 1.4216 2.9498 11.8831 38.1336
#
#
#
# Elastic Compliance Matrix: (Units=1/GPa)
#
#
# Indices 1 2 3 4 5 6 
#
# 1 0.014328 -0.002098 -0.000497 -0.002523 -0.004668 -0.000756
# 2 -0.002098 0.011265 -0.001804 -0.003196 0.002832 0.002097
# 3 -0.000497 -0.001804 0.006919 -0.003260 -0.002176 0.000361
# 4 -0.002523 -0.003196 -0.003260 0.028142 0.001335 -0.002796
# 5 -0.004668 0.002832 -0.002176 0.001335 0.035081 -0.009711
# 6 -0.000756 0.002097 0.000361 -0.002796 -0.009711 0.029999
#
#
# Mechanical properties :
#
#
# Convention : Reuss Voigt Hill
#
# Bulk Modulus (GPa) = 42.17063 55.07929 48.62496
# Shear Modulus (GPa) = 35.10338 41.74115 38.42226
#
# Velocity S-wave (km/s) = 3.64077 3.97009 3.80899
# Velocity P-wave (km/s) = 5.79632 6.46635 6.14048
#
# Compressibility (1/GPa) = 0.02371319
#
# Stress axis : x y z
#
# Youngs Moduli (GPa) = 69.79450 88.76985 144.53670
#
# Poissons Ratio (x) = 0.18620 0.07190
# Poissons Ratio (y) = 0.14640 0.26077
# Poissons Ratio (z) = 0.03472 0.16016
#
# Static dielectric constant tensor:
#      x y z
#    x 2.163470 0.092890 -0.021540 
#    y 0.092890 2.088400 0.014210 
#    z -0.021540 0.014210 2.047330 
# 
# From -- ./inp_files/506725.got.cif
#   From: 2010.05.17/outbox.cif.g08.bks.cpg/sg2_254_cif.got.tgz:506725.got - 2010.06.03 11:33:40.
