data_PCOD9014554
_publ_section_title
;
Structure prediction by ZEFSAII (Michael W. Deem and Ramdas Pophale) SiO2 
 PCOD9014554
Probable space group: P -1
;
_chemical_formula_sum "Si O2"
_cell_formula_units_Z 16
_cell_length_a 9.304869
_cell_length_b 17.236825
_cell_length_c 7.818914
_cell_angle_alpha 31.564232
_cell_angle_beta 90.234776
_cell_angle_gamma 87.891874
_cell_volume 654.484676
_symmetry_space_group_name_H-M "P -1"
_symmetry_group_IT_number 2
_symmetry_cell_setting 'triclinic'
loop_
_space_group_symop_operation_xyz
x,y,z
-x,-y,-z
loop_
_atom_site_type_symbol
_atom_site_label
_atom_site_fract_x
_atom_site_fract_y
_atom_site_fract_z
Si Si1 0.297949 0.885537 0.291756
Si Si2 0.877404 0.619871 0.040614
Si Si3 0.337842 0.558791 0.829095
Si Si4 0.478044 0.947537 0.830366
Si Si5 0.818798 0.960263 0.463617
Si Si6 0.936185 0.907476 0.940260
Si Si7 0.843814 0.580614 0.521531
Si Si8 0.471200 0.384076 0.572175
O O1 0.280253 0.710693 0.635630
O O2 0.403701 0.940058 0.336716
O O3 0.148502 0.985821 0.124513
O O4 0.389367 0.920984 0.056533
O O5 0.777852 0.555711 0.012902
O O6 0.833341 0.583087 0.307875
O O7 0.039702 0.545553 0.175914
O O8 0.866261 0.797210 0.696914
O O9 0.385017 0.618313 0.532011
O O10 0.500000 0.500000 0.000000
O O11 0.351615 0.013228 0.587218
O O12 0.545292 0.788239 0.064666
O O13 0.871326 0.963182 0.652315
O O14 0.895960 0.077690 0.125714
O O15 0.899252 0.738317 0.281332
O O16 0.681801 0.564713 0.614448
O O17 0.500000 0.500000 0.500000
#
# Coordination Sequence:
#
# PCOD9014554 Si02
#       8
#     2   2   2   2   2   2   2   2
#     4  10  22  40  60  87 125 169 206 249 315 379
#     4  10  22  42  63  94 128 166 207 267 317 364
#     4  11  24  40  61  94 134 165 207 260 324 378
#     4  10  22  40  61  90 127 162 210 258 312 378
#     4  10  23  40  65  92 124 162 213 266 308 364
#     4  10  22  41  63  93 121 165 212 257 317 369
#     4  10  21  41  68  91 123 161 220 262 307 381
#     4  11  22  39  67  96 118 168 218 261 314 373
#
# _framework density 24.446717
#
# number of rings (size 3 to 8) (size 9 to 14) (size 15 to 20)
#    0.000    1.750    2.500    0.750    3.500    5.000 
#    0.000    1.250    0.000    0.000    0.000    0.000 
#    0.000    0.000    0.000    0.000    0.000    0.000 
#
# Total GULP energy -89447.341511 kJ/mol
# GULP energy per Si atom -5590.458844 kJ/mol
# Density = 2.439108 g / cm^3
# Si number density = 24.446717 Si / 1000 Ang^3
#
#
#
# Elastic Constant Matrix: (Units=GPa)
#
#
# Indices 1 2 3 4 5 6 
#
# 1 124.8341 20.5470 13.5873 -14.1344 8.5278 0.6313
# 2 20.5470 107.3295 29.4854 -30.5470 2.1799 7.9603
# 3 13.5873 29.4854 39.0483 -20.9645 3.0054 -2.1356
# 4 -14.1344 -30.5470 -20.9645 34.0980 -5.5082 5.4788
# 5 8.5278 2.1799 3.0054 -5.5082 44.9525 -0.3291
# 6 0.6313 7.9603 -2.1356 5.4788 -0.3291 38.8045
#
#
#
# Elastic Compliance Matrix: (Units=1/GPa)
#
#
# Indices 1 2 3 4 5 6 
#
# 1 0.008579 -0.000650 -0.001341 0.002006 -0.001263 -0.000374
# 2 -0.000650 0.014061 -0.005403 0.009897 0.000982 -0.004560
# 3 -0.001341 -0.005403 0.040664 0.019539 0.000196 0.000611
# 4 0.002006 0.009897 0.019539 0.053086 0.004276 -0.008446
# 5 -0.001263 0.000982 0.000196 0.004276 0.022944 -0.000579
# 6 -0.000374 -0.004560 0.000611 -0.008446 -0.000579 0.027933
#
#
# Mechanical properties :
#
#
# Convention : Reuss Voigt Hill
#
# Bulk Modulus (GPa) = 20.61135 44.27235 32.44185
# Shear Modulus (GPa) = 25.22373 37.41048 31.31710
#
# Velocity S-wave (km/s) = 3.21562 3.91613 3.58304
# Velocity P-wave (km/s) = 4.71555 6.21266 5.51514
#
# Compressibility (1/GPa) = 0.04851695
#
# Stress axis : x y z
#
# Youngs Moduli (GPa) = 116.56636 71.12043 24.59162
#
# Poissons Ratio (x) = 0.04621 0.03297
# Poissons Ratio (y) = 0.07574 0.13286
# Poissons Ratio (z) = 0.15630 0.38425
#
# Static dielectric constant tensor:
#      x y z
#    x 1.945130 0.003040 -0.001820 
#    y 0.003040 2.052990 0.140780 
#    z -0.001820 0.140780 2.016990 
# 
# From -- ./inp_files/216354.got.cif
#   From: 2010.05.17/outbox.cif.g08.bks.cpg/sg2_109_cif.got.tgz:216354.got - 2010.06.03 11:33:40.
