data_PCOD9014455
_publ_section_title
;
Structure prediction by ZEFSAII (Michael W. Deem and Ramdas Pophale) SiO2 
 PCOD9014455
Probable space group: P -1
;
_chemical_formula_sum "Si O2"
_cell_formula_units_Z 14
_cell_length_a 24.768599
_cell_length_b 14.242295
_cell_length_c 15.309699
_cell_angle_alpha 161.729958
_cell_angle_beta 159.097976
_cell_angle_gamma 20.418785
_cell_volume 540.140468
_symmetry_space_group_name_H-M "P -1"
_symmetry_group_IT_number 2
_symmetry_cell_setting 'triclinic'
loop_
_space_group_symop_operation_xyz
x,y,z
-x,-y,-z
loop_
_atom_site_type_symbol
_atom_site_label
_atom_site_fract_x
_atom_site_fract_y
_atom_site_fract_z
Si Si1 0.333094 0.791492 0.861987
Si Si2 0.122598 0.520931 0.977281
Si Si3 0.204023 0.578735 0.648956
Si Si4 0.511265 0.958090 0.876883
Si Si5 0.840070 0.457939 0.755445
Si Si6 0.707397 0.324393 0.793871
Si Si7 0.312255 0.852460 0.209294
O O1 0.274430 0.731833 0.815465
O O2 0.202725 0.765975 0.573137
O O3 0.511755 0.479376 0.833517
O O4 0.316377 0.164501 0.156448
O O5 0.965773 0.447748 0.656524
O O6 0.112824 0.689191 0.205571
O O7 0.171786 0.675961 0.102967
O O8 0.290037 0.177800 0.949674
O O9 0.331066 0.183997 0.505164
O O10 0.188944 0.787926 0.898707
O O11 0.447686 0.709926 0.518143
O O12 0.370618 0.322618 0.961076
O O13 0.500000 0.000000 0.000000
O O14 0.000000 0.500000 0.000000
O O15 0.762332 0.083109 0.747591
#
# Coordination Sequence:
#
# PCOD9014455 Si02
#       7
#     2   2   2   2   2   2   2
#     4  12  25  48  70  98 135 177 226 283 327 398
#     4  11  25  42  69 101 139 170 215 282 343 398
#     4  12  27  43  69  97 137 181 229 275 327 387
#     4  10  21  41  67  99 130 173 215 269 339 400
#     4  12  25  43  71 103 135 166 219 280 351 401
#     4  11  24  44  69  99 135 176 224 270 331 404
#     4  12  26  46  69  96 134 187 234 266 321 394
#
# _framework density 25.919184000000001
#
# number of rings (size 3 to 8) (size 9 to 14) (size 15 to 20)
#    0.000    0.571    1.429    7.286    0.000    6.857 
#    0.000    0.000    0.000    0.000    0.000    0.000 
#    0.000    0.000    0.000    0.000    0.000    0.000 
#
# Total GULP energy -78329.206006 kJ/mol
# GULP energy per Si atom -5594.943286 kJ/mol
# Density = 2.586019 g / cm^3
# Si number density = 25.919184 Si / 1000 Ang^3
#
#
#
# Elastic Constant Matrix: (Units=GPa)
#
#
# Indices 1 2 3 4 5 6 
#
# 1 195.3439 35.9966 30.2082 -13.4156 -8.1768 31.6181
# 2 35.9966 71.4983 14.9375 5.7264 1.2279 -0.8298
# 3 30.2082 14.9375 117.8064 5.2733 -22.6415 12.0348
# 4 -13.4156 5.7264 5.2733 44.9197 2.8585 -0.7942
# 5 -8.1768 1.2279 -22.6415 2.8585 40.9970 -6.7904
# 6 31.6181 -0.8298 12.0348 -0.7942 -6.7904 38.6307
#
#
#
# Elastic Compliance Matrix: (Units=1/GPa)
#
#
# Indices 1 2 3 4 5 6 
#
# 1 0.006978 -0.003591 -0.000906 0.002557 -0.000085 -0.005469
# 2 -0.003591 0.016430 -0.001653 -0.002825 -0.001342 0.003513
# 3 -0.000906 -0.001653 0.010191 -0.001625 0.005352 -0.001561
# 4 0.002557 -0.002825 -0.001625 0.023690 -0.002211 -0.001549
# 5 -0.000085 -0.001342 0.005352 -0.002211 0.028065 0.003261
# 6 -0.005469 0.003513 -0.001561 -0.001549 0.003261 0.031465
#
#
# Mechanical properties :
#
#
# Convention : Reuss Voigt Hill
#
# Bulk Modulus (GPa) = 46.94965 60.77036 53.86000
# Shear Modulus (GPa) = 36.70571 45.14324 40.92448
#
# Velocity S-wave (km/s) = 3.76727 4.17789 3.97788
# Velocity P-wave (km/s) = 6.08903 6.83886 6.47481
#
# Compressibility (1/GPa) = 0.02129941
#
# Stress axis : x y z
#
# Youngs Moduli (GPa) = 143.30417 60.86605 98.12341
#
# Poissons Ratio (x) = 0.21855 0.08892
# Poissons Ratio (y) = 0.51456 0.16218
# Poissons Ratio (z) = 0.12987 0.10060
#
# Static dielectric constant tensor:
#      x y z
#    x 2.332760 0.049290 -0.101450 
#    y 0.049290 2.440780 0.075770 
#    z -0.101450 0.075770 1.977550 
# 
# From -- ./inp_files/66674.got.cif
#   From: 2010.05.17/outbox.cif.g08.bks.cpg/sg2_34_cif.got.tgz:66674.got - 2010.06.03 11:33:40.
