data_PCOD9014558
_publ_section_title
;
Structure prediction by ZEFSAII (Michael W. Deem and Ramdas Pophale) SiO2 
 PCOD9014558
Probable space group: P -1
;
_chemical_formula_sum "Si O2"
_cell_formula_units_Z 15
_cell_length_a 14.309024
_cell_length_b 8.702418
_cell_length_c 11.012133
_cell_angle_alpha 72.793769
_cell_angle_beta 128.448700
_cell_angle_gamma 68.695038
_cell_volume 699.439924
_symmetry_space_group_name_H-M "P -1"
_symmetry_group_IT_number 2
_symmetry_cell_setting 'triclinic'
loop_
_space_group_symop_operation_xyz
x,y,z
-x,-y,-z
loop_
_atom_site_type_symbol
_atom_site_label
_atom_site_fract_x
_atom_site_fract_y
_atom_site_fract_z
Si Si1 0.367096 0.421689 0.117170
Si Si2 0.618133 0.279323 0.553668
Si Si3 0.379725 0.049616 0.224816
Si Si4 0.000000 0.000000 0.000000
Si Si5 0.464831 0.786394 0.960616
Si Si6 0.861470 0.094925 0.263022
Si Si7 0.947735 0.765623 0.203084
Si Si8 0.676425 0.738796 0.344514
O O1 0.514219 0.373183 0.321342
O O2 0.349169 0.261019 0.195949
O O3 0.425719 0.338844 0.045045
O O4 0.189476 0.700146 0.908022
O O5 0.500000 0.500000 0.500000
O O6 0.627641 0.085338 0.652618
O O7 0.809405 0.167150 0.733988
O O8 0.563973 0.855479 0.349549
O O9 0.227250 0.164602 0.976520
O O10 0.955794 0.883958 0.071953
O O11 0.323887 0.784928 0.862576
O O12 0.355816 0.059415 0.794344
O O13 0.592379 0.685855 0.201594
O O14 0.931312 0.885298 0.283405
O O15 0.000000 0.000000 0.500000
O O16 0.121903 0.489576 0.413605
#
# Coordination Sequence:
#
# PCOD9014558 Si02
#       8
#     2   2   2   1   2   2   2   2
#     4  11  24  42  67  89 134 171 207 271 318 377
#     4  11  23  43  69  94 128 164 213 264 323 385
#     4  10  22  43  65  99 123 168 216 257 324 378
#     4  10  24  38  62  98 116 160 210 256 314 378
#     4  10  23  41  61  96 126 170 216 256 321 374
#     4  12  26  39  61  98 132 172 218 260 314 382
#     4  11  23  41  68  89 131 167 213 265 316 378
#     4  10  21  41  68  91 128 167 212 266 312 378
#
# _framework density 21.445730999999999
#
# number of rings (size 3 to 8) (size 9 to 14) (size 15 to 20)
#    0.000    1.333    1.333    4.000    5.600    0.533 
#    0.000    0.000    0.000    8.000    0.000    0.000 
#    0.000    0.000    0.000    0.000    0.000    0.000 
#
# Total GULP energy -83638.243441 kJ/mol
# GULP energy per Si atom -5575.882896 kJ/mol
# Density = 2.139692 g / cm^3
# Si number density = 21.445731 Si / 1000 Ang^3
#
#
#
# Elastic Constant Matrix: (Units=GPa)
#
#
# Indices 1 2 3 4 5 6 
#
# 1 40.9076 2.9783 -7.2613 -12.5608 2.2516 20.0403
# 2 2.9783 65.1527 35.5875 10.9931 18.4627 19.3185
# 3 -7.2613 35.5875 121.2029 8.8907 17.1441 3.2057
# 4 -12.5608 10.9931 8.8907 31.7439 -6.1341 3.7474
# 5 2.2516 18.4627 17.1441 -6.1341 20.1893 1.6690
# 6 20.0403 19.3185 3.2057 3.7474 1.6690 24.0360
#
#
#
# Elastic Compliance Matrix: (Units=1/GPa)
#
#
# Indices 1 2 3 4 5 6 
#
# 1 0.069339 0.016088 0.000368 0.029097 -0.007735 -0.074791
# 2 0.016088 0.040321 -0.004386 -0.008012 -0.033936 -0.041631
# 3 0.000368 -0.004386 0.010550 -0.002774 -0.006051 0.002664
# 4 0.029097 -0.008012 -0.002774 0.054744 0.025364 -0.027747
# 5 -0.007735 -0.033936 -0.006051 0.025364 0.092274 0.024170
# 6 -0.074791 -0.041631 0.002664 -0.027747 0.024170 0.139715
#
#
# Mechanical properties :
#
#
# Convention : Reuss Voigt Hill
#
# Bulk Modulus (GPa) = 6.92761 32.20802 19.56781
# Shear Modulus (GPa) = 11.60309 28.25776 19.93043
#
# Velocity S-wave (km/s) = 2.32856 3.63387 3.05182
# Velocity P-wave (km/s) = 3.23526 5.71469 4.64352
#
# Compressibility (1/GPa) = 0.14434998
#
# Stress axis : x y z
#
# Youngs Moduli (GPa) = 14.42187 24.80072 94.79094
#
# Poissons Ratio (x) = -0.39899 -0.03491
# Poissons Ratio (y) = -0.23202 0.41578
# Poissons Ratio (z) = -0.00531 0.10878
#
# Static dielectric constant tensor:
#      x y z
#    x 1.777880 0.009710 -0.044710 
#    y 0.009710 1.793270 -0.001520 
#    z -0.044710 -0.001520 1.801620 
# 
# From -- ./inp_files/256598.got.cif
#   From: 2010.05.17/outbox.cif.g08.bks.cpg/sg2_129_cif.got.tgz:256598.got - 2010.06.03 11:33:40.
