data_PCOD9014542
_publ_section_title
;
Structure prediction by ZEFSAII (Michael W. Deem and Ramdas Pophale) SiO2 
 PCOD9014542
Probable space group: P -1
;
_chemical_formula_sum "Si O2"
_cell_formula_units_Z 14
_cell_length_a 8.533819
_cell_length_b 8.104025
_cell_length_c 19.453139
_cell_angle_alpha 55.133599
_cell_angle_beta 33.869658
_cell_angle_gamma 52.200943
_cell_volume 586.390585
_symmetry_space_group_name_H-M "P -1"
_symmetry_group_IT_number 2
_symmetry_cell_setting 'triclinic'
loop_
_space_group_symop_operation_xyz
x,y,z
-x,-y,-z
loop_
_atom_site_type_symbol
_atom_site_label
_atom_site_fract_x
_atom_site_fract_y
_atom_site_fract_z
Si Si1 0.767557 0.170627 0.747929
Si Si2 0.245744 0.580117 0.631540
Si Si3 0.832485 0.032482 0.623980
Si Si4 0.625290 0.152462 0.368511
Si Si5 0.643290 0.054764 0.004876
Si Si6 0.321593 0.540192 0.157525
Si Si7 0.654262 0.118531 0.207714
O O1 0.700531 0.355007 0.783107
O O2 0.852754 0.206666 0.630308
O O3 0.034996 0.988706 0.726733
O O4 0.505230 0.065414 0.859305
O O5 0.500000 0.500000 0.500000
O O6 0.392704 0.632131 0.635687
O O7 0.017760 0.811281 0.643496
O O8 0.008875 0.450995 0.746904
O O9 0.501042 0.053287 0.717801
O O10 0.000000 0.000000 0.500000
O O11 0.535229 0.182346 0.314142
O O12 0.500000 0.000000 0.500000
O O13 0.565382 0.307844 0.970288
O O14 0.994224 0.960585 0.902439
O O15 0.500000 0.000000 0.000000
O O16 0.535783 0.308449 0.150835
#
# Coordination Sequence:
#
# PCOD9014542 Si02
#       7
#     2   2   2   2   2   2   2
#     4  10  21  42  64  89 125 171 209 252 326 374
#     4  10  22  37  60  92 128 161 213 259 314 377
#     4  10  23  39  62  93 127 161 211 262 311 381
#     4  11  21  39  65  90 127 172 206 260 324 373
#     4  10  21  41  68  87 130 168 209 260 318 376
#     4  10  22  40  64  96 127 161 215 264 309 374
#     4  11  22  40  64  94 126 164 214 260 315 371
#
# _framework density 23.874872
#
# number of rings (size 3 to 8) (size 9 to 14) (size 15 to 20)
#    0.000    1.714    2.857    2.571    2.000    4.000 
#    0.000   10.000    0.000    0.000    0.000    0.000 
#    0.000    0.000    0.000    0.000    0.000    0.000 
#
# Total GULP energy -78062.939205 kJ/mol
# GULP energy per Si atom -5575.924229 kJ/mol
# Density = 2.382053 g / cm^3
# Si number density = 23.874872 Si / 1000 Ang^3
#
#
#
# Elastic Constant Matrix: (Units=GPa)
#
#
# Indices 1 2 3 4 5 6 
#
# 1 119.2505 10.2310 16.0444 -2.6903 -1.1733 5.9215
# 2 10.2310 53.5878 -8.5120 -0.1592 -11.2293 -17.1276
# 3 16.0444 -8.5120 74.2733 -1.9006 -21.8507 -11.7912
# 4 -2.6903 -0.1592 -1.9006 33.4073 -3.2041 -6.6455
# 5 -1.1733 -11.2293 -21.8507 -3.2041 43.5467 4.8780
# 6 5.9215 -17.1276 -11.7912 -6.6455 4.8780 38.2385
#
#
#
# Elastic Compliance Matrix: (Units=1/GPa)
#
#
# Indices 1 2 3 4 5 6 
#
# 1 0.009480 -0.004373 -0.003982 -0.000601 -0.002416 -0.004451
# 2 -0.004373 0.028459 0.010031 0.004560 0.010805 0.015932
# 3 -0.003982 0.010031 0.020825 0.004200 0.012036 0.010726
# 4 -0.000601 0.004560 0.004200 0.032275 0.004696 0.008441
# 5 -0.002416 0.010805 0.012036 0.004696 0.031428 0.005732
# 6 -0.004451 0.015932 0.010726 0.008441 0.005732 0.038020
#
#
# Mechanical properties :
#
#
# Convention : Reuss Voigt Hill
#
# Bulk Modulus (GPa) = 16.09905 31.40425 23.75165
# Shear Modulus (GPa) = 28.11510 38.32837 33.22174
#
# Velocity S-wave (km/s) = 3.43534 4.01107 3.73432
# Velocity P-wave (km/s) = 4.74270 5.88505 5.34448
#
# Compressibility (1/GPa) = 0.06211547
#
# Stress axis : x y z
#
# Youngs Moduli (GPa) = 105.48175 35.13846 48.02001
#
# Poissons Ratio (x) = 0.15366 0.19121
# Poissons Ratio (y) = 0.46128 -0.48168
# Poissons Ratio (z) = 0.42001 -0.35246
#
# Static dielectric constant tensor:
#      x y z
#    x 1.296400 0.036400 -0.046990 
#    y 0.036400 1.916470 -0.052560 
#    z -0.046990 -0.052560 2.098980 
# 
# From -- ./inp_files/493333.got.cif
#   From: 2010.05.17/outbox.cif.g08.bks.cpg/sg2_247_cif.got.tgz:493333.got - 2010.06.03 11:33:40.
