data_PCOD9014350
_publ_section_title
;
Structure prediction by ZEFSAII (Michael W. Deem and Ramdas Pophale) SiO2 
 PCOD9014350
Probable space group: P -1
;
_chemical_formula_sum "Si O2"
_cell_formula_units_Z 16
_cell_length_a 9.203932
_cell_length_b 11.487212
_cell_length_c 21.361042
_cell_angle_alpha 27.339866
_cell_angle_beta 130.030189
_cell_angle_gamma 142.102030
_cell_volume 623.626133
_symmetry_space_group_name_H-M "P -1"
_symmetry_group_IT_number 2
_symmetry_cell_setting 'triclinic'
loop_
_space_group_symop_operation_xyz
x,y,z
-x,-y,-z
loop_
_atom_site_type_symbol
_atom_site_label
_atom_site_fract_x
_atom_site_fract_y
_atom_site_fract_z
Si Si1 0.862579 0.336270 0.737381
Si Si2 0.696134 0.648692 0.630602
Si Si3 0.392835 0.349879 0.974881
Si Si4 0.412741 0.658718 0.444210
Si Si5 0.881199 0.055815 0.614437
Si Si6 0.642237 0.861076 0.123745
Si Si7 0.610908 0.320674 0.297109
Si Si8 0.111429 0.339720 0.082625
O O1 0.833355 0.547213 0.676597
O O2 0.648112 0.178587 0.701771
O O3 0.125937 0.569906 0.666592
O O4 0.826168 0.029391 0.903644
O O5 0.603158 0.796487 0.488148
O O6 0.837926 0.870130 0.625089
O O7 0.461877 0.313481 0.754582
O O8 0.500000 0.500000 0.000000
O O9 0.373369 0.591790 0.813597
O O10 0.615211 0.382705 0.990518
O O11 0.500000 0.500000 0.500000
O O12 0.144386 0.396250 0.522549
O O13 0.637667 0.010173 0.588603
O O14 0.897538 0.877334 0.762709
O O15 0.592504 0.582268 0.199126
O O16 0.931556 0.122880 0.080027
O O17 0.500000 0.000000 0.000000
O O18 0.000000 0.500000 0.000000
#
# Coordination Sequence:
#
# PCOD9014350 Si02
#       8
#     2   2   2   2   2   2   2   2
#     4  11  23  42  62  93 132 173 213 261 332 378
#     4  10  21  41  67  95 129 169 214 271 313 382
#     4  11  24  40  60  93 131 168 207 266 325 389
#     4  10  23  42  66  94 134 169 218 267 315 383
#     4  10  22  42  66  94 130 165 222 264 317 384
#     4  11  20  38  64  94 123 168 214 266 328 374
#     4  10  23  41  64  92 128 167 213 268 324 385
#     4  11  21  35  64  94 124 161 215 268 315 378
#
# _framework density 25.656395
#
# number of rings (size 3 to 8) (size 9 to 14) (size 15 to 20)
#    0.000    1.500    1.250    4.875    1.750    4.500 
#    2.250    2.500    0.000    0.000    0.000    0.000 
#    0.000    0.000    0.000    0.000    0.000    0.000 
#
# Total GULP energy -89459.191552 kJ/mol
# GULP energy per Si atom -5591.199472 kJ/mol
# Density = 2.559800 g / cm^3
# Si number density = 25.656395 Si / 1000 Ang^3
#
#
#
# Elastic Constant Matrix: (Units=GPa)
#
#
# Indices 1 2 3 4 5 6 
#
# 1 114.7526 25.3399 22.9134 -0.4357 -0.6677 11.9353
# 2 25.3399 114.4584 11.2640 9.9976 1.7224 3.5832
# 3 22.9134 11.2640 89.2460 16.1344 -3.7034 8.8910
# 4 -0.4357 9.9976 16.1344 48.9774 8.8695 -3.5798
# 5 -0.6677 1.7224 -3.7034 8.8695 33.9943 0.2751
# 6 11.9353 3.5832 8.8910 -3.5798 0.2751 44.5042
#
#
#
# Elastic Compliance Matrix: (Units=1/GPa)
#
#
# Indices 1 2 3 4 5 6 
#
# 1 0.009814 -0.001984 -0.002296 0.001152 -0.000242 -0.001919
# 2 -0.001984 0.009378 -0.000314 -0.001839 -0.000066 -0.000308
# 3 -0.002296 -0.000314 0.013074 -0.004927 0.002700 -0.002384
# 4 0.001152 -0.001839 -0.004927 0.023836 -0.006663 0.002782
# 5 -0.000242 -0.000066 0.002700 -0.006663 0.031458 -0.001199
# 6 -0.001919 -0.000308 -0.002384 0.002782 -0.001199 0.023717
#
#
# Mechanical properties :
#
#
# Convention : Reuss Voigt Hill
#
# Bulk Modulus (GPa) = 43.33084 48.61016 45.97050
# Shear Modulus (GPa) = 39.01474 42.75781 40.88628
#
# Velocity S-wave (km/s) = 3.90380 4.08678 3.99633
# Velocity P-wave (km/s) = 6.10288 6.42314 6.26505
#
# Compressibility (1/GPa) = 0.02307825
#
# Stress axis : x y z
#
# Youngs Moduli (GPa) = 101.90030 106.63136 76.48562
#
# Poissons Ratio (x) = 0.21151 0.17564
# Poissons Ratio (y) = 0.20212 0.02401
# Poissons Ratio (z) = 0.23400 0.03348
#
# Static dielectric constant tensor:
#      x y z
#    x 2.007570 -0.146260 -0.008810 
#    y -0.146260 1.738010 0.068360 
#    z -0.008810 0.068360 2.010990 
# 
# From -- ./inp_files/405647.got.cif
#   From: 2010.05.17/outbox.cif.g08.bks.cpg/sg2_203_cif.got.tgz:405647.got - 2010.06.03 11:33:40.
