data_PCOD9014164
_publ_section_title
;
Structure prediction by ZEFSAII (Michael W. Deem and Ramdas Pophale) SiO2 
 PCOD9014164
Probable space group: P -1
;
_chemical_formula_sum "Si O2"
_cell_formula_units_Z 14
_cell_length_a 4.966270
_cell_length_b 13.159772
_cell_length_c 12.307771
_cell_angle_alpha 133.139136
_cell_angle_beta 69.538216
_cell_angle_gamma 99.560628
_cell_volume 546.775827
_symmetry_space_group_name_H-M "P -1"
_symmetry_group_IT_number 2
_symmetry_cell_setting 'triclinic'
loop_
_space_group_symop_operation_xyz
x,y,z
-x,-y,-z
loop_
_atom_site_type_symbol
_atom_site_label
_atom_site_fract_x
_atom_site_fract_y
_atom_site_fract_z
Si Si1 0.634306 0.153134 0.196272
Si Si2 0.715343 0.649382 0.918205
Si Si3 0.739104 0.091931 0.891399
Si Si4 0.011876 0.333543 0.878615
Si Si5 0.181255 0.964692 0.556995
Si Si6 0.067710 0.340275 0.337288
Si Si7 0.628683 0.324610 0.725033
O O1 0.374454 0.271256 0.286935
O O2 0.839639 0.227495 0.302320
O O3 0.214270 0.901992 0.979849
O O4 0.484326 0.025631 0.175562
O O5 0.921586 0.650650 0.787465
O O6 0.443388 0.761730 0.010442
O O7 0.253574 0.695978 0.182869
O O8 0.111353 0.307343 0.969904
O O9 0.008003 0.048086 0.740606
O O10 0.301708 0.289274 0.737385
O O11 0.359011 0.511711 0.181734
O O12 0.190855 0.797891 0.456158
O O13 0.500000 0.000000 0.500000
O O14 0.000000 0.000000 0.500000
O O15 0.000000 0.500000 0.500000
O O16 0.000000 0.500000 0.000000
#
# Coordination Sequence:
#
# PCOD9014164 Si02
#       7
#     2   2   2   2   2   2   2
#     4  10  25  48  76 106 147 199 248 305 368 440
#     4  10  23  43  74 106 141 196 244 299 365 431
#     4  10  25  49  76 109 149 200 249 303 372 451
#     4  10  21  41  66  99 139 181 241 291 349 430
#     4  12  28  46  68 106 149 193 240 299 375 438
#     4  11  25  45  72 112 148 184 249 310 371 441
#     4  11  24  42  67 103 141 189 237 300 354 428
#
# _framework density 25.604641999999998
#
# number of rings (size 3 to 8) (size 9 to 14) (size 15 to 20)
#    0.000    1.429    0.000    3.857    2.000   18.857 
#    2.571    0.000    0.000    0.000    0.000    0.000 
#    0.000    0.000    0.000    0.000    0.000    0.000 
#
# Total GULP energy -78313.010649 kJ/mol
# GULP energy per Si atom -5593.786475 kJ/mol
# Density = 2.554636 g / cm^3
# Si number density = 25.604642 Si / 1000 Ang^3
#
#
#
# Elastic Constant Matrix: (Units=GPa)
#
#
# Indices 1 2 3 4 5 6 
#
# 1 143.8923 33.0195 48.6537 -10.5791 -4.9198 7.0689
# 2 33.0195 118.4201 61.4434 4.0461 -4.0580 3.6708
# 3 48.6537 61.4434 216.9938 32.5748 -4.3439 14.3428
# 4 -10.5791 4.0461 32.5748 40.9828 0.6502 -1.8908
# 5 -4.9198 -4.0580 -4.3439 0.6502 28.8346 9.6045
# 6 7.0689 3.6708 14.3428 -1.8908 9.6045 35.5311
#
#
#
# Elastic Compliance Matrix: (Units=1/GPa)
#
#
# Indices 1 2 3 4 5 6 
#
# 1 0.008280 -0.001356 -0.001964 0.003777 0.001112 -0.000814
# 2 -0.001356 0.010218 -0.002702 0.000784 0.000732 0.000149
# 3 -0.001964 -0.002702 0.006911 -0.005885 0.001394 -0.002810
# 4 0.003777 0.000784 -0.005885 0.030179 -0.002045 0.003702
# 5 0.001112 0.000732 0.001394 -0.002045 0.039070 -0.011530
# 6 -0.000814 0.000149 -0.002810 0.003702 -0.011530 0.032739
#
#
# Mechanical properties :
#
#
# Convention : Reuss Voigt Hill
#
# Bulk Modulus (GPa) = 74.81426 85.05990 79.93708
# Shear Modulus (GPa) = 34.74718 43.48234 39.11476
#
# Velocity S-wave (km/s) = 3.68783 4.12542 3.91275
# Velocity P-wave (km/s) = 6.88592 7.48229 7.19029
#
# Compressibility (1/GPa) = 0.01336644
#
# Stress axis : x y z
#
# Youngs Moduli (GPa) = 120.76707 97.86307 144.69712
#
# Poissons Ratio (x) = 0.13267 0.28413
# Poissons Ratio (y) = 0.16372 0.39102
# Poissons Ratio (z) = 0.23714 0.26446
#
# Static dielectric constant tensor:
#      x y z
#    x 1.982940 0.095500 0.002420 
#    y 0.095500 2.432810 0.205600 
#    z 0.002420 0.205600 2.131290 
# 
# From -- ./inp_files/484471.got.cif
#   From: 2010.05.17/outbox.cif.g08.bks.cpg/sg2_243_cif.got.tgz:484471.got - 2010.06.03 11:33:40.
