data_PCOD9014438
_publ_section_title
;
Structure prediction by ZEFSAII (Michael W. Deem and Ramdas Pophale) SiO2 
 PCOD9014438
Probable space group: P -1
;
_chemical_formula_sum "Si O2"
_cell_formula_units_Z 13
_cell_length_a 7.886051
_cell_length_b 9.497205
_cell_length_c 11.447137
_cell_angle_alpha 40.555419
_cell_angle_beta 68.785024
_cell_angle_gamma 68.906629
_cell_volume 514.520788
_symmetry_space_group_name_H-M "P -1"
_symmetry_group_IT_number 2
_symmetry_cell_setting 'triclinic'
loop_
_space_group_symop_operation_xyz
x,y,z
-x,-y,-z
loop_
_atom_site_type_symbol
_atom_site_label
_atom_site_fract_x
_atom_site_fract_y
_atom_site_fract_z
Si Si1 0.500000 0.000000 0.500000
Si Si2 0.703665 0.730403 0.156672
Si Si3 0.263042 0.356007 0.428100
Si Si4 0.147560 0.619349 0.493537
Si Si5 0.794472 0.628540 0.837254
Si Si6 0.792970 0.318034 0.243794
Si Si7 0.358694 0.984066 0.219874
O O1 0.582236 0.844845 0.467462
O O2 0.305321 0.894044 0.606134
O O3 0.847376 0.601961 0.292425
O O4 0.672296 0.520050 0.216855
O O5 0.545453 0.862108 0.193194
O O6 0.751090 0.899356 0.940172
O O7 0.268844 0.553859 0.389688
O O8 0.272834 0.400471 0.258957
O O9 0.060002 0.298295 0.537114
O O10 0.242351 0.805692 0.412343
O O11 0.997789 0.702740 0.746146
O O12 0.648415 0.817240 0.812623
O O13 0.805114 0.414905 0.048560
#
# Coordination Sequence:
#
# PCOD9014438 Si02
#       7
#     1   2   2   2   2   2   2
#     4  12  26  40  64 106 134 168 222 286 332 396
#     4  10  21  41  67  98 129 177 226 278 329 412
#     4  11  26  42  62  98 137 172 227 273 345 390
#     4  11  23  44  64  92 136 183 219 278 331 411
#     4  10  22  44  71  96 130 178 223 280 327 414
#     4  10  22  43  70  98 133 173 225 274 345 392
#     4  10  22  38  70  98 126 174 229 276 337 391
#
# _framework density 25.266228999999999
#
# number of rings (size 3 to 8) (size 9 to 14) (size 15 to 20)
#    0.000    1.538    1.538    2.308    4.308    1.846 
#    2.769    1.538    0.000    0.000    0.000    0.000 
#    0.000    0.000    0.000    0.000    0.000    0.000 
#
# Total GULP energy -72425.852040 kJ/mol
# GULP energy per Si atom -5571.219388 kJ/mol
# Density = 2.520872 g / cm^3
# Si number density = 25.266229 Si / 1000 Ang^3
#
#
#
# Elastic Constant Matrix: (Units=GPa)
#
#
# Indices 1 2 3 4 5 6 
#
# 1 67.2853 8.1674 27.4557 -7.6241 -0.0988 -7.9939
# 2 8.1674 147.3549 2.1069 9.4034 6.1274 -9.6598
# 3 27.4557 2.1069 82.9072 6.3424 12.4900 -0.1294
# 4 -7.6241 9.4034 6.3424 37.0558 4.5396 5.4138
# 5 -0.0988 6.1274 12.4900 4.5396 28.8255 1.0466
# 6 -7.9939 -9.6598 -0.1294 5.4138 1.0466 52.6334
#
#
#
# Elastic Compliance Matrix: (Units=1/GPa)
#
#
# Indices 1 2 3 4 5 6 
#
# 1 0.018584 -0.001200 -0.006853 0.004698 0.002474 0.002053
# 2 -0.001200 0.007136 0.000610 -0.002181 -0.001492 0.001383
# 3 -0.006853 0.000610 0.015528 -0.003386 -0.006333 -0.000416
# 4 0.004698 -0.002181 -0.003386 0.029806 -0.002649 -0.002708
# 5 0.002474 -0.001492 -0.006333 -0.002649 0.038193 -0.000401
# 6 0.002053 0.001383 -0.000416 -0.002708 -0.000401 0.019850
#
#
# Mechanical properties :
#
#
# Convention : Reuss Voigt Hill
#
# Bulk Modulus (GPa) = 37.93322 41.44527 39.68925
# Shear Modulus (GPa) = 32.72887 41.02412 36.87649
#
# Velocity S-wave (km/s) = 3.60302 4.03386 3.82451
# Velocity P-wave (km/s) = 5.68814 6.17536 5.93675
#
# Compressibility (1/GPa) = 0.02636211
#
# Stress axis : x y z
#
# Youngs Moduli (GPa) = 53.81023 140.13372 64.40018
#
# Poissons Ratio (x) = 0.16818 0.44131
# Poissons Ratio (y) = 0.06458 -0.03928
# Poissons Ratio (z) = 0.36874 -0.08547
#
# Static dielectric constant tensor:
#      x y z
#    x 2.100110 -0.032470 0.226300 
#    y -0.032470 2.033950 0.018900 
#    z 0.226300 0.018900 2.132290 
# 
# From -- ./inp_files/377476.got.cif
#   From: 2010.05.17/outbox.cif.g08.bks.cpg/sg2_189_cif.got.tgz:377476.got - 2010.06.03 11:33:40.
