data_PCOD9014174
_publ_section_title
;
Structure prediction by ZEFSAII (Michael W. Deem and Ramdas Pophale) SiO2 
 PCOD9014174
Probable space group: P -1
;
_chemical_formula_sum "Si O2"
_cell_formula_units_Z 14
_cell_length_a 5.289041
_cell_length_b 24.412585
_cell_length_c 10.307063
_cell_angle_alpha 149.740963
_cell_angle_beta 85.548631
_cell_angle_gamma 77.120137
_cell_volume 546.012682
_symmetry_space_group_name_H-M "P -1"
_symmetry_group_IT_number 2
_symmetry_cell_setting 'triclinic'
loop_
_space_group_symop_operation_xyz
x,y,z
-x,-y,-z
loop_
_atom_site_type_symbol
_atom_site_label
_atom_site_fract_x
_atom_site_fract_y
_atom_site_fract_z
Si Si1 0.694198 0.342381 0.000915
Si Si2 0.653600 0.803388 0.621343
Si Si3 0.597756 0.359820 0.763936
Si Si4 0.277738 0.439083 0.466825
Si Si5 0.230975 0.835652 0.011787
Si Si6 0.810170 0.907466 0.404667
Si Si7 0.681495 0.994696 0.186187
O O1 0.539643 0.384517 0.233552
O O2 0.807638 0.438807 0.187991
O O3 0.492350 0.375030 0.949320
O O4 0.943837 0.185802 0.684707
O O5 0.568156 0.698268 0.421878
O O6 0.022486 0.733816 0.438294
O O7 0.433051 0.900334 0.710786
O O8 0.589480 0.897407 0.938928
O O9 0.500000 0.500000 0.000000
O O10 0.000000 0.500000 0.500000
O O11 0.440517 0.306763 0.278713
O O12 0.974054 0.838050 0.120630
O O13 0.040323 0.896852 0.011260
O O14 0.262751 0.947637 0.298253
O O15 0.505548 0.926162 0.513885
#
# Coordination Sequence:
#
# PCOD9014174 Si02
#       7
#     2   2   2   2   2   2   2
#     4  10  23  43  69  96 140 184 232 291 364 424
#     4  11  28  46  75 104 148 190 245 300 365 420
#     4  12  27  50  72 106 142 196 247 297 360 437
#     4  10  24  43  67 100 140 185 230 294 365 430
#     4  10  23  40  68 105 139 186 237 296 357 439
#     4  10  21  41  67 100 137 182 232 294 357 427
#     4  11  24  42  72 102 145 186 238 305 360 427
#
# _framework density 25.640432000000001
#
# number of rings (size 3 to 8) (size 9 to 14) (size 15 to 20)
#    0.000    1.429    1.429    1.714    6.000    8.000 
#    0.000    0.000    0.000    0.000    0.000    0.000 
#    0.000    0.000    0.000    0.000    0.000    0.000 
#
# Total GULP energy -78115.658632 kJ/mol
# GULP energy per Si atom -5579.689902 kJ/mol
# Density = 2.558207 g / cm^3
# Si number density = 25.640432 Si / 1000 Ang^3
#
#
#
# Elastic Constant Matrix: (Units=GPa)
#
#
# Indices 1 2 3 4 5 6 
#
# 1 86.8241 16.5901 42.4539 18.4278 5.9806 -14.1468
# 2 16.5901 106.0571 44.2024 24.8439 -3.2821 -24.9664
# 3 42.4539 44.2024 90.8077 29.3030 17.9810 -7.4190
# 4 18.4278 24.8439 29.3030 56.5064 -3.8839 -8.7757
# 5 5.9806 -3.2821 17.9810 -3.8839 35.3908 0.7460
# 6 -14.1468 -24.9664 -7.4190 -8.7757 0.7460 38.0153
#
#
#
# Elastic Compliance Matrix: (Units=1/GPa)
#
#
# Indices 1 2 3 4 5 6 
#
# 1 0.016147 0.002595 -0.008268 -0.001116 0.001468 0.005814
# 2 0.002595 0.015045 -0.008305 -0.001457 0.004831 0.008795
# 3 -0.008268 -0.008305 0.023188 -0.007340 -0.011844 -0.005468
# 4 -0.001116 -0.001457 -0.007340 0.023321 0.006290 0.002456
# 5 0.001468 0.004831 -0.011844 0.006290 0.035118 0.002170
# 6 0.005814 0.008795 -0.005468 0.002456 0.002170 0.033702
#
#
# Mechanical properties :
#
#
# Convention : Reuss Voigt Hill
#
# Bulk Modulus (GPa) = 37.84341 54.46465 46.15403
# Shear Modulus (GPa) = 27.27982 38.01200 32.64591
#
# Velocity S-wave (km/s) = 3.26534 3.85450 3.57209
# Velocity P-wave (km/s) = 5.38590 6.41073 5.92053
#
# Compressibility (1/GPa) = 0.02642468
#
# Stress axis : x y z
#
# Youngs Moduli (GPa) = 61.92957 66.46571 43.12662
#
# Poissons Ratio (x) = -0.17251 0.35658
# Poissons Ratio (y) = -0.16074 0.35817
# Poissons Ratio (z) = 0.51205 0.55200
#
# Static dielectric constant tensor:
#      x y z
#    x 1.936800 -0.190000 -0.104570 
#    y -0.190000 2.005390 -0.048190 
#    z -0.104570 -0.048190 2.117810 
# 
# From -- ./inp_files/371351.got.cif
#   From: 2010.05.17/outbox.cif.g08.bks.cpg/sg2_186_cif.got.tgz:371351.got - 2010.06.03 11:33:40.
