data_PCOD9014233
_publ_section_title
;
Structure prediction by ZEFSAII (Michael W. Deem and Ramdas Pophale) SiO2 
 PCOD9014233
Probable space group: P -1
;
_chemical_formula_sum "Si O2"
_cell_formula_units_Z 14
_cell_length_a 14.707381
_cell_length_b 7.634845
_cell_length_c 6.550266
_cell_angle_alpha 68.265903
_cell_angle_beta 71.940515
_cell_angle_gamma 56.215684
_cell_volume 562.675649
_symmetry_space_group_name_H-M "P -1"
_symmetry_group_IT_number 2
_symmetry_cell_setting 'triclinic'
loop_
_space_group_symop_operation_xyz
x,y,z
-x,-y,-z
loop_
_atom_site_type_symbol
_atom_site_label
_atom_site_fract_x
_atom_site_fract_y
_atom_site_fract_z
Si Si1 0.838788 0.907531 0.751369
Si Si2 0.291662 0.297734 0.639313
Si Si3 0.278141 0.696248 0.637529
Si Si4 0.876899 0.165126 0.935126
Si Si5 0.548909 0.702391 0.158879
Si Si6 0.936882 0.411828 0.446066
Si Si7 0.348014 0.121893 0.245074
O O1 0.770574 0.781684 0.825771
O O2 0.969420 0.767309 0.685922
O O3 0.785186 0.072697 0.525474
O O4 0.822884 0.036570 0.915691
O O5 0.288938 0.529050 0.524309
O O6 0.382196 0.208437 0.792273
O O7 0.160347 0.393973 0.698749
O O8 0.331585 0.138326 0.490961
O O9 0.400358 0.551379 0.715099
O O10 0.198841 0.708561 0.873161
O O11 0.891030 0.307234 0.687409
O O12 0.000000 0.000000 0.000000
O O13 0.423919 0.872378 0.224706
O O14 0.588690 0.743071 0.897957
O O15 0.000000 0.500000 0.500000
#
# Coordination Sequence:
#
# PCOD9014233 Si02
#       7
#     2   2   2   2   2   2   2
#     4  12  25  40  63  97 127 165 203 263 308 374
#     4  10  21  41  67  88 125 164 207 252 312 368
#     4  10  23  41  64  90 124 168 208 243 320 366
#     4  12  23  42  62  88 134 168 199 253 313 372
#     4   9  23  41  68  92 121 168 207 260 311 366
#     4  12  23  40  64  95 126 163 210 254 307 372
#     4  11  22  43  67  95 123 157 219 261 308 361
#
# _framework density 24.881121
#
# number of rings (size 3 to 8) (size 9 to 14) (size 15 to 20)
#    0.857    0.286    4.286    2.571    0.000    2.857 
#    0.000    2.857    0.000    0.000    0.000    0.000 
#    0.000    0.000    0.000    0.000    0.000    0.000 
#
# Total GULP energy -78025.972336 kJ/mol
# GULP energy per Si atom -5573.283738 kJ/mol
# Density = 2.482449 g / cm^3
# Si number density = 24.881121 Si / 1000 Ang^3
#
#
#
# Elastic Constant Matrix: (Units=GPa)
#
#
# Indices 1 2 3 4 5 6 
#
# 1 43.9212 -5.3155 12.2830 3.0418 -0.9973 -17.5952
# 2 -5.3155 77.4564 25.0842 2.7324 -8.1488 -27.2860
# 3 12.2830 25.0842 55.1795 1.0735 -5.6366 -16.0936
# 4 3.0418 2.7324 1.0735 31.1052 -5.8435 3.1073
# 5 -0.9973 -8.1488 -5.6366 -5.8435 27.5420 5.0848
# 6 -17.5952 -27.2860 -16.0936 3.1073 5.0848 53.0456
#
#
#
# Elastic Compliance Matrix: (Units=1/GPa)
#
#
# Indices 1 2 3 4 5 6 
#
# 1 0.031742 0.009409 -0.007413 -0.005253 -0.001199 0.013542
# 2 0.009409 0.020362 -0.007811 -0.003180 0.002021 0.011218
# 3 -0.007413 -0.007811 0.023671 0.001004 0.002401 0.000416
# 4 -0.005253 -0.003180 0.001004 0.034911 0.007560 -0.005843
# 5 -0.001199 0.002021 0.002401 0.007560 0.039486 -0.002857
# 6 0.013542 0.011218 0.000416 -0.005843 -0.002857 0.029856
#
#
# Mechanical properties :
#
#
# Convention : Reuss Voigt Hill
#
# Bulk Modulus (GPa) = 15.59008 26.74004 21.16506
# Shear Modulus (GPa) = 23.46981 31.97226 27.72104
#
# Velocity S-wave (km/s) = 3.07462 3.58858 3.34149
# Velocity P-wave (km/s) = 4.34555 5.28592 4.83863
#
# Compressibility (1/GPa) = 0.06414333
#
# Stress axis : x y z
#
# Youngs Moduli (GPa) = 31.50447 49.11049 42.24642
#
# Poissons Ratio (x) = -0.46207 0.31319
# Poissons Ratio (y) = -0.29642 0.32998
# Poissons Ratio (z) = 0.23356 0.38359
#
# Static dielectric constant tensor:
#      x y z
#    x 2.018230 0.003170 -0.031720 
#    y 0.003170 2.047260 -0.046410 
#    z -0.031720 -0.046410 2.091210 
# 
# From -- ./inp_files/104686.got.cif
#   From: 2010.05.17/outbox.cif.g08.bks.cpg/sg2_53_cif.got.tgz:104686.got - 2010.06.03 11:33:40.
