data_PCOD9014865
_publ_section_title
;
Structure prediction by ZEFSAII (Michael W. Deem and Ramdas Pophale) SiO2 
 PCOD9014865
Probable space group: P -1
;
_chemical_formula_sum "Si O2"
_cell_formula_units_Z 14
_cell_length_a 9.671574
_cell_length_b 12.008656
_cell_length_c 19.309700
_cell_angle_alpha 143.614754
_cell_angle_beta 33.565818
_cell_angle_gamma 120.179695
_cell_volume 631.616094
_symmetry_space_group_name_H-M "P -1"
_symmetry_group_IT_number 2
_symmetry_cell_setting 'triclinic'
loop_
_space_group_symop_operation_xyz
x,y,z
-x,-y,-z
loop_
_atom_site_type_symbol
_atom_site_label
_atom_site_fract_x
_atom_site_fract_y
_atom_site_fract_z
Si Si1 0.696004 0.704865 0.203891
Si Si2 0.218663 0.368040 0.525574
Si Si3 0.414512 0.839473 0.863057
Si Si4 0.239437 0.877250 0.598769
Si Si5 0.400298 0.557536 0.149572
Si Si6 0.406781 0.823662 0.012110
Si Si7 0.187449 0.810731 0.739805
O O1 0.477488 0.740040 0.374646
O O2 0.548448 0.683321 0.184969
O O3 0.727346 0.916075 0.292240
O O4 0.000000 0.500000 0.000000
O O5 0.325449 0.299786 0.367678
O O6 0.144843 0.617905 0.692407
O O7 0.516605 0.216647 0.367072
O O8 0.948159 0.340422 0.645483
O O9 0.403962 0.064691 0.999179
O O10 0.448587 0.732297 0.870467
O O11 0.093303 0.943477 0.015260
O O12 0.248819 0.761001 0.607528
O O13 0.924026 0.980957 0.748723
O O14 0.500000 0.500000 0.000000
O O15 0.529644 0.346391 0.039769
#
# Coordination Sequence:
#
# PCOD9014865 Si02
#       7
#     2   2   2   2   2   2   2
#     4  11  24  43  68  95 133 181 229 275 320 405
#     4  11  24  42  66  98 138 174 216 274 348 389
#     4  10  21  41  69  97 132 167 222 278 337 392
#     4  10  23  42  69  99 129 175 236 269 337 392
#     4  12  27  44  66  99 141 183 222 273 338 404
#     4  10  21  42  64  99 132 167 222 281 323 405
#     4  10  23  41  66 103 131 169 217 286 330 407
#
# _framework density 22.165361000000001
#
# number of rings (size 3 to 8) (size 9 to 14) (size 15 to 20)
#    0.000    1.429    2.857    1.286    4.000    1.714 
#    5.143    2.143    0.000    0.000    0.000    0.000 
#    0.000    0.000    0.000    0.000    0.000    0.000 
#
# Total GULP energy -78223.866480 kJ/mol
# GULP energy per Si atom -5587.419034 kJ/mol
# Density = 2.211491 g / cm^3
# Si number density = 22.165361 Si / 1000 Ang^3
#
#
#
# Elastic Constant Matrix: (Units=GPa)
#
#
# Indices 1 2 3 4 5 6 
#
# 1 129.8139 40.2430 65.0172 -11.0070 -15.3767 3.7587
# 2 40.2430 70.5594 27.6638 -8.9315 -2.9548 -13.6298
# 3 65.0172 27.6638 104.4505 -44.4057 1.3914 -4.2744
# 4 -11.0070 -8.9315 -44.4057 39.6769 4.7984 1.0007
# 5 -15.3767 -2.9548 1.3914 4.7984 35.3952 -7.9703
# 6 3.7587 -13.6298 -4.2744 1.0007 -7.9703 31.6661
#
#
#
# Elastic Compliance Matrix: (Units=1/GPa)
#
#
# Indices 1 2 3 4 5 6 
#
# 1 0.017622 -0.006057 -0.016356 -0.015764 0.008997 -0.004144
# 2 -0.006057 0.019811 -0.000125 0.002303 0.000824 0.009364
# 3 -0.016356 -0.000125 0.035787 0.037005 -0.013028 0.002270
# 4 -0.015764 0.002303 0.037005 0.064719 -0.016511 0.001657
# 5 0.008997 0.000824 -0.013028 -0.016511 0.036616 0.007266
# 6 -0.004144 0.009364 0.002270 0.001657 0.007266 0.038185
#
#
# Mechanical properties :
#
#
# Convention : Reuss Voigt Hill
#
# Bulk Modulus (GPa) = 35.53300 63.40799 49.47050
# Shear Modulus (GPa) = 18.71275 32.80761 25.76018
#
# Velocity S-wave (km/s) = 2.90872 3.85142 3.41278
# Velocity P-wave (km/s) = 5.22939 6.96037 6.15603
#
# Compressibility (1/GPa) = 0.02814285
#
# Stress axis : x y z
#
# Youngs Moduli (GPa) = 56.74679 50.47711 27.94333
#
# Poissons Ratio (x) = 0.30575 0.45705
# Poissons Ratio (y) = 0.34372 0.00350
# Poissons Ratio (z) = 0.92817 0.00631
#
# Static dielectric constant tensor:
#      x y z
#    x 1.891190 0.021220 -0.024140 
#    y 0.021220 1.814270 0.009460 
#    z -0.024140 0.009460 1.837510 
# 
# From -- ./inp_files/370507.got.cif
#   From: 2010.05.17/outbox.cif.g08.bks.cpg/sg2_186_cif.got.tgz:370507.got - 2010.06.03 11:33:40.
