data_PCOD9014101
_publ_section_title
;
Structure prediction by ZEFSAII (Michael W. Deem and Ramdas Pophale) SiO2 
 PCOD9014101
Probable space group: P -1
;
_chemical_formula_sum "Si O2"
_cell_formula_units_Z 16
_cell_length_a 11.413344
_cell_length_b 13.769409
_cell_length_c 12.122336
_cell_angle_alpha 101.042058
_cell_angle_beta 59.225487
_cell_angle_gamma 148.308064
_cell_volume 723.643387
_symmetry_space_group_name_H-M "P -1"
_symmetry_group_IT_number 2
_symmetry_cell_setting 'triclinic'
loop_
_space_group_symop_operation_xyz
x,y,z
-x,-y,-z
loop_
_atom_site_type_symbol
_atom_site_label
_atom_site_fract_x
_atom_site_fract_y
_atom_site_fract_z
Si Si1 0.439991 0.215868 0.885379
Si Si2 0.622602 0.936566 0.338467
Si Si3 0.169870 0.326013 0.730614
Si Si4 0.006607 0.005966 0.228838
Si Si5 0.238098 0.917640 0.344647
Si Si6 0.939840 0.304054 0.396996
Si Si7 0.668741 0.800204 0.663907
Si Si8 0.597749 0.002276 0.059592
O O1 0.323754 0.070210 0.811052
O O2 0.552748 0.203773 0.912931
O O3 0.717582 0.452831 0.749116
O O4 0.186177 0.113299 0.049356
O O5 0.269970 0.734493 0.488410
O O6 0.783367 0.954032 0.335234
O O7 0.789446 0.145515 0.335517
O O8 0.455130 0.580575 0.664387
O O9 0.192248 0.222272 0.708898
O O10 0.002410 0.235275 0.674186
O O11 0.949481 0.212491 0.913737
O O12 0.272441 0.178131 0.229712
O O13 0.085464 0.781727 0.501168
O O14 0.484668 0.994532 0.212736
O O15 0.399088 0.128934 0.313956
O O16 0.000000 0.000000 0.500000
O O17 0.500000 0.000000 0.000000
#
# Coordination Sequence:
#
# PCOD9014101 Si02
#       8
#     2   2   2   2   2   2   2   2
#     4  11  23  44  69  96 136 177 226 279 331 402
#     4  11  24  43  62  99 138 180 224 270 335 404
#     4   9  22  43  69  96 131 176 218 284 340 383
#     4  10  24  44  69  99 137 176 231 274 334 407
#     4  10  21  41  66  97 133 172 223 279 329 404
#     4  11  25  42  66 103 138 174 226 281 332 399
#     4  11  24  43  65 101 135 174 228 277 331 403
#     4   9  19  41  65  96 127 161 222 273 332 398
#
# _framework density 22.110339
#
# number of rings (size 3 to 8) (size 9 to 14) (size 15 to 20)
#    0.000    1.750    1.250    2.250    0.000    9.000 
#    9.000    0.000    0.000    0.000    0.000    0.000 
#    0.000    0.000    0.000    0.000    0.000    0.000 
#
# Total GULP energy -89310.650429 kJ/mol
# GULP energy per Si atom -5581.915652 kJ/mol
# Density = 2.206001 g / cm^3
# Si number density = 22.110339 Si / 1000 Ang^3
#
#
#
# Elastic Constant Matrix: (Units=GPa)
#
#
# Indices 1 2 3 4 5 6 
#
# 1 105.7917 21.5168 28.9985 -4.8990 -10.0478 -12.6552
# 2 21.5168 87.7370 57.8099 4.8455 -0.9240 -2.7181
# 3 28.9985 57.8099 120.1012 8.7520 7.5701 -4.3509
# 4 -4.8990 4.8455 8.7520 26.6005 -6.3647 6.3972
# 5 -10.0478 -0.9240 7.5701 -6.3647 37.2796 14.8240
# 6 -12.6552 -2.7181 -4.3509 6.3972 14.8240 18.0715
#
#
#
# Elastic Compliance Matrix: (Units=1/GPa)
#
#
# Indices 1 2 3 4 5 6 
#
# 1 0.011169 -0.001233 -0.002238 0.002395 0.002016 0.004596
# 2 -0.001233 0.017051 -0.008308 0.000983 0.003269 -0.003328
# 3 -0.002238 -0.008308 0.014624 -0.009128 -0.010243 0.012337
# 4 0.002395 0.000983 -0.009128 0.059854 0.031635 -0.047511
# 5 0.002016 0.003269 -0.010243 0.031635 0.058780 -0.059978
# 6 0.004596 -0.003328 0.012337 -0.047511 -0.059978 0.127043
#
#
# Mechanical properties :
#
#
# Convention : Reuss Voigt Hill
#
# Bulk Modulus (GPa) = 51.85343 58.92003 55.38673
# Shear Modulus (GPa) = 15.69823 30.07730 22.88776
#
# Velocity S-wave (km/s) = 2.66746 3.69226 3.22088
# Velocity P-wave (km/s) = 5.74371 6.69949 6.23992
#
# Compressibility (1/GPa) = 0.01928513
#
# Stress axis : x y z
#
# Youngs Moduli (GPa) = 89.53369 58.64671 68.38268
#
# Poissons Ratio (x) = 0.07230 0.15307
# Poissons Ratio (y) = 0.11038 0.56813
# Poissons Ratio (z) = 0.20042 0.48724
#
# Static dielectric constant tensor:
#      x y z
#    x 2.008210 0.061620 0.064360 
#    y 0.061620 1.848650 0.048430 
#    z 0.064360 0.048430 1.861800 
# 
# From -- ./inp_files/434124.got.cif
#   From: 2010.05.17/outbox.cif.g08.bks.cpg/sg2_218_cif.got.tgz:434124.got - 2010.06.03 11:33:40.
