data_PCOD9014149
_publ_section_title
;
Structure prediction by ZEFSAII (Michael W. Deem and Ramdas Pophale) SiO2 
 PCOD9014149
Probable space group: P -1
;
_chemical_formula_sum "Si O2"
_cell_formula_units_Z 16
_cell_length_a 18.650401
_cell_length_b 6.943054
_cell_length_c 17.086809
_cell_angle_alpha 60.638062
_cell_angle_beta 27.350608
_cell_angle_gamma 45.861638
_cell_volume 672.106232
_symmetry_space_group_name_H-M "P -1"
_symmetry_group_IT_number 2
_symmetry_cell_setting 'triclinic'
loop_
_space_group_symop_operation_xyz
x,y,z
-x,-y,-z
loop_
_atom_site_type_symbol
_atom_site_label
_atom_site_fract_x
_atom_site_fract_y
_atom_site_fract_z
Si Si1 0.003288 0.319992 0.126239
Si Si2 0.940787 0.554591 0.784757
Si Si3 0.460447 0.895480 0.917884
Si Si4 0.537828 0.705088 0.456975
Si Si5 0.906029 0.864483 0.148695
Si Si6 0.185309 0.708169 0.459232
Si Si7 0.441626 0.888335 0.754008
Si Si8 0.788204 0.297814 0.747141
O O1 0.031277 0.305330 0.195609
O O2 0.769968 0.472785 0.308432
O O3 0.013307 0.575351 0.050709
O O4 0.205003 0.026653 0.952630
O O5 0.034806 0.249239 0.795011
O O6 0.065363 0.580024 0.595648
O O7 0.697370 0.777237 0.960223
O O8 0.479858 0.919616 0.801769
O O9 0.679905 0.635348 0.795642
O O10 0.339458 0.773513 0.070575
O O11 0.500000 0.500000 0.500000
O O12 0.340528 0.923827 0.661027
O O13 0.526243 0.921468 0.365481
O O14 0.000000 0.000000 0.000000
O O15 0.392492 0.455578 0.354795
O O16 0.235845 0.729391 0.317286
O O17 0.029696 0.033781 0.580007
#
# Coordination Sequence:
#
# PCOD9014149 Si02
#       8
#     2   2   2   2   2   2   2   2
#     4   9  20  35  51  70 102 145 177 211 258 296
#     4   8  16  29  48  66 102 141 173 209 250 294
#     4   8  14  25  41  67 101 139 161 204 260 299
#     4  12  23  34  51  75 102 140 178 218 258 301
#     4  10  20  35  51  71  99 146 175 212 251 301
#     4   9  14  25  43  74 102 133 163 212 258 295
#     4  10  17  30  48  70 103 138 168 215 252 295
#     4   8  14  22  41  69 107 130 159 208 257 312
#
# _framework density 23.805759999999999
#
# number of rings (size 3 to 8) (size 9 to 14) (size 15 to 20)
#    0.750    2.000    1.250    1.500    0.000    0.000 
#    0.000    0.000    0.000    0.000    0.000    0.000 
#    0.000  126.000    2.000    0.000    0.000    0.000 
#
# Total GULP energy -89128.136522 kJ/mol
# GULP energy per Si atom -5570.508533 kJ/mol
# Density = 2.375158 g / cm^3
# Si number density = 23.805760 Si / 1000 Ang^3
#
#
#
# Elastic Constant Matrix: (Units=GPa)
#
#
# Indices 1 2 3 4 5 6 
#
# 1 25.0485 34.0787 19.5698 -7.0730 3.3675 -6.9568
# 2 34.0787 120.4161 63.1786 25.3019 -19.7942 -32.3495
# 3 19.5698 63.1786 152.2366 28.5366 3.1096 -14.2094
# 4 -7.0730 25.3019 28.5366 63.2054 -15.9654 -1.9779
# 5 3.3675 -19.7942 3.1096 -15.9654 26.6607 0.7799
# 6 -6.9568 -32.3495 -14.2094 -1.9779 0.7799 23.2952
#
#
#
# Elastic Compliance Matrix: (Units=1/GPa)
#
#
# Indices 1 2 3 4 5 6 
#
# 1 0.114732 -0.054403 0.000857 0.022912 -0.040166 -0.037473
# 2 -0.054403 0.046847 -0.006993 -0.011715 0.034213 0.042403
# 3 0.000857 -0.006993 0.009950 -0.003901 -0.008697 -0.003426
# 4 0.022912 -0.011715 -0.003901 0.025673 0.004523 -0.009777
# 5 -0.040166 0.034213 -0.008697 0.004523 0.070880 0.028222
# 6 -0.037473 0.042403 -0.003426 -0.009777 0.028222 0.086755
#
#
# Mechanical properties :
#
#
# Convention : Reuss Voigt Hill
#
# Bulk Modulus (GPa) = 19.82189 59.03950 39.43069
# Shear Modulus (GPa) = 10.14748 34.69055 22.41902
#
# Velocity S-wave (km/s) = 2.06685 3.82151 3.07212
# Velocity P-wave (km/s) = 3.74705 6.65780 5.40216
#
# Compressibility (1/GPa) = 0.05044928
#
# Stress axis : x y z
#
# Youngs Moduli (GPa) = 8.71599 21.34595 100.50418
#
# Poissons Ratio (x) = 1.16129 -0.08613
# Poissons Ratio (y) = 0.47418 0.70286
# Poissons Ratio (z) = -0.00747 0.14928
#
# Static dielectric constant tensor:
#      x y z
#    x 1.990080 -0.045350 0.039020 
#    y -0.045350 1.999390 0.093680 
#    z 0.039020 0.093680 1.977770 
# 
# From -- ./inp_files/489668.got.cif
#   From: 2010.05.17/outbox.cif.g08.bks.cpg/sg2_245_cif.got.tgz:489668.got - 2010.06.03 11:33:40.
