data_PCOD9014898
_publ_section_title
;
Structure prediction by ZEFSAII (Michael W. Deem and Ramdas Pophale) SiO2 
 PCOD9014898
Probable space group: P -1
;
_chemical_formula_sum "Si O2"
_cell_formula_units_Z 15
_cell_length_a 9.608800
_cell_length_b 13.772478
_cell_length_c 7.790832
_cell_angle_alpha 137.893113
_cell_angle_beta 90.728901
_cell_angle_gamma 70.923138
_cell_volume 608.890199
_symmetry_space_group_name_H-M "P -1"
_symmetry_group_IT_number 2
_symmetry_cell_setting 'triclinic'
loop_
_space_group_symop_operation_xyz
x,y,z
-x,-y,-z
loop_
_atom_site_type_symbol
_atom_site_label
_atom_site_fract_x
_atom_site_fract_y
_atom_site_fract_z
Si Si1 0.364175 0.232851 0.341249
Si Si2 0.162726 0.754039 0.004277
Si Si3 0.849621 0.415715 0.568309
Si Si4 0.676871 0.999054 0.216496
Si Si5 0.500000 0.000000 0.500000
Si Si6 0.049574 0.914635 0.702490
Si Si7 0.055837 0.540409 0.876300
Si Si8 0.492959 0.307663 0.094282
O O1 0.488761 0.124392 0.347895
O O2 0.226189 0.392283 0.631092
O O3 0.460159 0.270113 0.241545
O O4 0.291486 0.127497 0.105651
O O5 0.127581 0.673635 0.730226
O O6 0.081021 0.699363 0.077202
O O7 0.350473 0.675644 0.904533
O O8 0.083455 0.949886 0.242079
O O9 0.926194 0.266354 0.507439
O O10 0.664236 0.529489 0.747209
O O11 0.930993 0.531440 0.730620
O O12 0.673608 0.924985 0.302080
O O13 0.784978 0.085587 0.331405
O O14 0.521202 0.152045 0.778127
O O15 0.000000 0.000000 0.000000
O O16 0.000000 0.500000 0.000000
#
# Coordination Sequence:
#
# PCOD9014898 Si02
#       8
#     2   2   2   2   1   2   2   2
#     4  10  21  41  69  98 141 184 244 286 354 433
#     4  11  24  45  76 105 144 187 244 294 357 432
#     4  11  24  44  74 104 142 186 245 291 360 425
#     4  10  22  40  68 101 136 191 233 295 354 424
#     4  10  26  42  68 104 146 182 238 296 364 422
#     4  10  22  40  70 101 138 177 239 293 348 418
#     4  12  28  43  68 110 149 191 232 302 362 429
#     4  11  24  45  75 105 137 191 241 297 359 426
#
# _framework density 24.634983999999999
#
# number of rings (size 3 to 8) (size 9 to 14) (size 15 to 20)
#    0.000    1.333    1.333    4.000    7.467    3.200 
#    0.000    2.667    0.000    0.000    0.000    0.000 
#    0.000    0.000    0.000    0.000    0.000    0.000 
#
# Total GULP energy -83718.382120 kJ/mol
# GULP energy per Si atom -5581.225475 kJ/mol
# Density = 2.457891 g / cm^3
# Si number density = 24.634984 Si / 1000 Ang^3
#
#
#
# Elastic Constant Matrix: (Units=GPa)
#
#
# Indices 1 2 3 4 5 6 
#
# 1 114.9970 42.4447 15.7667 8.5570 -14.2211 25.0042
# 2 42.4447 63.5824 29.9355 16.3682 -12.2414 14.1220
# 3 15.7667 29.9355 62.6539 0.8705 -3.4550 -3.7848
# 4 8.5570 16.3682 0.8705 49.0769 -5.9547 -6.6744
# 5 -14.2211 -12.2414 -3.4550 -5.9547 27.8662 7.6631
# 6 25.0042 14.1220 -3.7848 -6.6744 7.6631 36.8761
#
#
#
# Elastic Compliance Matrix: (Units=1/GPa)
#
#
# Indices 1 2 3 4 5 6 
#
# 1 0.013573 -0.004799 -0.001277 -0.001146 0.006930 -0.009144
# 2 -0.004799 0.035810 -0.016024 -0.011494 0.013512 -0.016992
# 3 -0.001277 -0.016024 0.024208 0.005950 -0.006706 0.011957
# 4 -0.001146 -0.011494 0.005950 0.025491 -0.002450 0.010912
# 5 0.006930 0.013512 -0.006706 -0.002450 0.049879 -0.021370
# 6 -0.009144 -0.016992 0.011957 0.010912 -0.021370 0.047468
#
#
# Mechanical properties :
#
#
# Convention : Reuss Voigt Hill
#
# Bulk Modulus (GPa) = 34.02420 46.39191 40.20805
# Shear Modulus (GPa) = 19.96605 32.96961 26.46783
#
# Velocity S-wave (km/s) = 2.84997 3.66228 3.28136
# Velocity P-wave (km/s) = 4.96700 6.06265 5.54197
#
# Compressibility (1/GPa) = 0.02939085
#
# Stress axis : x y z
#
# Youngs Moduli (GPa) = 73.67739 27.92521 41.30906
#
# Poissons Ratio (x) = 0.13403 0.05274
# Poissons Ratio (y) = 0.35361 0.66192
# Poissons Ratio (z) = 0.09406 0.44746
#
# Static dielectric constant tensor:
#      x y z
#    x 1.061740 0.822180 -0.794520 
#    y 0.822180 1.412470 0.684710 
#    z -0.794520 0.684710 1.202540 
# 
# From -- ./inp_files/198681.got.cif
#   From: 2010.05.17/outbox.cif.g08.bks.cpg/sg2_100_cif.got.tgz:198681.got - 2010.06.03 11:33:40.
