data_PCOD9014807
_publ_section_title
;
Structure prediction by ZEFSAII (Michael W. Deem and Ramdas Pophale) SiO2 
 PCOD9014807
Probable space group: P -1
;
_chemical_formula_sum "Si O2"
_cell_formula_units_Z 15
_cell_length_a 7.922006
_cell_length_b 8.717728
_cell_length_c 12.175900
_cell_angle_alpha 108.246046
_cell_angle_beta 48.043451
_cell_angle_gamma 111.000519
_cell_volume 580.513095
_symmetry_space_group_name_H-M "P -1"
_symmetry_group_IT_number 2
_symmetry_cell_setting 'triclinic'
loop_
_space_group_symop_operation_xyz
x,y,z
-x,-y,-z
loop_
_atom_site_type_symbol
_atom_site_label
_atom_site_fract_x
_atom_site_fract_y
_atom_site_fract_z
Si Si1 0.456239 0.644262 0.207619
Si Si2 0.794012 0.001131 0.175907
Si Si3 0.278862 0.441604 0.428717
Si Si4 0.346522 0.086380 0.312807
Si Si5 0.207951 0.410644 0.688011
Si Si6 0.721587 0.366323 0.966347
Si Si7 0.500000 0.000000 0.000000
Si Si8 0.248696 0.030005 0.579121
O O1 0.626526 0.817791 0.202116
O O2 0.269378 0.573796 0.367477
O O3 0.351875 0.647434 0.133179
O O4 0.609959 0.506523 0.099027
O O5 0.894127 0.040097 0.264344
O O6 0.618006 0.116931 0.242718
O O7 0.000000 0.000000 0.000000
O O8 0.243549 0.248757 0.372057
O O9 0.154549 0.467027 0.601904
O O10 0.549910 0.484109 0.355267
O O11 0.221141 0.986159 0.452267
O O12 0.340539 0.984597 0.180806
O O13 0.242046 0.222976 0.622175
O O14 0.996810 0.412167 0.859797
O O15 0.613710 0.190090 0.025165
O O16 0.500000 0.000000 0.500000
#
# Coordination Sequence:
#
# PCOD9014807 Si02
#       8
#     2   2   2   2   2   2   1   2
#     4  11  23  43  63  94 134 177 214 272 329 392
#     4  11  23  38  66 100 129 166 222 276 330 384
#     4  10  21  41  69  93 126 165 222 276 328 387
#     4  10  22  40  64  91 126 172 211 270 332 386
#     4  10  22  40  68  98 125 170 217 275 330 392
#     4  11  26  41  64  93 137 175 220 265 333 396
#     4  12  22  42  66  88 132 178 216 268 324 394
#     4   9  20  40  63  92 130 162 213 272 327 382
#
# _framework density 25.839210999999999
#
# number of rings (size 3 to 8) (size 9 to 14) (size 15 to 20)
#    0.000    1.600    4.000    0.000    3.733    1.067 
#    0.000    2.667    5.867    0.000    0.000    0.000 
#    0.000    0.000    0.000    0.000    0.000    0.000 
#
# Total GULP energy -83656.753675 kJ/mol
# GULP energy per Si atom -5577.116912 kJ/mol
# Density = 2.578040 g / cm^3
# Si number density = 25.839211 Si / 1000 Ang^3
#
#
#
# Elastic Constant Matrix: (Units=GPa)
#
#
# Indices 1 2 3 4 5 6 
#
# 1 91.9257 -2.2605 22.3106 -15.4048 16.3470 -4.8424
# 2 -2.2605 75.6493 21.7782 -17.7263 -0.9314 3.6541
# 3 22.3106 21.7782 140.4535 -26.4199 35.1115 -0.4579
# 4 -15.4048 -17.7263 -26.4199 31.8170 -0.4683 12.9719
# 5 16.3470 -0.9314 35.1115 -0.4683 54.8193 -13.6770
# 6 -4.8424 3.6541 -0.4579 12.9719 -13.6770 19.2274
#
#
#
# Elastic Compliance Matrix: (Units=1/GPa)
#
#
# Indices 1 2 3 4 5 6 
#
# 1 0.014402 0.004777 0.003183 0.019357 -0.010513 -0.017743
# 2 0.004777 0.020354 0.004326 0.029477 -0.011184 -0.030404
# 3 0.003183 0.004326 0.017137 0.032701 -0.020643 -0.036359
# 4 0.019357 0.029477 0.032701 0.138693 -0.058798 -0.135343
# 5 -0.010513 -0.011184 -0.020643 -0.058798 0.052947 0.076317
# 6 -0.017743 -0.030404 -0.036359 -0.135343 0.076317 0.198050
#
#
# Mechanical properties :
#
#
# Convention : Reuss Voigt Hill
#
# Bulk Modulus (GPa) = 13.07770 43.52056 28.29913
# Shear Modulus (GPa) = 11.29950 38.91942 25.10946
#
# Velocity S-wave (km/s) = 2.09344 3.88521 3.12069
# Velocity P-wave (km/s) = 3.30386 6.08325 4.89497
#
# Compressibility (1/GPa) = 0.07646606
#
# Stress axis : x y z
#
# Youngs Moduli (GPa) = 69.43472 49.13013 58.35473
#
# Poissons Ratio (x) = -0.23471 -0.18574
# Poissons Ratio (y) = -0.33171 -0.25247
# Poissons Ratio (z) = -0.22101 -0.21256
#
# Static dielectric constant tensor:
#      x y z
#    x 2.065490 0.001600 0.082400 
#    y 0.001600 1.945390 -0.142130 
#    z 0.082400 -0.142130 1.960790 
# 
# From -- ./inp_files/215855.got.cif
#   From: 2010.05.17/outbox.cif.g08.bks.cpg/sg2_108_cif.got.tgz:215855.got - 2010.06.03 11:33:40.
