data_PCOD9014302
_publ_section_title
;
Structure prediction by ZEFSAII (Michael W. Deem and Ramdas Pophale) SiO2 
 PCOD9014302
Probable space group: P -1
;
_chemical_formula_sum "Si O2"
_cell_formula_units_Z 16
_cell_length_a 22.828993
_cell_length_b 29.121634
_cell_length_c 11.800497
_cell_angle_alpha 30.111154
_cell_angle_beta 150.419794
_cell_angle_gamma 170.419724
_cell_volume 641.827977
_symmetry_space_group_name_H-M "P -1"
_symmetry_group_IT_number 2
_symmetry_cell_setting 'triclinic'
loop_
_space_group_symop_operation_xyz
x,y,z
-x,-y,-z
loop_
_atom_site_type_symbol
_atom_site_label
_atom_site_fract_x
_atom_site_fract_y
_atom_site_fract_z
Si Si1 0.219124 0.774582 0.871698
Si Si2 0.505573 0.173784 0.408635
Si Si3 0.109363 0.840830 0.900223
Si Si4 0.684367 0.626429 0.163452
Si Si5 0.447557 0.641460 0.722248
Si Si6 0.454938 0.263944 0.568226
Si Si7 0.213367 0.547001 0.940590
Si Si8 0.284733 0.933314 0.246938
O O1 0.843066 0.503330 0.747533
O O2 0.430503 0.017601 0.661692
O O3 0.090598 0.677578 0.993242
O O4 0.508694 0.905780 0.057946
O O5 0.599530 0.304508 0.395393
O O6 0.762861 0.376616 0.299715
O O7 0.110227 0.922906 0.243193
O O8 0.129835 0.962737 0.703420
O O9 0.144159 0.820018 0.125311
O O10 0.803817 0.568764 0.892395
O O11 0.503452 0.404755 0.387478
O O12 0.500000 0.500000 0.000000
O O13 0.611092 0.672857 0.994726
O O14 0.631658 0.797701 0.580426
O O15 0.060088 0.325028 0.703905
O O16 0.522984 0.829271 0.923843
O O17 0.500000 0.000000 0.500000
#
# Coordination Sequence:
#
# PCOD9014302 Si02
#       8
#     2   2   2   2   2   2   2   2
#     4  11  24  41  66  98 138 180 223 280 336 407
#     4  11  23  42  69 100 136 178 227 278 343 401
#     4  12  24  42  63  97 138 179 222 279 338 403
#     4   9  20  41  71  95 127 178 228 281 337 400
#     4  11  22  42  70  97 134 178 229 279 338 404
#     4  10  21  41  67  93 129 177 227 275 343 393
#     4  12  25  42  66  98 142 171 230 277 335 404
#     4  12  26  41  67  99 136 182 223 277 338 402
#
# _framework density 24.928799000000001
#
# number of rings (size 3 to 8) (size 9 to 14) (size 15 to 20)
#    0.000    1.000    2.500    5.625    3.500    1.000 
#    0.000    0.625    8.250    7.500    0.000    0.000 
#    0.000    0.000    0.000    0.000    0.000    0.000 
#
# Total GULP energy -89226.424159 kJ/mol
# GULP energy per Si atom -5576.651510 kJ/mol
# Density = 2.487206 g / cm^3
# Si number density = 24.928799 Si / 1000 Ang^3
#
#
#
# Elastic Constant Matrix: (Units=GPa)
#
#
# Indices 1 2 3 4 5 6 
#
# 1 85.4170 11.7313 15.3796 -14.3579 -10.8156 -16.3894
# 2 11.7313 94.4288 40.0590 -29.8134 9.2449 -23.2251
# 3 15.3796 40.0590 90.5005 -24.7207 2.9016 3.7647
# 4 -14.3579 -29.8134 -24.7207 47.6780 -1.6345 5.7813
# 5 -10.8156 9.2449 2.9016 -1.6345 37.2577 -10.4718
# 6 -16.3894 -23.2251 3.7647 5.7813 -10.4718 40.4224
#
#
#
# Elastic Compliance Matrix: (Units=1/GPa)
#
#
# Indices 1 2 3 4 5 6 
#
# 1 0.015113 0.002027 -0.003135 0.003351 0.006765 0.008857
# 2 0.002027 0.018188 -0.006915 0.007076 -0.000012 0.010901
# 3 -0.003135 -0.006915 0.016143 0.003982 -0.002517 -0.007970
# 4 0.003351 0.007076 0.003982 0.028352 0.000465 0.001119
# 5 0.006765 -0.000012 -0.002517 0.000465 0.032183 0.011241
# 6 0.008857 0.010901 -0.007970 0.001119 0.011241 0.038087
#
#
# Mechanical properties :
#
#
# Convention : Reuss Voigt Hill
#
# Bulk Modulus (GPa) = 29.94394 44.96510 37.45452
# Shear Modulus (GPa) = 28.53111 38.61672 33.57391
#
# Velocity S-wave (km/s) = 3.38672 3.94011 3.67385
# Velocity P-wave (km/s) = 5.22791 6.22702 5.74921
#
# Compressibility (1/GPa) = 0.03339574
#
# Stress axis : x y z
#
# Youngs Moduli (GPa) = 66.16933 54.98088 61.94481
#
# Poissons Ratio (x) = -0.11143 0.19422
# Poissons Ratio (y) = -0.13410 0.42838
# Poissons Ratio (z) = 0.20747 0.38022
#
# Static dielectric constant tensor:
#      x y z
#    x 2.039900 0.035030 0.022970 
#    y 0.035030 2.035280 -0.012450 
#    z 0.022970 -0.012450 2.142040 
# 
# From -- ./inp_files/475783.got.cif
#   From: 2010.05.17/outbox.cif.g08.bks.cpg/sg2_238_cif.got.tgz:475783.got - 2010.06.03 11:33:40.
