data_PCOD9014870
_publ_section_title
;
Structure prediction by ZEFSAII (Michael W. Deem and Ramdas Pophale) SiO2 
 PCOD9014870
Probable space group: P -1
;
_chemical_formula_sum "Si O2"
_cell_formula_units_Z 12
_cell_length_a 9.130040
_cell_length_b 12.665322
_cell_length_c 9.480625
_cell_angle_alpha 87.672994
_cell_angle_beta 113.474125
_cell_angle_gamma 143.450853
_cell_volume 514.558013
_symmetry_space_group_name_H-M "P -1"
_symmetry_group_IT_number 2
_symmetry_cell_setting 'triclinic'
loop_
_space_group_symop_operation_xyz
x,y,z
-x,-y,-z
loop_
_atom_site_type_symbol
_atom_site_label
_atom_site_fract_x
_atom_site_fract_y
_atom_site_fract_z
Si Si1 0.295021 0.955743 0.020350
Si Si2 0.323760 0.467600 0.807605
Si Si3 0.149133 0.132003 0.190348
Si Si4 0.156182 0.484157 0.122679
Si Si5 0.109262 0.137099 0.657712
Si Si6 0.118396 0.582786 0.700536
O O1 0.544785 0.166364 0.191689
O O2 0.101868 0.925614 0.850138
O O3 0.037816 0.728977 0.994495
O O4 0.500000 0.000000 0.000000
O O5 0.556212 0.637990 0.763297
O O6 0.098178 0.257254 0.654280
O O7 0.175386 0.496564 0.790211
O O8 0.500000 0.500000 0.000000
O O9 0.128891 0.030019 0.300465
O O10 0.000000 0.000000 0.000000
O O11 0.516530 0.675351 0.207309
O O12 0.096771 0.470872 0.270528
O O13 0.000000 0.500000 0.000000
O O14 0.000000 0.000000 0.500000
O O15 0.000000 0.500000 0.500000
#
# Coordination Sequence:
#
# PCOD9014870 Si02
#       6
#     2   2   2   2   2   2
#     4  10  21  41  69  97 134 186 238 279 350 427
#     4  12  24  47  76 103 137 192 247 288 352 441
#     4  12  23  42  75  99 138 186 246 285 348 433
#     4  11  24  45  70  98 144 192 242 283 351 446
#     4  12  28  44  68 111 144 184 238 304 362 415
#     4  11  26  44  72 109 144 181 236 306 367 409
#
# _framework density 23.320983999999999
#
# number of rings (size 3 to 8) (size 9 to 14) (size 15 to 20)
#    0.000    0.667    5.000    3.000    2.333    4.667 
#    0.000    1.667    0.000    0.000    0.000    0.000 
#    0.000    0.000    0.000    0.000    0.000    0.000 
#
# Total GULP energy -66886.411364 kJ/mol
# GULP energy per Si atom -5573.867614 kJ/mol
# Density = 2.326790 g / cm^3
# Si number density = 23.320984 Si / 1000 Ang^3
#
#
#
# Elastic Constant Matrix: (Units=GPa)
#
#
# Indices 1 2 3 4 5 6 
#
# 1 108.1465 22.2357 4.9991 5.6072 -10.6367 -8.8197
# 2 22.2357 196.4841 57.0257 13.1391 -17.4233 -24.3791
# 3 4.9991 57.0257 87.7609 13.2625 -30.7343 -14.5818
# 4 5.6072 13.1391 13.2625 34.1859 0.6163 -17.2864
# 5 -10.6367 -17.4233 -30.7343 0.6163 39.4100 4.7052
# 6 -8.8197 -24.3791 -14.5818 -17.2864 4.7052 54.8966
#
#
#
# Elastic Compliance Matrix: (Units=1/GPa)
#
#
# Indices 1 2 3 4 5 6 
#
# 1 0.009879 -0.001116 0.001733 -0.001536 0.003456 0.000772
# 2 -0.001116 0.006578 -0.004284 0.000221 -0.000947 0.001755
# 3 0.001733 -0.004284 0.020158 -0.006484 0.014341 0.000459
# 4 -0.001536 0.000221 -0.006484 0.037383 -0.007214 0.010519
# 5 0.003456 -0.000947 0.014341 -0.007214 0.037368 -0.001531
# 6 0.000772 0.001755 0.000459 0.010519 -0.001531 0.022685
#
#
# Mechanical properties :
#
#
# Convention : Reuss Voigt Hill
#
# Bulk Modulus (GPa) = 34.15218 62.32361 48.23789
# Shear Modulus (GPa) = 33.08060 46.24055 39.66058
#
# Velocity S-wave (km/s) = 3.77037 4.45768 4.12835
# Velocity P-wave (km/s) = 5.79918 7.29910 6.59194
#
# Compressibility (1/GPa) = 0.02928071
#
# Stress axis : x y z
#
# Youngs Moduli (GPa) = 101.22910 152.01784 49.60734
#
# Poissons Ratio (x) = 0.16965 -0.08598
# Poissons Ratio (y) = 0.11297 0.21254
# Poissons Ratio (z) = -0.17545 0.65131
#
# Static dielectric constant tensor:
#      x y z
#    x 1.936310 0.068470 0.002400 
#    y 0.068470 1.694260 -0.044520 
#    z 0.002400 -0.044520 1.945860 
# 
# From -- ./inp_files/157055.got.cif
#   From: 2010.05.17/outbox.cif.g08.bks.cpg/sg2_79_cif.got.tgz:157055.got - 2010.06.03 11:33:40.
