data_PCOD9014791
_publ_section_title
;
Structure prediction by ZEFSAII (Michael W. Deem and Ramdas Pophale) SiO2 
 PCOD9014791
Probable space group: P -1
;
_chemical_formula_sum "Si O2"
_cell_formula_units_Z 16
_cell_length_a 16.523797
_cell_length_b 6.354989
_cell_length_c 13.260989
_cell_angle_alpha 106.585016
_cell_angle_beta 139.114990
_cell_angle_gamma 51.244192
_cell_volume 660.900025
_symmetry_space_group_name_H-M "P -1"
_symmetry_group_IT_number 2
_symmetry_cell_setting 'triclinic'
loop_
_space_group_symop_operation_xyz
x,y,z
-x,-y,-z
loop_
_atom_site_type_symbol
_atom_site_label
_atom_site_fract_x
_atom_site_fract_y
_atom_site_fract_z
Si Si1 0.647624 0.866520 0.700640
Si Si2 0.752986 0.736058 0.190810
Si Si3 0.892651 0.349412 0.450487
Si Si4 0.822317 0.289143 0.677682
Si Si5 0.425142 0.349594 0.689830
Si Si6 0.944053 0.681429 0.196274
Si Si7 0.907487 0.884342 0.859280
Si Si8 0.501211 0.357157 0.083762
O O1 0.763652 0.526774 0.741371
O O2 0.762453 0.945867 0.797597
O O3 0.500000 0.000000 0.500000
O O4 0.548748 0.013883 0.730501
O O5 0.889758 0.467123 0.354657
O O6 0.779572 0.809800 0.114995
O O7 0.673711 0.032157 0.216203
O O8 0.629311 0.681930 0.050131
O O9 0.701870 0.536544 0.323709
O O10 0.952551 0.418119 0.614150
O O11 0.000000 0.000000 0.500000
O O12 0.692968 0.461955 0.490104
O O13 0.998715 0.164204 0.785104
O O14 0.827140 0.049795 0.699967
O O15 0.528791 0.442495 0.826658
O O16 0.981133 0.447997 0.118407
O O17 0.000000 0.000000 0.000000
O O18 0.500000 0.500000 0.000000
#
# Coordination Sequence:
#
# PCOD9014791 Si02
#       8
#     2   2   2   2   2   2   2   2
#     4   9  21  44  64  98 131 169 229 279 337 412
#     4  11  25  42  64  98 136 176 226 275 344 410
#     4  11  23  42  69 101 137 179 226 286 336 415
#     4   9  22  44  67  93 132 168 227 282 333 414
#     4  10  21  41  69  91 127 180 218 269 343 398
#     4  10  24  40  68  97 129 177 224 277 344 406
#     4  11  25  44  66 103 133 175 227 287 353 415
#     4  11  24  44  61  96 138 174 224 283 331 411
#
# _framework density 24.209412
#
# number of rings (size 3 to 8) (size 9 to 14) (size 15 to 20)
#    0.000    1.750    1.250    1.875    7.000    4.000 
#    4.500    0.000    0.000    0.000    0.000    0.000 
#    0.000    0.000    0.000    0.000    0.000    0.000 
#
# Total GULP energy -89212.858095 kJ/mol
# GULP energy per Si atom -5575.803631 kJ/mol
# Density = 2.415431 g / cm^3
# Si number density = 24.209412 Si / 1000 Ang^3
#
#
#
# Elastic Constant Matrix: (Units=GPa)
#
#
# Indices 1 2 3 4 5 6 
#
# 1 88.7799 25.3333 16.9077 -14.0829 10.6142 -13.4905
# 2 25.3333 67.8961 24.2689 12.0043 -4.3377 -9.7191
# 3 16.9077 24.2689 80.0276 21.2044 -4.2804 4.5488
# 4 -14.0829 12.0043 21.2044 41.9620 8.2673 -11.5583
# 5 10.6142 -4.3377 -4.2804 8.2673 28.0941 2.6441
# 6 -13.4905 -9.7191 4.5488 -11.5583 2.6441 34.8062
#
#
#
# Elastic Compliance Matrix: (Units=1/GPa)
#
#
# Indices 1 2 3 4 5 6 
#
# 1 0.026908 -0.008981 -0.013034 0.028681 -0.023952 0.020969
# 2 -0.008981 0.020658 -0.000802 -0.011024 0.009895 -0.002020
# 3 -0.013034 -0.000802 0.023959 -0.024605 0.017376 -0.017898
# 4 0.028681 -0.011024 -0.024605 0.066842 -0.039387 0.036442
# 5 -0.023952 0.009895 0.017376 -0.039387 0.062918 -0.026651
# 6 0.020969 -0.002020 -0.017898 0.036442 -0.026651 0.052759
#
#
# Mechanical properties :
#
#
# Convention : Reuss Voigt Hill
#
# Bulk Modulus (GPa) = 38.62292 41.08041 39.85166
# Shear Modulus (GPa) = 16.21753 32.31871 24.26812
#
# Velocity S-wave (km/s) = 2.59102 3.65768 3.16954
# Velocity P-wave (km/s) = 4.99395 5.90286 5.46733
#
# Compressibility (1/GPa) = 0.02589136
#
# Stress axis : x y z
#
# Youngs Moduli (GPa) = 37.16332 48.40713 41.73816
#
# Poissons Ratio (x) = 0.43473 0.54402
# Poissons Ratio (y) = 0.33375 0.03349
# Poissons Ratio (z) = 0.48439 0.03884
#
# Static dielectric constant tensor:
#      x y z
#    x 2.112820 0.054680 0.158350 
#    y 0.054680 1.976490 0.014970 
#    z 0.158350 0.014970 2.075550 
# 
# From -- ./inp_files/536412.got.cif
#   From: 2010.05.17/outbox.cif.g08.bks.cpg/sg2_269_cif.got.tgz:536412.got - 2010.06.03 11:33:40.
