data_PCOD9014106
_publ_section_title
;
Structure prediction by ZEFSAII (Michael W. Deem and Ramdas Pophale) SiO2 
 PCOD9014106
Probable space group: P -1
;
_chemical_formula_sum "Si O2"
_cell_formula_units_Z 14
_cell_length_a 22.776990
_cell_length_b 4.910570
_cell_length_c 12.357986
_cell_angle_alpha 69.641146
_cell_angle_beta 155.268543
_cell_angle_gamma 111.783916
_cell_volume 536.768866
_symmetry_space_group_name_H-M "P -1"
_symmetry_group_IT_number 2
_symmetry_cell_setting 'triclinic'
loop_
_space_group_symop_operation_xyz
x,y,z
-x,-y,-z
loop_
_atom_site_type_symbol
_atom_site_label
_atom_site_fract_x
_atom_site_fract_y
_atom_site_fract_z
Si Si1 0.309351 0.465564 0.070636
Si Si2 0.771413 0.473021 0.700801
Si Si3 0.427984 0.099273 0.477157
Si Si4 0.843006 0.003451 0.276875
Si Si5 0.441923 0.272537 0.807984
Si Si6 0.275486 0.474936 0.704396
Si Si7 0.946018 0.282212 0.815731
O O1 0.266210 0.180112 0.963960
O O2 0.190215 0.668104 0.819595
O O3 0.321056 0.320787 0.228656
O O4 0.453133 0.703710 0.279911
O O5 0.677586 0.735394 0.483548
O O6 0.861941 0.421633 0.751731
O O7 0.658068 0.190974 0.575248
O O8 0.904100 0.535843 0.995388
O O9 0.500000 0.000000 0.500000
O O10 0.815142 0.822711 0.366326
O O11 0.000000 0.000000 0.500000
O O12 0.362833 0.425487 0.749360
O O13 0.593968 0.446025 0.004903
O O14 0.500000 0.000000 0.000000
O O15 0.170724 0.715557 0.474718
O O16 0.000000 0.000000 0.000000
#
# Coordination Sequence:
#
# PCOD9014106 Si02
#       7
#     2   2   2   2   2   2   2
#     4  11  26  48  70 106 144 187 243 290 359 423
#     4  10  23  41  66 100 137 175 237 287 350 425
#     4  11  24  44  75 103 141 185 239 301 357 420
#     4  12  27  47  70 106 146 190 236 292 358 432
#     4  10  21  41  66  97 134 178 229 289 351 412
#     4  10  24  40  66 100 135 178 235 283 351 425
#     4  10  22  43  65  98 138 183 228 287 356 420
#
# _framework density 26.081989
#
# number of rings (size 3 to 8) (size 9 to 14) (size 15 to 20)
#    0.000    1.429    1.429    2.143    4.000    3.429 
#    0.000    0.000    0.000    0.000    0.000    0.000 
#    0.000    0.000    0.000    0.000    0.000    0.000 
#
# Total GULP energy -78177.811218 kJ/mol
# GULP energy per Si atom -5584.129373 kJ/mol
# Density = 2.602262 g / cm^3
# Si number density = 26.081989 Si / 1000 Ang^3
#
#
#
# Elastic Constant Matrix: (Units=GPa)
#
#
# Indices 1 2 3 4 5 6 
#
# 1 64.5786 10.7505 37.0544 17.4146 7.2273 -4.3614
# 2 10.7505 112.2018 54.7254 -10.7773 8.7850 7.8578
# 3 37.0544 54.7254 208.8289 -19.1242 12.3321 15.9696
# 4 17.4146 -10.7773 -19.1242 61.3892 -8.1687 6.1807
# 5 7.2273 8.7850 12.3321 -8.1687 25.8464 9.4182
# 6 -4.3614 7.8578 15.9696 6.1807 9.4182 39.5790
#
#
#
# Elastic Compliance Matrix: (Units=1/GPa)
#
#
# Indices 1 2 3 4 5 6 
#
# 1 0.022964 -0.000598 -0.004928 -0.010408 -0.010335 0.008722
# 2 -0.000598 0.010418 -0.002351 0.001166 -0.001517 -0.001007
# 3 -0.004928 -0.002351 0.006817 0.003679 0.001453 -0.003747
# 4 -0.010408 0.001166 0.003679 0.023030 0.011377 -0.009167
# 5 -0.010335 -0.001517 0.001453 0.011377 0.050547 -0.015229
# 6 0.008722 -0.001007 -0.003747 -0.009167 -0.015229 0.032994
#
#
# Mechanical properties :
#
#
# Convention : Reuss Voigt Hill
#
# Bulk Modulus (GPa) = 40.90733 65.63000 53.26866
# Shear Modulus (GPa) = 29.29606 44.23487 36.76547
#
# Velocity S-wave (km/s) = 3.35510 4.12271 3.75855
# Velocity P-wave (km/s) = 5.54320 6.91953 6.26925
#
# Compressibility (1/GPa) = 0.02444550
#
# Stress axis : x y z
#
# Youngs Moduli (GPa) = 43.54556 95.99213 146.69855
#
# Poissons Ratio (x) = 0.05742 0.72291
# Poissons Ratio (y) = 0.02605 0.34482
# Poissons Ratio (z) = 0.21459 0.22563
#
# Static dielectric constant tensor:
#      x y z
#    x 2.057770 -0.021880 -0.030970 
#    y -0.021880 2.100970 0.038850 
#    z -0.030970 0.038850 2.088100 
# 
# From -- ./inp_files/70515.got.cif
#   From: 2010.05.17/outbox.cif.g08.bks.cpg/sg2_36_cif.got.tgz:70515.got - 2010.06.03 11:33:40.
