data_PCOD9014500
_publ_section_title
;
Structure prediction by ZEFSAII (Michael W. Deem and Ramdas Pophale) SiO2 
 PCOD9014500
Probable space group: P -1
;
_chemical_formula_sum "Si O2"
_cell_formula_units_Z 14
_cell_length_a 9.795611
_cell_length_b 6.703207
_cell_length_c 13.790999
_cell_angle_alpha 81.923800
_cell_angle_beta 135.300850
_cell_angle_gamma 77.129662
_cell_volume 558.882375
_symmetry_space_group_name_H-M "P -1"
_symmetry_group_IT_number 2
_symmetry_cell_setting 'triclinic'
loop_
_space_group_symop_operation_xyz
x,y,z
-x,-y,-z
loop_
_atom_site_type_symbol
_atom_site_label
_atom_site_fract_x
_atom_site_fract_y
_atom_site_fract_z
Si Si1 0.721440 0.916282 0.802289
Si Si2 0.285856 0.700064 0.331420
Si Si3 0.577552 0.230222 0.237617
Si Si4 0.001846 0.497837 0.261278
Si Si5 0.267243 0.015803 0.859325
Si Si6 0.799310 0.315732 0.018364
Si Si7 0.703255 0.011959 0.507711
O O1 0.606439 0.860659 0.837264
O O2 0.978365 0.757598 0.926319
O O3 0.689386 0.171461 0.758461
O O4 0.559848 0.905702 0.635963
O O5 0.500000 0.500000 0.500000
O O6 0.127448 0.588546 0.245329
O O7 0.792432 0.093283 0.070740
O O8 0.706835 0.138213 0.210537
O O9 0.731188 0.123315 0.415249
O O10 0.431438 0.500022 0.152693
O O11 0.168699 0.260532 0.410083
O O12 0.888103 0.717544 0.256677
O O13 0.832437 0.446258 0.119281
O O14 0.500000 0.000000 0.000000
O O15 0.221016 0.890537 0.370632
#
# Coordination Sequence:
#
# PCOD9014500 Si02
#       7
#     2   2   2   2   2   2   2
#     4  10  21  41  68 102 136 171 221 278 341 393
#     4  12  20  40  70 105 136 182 219 272 347 411
#     4  10  25  44  67 103 141 175 224 289 339 385
#     4  12  23  41  76  94 135 187 231 267 332 418
#     4  12  26  47  70  97 134 187 234 269 340 416
#     4  12  23  47  72  96 134 184 224 282 346 400
#     4  10  23  43  66 102 147 170 220 286 341 392
#
# _framework density 25.049994999999999
#
# number of rings (size 3 to 8) (size 9 to 14) (size 15 to 20)
#    0.857    0.000    5.714    2.143    0.000    0.571 
#    5.143    4.286    0.000    0.000    0.000    0.000 
#    0.000    0.000    0.000    0.000    0.000    0.000 
#
# Total GULP energy -78259.290525 kJ/mol
# GULP energy per Si atom -5589.949323 kJ/mol
# Density = 2.499298 g / cm^3
# Si number density = 25.049995 Si / 1000 Ang^3
#
#
#
# Elastic Constant Matrix: (Units=GPa)
#
#
# Indices 1 2 3 4 5 6 
#
# 1 67.0253 18.0067 21.3802 -12.4585 -5.0643 2.9415
# 2 18.0067 119.3517 50.9681 -28.5510 4.5874 -0.3261
# 3 21.3802 50.9681 101.6593 -42.5403 -4.9212 -2.0069
# 4 -12.4585 -28.5510 -42.5403 56.7800 1.2487 11.7681
# 5 -5.0643 4.5874 -4.9212 1.2487 29.3449 -3.4376
# 6 2.9415 -0.3261 -2.0069 11.7681 -3.4376 39.0515
#
#
#
# Elastic Compliance Matrix: (Units=1/GPa)
#
#
# Indices 1 2 3 4 5 6 
#
# 1 0.016493 -0.001318 -0.001985 0.001761 0.002449 -0.001670
# 2 -0.001318 0.011158 -0.004577 0.002154 -0.002942 -0.000951
# 3 -0.001985 -0.004577 0.016942 0.010293 0.002554 -0.001895
# 4 0.001761 0.002154 0.010293 0.028507 -0.000483 -0.008219
# 5 0.002449 -0.002942 0.002554 -0.000483 0.035786 0.003218
# 6 -0.001670 -0.000951 -0.001895 -0.008219 0.003218 0.028388
#
#
# Mechanical properties :
#
#
# Convention : Reuss Voigt Hill
#
# Bulk Modulus (GPa) = 34.68248 52.08292 43.38270
# Shear Modulus (GPa) = 30.74195 38.21404 34.47800
#
# Velocity S-wave (km/s) = 3.50698 3.91002 3.71397
# Velocity P-wave (km/s) = 5.50217 6.42036 5.97892
#
# Compressibility (1/GPa) = 0.02883300
#
# Stress axis : x y z
#
# Youngs Moduli (GPa) = 60.63258 89.62467 59.02373
#
# Poissons Ratio (x) = 0.11811 0.11719
# Poissons Ratio (y) = 0.07990 0.27013
# Poissons Ratio (z) = 0.12038 0.41018
#
# Static dielectric constant tensor:
#      x y z
#    x 2.082150 -0.033080 -0.007020 
#    y -0.033080 1.977340 -0.011580 
#    z -0.007020 -0.011580 1.987970 
# 
# From -- ./inp_files/494519.got.cif
#   From: 2010.05.17/outbox.cif.g08.bks.cpg/sg2_248_cif.got.tgz:494519.got - 2010.06.03 11:33:40.
