data_PCOD9014160
_publ_section_title
;
Structure prediction by ZEFSAII (Michael W. Deem and Ramdas Pophale) SiO2 
 PCOD9014160
Probable space group: P -1
;
_chemical_formula_sum "Si O2"
_cell_formula_units_Z 15
_cell_length_a 8.922991
_cell_length_b 13.782251
_cell_length_c 9.086372
_cell_angle_alpha 44.805543
_cell_angle_beta 132.179624
_cell_angle_gamma 124.933961
_cell_volume 573.546934
_symmetry_space_group_name_H-M "P -1"
_symmetry_group_IT_number 2
_symmetry_cell_setting 'triclinic'
loop_
_space_group_symop_operation_xyz
x,y,z
-x,-y,-z
loop_
_atom_site_type_symbol
_atom_site_label
_atom_site_fract_x
_atom_site_fract_y
_atom_site_fract_z
Si Si1 0.500000 0.000000 0.500000
Si Si2 0.754585 0.125303 0.280036
Si Si3 0.372636 0.326844 0.236667
Si Si4 0.038401 0.708437 0.176955
Si Si5 0.636702 0.359633 0.113087
Si Si6 0.778548 0.780398 0.455866
Si Si7 0.098575 0.412938 0.481713
Si Si8 0.353748 0.994668 0.076934
O O1 0.713694 0.047706 0.492899
O O2 0.372905 0.010479 0.249762
O O3 0.662530 0.268449 0.086433
O O4 0.997342 0.163712 0.383258
O O5 0.603020 0.033070 0.164514
O O6 0.502837 0.271522 0.250609
O O7 0.375129 0.253241 0.472599
O O8 0.140653 0.303313 0.049070
O O9 0.442019 0.495450 0.118434
O O10 0.917007 0.683408 0.279714
O O11 0.204188 0.847087 0.116755
O O12 0.153131 0.575274 0.384934
O O13 0.863069 0.394846 0.291240
O O14 0.783509 0.637341 0.523084
O O15 0.741801 0.885556 0.192365
#
# Coordination Sequence:
#
# PCOD9014160 Si02
#       8
#     1   2   2   2   2   2   2   2
#     4   8  20  40  64 100 128 182 222 280 324 408
#     4   9  21  39  67 100 132 180 230 278 333 409
#     4  10  23  40  68  98 135 182 224 289 343 415
#     4  10  21  41  66  99 135 183 227 277 344 411
#     4   9  19  42  65  92 135 176 234 274 345 411
#     4  11  23  43  70 104 137 176 233 287 346 399
#     4   9  21  40  69 101 132 176 235 286 335 404
#     4  10  22  41  68 101 140 181 227 282 342 410
#
# _framework density 26.153047999999998
#
# number of rings (size 3 to 8) (size 9 to 14) (size 15 to 20)
#    0.800    1.600    0.000    1.600    1.867    8.533 
#    2.400    1.333    0.000    0.800    0.000    0.000 
#    0.000    0.000    0.000    0.000    0.000    0.000 
#
# Total GULP energy -83739.425389 kJ/mol
# GULP energy per Si atom -5582.628359 kJ/mol
# Density = 2.609352 g / cm^3
# Si number density = 26.153048 Si / 1000 Ang^3
#
#
#
# Elastic Constant Matrix: (Units=GPa)
#
#
# Indices 1 2 3 4 5 6 
#
# 1 85.0775 25.2302 34.3243 -0.9599 -10.8740 9.0695
# 2 25.2302 110.7532 36.5460 0.6190 -7.3831 8.2481
# 3 34.3243 36.5460 110.1792 -4.1072 -4.1888 0.6451
# 4 -0.9599 0.6190 -4.1072 23.8589 8.2305 -1.3551
# 5 -10.8740 -7.3831 -4.1888 8.2305 27.1690 -0.5768
# 6 9.0695 8.2481 0.6451 -1.3551 -0.5768 35.8043
#
#
#
# Elastic Compliance Matrix: (Units=1/GPa)
#
#
# Indices 1 2 3 4 5 6 
#
# 1 0.014827 -0.001431 -0.003995 -0.002144 0.005508 -0.003347
# 2 -0.001431 0.010688 -0.003064 -0.001794 0.002359 -0.002074
# 3 -0.003995 -0.003064 0.011366 0.002443 -0.001386 0.001583
# 4 -0.002144 -0.001794 0.002443 0.047740 -0.015379 0.002471
# 5 0.005508 0.002359 -0.001386 -0.015379 0.044059 -0.001786
# 6 -0.003347 -0.002074 0.001583 0.002471 -0.001786 0.029291
#
#
# Mechanical properties :
#
#
# Convention : Reuss Voigt Hill
#
# Bulk Modulus (GPa) = 50.25169 55.35676 52.80422
# Shear Modulus (GPa) = 27.53519 31.36041 29.44780
#
# Velocity S-wave (km/s) = 3.24828 3.46658 3.35920
# Velocity P-wave (km/s) = 5.77275 6.10207 5.93969
#
# Compressibility (1/GPa) = 0.01989983
#
# Stress axis : x y z
#
# Youngs Moduli (GPa) = 67.44569 93.56295 87.97880
#
# Poissons Ratio (x) = 0.13388 0.35150
# Poissons Ratio (y) = 0.09651 0.26961
# Poissons Ratio (z) = 0.26947 0.28672
#
# Static dielectric constant tensor:
#      x y z
#    x 2.596530 -0.748580 0.436270 
#    y -0.748580 2.971200 -0.538830 
#    z 0.436270 -0.538830 2.284900 
# 
# From -- ./inp_files/193185.got.cif
#   From: 2010.05.17/outbox.cif.g08.bks.cpg/sg2_97_cif.got.tgz:193185.got - 2010.06.03 11:33:40.
