data_PCOD9014268
_publ_section_title
;
Structure prediction by ZEFSAII (Michael W. Deem and Ramdas Pophale) SiO2 
 PCOD9014268
Probable space group: P -1
;
_chemical_formula_sum "Si O2"
_cell_formula_units_Z 16
_cell_length_a 8.732533
_cell_length_b 13.996291
_cell_length_c 9.063012
_cell_angle_alpha 78.467687
_cell_angle_beta 88.095292
_cell_angle_gamma 137.850495
_cell_volume 700.056158
_symmetry_space_group_name_H-M "P -1"
_symmetry_group_IT_number 2
_symmetry_cell_setting 'triclinic'
loop_
_space_group_symop_operation_xyz
x,y,z
-x,-y,-z
loop_
_atom_site_type_symbol
_atom_site_label
_atom_site_fract_x
_atom_site_fract_y
_atom_site_fract_z
Si Si1 0.955780 0.820311 0.593788
Si Si2 0.999207 0.628694 0.066594
Si Si3 0.460042 0.825418 0.182579
Si Si4 0.711166 0.305362 0.235167
Si Si5 0.258451 0.322638 0.041602
Si Si6 0.310326 0.848125 0.460596
Si Si7 0.770281 0.867665 0.368736
Si Si8 0.259515 0.093915 0.115655
O O1 0.859772 0.734343 0.775995
O O2 0.755175 0.778202 0.520154
O O3 0.072212 0.794665 0.497526
O O4 0.149083 0.995552 0.586830
O O5 0.783266 0.452734 0.169113
O O6 0.216097 0.700202 0.140603
O O7 0.910161 0.696119 0.054304
O O8 0.099067 0.656588 0.889794
O O9 0.413167 0.887438 0.282021
O O10 0.547556 0.780548 0.299467
O O11 0.665944 0.932859 0.020545
O O12 0.724212 0.268623 0.410026
O O13 0.452098 0.165692 0.214596
O O14 0.288353 0.223030 0.032784
O O15 0.500000 0.500000 0.000000
O O16 0.500000 0.000000 0.500000
O O17 0.997993 0.954335 0.231817
#
# Coordination Sequence:
#
# PCOD9014268 Si02
#       8
#     2   2   2   2   2   2   2   2
#     4  10  22  39  65  95 120 172 224 268 314 385
#     4  10  22  42  64  98 127 174 215 270 324 385
#     4  11  25  39  65  98 139 171 210 272 335 384
#     4  10  21  41  67  91 133 170 223 260 324 393
#     4  11  21  40  70  96 125 167 230 266 314 393
#     4  12  23  41  65  96 132 177 220 266 322 396
#     4  10  21  42  63  94 133 167 218 267 333 382
#     4  10  22  40  66  98 128 177 210 274 325 384
#
# _framework density 22.855309999999999
#
# number of rings (size 3 to 8) (size 9 to 14) (size 15 to 20)
#    0.000    1.500    3.750    1.125    3.500    1.500 
#    0.000   13.125    0.000    3.000    0.000    0.000 
#    0.000    0.000    0.000    0.000    0.000    0.000 
#
# Total GULP energy -89446.622984 kJ/mol
# GULP energy per Si atom -5590.413937 kJ/mol
# Density = 2.280329 g / cm^3
# Si number density = 22.855310 Si / 1000 Ang^3
#
#
#
# Elastic Constant Matrix: (Units=GPa)
#
#
# Indices 1 2 3 4 5 6 
#
# 1 118.7368 16.5623 56.6356 2.9543 11.5901 1.5850
# 2 16.5623 34.9384 32.1604 -1.7360 0.3738 2.1434
# 3 56.6356 32.1604 103.5127 12.7606 -7.7285 -10.1470
# 4 2.9543 -1.7360 12.7606 30.9017 -6.0165 2.1196
# 5 11.5901 0.3738 -7.7285 -6.0165 58.4970 16.2923
# 6 1.5850 2.1434 -10.1470 2.1196 16.2923 28.4676
#
#
#
# Elastic Compliance Matrix: (Units=1/GPa)
#
#
# Indices 1 2 3 4 5 6 
#
# 1 0.012155 0.001675 -0.007805 0.001789 -0.002654 -0.002199
# 2 0.001675 0.044742 -0.017090 0.010418 0.001276 -0.011059
# 3 -0.007805 -0.017090 0.021421 -0.009556 0.000831 0.009592
# 4 0.001789 0.010418 -0.009556 0.038396 0.005064 -0.010047
# 5 -0.002654 0.001276 0.000831 0.005064 0.021712 -0.012455
# 6 -0.002199 -0.011059 0.009592 -0.010047 -0.012455 0.047378
#
#
# Mechanical properties :
#
#
# Convention : Reuss Voigt Hill
#
# Bulk Modulus (GPa) = 31.37077 51.98938 41.68007
# Shear Modulus (GPa) = 20.58707 33.69524 27.14116
#
# Velocity S-wave (km/s) = 3.00452 3.84381 3.44978
# Velocity P-wave (km/s) = 5.07856 6.51892 5.84329
#
# Compressibility (1/GPa) = 0.03187681
#
# Stress axis : x y z
#
# Youngs Moduli (GPa) = 82.26932 22.35056 46.68259
#
# Poissons Ratio (x) = -0.03743 0.36437
# Poissons Ratio (y) = -0.13778 0.79781
# Poissons Ratio (z) = 0.64213 0.38197
#
# Static dielectric constant tensor:
#      x y z
#    x 1.918360 -0.009820 0.004350 
#    y -0.009820 1.851250 0.012010 
#    z 0.004350 0.012010 1.868150 
# 
# From -- ./inp_files/200868.got.cif
#   From: 2010.05.17/outbox.cif.g08.bks.cpg/sg2_101_cif.got.tgz:200868.got - 2010.06.03 11:33:40.
