data_PCOD9014076
_publ_section_title
;
Structure prediction by ZEFSAII (Michael W. Deem and Ramdas Pophale) SiO2 
 PCOD9014076
Probable space group: P -1
;
_chemical_formula_sum "Si O2"
_cell_formula_units_Z 16
_cell_length_a 14.876062
_cell_length_b 23.117353
_cell_length_c 17.725098
_cell_angle_alpha 21.133507
_cell_angle_beta 151.614997
_cell_angle_gamma 160.567311
_cell_volume 731.176745
_symmetry_space_group_name_H-M "P -1"
_symmetry_group_IT_number 2
_symmetry_cell_setting 'triclinic'
loop_
_space_group_symop_operation_xyz
x,y,z
-x,-y,-z
loop_
_atom_site_type_symbol
_atom_site_label
_atom_site_fract_x
_atom_site_fract_y
_atom_site_fract_z
Si Si1 0.205180 0.908421 0.570147
Si Si2 0.504068 0.788399 0.009522
Si Si3 0.719223 0.439593 0.715000
Si Si4 0.994865 0.316739 0.982472
Si Si5 0.765714 0.849501 0.388510
Si Si6 0.096893 0.159282 0.951212
Si Si7 0.568970 0.564037 0.725289
Si Si8 0.488730 0.670077 0.821508
O O1 0.336328 0.831428 0.796656
O O2 0.975003 0.710409 0.583109
O O3 0.038139 0.913498 0.500304
O O4 0.421422 0.147150 0.396087
O O5 0.384361 0.679499 0.135277
O O6 0.469094 0.608118 0.151504
O O7 0.820324 0.028442 0.949750
O O8 0.474077 0.366564 0.576558
O O9 0.824289 0.349839 0.855749
O O10 0.199773 0.355932 0.145050
O O11 0.187916 0.507167 0.829646
O O12 0.813642 0.056873 0.140660
O O13 0.663837 0.771936 0.493138
O O14 0.290851 0.413986 0.749061
O O15 0.299204 0.194184 0.116897
O O16 0.000000 0.000000 0.000000
O O17 0.500000 0.500000 0.000000
#
# Coordination Sequence:
#
# PCOD9014076 Si02
#       8
#     2   2   2   2   2   2   2   2
#     4  12  24  41  70  95 128 180 220 265 335 393
#     4  11  22  42  65  98 134 166 219 279 319 387
#     4  12  25  41  67 101 131 167 224 279 319 390
#     4  11  24  45  64  96 136 171 214 273 333 387
#     4  12  24  40  69  96 131 177 217 265 336 392
#     4   9  22  41  67  96 134 174 218 274 326 385
#     4  10  21  41  66  96 132 170 218 267 324 395
#     4  11  24  45  70  95 138 174 218 274 335 401
#
# _framework density 21.882534
#
# number of rings (size 3 to 8) (size 9 to 14) (size 15 to 20)
#    0.000    1.000    3.750    3.000    3.500    1.500 
#    0.000    0.625    0.000    0.000    0.000    0.000 
#    0.000    0.000    0.000    0.000    0.000    0.000 
#
# Total GULP energy -89473.955826 kJ/mol
# GULP energy per Si atom -5592.122239 kJ/mol
# Density = 2.183273 g / cm^3
# Si number density = 21.882534 Si / 1000 Ang^3
#
#
#
# Elastic Constant Matrix: (Units=GPa)
#
#
# Indices 1 2 3 4 5 6 
#
# 1 70.4895 23.7372 26.7062 -15.8600 -6.7334 19.5946
# 2 23.7372 76.5172 31.6361 -15.0121 -10.4852 17.7092
# 3 26.7062 31.6361 94.4563 -20.1989 -17.7180 12.7901
# 4 -15.8600 -15.0121 -20.1989 22.4362 7.9041 -13.3038
# 5 -6.7334 -10.4852 -17.7180 7.9041 41.8182 -1.8250
# 6 19.5946 17.7092 12.7901 -13.3038 -1.8250 37.1456
#
#
#
# Elastic Compliance Matrix: (Units=1/GPa)
#
#
# Indices 1 2 3 4 5 6 
#
# 1 0.018896 -0.002284 -0.002473 0.006146 0.000006 -0.005825
# 2 -0.002284 0.017142 -0.003430 0.003576 0.001608 -0.004427
# 3 -0.002473 -0.003430 0.014790 0.008755 0.003404 0.001150
# 4 0.006146 0.003576 0.008755 0.072140 -0.007275 0.017519
# 5 0.000006 0.001608 0.003404 -0.007275 0.026994 -0.003221
# 6 -0.005825 -0.004427 0.001150 0.017519 -0.003221 0.037825
#
#
# Mechanical properties :
#
#
# Convention : Reuss Voigt Hill
#
# Bulk Modulus (GPa) = 29.02539 45.06912 37.04725
# Shear Modulus (GPa) = 23.18622 30.90556 27.04589
#
# Velocity S-wave (km/s) = 3.25864 3.76219 3.51943
# Velocity P-wave (km/s) = 5.23940 6.28591 5.78637
#
# Compressibility (1/GPa) = 0.03445259
#
# Stress axis : x y z
#
# Youngs Moduli (GPa) = 52.92264 58.33590 67.61450
#
# Poissons Ratio (x) = 0.13326 0.16722
# Poissons Ratio (y) = 0.12090 0.23190
# Poissons Ratio (z) = 0.13089 0.20008
#
# Static dielectric constant tensor:
#      x y z
#    x 1.807090 -0.019700 0.009470 
#    y -0.019700 1.819440 -0.052130 
#    z 0.009470 -0.052130 1.780070 
# 
# From -- ./inp_files/184944.got.cif
#   From: 2010.05.17/outbox.cif.g08.bks.cpg/sg2_93_cif.got.tgz:184944.got - 2010.06.03 11:33:40.
