data_PCOD9014718
_publ_section_title
;
Structure prediction by ZEFSAII (Michael W. Deem and Ramdas Pophale) SiO2 
 PCOD9014718
Probable space group: P -1
;
_chemical_formula_sum "Si O2"
_cell_formula_units_Z 15
_cell_length_a 13.835135
_cell_length_b 11.828770
_cell_length_c 9.164715
_cell_angle_alpha 143.773411
_cell_angle_beta 66.876421
_cell_angle_gamma 129.766235
_cell_volume 655.745330
_symmetry_space_group_name_H-M "P -1"
_symmetry_group_IT_number 2
_symmetry_cell_setting 'triclinic'
loop_
_space_group_symop_operation_xyz
x,y,z
-x,-y,-z
loop_
_atom_site_type_symbol
_atom_site_label
_atom_site_fract_x
_atom_site_fract_y
_atom_site_fract_z
Si Si1 0.645389 0.414005 0.338527
Si Si2 0.720555 0.444308 0.996386
Si Si3 0.500000 0.000000 0.500000
Si Si4 0.644956 0.855634 0.826677
Si Si5 0.078830 0.015324 0.659110
Si Si6 0.908693 0.373395 0.652088
Si Si7 0.270727 0.743723 0.607879
Si Si8 0.896195 0.136730 0.825206
O O1 0.715626 0.472276 0.201475
O O2 0.633863 0.619737 0.610605
O O3 0.493751 0.198879 0.176811
O O4 0.713971 0.371722 0.380981
O O5 0.798489 0.708104 0.152297
O O6 0.802138 0.341635 0.798322
O O7 0.576470 0.244494 0.813748
O O8 0.390616 0.841412 0.527805
O O9 0.741569 0.983870 0.765985
O O10 0.715351 0.028947 0.100699
O O11 0.956038 0.022843 0.763419
O O12 0.096366 0.860593 0.598881
O O13 0.058574 0.872306 0.372315
O O14 0.860999 0.414797 0.572165
O O15 0.041042 0.605519 0.877001
#
# Coordination Sequence:
#
# PCOD9014718 Si02
#       8
#     2   2   1   2   2   2   2   2
#     4  11  24  43  68 103 137 172 228 277 337 417
#     4  10  21  41  69 100 135 173 224 284 337 401
#     4  10  22  42  62  98 136 172 216 274 338 402
#     4  11  24  41  68 100 132 181 224 275 341 397
#     4  10  21  42  68  99 135 177 232 280 330 400
#     4  10  24  42  69 101 136 181 225 280 344 394
#     4  11  25  43  65  98 139 178 220 277 345 402
#     4  10  22  40  68 102 131 178 235 280 329 394
#
# _framework density 22.874732999999999
#
# number of rings (size 3 to 8) (size 9 to 14) (size 15 to 20)
#    0.000    1.600    2.667    0.800    1.867    5.867 
#    0.000    4.667    0.000    0.000    0.000    0.000 
#    0.000    0.000    0.000    0.000    0.000    0.000 
#
# Total GULP energy -83551.450945 kJ/mol
# GULP energy per Si atom -5570.096730 kJ/mol
# Density = 2.282267 g / cm^3
# Si number density = 22.874733 Si / 1000 Ang^3
#
#
#
# Elastic Constant Matrix: (Units=GPa)
#
#
# Indices 1 2 3 4 5 6 
#
# 1 65.2606 26.6920 19.0429 12.1718 -5.6065 -12.3901
# 2 26.6920 57.3644 12.9774 4.4969 -1.0023 1.3777
# 3 19.0429 12.9774 97.0373 9.5896 0.4492 -25.7864
# 4 12.1718 4.4969 9.5896 44.9884 5.8790 1.2759
# 5 -5.6065 -1.0023 0.4492 5.8790 36.2308 0.0970
# 6 -12.3901 1.3777 -25.7864 1.2759 0.0970 29.7950
#
#
#
# Elastic Compliance Matrix: (Units=1/GPa)
#
#
# Indices 1 2 3 4 5 6 
#
# 1 0.023032 -0.010478 0.000264 -0.006092 0.004231 0.010538
# 2 -0.010478 0.023142 -0.003450 0.001652 -0.001184 -0.008480
# 3 0.000264 -0.003450 0.014466 -0.003210 0.000252 0.012925
# 4 -0.006092 0.001652 -0.003210 0.025223 -0.004933 -0.006452
# 5 0.004231 -0.001184 0.000252 -0.004933 0.029014 0.002149
# 6 0.010538 -0.008480 0.012925 -0.006452 0.002149 0.049793
#
#
# Mechanical properties :
#
#
# Convention : Reuss Voigt Hill
#
# Bulk Modulus (GPa) = 30.01936 37.45411 33.73674
# Shear Modulus (GPa) = 24.61819 32.93284 28.77552
#
# Velocity S-wave (km/s) = 3.28413 3.79846 3.55062
# Velocity P-wave (km/s) = 5.24715 5.97050 5.62047
#
# Compressibility (1/GPa) = 0.03331183
#
# Stress axis : x y z
#
# Youngs Moduli (GPa) = 43.41725 43.21154 69.12942
#
# Poissons Ratio (x) = 0.45279 -0.01827
# Poissons Ratio (y) = 0.45494 0.23849
# Poissons Ratio (z) = -0.01147 0.14907
#
# Static dielectric constant tensor:
#      x y z
#    x 1.903850 0.009620 0.004600 
#    y 0.009620 1.911770 0.024100 
#    z 0.004600 0.024100 1.850920 
# 
# From -- ./inp_files/308755.got.cif
#   From: 2010.05.17/outbox.cif.g08.bks.cpg/sg2_155_cif.got.tgz:308755.got - 2010.06.03 11:33:40.
