data_PCOD9014195
_publ_section_title
;
Structure prediction by ZEFSAII (Michael W. Deem and Ramdas Pophale) SiO2 
 PCOD9014195
Probable space group: P -1
;
_chemical_formula_sum "Si O2"
_cell_formula_units_Z 14
_cell_length_a 6.969752
_cell_length_b 9.663108
_cell_length_c 11.267348
_cell_angle_alpha 56.889975
_cell_angle_beta 94.111444
_cell_angle_gamma 76.742326
_cell_volume 600.363168
_symmetry_space_group_name_H-M "P -1"
_symmetry_group_IT_number 2
_symmetry_cell_setting 'triclinic'
loop_
_space_group_symop_operation_xyz
x,y,z
-x,-y,-z
loop_
_atom_site_type_symbol
_atom_site_label
_atom_site_fract_x
_atom_site_fract_y
_atom_site_fract_z
Si Si1 0.609256 0.197571 0.959676
Si Si2 0.211287 0.244155 0.060963
Si Si3 0.440714 0.240571 0.434997
Si Si4 0.799648 0.488344 0.855450
Si Si5 0.387645 0.695247 0.353871
Si Si6 0.024294 0.034219 0.801261
Si Si7 0.788884 0.025576 0.415925
O O1 0.684168 0.351158 0.948350
O O2 0.546117 0.258739 0.793900
O O3 0.422363 0.176177 0.033540
O O4 0.812421 0.028333 0.055683
O O5 0.234077 0.353950 0.126724
O O6 0.111409 0.094757 0.153277
O O7 0.037931 0.385074 0.910699
O O8 0.291215 0.432164 0.311520
O O9 0.542146 0.201934 0.585744
O O10 0.622468 0.204772 0.364552
O O11 0.305616 0.116343 0.471871
O O12 0.500000 0.500000 0.500000
O O13 0.141181 0.773719 0.298584
O O14 0.166327 0.001136 0.707538
O O15 0.000000 0.000000 0.500000
#
# Coordination Sequence:
#
# PCOD9014195 Si02
#       7
#     2   2   2   2   2   2   2
#     4  11  24  45  69  95 140 186 223 279 335 408
#     4  10  23  42  70 102 133 174 233 280 342 401
#     4  11  24  42  71 102 139 174 228 280 351 399
#     4  10  21  41  67 102 136 172 225 286 340 401
#     4  12  26  48  66  99 142 184 229 278 340 412
#     4  11  25  45  72  99 134 182 231 284 337 400
#     4  11  23  43  72 104 133 175 225 292 343 400
#
# _framework density 23.319219
#
# number of rings (size 3 to 8) (size 9 to 14) (size 15 to 20)
#    0.000    1.143    2.857    2.571    4.000    5.143 
#    5.143    1.429    0.000    0.000    0.000    0.000 
#    0.000    0.000    0.000    0.000    0.000    0.000 
#
# Total GULP energy -78280.839723 kJ/mol
# GULP energy per Si atom -5591.488552 kJ/mol
# Density = 2.326614 g / cm^3
# Si number density = 23.319219 Si / 1000 Ang^3
#
#
#
# Elastic Constant Matrix: (Units=GPa)
#
#
# Indices 1 2 3 4 5 6 
#
# 1 143.5263 43.6558 53.4975 -9.4206 7.9693 -29.1710
# 2 43.6558 89.3069 36.6002 -4.8619 5.4917 -21.7163
# 3 53.4975 36.6002 122.4056 -13.0253 33.4264 -27.6391
# 4 -9.4206 -4.8619 -13.0253 27.2718 -12.6263 -2.1326
# 5 7.9693 5.4917 33.4264 -12.6263 47.7484 -2.0729
# 6 -29.1710 -21.7163 -27.6391 -2.1326 -2.0729 29.7162
#
#
#
# Elastic Compliance Matrix: (Units=1/GPa)
#
#
# Indices 1 2 3 4 5 6 
#
# 1 0.009907 -0.002316 -0.002251 0.003003 0.001253 0.006242
# 2 -0.002316 0.014857 -0.001850 0.001875 0.000775 0.007052
# 3 -0.002251 -0.001850 0.014411 0.002628 -0.008395 0.009446
# 4 0.003003 0.001875 0.002628 0.044620 0.009705 0.010641
# 5 0.001253 0.000775 -0.008395 0.009705 0.028945 -0.003296
# 6 0.006242 0.007052 0.009446 0.010641 -0.003296 0.054252
#
#
# Mechanical properties :
#
#
# Convention : Reuss Voigt Hill
#
# Bulk Modulus (GPa) = 37.96201 69.19400 53.57801
# Shear Modulus (GPa) = 26.51030 35.71295 31.11162
#
# Velocity S-wave (km/s) = 3.37537 3.91766 3.65658
# Velocity P-wave (km/s) = 5.61297 7.08527 6.39165
#
# Compressibility (1/GPa) = 0.02634212
#
# Stress axis : x y z
#
# Youngs Moduli (GPa) = 100.93949 67.30918 69.38958
#
# Poissons Ratio (x) = 0.15590 0.15616
# Poissons Ratio (y) = 0.23379 0.12836
# Poissons Ratio (z) = 0.22717 0.12451
#
# Static dielectric constant tensor:
#      x y z
#    x 1.812180 0.031570 0.036550 
#    y 0.031570 2.072650 -0.025190 
#    z 0.036550 -0.025190 1.878260 
# 
# From -- ./inp_files/127238.got.cif
#   From: 2010.05.17/outbox.cif.g08.bks.cpg/sg2_64_cif.got.tgz:127238.got - 2010.06.03 11:33:40.
