data_PCOD9014642
_publ_section_title
;
Structure prediction by ZEFSAII (Michael W. Deem and Ramdas Pophale) SiO2 
 PCOD9014642
Probable space group: P -1
;
_chemical_formula_sum "Si O2"
_cell_formula_units_Z 13
_cell_length_a 12.599954
_cell_length_b 7.507872
_cell_length_c 9.826236
_cell_angle_alpha 104.562812
_cell_angle_beta 34.193522
_cell_angle_gamma 110.434393
_cell_volume 488.292527
_symmetry_space_group_name_H-M "P -1"
_symmetry_group_IT_number 2
_symmetry_cell_setting 'triclinic'
loop_
_space_group_symop_operation_xyz
x,y,z
-x,-y,-z
loop_
_atom_site_type_symbol
_atom_site_label
_atom_site_fract_x
_atom_site_fract_y
_atom_site_fract_z
Si Si1 0.166211 0.456629 0.482813
Si Si2 0.562448 0.757805 0.382879
Si Si3 0.225136 0.774007 0.257210
Si Si4 0.000000 0.000000 0.500000
Si Si5 0.886539 0.266888 0.209312
Si Si6 0.503770 0.344846 0.268791
Si Si7 0.075844 0.976467 0.098001
O O1 0.246673 0.629914 0.325560
O O2 0.044284 0.542268 0.738778
O O3 0.333549 0.386212 0.363830
O O4 0.017013 0.283923 0.526873
O O5 0.342234 0.748129 0.569505
O O6 0.606119 0.556518 0.260181
O O7 0.568975 0.776128 0.542235
O O8 0.714344 0.917022 0.168549
O O9 0.227454 0.989022 0.321130
O O10 0.349552 0.734634 0.992987
O O11 0.080931 0.984340 0.253820
O O12 0.935999 0.101897 0.215384
O O13 0.973695 0.229672 0.963577
#
# Coordination Sequence:
#
# PCOD9014642 Si02
#       7
#     2   2   2   1   2   2   2
#     4  10  22  42  70  97 132 178 223 271 340 380
#     4  10  22  40  66  99 129 170 221 276 330 387
#     4  11  23  43  66  96 138 176 219 279 328 396
#     4  12  26  44  66 102 132 182 216 270 334 398
#     4  10  21  41  68  96 129 175 218 272 324 397
#     4  10  22  40  68  99 130 172 226 272 326 400
#     4  11  23  42  66  92 144 172 215 273 334 388
#
# _framework density 26.623383
#
# number of rings (size 3 to 8) (size 9 to 14) (size 15 to 20)
#    0.000    1.538    1.538    2.769    2.154    3.692 
#    0.000    8.462    0.000    0.000    0.000    0.000 
#    0.000    0.000    0.000    0.000    0.000    0.000 
#
# Total GULP energy -72662.066882 kJ/mol
# GULP energy per Si atom -5589.389760 kJ/mol
# Density = 2.656279 g / cm^3
# Si number density = 26.623383 Si / 1000 Ang^3
#
#
#
# Elastic Constant Matrix: (Units=GPa)
#
#
# Indices 1 2 3 4 5 6 
#
# 1 140.0674 15.0100 69.7848 -0.5754 16.7640 -27.7084
# 2 15.0100 99.4474 65.4980 25.2499 25.4787 -6.2133
# 3 69.7848 65.4980 172.5740 37.5315 30.3326 -23.2230
# 4 -0.5754 25.2499 37.5315 47.1434 -14.9404 3.8534
# 5 16.7640 25.4787 30.3326 -14.9404 64.4025 3.7278
# 6 -27.7084 -6.2133 -23.2230 3.8534 3.7278 48.1495
#
#
#
# Elastic Compliance Matrix: (Units=1/GPa)
#
#
# Indices 1 2 3 4 5 6 
#
# 1 0.010036 0.001140 -0.004474 0.002601 -0.000561 0.003600
# 2 0.001140 0.016195 -0.003028 -0.008828 -0.007474 0.002571
# 3 -0.004474 -0.003028 0.013017 -0.011294 -0.006663 0.004733
# 4 0.002601 -0.008828 -0.011294 0.041584 0.018351 -0.009838
# 5 -0.000561 -0.007474 -0.006663 0.018351 0.026490 -0.008020
# 6 0.003600 0.002571 0.004733 -0.009838 -0.008020 0.026863
#
#
# Mechanical properties :
#
#
# Convention : Reuss Voigt Hill
#
# Bulk Modulus (GPa) = 37.70028 79.18604 58.44316
# Shear Modulus (GPa) = 32.10286 49.39213 40.74750
#
# Velocity S-wave (km/s) = 3.47625 4.31189 3.91642
# Velocity P-wave (km/s) = 5.50489 7.38901 6.51542
#
# Compressibility (1/GPa) = 0.02652500
#
# Stress axis : x y z
#
# Youngs Moduli (GPa) = 99.63933 61.74815 76.82254
#
# Poissons Ratio (x) = -0.07038 0.34368
# Poissons Ratio (y) = -0.11357 0.23260
# Poissons Ratio (z) = 0.44575 0.18696
#
# Static dielectric constant tensor:
#      x y z
#    x 2.175250 -0.028360 -0.070100 
#    y -0.028360 3.721240 0.415170 
#    z -0.070100 0.415170 2.096400 
# 
# From -- ./inp_files/198448.got.cif
#   From: 2010.05.17/outbox.cif.g08.bks.cpg/sg2_100_cif.got.tgz:198448.got - 2010.06.03 11:33:40.
