data_PCOD9014307
_publ_section_title
;
Structure prediction by ZEFSAII (Michael W. Deem and Ramdas Pophale) SiO2 
 PCOD9014307
Probable space group: P -1
;
_chemical_formula_sum "Si O2"
_cell_formula_units_Z 16
_cell_length_a 13.958918
_cell_length_b 12.576744
_cell_length_c 14.666556
_cell_angle_alpha 138.480313
_cell_angle_beta 148.716606
_cell_angle_gamma 61.651794
_cell_volume 777.769262
_symmetry_space_group_name_H-M "P -1"
_symmetry_group_IT_number 2
_symmetry_cell_setting 'triclinic'
loop_
_space_group_symop_operation_xyz
x,y,z
-x,-y,-z
loop_
_atom_site_type_symbol
_atom_site_label
_atom_site_fract_x
_atom_site_fract_y
_atom_site_fract_z
Si Si1 0.219973 0.776182 0.547992
Si Si2 0.224442 0.044190 0.100591
Si Si3 0.621728 0.404115 0.583910
Si Si4 0.216620 0.666170 0.813873
Si Si5 0.478144 0.796526 0.940185
Si Si6 0.628224 0.296376 0.836737
Si Si7 0.753419 0.615374 0.007826
Si Si8 0.199028 0.962668 0.242444
O O1 0.254275 0.642865 0.421597
O O2 0.281420 0.748654 0.682589
O O3 0.983622 0.736213 0.314829
O O4 0.386913 0.986131 0.797134
O O5 0.442026 0.212455 0.355139
O O6 0.220301 0.027769 0.196272
O O7 0.026286 0.071785 0.928733
O O8 0.200414 0.853313 0.922760
O O9 0.500000 0.500000 0.500000
O O10 0.757877 0.530488 0.859032
O O11 0.394264 0.699695 0.906119
O O12 0.000000 0.500000 0.500000
O O13 0.271008 0.631111 0.936867
O O14 0.626579 0.727588 0.969237
O O15 0.761912 0.211294 0.840559
O O16 0.396728 0.127552 0.557685
O O17 0.629394 0.447993 0.869206
#
# Coordination Sequence:
#
# PCOD9014307 Si02
#       8
#     2   2   2   2   2   2   2   2
#     4  11  25  47  68  96 133 182 220 274 329 389
#     4  10  21  41  67  93 131 172 215 273 334 387
#     4  12  24  44  69 101 131 171 225 279 329 388
#     4  11  24  42  66  94 131 177 219 266 332 399
#     4  11  25  47  68  93 142 175 220 274 326 399
#     4  10  22  40  62  97 130 163 215 274 322 394
#     4  12  25  43  72  97 130 174 228 273 330 391
#     4   9  20  39  66  93 128 167 208 269 341 381
#
# _framework density 20.571653000000001
#
# number of rings (size 3 to 8) (size 9 to 14) (size 15 to 20)
#    0.000    1.250    3.750    1.500    3.500    1.500 
#    4.500    0.000    0.000    0.000    0.000    0.000 
#    0.000    0.000    0.000    0.000    0.000    0.000 
#
# Total GULP energy -89465.319339 kJ/mol
# GULP energy per Si atom -5591.582459 kJ/mol
# Density = 2.052483 g / cm^3
# Si number density = 20.571653 Si / 1000 Ang^3
#
#
#
# Elastic Constant Matrix: (Units=GPa)
#
#
# Indices 1 2 3 4 5 6 
#
# 1 35.5435 -11.8929 11.2903 2.1267 -15.1389 -0.7070
# 2 -11.8929 52.4005 7.5154 -5.1300 -13.0306 1.5643
# 3 11.2903 7.5154 104.3019 -18.7040 -27.7412 0.5530
# 4 2.1267 -5.1300 -18.7040 27.6854 -2.0999 4.5826
# 5 -15.1389 -13.0306 -27.7412 -2.0999 29.9183 -4.6308
# 6 -0.7070 1.5643 0.5530 4.5826 -4.6308 22.6544
#
#
#
# Elastic Compliance Matrix: (Units=1/GPa)
#
#
# Indices 1 2 3 4 5 6 
#
# 1 0.051153 0.021438 0.004736 0.005142 0.041113 0.007364
# 2 0.021438 0.031671 0.005253 0.009652 0.030601 0.002657
# 3 0.004736 0.005253 0.016763 0.013381 0.021326 0.001028
# 4 0.005142 0.009652 0.013381 0.049252 0.021685 -0.006363
# 5 0.041113 0.030601 0.021326 0.021685 0.090838 0.012831
# 6 0.007364 0.002657 0.001028 -0.006363 0.012831 0.048073
#
#
# Mechanical properties :
#
#
# Convention : Reuss Voigt Hill
#
# Bulk Modulus (GPa) = 6.15605 22.89680 14.52643
# Shear Modulus (GPa) = 17.91841 28.40716 23.16279
#
# Velocity S-wave (km/s) = 2.95451 3.72006 3.35917
# Velocity P-wave (km/s) = 3.82595 5.44116 4.70341
#
# Compressibility (1/GPa) = 0.16244170
#
# Stress axis : x y z
#
# Youngs Moduli (GPa) = 19.54907 31.57430 59.65677
#
# Poissons Ratio (x) = -0.67689 -0.28254
# Poissons Ratio (y) = -0.41909 -0.31339
# Poissons Ratio (z) = -0.09259 -0.16587
#
# Static dielectric constant tensor:
#      x y z
#    x 1.724970 -0.016840 -0.005170 
#    y -0.016840 1.726240 -0.005670 
#    z -0.005170 -0.005670 1.711690 
# 
# From -- ./inp_files/455460.got.cif
#   From: 2010.05.17/outbox.cif.g08.bks.cpg/sg2_228_cif.got.tgz:455460.got - 2010.06.03 11:33:40.
