data_PCOD9014986
_publ_section_title
;
Structure prediction by ZEFSAII (Michael W. Deem and Ramdas Pophale) SiO2 
 PCOD9014986
Probable space group: P -1
;
_chemical_formula_sum "Si O2"
_cell_formula_units_Z 15
_cell_length_a 9.211759
_cell_length_b 7.498746
_cell_length_c 12.529859
_cell_angle_alpha 74.477335
_cell_angle_beta 61.230520
_cell_angle_gamma 108.979976
_cell_volume 616.394587
_symmetry_space_group_name_H-M "P -1"
_symmetry_group_IT_number 2
_symmetry_cell_setting 'triclinic'
loop_
_space_group_symop_operation_xyz
x,y,z
-x,-y,-z
loop_
_atom_site_type_symbol
_atom_site_label
_atom_site_fract_x
_atom_site_fract_y
_atom_site_fract_z
Si Si1 0.251897 0.903465 0.316079
Si Si2 0.706634 0.888774 0.422531
Si Si3 0.287484 0.656144 0.681820
Si Si4 0.150803 0.628205 0.181356
Si Si5 0.282790 0.317697 0.137821
Si Si6 0.319404 0.796745 0.864514
Si Si7 0.000000 0.000000 0.500000
Si Si8 0.965856 0.065519 0.115230
O O1 0.209967 0.774934 0.241606
O O2 0.274383 0.138824 0.247368
O O3 0.469931 0.976716 0.264553
O O4 0.073144 0.821251 0.472452
O O5 0.481045 0.699599 0.548428
O O6 0.711874 0.118468 0.374205
O O7 0.843248 0.907654 0.469195
O O8 0.805969 0.877596 0.280175
O O9 0.319347 0.637345 0.800624
O O10 0.073506 0.463377 0.753467
O O11 0.181514 0.427791 0.213846
O O12 0.289003 0.748617 0.008835
O O13 0.160413 0.195484 0.095667
O O14 0.500000 0.500000 0.000000
O O15 0.126796 0.791994 0.899685
O O16 0.000000 0.000000 0.000000
#
# Coordination Sequence:
#
# PCOD9014986 Si02
#       8
#     2   2   2   2   2   2   1   2
#     4  12  26  44  70 102 138 184 238 284 348 413
#     4  10  21  41  70  93 138 180 232 278 345 410
#     4  10  21  42  68  97 131 185 228 279 351 411
#     4  12  24  43  72 101 142 181 235 290 348 413
#     4  12  25  44  67 103 145 180 230 292 347 412
#     4  11  22  40  69 101 136 185 229 283 349 416
#     4  12  22  44  70  96 140 192 220 294 344 408
#     4  11  24  43  70 104 141 181 231 293 349 406
#
# _framework density 24.335062000000001
#
# number of rings (size 3 to 8) (size 9 to 14) (size 15 to 20)
#    0.000    0.800    6.667    1.600    1.867    0.000 
#    0.000    4.667    0.000    0.000    0.000    0.000 
#    0.000    0.000    0.000    0.000    0.000    0.000 
#
# Total GULP energy -83633.984748 kJ/mol
# GULP energy per Si atom -5575.598983 kJ/mol
# Density = 2.427967 g / cm^3
# Si number density = 24.335062 Si / 1000 Ang^3
#
#
#
# Elastic Constant Matrix: (Units=GPa)
#
#
# Indices 1 2 3 4 5 6 
#
# 1 88.8027 21.5981 44.5846 4.1067 -18.1228 27.5614
# 2 21.5981 53.4928 33.1537 24.4913 -4.3237 9.0329
# 3 44.5846 33.1537 141.7081 30.9289 -22.5212 9.6848
# 4 4.1067 24.4913 30.9289 34.6589 7.1837 0.4265
# 5 -18.1228 -4.3237 -22.5212 7.1837 42.7467 -4.3798
# 6 27.5614 9.0329 9.6848 0.4265 -4.3798 35.1555
#
#
#
# Elastic Compliance Matrix: (Units=1/GPa)
#
#
# Indices 1 2 3 4 5 6 
#
# 1 0.018789 -0.004596 -0.004512 0.004546 0.003133 -0.011971
# 2 -0.004596 0.032172 -0.000012 -0.023126 0.004798 -0.003781
# 3 -0.004512 -0.000012 0.011909 -0.011426 0.006403 0.001196
# 4 0.004546 -0.023126 -0.011426 0.058114 -0.015907 0.002839
# 5 0.003133 0.004798 0.006403 -0.015907 0.031112 -0.001384
# 6 -0.011971 -0.003781 0.001196 0.002839 -0.001384 0.038265
#
#
# Mechanical properties :
#
#
# Convention : Reuss Voigt Hill
#
# Bulk Modulus (GPa) = 22.40752 53.63072 38.01912
# Shear Modulus (GPa) = 22.37351 34.82336 28.59843
#
# Velocity S-wave (km/s) = 3.03544 3.78695 3.43183
# Velocity P-wave (km/s) = 4.63822 6.41932 5.60003
#
# Compressibility (1/GPa) = 0.04462788
#
# Stress axis : x y z
#
# Youngs Moduli (GPa) = 53.22341 31.08276 83.97123
#
# Poissons Ratio (x) = 0.14287 0.37890
# Poissons Ratio (y) = 0.24463 0.00103
# Poissons Ratio (z) = 0.24016 0.00038
#
# Static dielectric constant tensor:
#      x y z
#    x 1.916380 -0.052510 0.172730 
#    y -0.052510 1.922560 -0.019940 
#    z 0.172730 -0.019940 1.697860 
# 
# From -- ./inp_files/378653.got.cif
#   From: 2010.05.17/outbox.cif.g08.bks.cpg/sg2_190_cif.got.tgz:378653.got - 2010.06.03 11:33:40.
