data_PCOD9014310
_publ_section_title
;
Structure prediction by ZEFSAII (Michael W. Deem and Ramdas Pophale) SiO2 
 PCOD9014310
Probable space group: P -1
;
_chemical_formula_sum "Si O2"
_cell_formula_units_Z 16
_cell_length_a 10.399538
_cell_length_b 9.128595
_cell_length_c 12.449223
_cell_angle_alpha 68.381080
_cell_angle_beta 130.159371
_cell_angle_gamma 84.078211
_cell_volume 736.801104
_symmetry_space_group_name_H-M "P -1"
_symmetry_group_IT_number 2
_symmetry_cell_setting 'triclinic'
loop_
_space_group_symop_operation_xyz
x,y,z
-x,-y,-z
loop_
_atom_site_type_symbol
_atom_site_label
_atom_site_fract_x
_atom_site_fract_y
_atom_site_fract_z
Si Si1 0.338356 0.504751 0.491441
Si Si2 0.119452 0.220118 0.150666
Si Si3 0.522410 0.107844 0.332466
Si Si4 0.429242 0.356273 0.019241
Si Si5 0.132652 0.911693 0.349591
Si Si6 0.526910 0.849100 0.220864
Si Si7 0.278871 0.997820 0.854177
Si Si8 0.015835 0.482941 0.826973
O O1 0.500000 0.500000 0.500000
O O2 0.230893 0.703855 0.428482
O O3 0.436297 0.346898 0.674896
O O4 0.176401 0.473266 0.352366
O O5 0.342978 0.166601 0.298211
O O6 0.008239 0.355966 0.150795
O O7 0.096401 0.043713 0.193780
O O8 0.055871 0.321578 0.975403
O O9 0.722054 0.054090 0.509003
O O10 0.526638 0.953438 0.300130
O O11 0.473773 0.278424 0.184796
O O12 0.201185 0.429897 0.866417
O O13 0.500000 0.500000 0.000000
O O14 0.561776 0.187201 0.062272
O O15 0.932966 0.968739 0.284179
O O16 0.688626 0.851397 0.229155
O O17 0.333306 0.971547 0.016384
#
# Coordination Sequence:
#
# PCOD9014310 Si02
#       8
#     2   2   2   2   2   2   2   2
#     4  12  27  41  65 101 135 168 219 278 331 384
#     4  10  21  41  67  93 134 169 222 264 325 402
#     4  10  22  41  65  93 128 176 213 270 323 383
#     4  10  22  40  68  95 131 167 223 271 322 386
#     4  12  25  38  69 100 128 170 222 267 330 382
#     4  10  24  46  66  87 142 171 217 266 328 386
#     4  10  25  43  68  95 127 182 217 266 325 388
#     4  10  23  41  66  97 129 180 213 269 337 382
#
# _framework density 21.715492999999999
#
# number of rings (size 3 to 8) (size 9 to 14) (size 15 to 20)
#    0.000    1.500    0.000    3.375   10.500    4.000 
#    0.000    0.000    0.000    0.000    0.000    0.000 
#    0.000    0.000    0.000    0.000    0.000    0.000 
#
# Total GULP energy -89456.218938 kJ/mol
# GULP energy per Si atom -5591.013684 kJ/mol
# Density = 2.166607 g / cm^3
# Si number density = 21.715493 Si / 1000 Ang^3
#
#
#
# Elastic Constant Matrix: (Units=GPa)
#
#
# Indices 1 2 3 4 5 6 
#
# 1 125.1772 46.2180 35.0948 -12.4857 26.4166 10.1646
# 2 46.2180 85.4800 9.8510 -31.4197 -11.4301 3.2431
# 3 35.0948 9.8510 60.6683 -7.9731 8.6082 6.3646
# 4 -12.4857 -31.4197 -7.9731 40.2118 11.9235 -10.2482
# 5 26.4166 -11.4301 8.6082 11.9235 36.8021 -7.6040
# 6 10.1646 3.2431 6.3646 -10.2482 -7.6040 39.5885
#
#
#
# Elastic Compliance Matrix: (Units=1/GPa)
#
#
# Indices 1 2 3 4 5 6 
#
# 1 0.017107 -0.010892 -0.005532 -0.001294 -0.015160 -0.005857
# 2 -0.010892 0.023711 0.001944 0.013702 0.011594 0.006316
# 3 -0.005532 0.001944 0.020276 0.004006 -0.001733 -0.001295
# 4 -0.001294 0.013702 0.004006 0.040013 -0.007157 0.007549
# 5 -0.015160 0.011594 -0.001733 -0.007157 0.046508 0.010302
# 6 -0.005857 0.006316 -0.001295 0.007549 0.010302 0.030387
#
#
# Mechanical properties :
#
#
# Convention : Reuss Voigt Hill
#
# Bulk Modulus (GPa) = 31.12049 50.40592 40.76321
# Shear Modulus (GPa) = 22.97020 35.33125 29.15073
#
# Velocity S-wave (km/s) = 3.25588 4.03799 3.66784
# Velocity P-wave (km/s) = 5.33821 6.70842 6.06215
#
# Compressibility (1/GPa) = 0.03213317
#
# Stress axis : x y z
#
# Youngs Moduli (GPa) = 58.45522 42.17433 49.32049
#
# Poissons Ratio (x) = 0.45938 0.27283
# Poissons Ratio (y) = 0.63672 -0.09588
# Poissons Ratio (z) = 0.32336 -0.08199
#
# Static dielectric constant tensor:
#      x y z
#    x 1.786050 -0.012940 -0.017930 
#    y -0.012940 1.801050 -0.012270 
#    z -0.017930 -0.012270 1.827900 
# 
# From -- ./inp_files/515245.got.cif
#   From: 2010.05.17/outbox.cif.g08.bks.cpg/sg2_258_cif.got.tgz:515245.got - 2010.06.03 11:33:40.
