data_PCOD9014756
_publ_section_title
;
Structure prediction by ZEFSAII (Michael W. Deem and Ramdas Pophale) SiO2 
 PCOD9014756
Probable space group: P -1
;
_chemical_formula_sum "Si O2"
_cell_formula_units_Z 14
_cell_length_a 18.242142
_cell_length_b 11.685350
_cell_length_c 5.250998
_cell_angle_alpha 110.706849
_cell_angle_beta 95.940299
_cell_angle_gamma 36.733294
_cell_volume 592.964263
_symmetry_space_group_name_H-M "P -1"
_symmetry_group_IT_number 2
_symmetry_cell_setting 'triclinic'
loop_
_space_group_symop_operation_xyz
x,y,z
-x,-y,-z
loop_
_atom_site_type_symbol
_atom_site_label
_atom_site_fract_x
_atom_site_fract_y
_atom_site_fract_z
Si Si1 0.555083 0.721528 0.454549
Si Si2 0.276341 0.151700 0.729919
Si Si3 0.303202 0.838135 0.574619
Si Si4 0.150296 0.637437 0.719628
Si Si5 0.492334 0.375436 0.140637
Si Si6 0.063101 0.002000 0.726461
Si Si7 0.882345 0.570740 0.599666
O O1 0.696240 0.586632 0.371515
O O2 0.559562 0.628212 0.632003
O O3 0.428763 0.978144 0.662979
O O4 0.526775 0.683195 0.156782
O O5 0.209485 0.299779 0.578582
O O6 0.278668 0.002315 0.573467
O O7 0.194537 0.283271 0.061112
O O8 0.407427 0.613941 0.286267
O O9 0.364883 0.781964 0.832389
O O10 0.174167 0.937884 0.620271
O O11 0.130253 0.808860 0.781411
O O12 0.094161 0.607038 0.494150
O O13 0.053285 0.759634 0.016206
O O14 0.000000 0.000000 0.500000
O O15 0.000000 0.500000 0.500000
#
# Coordination Sequence:
#
# PCOD9014756 Si02
#       7
#     2   2   2   2   2   2   2
#     4  11  23  45  68 107 140 176 233 284 352 406
#     4  11  26  44  73 102 136 186 232 278 340 412
#     4  10  21  41  69 103 141 177 233 283 346 415
#     4  11  27  43  71  99 143 181 232 292 344 410
#     4  10  22  39  69 105 140 180 215 294 352 402
#     4  11  24  45  69 106 135 186 228 290 356 407
#     4  12  28  49  71 100 138 189 234 279 336 413
#
# _framework density 23.610194
#
# number of rings (size 3 to 8) (size 9 to 14) (size 15 to 20)
#    0.000    1.143    1.429    3.857    4.000    7.429 
#    7.714    0.000    0.000    0.000    0.000    0.000 
#    0.000    0.000    0.000    0.000    0.000    0.000 
#
# Total GULP energy -78240.557406 kJ/mol
# GULP energy per Si atom -5588.611243 kJ/mol
# Density = 2.355646 g / cm^3
# Si number density = 23.610194 Si / 1000 Ang^3
#
#
#
# Elastic Constant Matrix: (Units=GPa)
#
#
# Indices 1 2 3 4 5 6 
#
# 1 140.9775 44.3595 37.2778 9.9582 -6.8507 -33.2013
# 2 44.3595 65.5506 38.5303 4.9789 -21.3165 -6.3543
# 3 37.2778 38.5303 154.5791 -1.2756 1.2954 -11.5399
# 4 9.9582 4.9789 -1.2756 32.0221 -1.9872 -6.2131
# 5 -6.8507 -21.3165 1.2954 -1.9872 24.9712 10.9620
# 6 -33.2013 -6.3543 -11.5399 -6.2131 10.9620 42.8335
#
#
#
# Elastic Compliance Matrix: (Units=1/GPa)
#
#
# Indices 1 2 3 4 5 6 
#
# 1 0.012644 -0.011573 0.000754 -0.000654 -0.011376 0.011103
# 2 -0.011573 0.038735 -0.008351 -0.003459 0.036807 -0.015395
# 3 0.000754 -0.008351 0.008779 0.001680 -0.009127 0.004291
# 4 -0.000654 -0.003459 0.001680 0.032816 -0.002758 0.004898
# 5 -0.011376 0.036807 -0.009127 -0.002758 0.080356 -0.026781
# 6 0.011103 -0.015395 0.004291 0.004898 -0.026781 0.038389
#
#
# Mechanical properties :
#
#
# Convention : Reuss Voigt Hill
#
# Bulk Modulus (GPa) = 45.82952 66.82695 56.32824
# Shear Modulus (GPa) = 19.43031 36.02800 27.72915
#
# Velocity S-wave (km/s) = 2.87184 3.91058 3.43075
# Velocity P-wave (km/s) = 5.51812 6.98254 6.29308
#
# Compressibility (1/GPa) = 0.02182000
#
# Stress axis : x y z
#
# Youngs Moduli (GPa) = 79.09099 25.81637 113.90378
#
# Poissons Ratio (x) = 0.29877 -0.08593
# Poissons Ratio (y) = 0.91532 0.95115
# Poissons Ratio (z) = -0.05967 0.21558
#
# Static dielectric constant tensor:
#      x y z
#    x 1.960030 0.204070 -0.076270 
#    y 0.204070 2.299090 -0.055520 
#    z -0.076270 -0.055520 1.887310 
# 
# From -- ./inp_files/65808.got.cif
#   From: 2010.05.17/outbox.cif.g08.bks.cpg/sg2_33_cif.got.tgz:65808.got - 2010.06.03 11:33:40.
