data_PCOD9014166
_publ_section_title
;
Structure prediction by ZEFSAII (Michael W. Deem and Ramdas Pophale) SiO2 
 PCOD9014166
Probable space group: P -1
;
_chemical_formula_sum "Si O2"
_cell_formula_units_Z 16
_cell_length_a 21.235967
_cell_length_b 6.477500
_cell_length_c 8.397949
_cell_angle_alpha 127.008974
_cell_angle_beta 52.792920
_cell_angle_gamma 133.670226
_cell_volume 630.490348
_symmetry_space_group_name_H-M "P -1"
_symmetry_group_IT_number 2
_symmetry_cell_setting 'triclinic'
loop_
_space_group_symop_operation_xyz
x,y,z
-x,-y,-z
loop_
_atom_site_type_symbol
_atom_site_label
_atom_site_fract_x
_atom_site_fract_y
_atom_site_fract_z
Si Si1 0.372131 0.852978 0.011499
Si Si2 0.311642 0.750500 0.412048
Si Si3 0.093438 0.994988 0.887535
Si Si4 0.078795 0.845978 0.502852
Si Si5 0.191383 0.650270 0.037392
Si Si6 0.883337 0.531193 0.288406
Si Si7 0.576372 0.629383 0.303363
Si Si8 0.474761 0.760770 0.281621
O O1 0.298319 0.848481 0.001617
O O2 0.367376 0.536701 0.871190
O O3 0.470237 0.061688 0.876027
O O4 0.346719 0.885190 0.244993
O O5 0.202291 0.556844 0.503209
O O6 0.349855 0.031928 0.603704
O O7 0.367697 0.595199 0.321662
O O8 0.133159 0.974617 0.645481
O O9 0.075272 0.685082 0.847842
O O10 0.157421 0.321509 0.018684
O O11 0.000000 0.000000 0.000000
O O12 0.000000 0.500000 0.500000
O O13 0.053563 0.104602 0.625713
O O14 0.139763 0.810539 0.261410
O O15 0.162216 0.565513 0.861077
O O16 0.500000 0.500000 0.500000
O O17 0.519366 0.584126 0.208389
O O18 0.500000 0.000000 0.500000
#
# Coordination Sequence:
#
# PCOD9014166 Si02
#       8
#     2   2   2   2   2   2   2   2
#     4  12  24  43  69 101 146 192 245 306 361 428
#     4  11  24  45  66 105 145 188 255 298 365 432
#     4  11  24  49  73 107 143 188 237 300 373 456
#     4  11  25  49  73 110 142 186 243 302 376 452
#     4  11  25  45  73 104 149 187 247 305 374 441
#     4  11  27  45  75 107 148 193 242 309 374 443
#     4  11  23  41  69  98 140 200 241 303 365 419
#     4  10  21  41  66  99 142 187 246 290 354 428
#
# _framework density 25.377075999999999
#
# number of rings (size 3 to 8) (size 9 to 14) (size 15 to 20)
#    0.000    1.000    3.750    3.375    0.000    8.000 
#    0.000    0.000    0.000    0.000    0.000    0.000 
#    0.000    0.000    0.000    0.000    0.000    0.000 
#
# Total GULP energy -89447.118691 kJ/mol
# GULP energy per Si atom -5590.444918 kJ/mol
# Density = 2.531932 g / cm^3
# Si number density = 25.377076 Si / 1000 Ang^3
#
#
#
# Elastic Constant Matrix: (Units=GPa)
#
#
# Indices 1 2 3 4 5 6 
#
# 1 89.8387 20.8836 29.7855 10.1236 -14.1769 -21.5439
# 2 20.8836 107.0409 44.2327 20.4440 -13.7728 -12.1953
# 3 29.7855 44.2327 135.9457 17.2646 -0.2033 -11.8693
# 4 10.1236 20.4440 17.2646 57.0504 -5.1473 -2.2437
# 5 -14.1769 -13.7728 -0.2033 -5.1473 42.0271 -3.1411
# 6 -21.5439 -12.1953 -11.8693 -2.2437 -3.1411 39.1624
#
#
#
# Elastic Compliance Matrix: (Units=1/GPa)
#
#
# Indices 1 2 3 4 5 6 
#
# 1 0.014773 -0.000122 -0.002378 -0.001069 0.005379 0.007738
# 2 -0.000122 0.012078 -0.003287 -0.002861 0.003763 0.002836
# 3 -0.002378 -0.003287 0.009130 -0.001334 -0.001983 0.000200
# 4 -0.001069 -0.002861 -0.001334 0.019209 0.000996 -0.000703
# 5 0.005379 0.003763 -0.001983 0.000996 0.027386 0.005783
# 6 0.007738 0.002836 0.000200 -0.000703 0.005783 0.031159
#
#
# Mechanical properties :
#
#
# Convention : Reuss Voigt Hill
#
# Bulk Modulus (GPa) = 40.96906 58.06989 49.51948
# Shear Modulus (GPa) = 37.46913 43.50956 40.48935
#
# Velocity S-wave (km/s) = 3.84669 4.14517 3.99872
# Velocity P-wave (km/s) = 5.99237 6.77070 6.39339
#
# Compressibility (1/GPa) = 0.02440866
#
# Stress axis : x y z
#
# Youngs Moduli (GPa) = 67.69262 82.79730 109.52741
#
# Poissons Ratio (x) = 0.01008 0.26042
# Poissons Ratio (y) = 0.00824 0.35996
# Poissons Ratio (z) = 0.16095 0.27211
#
# Static dielectric constant tensor:
#      x y z
#    x 2.023640 -0.024910 -0.035360 
#    y -0.024910 2.169730 -0.002430 
#    z -0.035360 -0.002430 2.024800 
# 
# From -- ./inp_files/351110.got.cif
#   From: 2010.05.17/outbox.cif.g08.bks.cpg/sg2_176_cif.got.tgz:351110.got - 2010.06.03 11:33:40.
