data_PCOD9014217
_publ_section_title
;
Structure prediction by ZEFSAII (Michael W. Deem and Ramdas Pophale) SiO2 
 PCOD9014217
Probable space group: P -1
;
_chemical_formula_sum "Si O2"
_cell_formula_units_Z 14
_cell_length_a 8.382572
_cell_length_b 11.293273
_cell_length_c 8.251496
_cell_angle_alpha 128.762182
_cell_angle_beta 71.918168
_cell_angle_gamma 114.755560
_cell_volume 551.838886
_symmetry_space_group_name_H-M "P -1"
_symmetry_group_IT_number 2
_symmetry_cell_setting 'triclinic'
loop_
_space_group_symop_operation_xyz
x,y,z
-x,-y,-z
loop_
_atom_site_type_symbol
_atom_site_label
_atom_site_fract_x
_atom_site_fract_y
_atom_site_fract_z
Si Si1 0.579101 0.402399 0.022557
Si Si2 0.263121 0.325361 0.586258
Si Si3 0.618986 0.940137 0.782487
Si Si4 0.278556 0.828953 0.605569
Si Si5 0.076514 0.563493 0.243771
Si Si6 0.931066 0.189865 0.018812
Si Si7 0.726444 0.863696 0.245831
O O1 0.780082 0.413344 0.924613
O O2 0.448549 0.226536 0.880518
O O3 0.500000 0.500000 0.000000
O O4 0.598954 0.500813 0.268135
O O5 0.317219 0.216178 0.341104
O O6 0.253138 0.226352 0.672781
O O7 0.074057 0.350460 0.640496
O O8 0.482691 0.879455 0.627582
O O9 0.500000 0.000000 0.000000
O O10 0.795754 0.086755 0.840272
O O11 0.204349 0.646874 0.421361
O O12 0.169516 0.849418 0.813793
O O13 0.258599 0.952110 0.581954
O O14 0.984951 0.377829 0.136281
O O15 0.108837 0.144617 0.919594
#
# Coordination Sequence:
#
# PCOD9014217 Si02
#       7
#     2   2   2   2   2   2   2
#     4  10  21  41  67 106 138 176 223 286 340 404
#     4  11  24  43  69 103 138 180 227 284 350 405
#     4  10  25  47  69  97 139 182 234 282 341 414
#     4  11  25  44  68  97 137 189 231 282 339 402
#     4  12  24  43  72 105 140 179 228 284 348 411
#     4  11  24  45  68 100 141 182 228 286 338 413
#     4  11  24  42  72 103 140 180 235 282 341 411
#
# _framework density 25.369726
#
# number of rings (size 3 to 8) (size 9 to 14) (size 15 to 20)
#    0.000    1.143    2.857    3.857    2.000    5.714 
#    0.000    2.857    0.000    0.000    0.000    0.000 
#    0.000    0.000    0.000    0.000    0.000    0.000 
#
# Total GULP energy -78327.170589 kJ/mol
# GULP energy per Si atom -5594.797899 kJ/mol
# Density = 2.531198 g / cm^3
# Si number density = 25.369726 Si / 1000 Ang^3
#
#
#
# Elastic Constant Matrix: (Units=GPa)
#
#
# Indices 1 2 3 4 5 6 
#
# 1 115.7027 71.9182 50.9359 31.2601 -19.1222 4.7562
# 2 71.9182 88.4357 25.3770 25.3031 4.7367 30.8212
# 3 50.9359 25.3770 121.0984 28.8494 -8.9897 12.0248
# 4 31.2601 25.3031 28.8494 44.7756 10.0431 4.9278
# 5 -19.1222 4.7367 -8.9897 10.0431 59.5112 6.6859
# 6 4.7562 30.8212 12.0248 4.9278 6.6859 24.1651
#
#
#
# Elastic Compliance Matrix: (Units=1/GPa)
#
#
# Indices 1 2 3 4 5 6 
#
# 1 0.076239 -0.096073 -0.021805 -0.001081 0.016212 0.114115
# 2 -0.096073 0.146264 0.028500 -0.010942 -0.016702 -0.174972
# 3 -0.021805 0.028500 0.016952 -0.007291 -0.001137 -0.038693
# 4 -0.001081 -0.010942 -0.007291 0.034297 -0.007823 0.012967
# 5 0.016212 -0.016702 -0.001137 -0.007823 0.022926 0.013930
# 6 0.114115 -0.174972 -0.038693 0.012967 0.013930 0.254844
#
#
# Mechanical properties :
#
#
# Convention : Reuss Voigt Hill
#
# Bulk Modulus (GPa) = 16.47451 69.07768 42.77610
# Shear Modulus (GPa) = 6.66213 37.49074 22.07644
#
# Velocity S-wave (km/s) = 1.62226 3.84835 2.95310
# Velocity P-wave (km/s) = 3.16494 6.85813 5.34092
#
# Compressibility (1/GPa) = 0.06069982
#
# Stress axis : x y z
#
# Youngs Moduli (GPa) = 13.11661 6.83695 58.99124
#
# Poissons Ratio (x) = 0.65684 1.28631
# Poissons Ratio (y) = 1.26015 -1.68127
# Poissons Ratio (z) = 0.28601 -0.19485
#
# Static dielectric constant tensor:
#      x y z
#    x 1.974570 -0.011820 0.036390 
#    y -0.011820 1.978860 -0.017660 
#    z 0.036390 -0.017660 2.115520 
# 
# From -- ./inp_files/190647.got.cif
#   From: 2010.05.17/outbox.cif.g08.bks.cpg/sg2_96_cif.got.tgz:190647.got - 2010.06.03 11:33:40.
