data_PCOD9014159
_publ_section_title
;
Structure prediction by ZEFSAII (Michael W. Deem and Ramdas Pophale) SiO2 
 PCOD9014159
Probable space group: P -1
;
_chemical_formula_sum "Si O2"
_cell_formula_units_Z 16
_cell_length_a 8.802313
_cell_length_b 21.311167
_cell_length_c 9.878188
_cell_angle_alpha 34.056565
_cell_angle_beta 68.697100
_cell_angle_gamma 51.371877
_cell_volume 758.864863
_symmetry_space_group_name_H-M "P -1"
_symmetry_group_IT_number 2
_symmetry_cell_setting 'triclinic'
loop_
_space_group_symop_operation_xyz
x,y,z
-x,-y,-z
loop_
_atom_site_type_symbol
_atom_site_label
_atom_site_fract_x
_atom_site_fract_y
_atom_site_fract_z
Si Si1 0.844042 0.936140 0.520259
Si Si2 0.677464 0.367361 0.585809
Si Si3 0.499954 0.134102 0.758693
Si Si4 0.961518 0.622964 0.473597
Si Si5 0.214796 0.922366 0.985322
Si Si6 0.561824 0.461500 0.893750
Si Si7 0.697305 0.161357 0.384582
Si Si8 0.031682 0.345292 0.904662
O O1 0.074325 0.885540 0.572280
O O2 0.700748 0.072628 0.419295
O O3 0.839349 0.808511 0.792850
O O4 0.804905 0.974311 0.307127
O O5 0.500000 0.500000 0.500000
O O6 0.730340 0.215530 0.866040
O O7 0.596167 0.409150 0.384506
O O8 0.885430 0.349749 0.566692
O O9 0.265140 0.277288 0.567602
O O10 0.607396 0.128442 0.872454
O O11 0.624155 0.129926 0.599047
O O12 0.500000 0.000000 0.000000
O O13 0.930326 0.664180 0.251118
O O14 0.061656 0.457489 0.749585
O O15 0.000000 0.000000 0.000000
O O16 0.789413 0.416052 0.876171
O O17 0.500000 0.500000 0.000000
O O18 0.565282 0.328232 0.096370
#
# Coordination Sequence:
#
# PCOD9014159 Si02
#       8
#     2   2   2   2   2   2   2   2
#     4  10  22  40  72  98 134 179 229 283 331 413
#     4  12  25  44  73 101 132 179 238 281 337 418
#     4  12  25  45  68  99 143 184 223 285 355 410
#     4  11  24  43  68 100 136 180 224 285 347 409
#     4  12  25  44  71 106 135 179 238 281 338 417
#     4  11  22  41  69  98 129 176 229 284 338 407
#     4  10  21  41  66  99 133 177 228 279 347 404
#     4  10  22  42  67  96 138 174 223 277 351 398
#
# _framework density 21.084122000000001
#
# number of rings (size 3 to 8) (size 9 to 14) (size 15 to 20)
#    0.000    1.000    2.500    4.500    7.000    0.000 
#    2.250    2.500    0.000    0.000    0.000    0.000 
#    0.000    0.000    0.000    0.000    0.000    0.000 
#
# Total GULP energy -89541.466399 kJ/mol
# GULP energy per Si atom -5596.341650 kJ/mol
# Density = 2.103613 g / cm^3
# Si number density = 21.084122 Si / 1000 Ang^3
#
#
#
# Elastic Constant Matrix: (Units=GPa)
#
#
# Indices 1 2 3 4 5 6 
#
# 1 59.6503 5.7079 6.5066 -9.4059 -7.9938 14.4700
# 2 5.7079 88.1830 26.2511 0.5904 -7.8433 -0.8543
# 3 6.5066 26.2511 127.4006 -2.7086 -26.6098 10.7393
# 4 -9.4059 0.5904 -2.7086 35.1337 2.9187 -2.2200
# 5 -7.9938 -7.8433 -26.6098 2.9187 36.4916 -2.2547
# 6 14.4700 -0.8543 10.7393 -2.2200 -2.2547 21.2510
#
#
#
# Elastic Compliance Matrix: (Units=1/GPa)
#
#
# Indices 1 2 3 4 5 6 
#
# 1 0.021585 -0.001625 0.001424 0.004651 0.004146 -0.014556
# 2 -0.001625 0.012302 -0.002576 -0.000711 0.000645 0.002897
# 3 0.001424 -0.002576 0.010203 0.000297 0.006836 -0.005473
# 4 0.004651 -0.000711 0.000297 0.029830 -0.001326 -0.000371
# 5 0.004146 0.000645 0.006836 -0.001326 0.033366 -0.002851
# 6 -0.014556 0.002897 -0.005473 -0.000371 -0.002851 0.059509
#
#
# Mechanical properties :
#
#
# Convention : Reuss Voigt Hill
#
# Bulk Modulus (GPa) = 25.94925 39.12945 32.53935
# Shear Modulus (GPa) = 26.99881 34.35983 30.67932
#
# Velocity S-wave (km/s) = 3.58233 4.04128 3.81870
# Velocity P-wave (km/s) = 5.42632 6.35413 5.90846
#
# Compressibility (1/GPa) = 0.03853676
#
# Stress axis : x y z
#
# Youngs Moduli (GPa) = 46.32912 81.28482 98.01075
#
# Poissons Ratio (x) = 0.13205 -0.13960
# Poissons Ratio (y) = 0.07526 0.25252
# Poissons Ratio (z) = -0.06599 0.20943
#
# Static dielectric constant tensor:
#      x y z
#    x 1.709050 0.013740 -0.002880 
#    y 0.013740 1.746800 -0.044930 
#    z -0.002880 -0.044930 1.771740 
# 
# From -- ./inp_files/216440.got.cif
#   From: 2010.05.17/outbox.cif.g08.bks.cpg/sg2_109_cif.got.tgz:216440.got - 2010.06.03 11:33:40.
