data_PCOD9014955
_publ_section_title
;
Structure prediction by ZEFSAII (Michael W. Deem and Ramdas Pophale) SiO2 
 PCOD9014955
Probable space group: P -1
;
_chemical_formula_sum "Si O2"
_cell_formula_units_Z 14
_cell_length_a 8.473477
_cell_length_b 9.193873
_cell_length_c 11.856008
_cell_angle_alpha 116.320222
_cell_angle_beta 60.696337
_cell_angle_gamma 72.321239
_cell_volume 538.432353
_symmetry_space_group_name_H-M "P -1"
_symmetry_group_IT_number 2
_symmetry_cell_setting 'triclinic'
loop_
_space_group_symop_operation_xyz
x,y,z
-x,-y,-z
loop_
_atom_site_type_symbol
_atom_site_label
_atom_site_fract_x
_atom_site_fract_y
_atom_site_fract_z
Si Si1 0.735266 0.431324 0.039125
Si Si2 0.955237 0.638585 0.277157
Si Si3 0.083323 0.695899 0.826231
Si Si4 0.491493 0.756969 0.988709
Si Si5 0.347268 0.755836 0.613000
Si Si6 0.745528 0.097589 0.564880
Si Si7 0.465462 0.942531 0.822708
O O1 0.780005 0.349772 0.122776
O O2 0.674491 0.300108 0.953262
O O3 0.500502 0.690100 0.215472
O O4 0.978039 0.365328 0.878625
O O5 0.232320 0.472584 0.167897
O O6 0.838768 0.534491 0.309010
O O7 0.783774 0.881647 0.466637
O O8 0.099433 0.835769 0.784058
O O9 0.806135 0.831089 0.995699
O O10 0.507021 0.805977 0.870372
O O11 0.397015 0.970476 0.166510
O O12 0.500000 0.500000 0.500000
O O13 0.293713 0.820540 0.523474
O O14 0.447710 0.841952 0.683947
O O15 0.000000 0.000000 0.500000
#
# Coordination Sequence:
#
# PCOD9014955 Si02
#       7
#     2   2   2   2   2   2   2
#     4  12  23  46  75 104 149 196 247 306 365 441
#     4  11  26  45  69 110 151 195 246 304 372 440
#     4  11  24  45  71 107 146 192 254 298 362 447
#     4  10  21  41  70 109 139 189 250 301 357 441
#     4  12  24  46  72 107 148 192 243 309 366 436
#     4  12  27  46  77 109 150 194 248 307 381 435
#     4  10  22  41  74 102 142 192 247 301 367 432
#
# _framework density 26.001408000000001
#
# number of rings (size 3 to 8) (size 9 to 14) (size 15 to 20)
#    0.000    0.857    4.286    2.143    2.000    1.714 
#    5.143    0.714    0.000    0.000    0.000    0.000 
#    0.000    0.000    0.000    0.000    0.000    0.000 
#
# Total GULP energy -78256.982726 kJ/mol
# GULP energy per Si atom -5589.784480 kJ/mol
# Density = 2.594223 g / cm^3
# Si number density = 26.001408 Si / 1000 Ang^3
#
#
#
# Elastic Constant Matrix: (Units=GPa)
#
#
# Indices 1 2 3 4 5 6 
#
# 1 94.4431 41.2577 19.6930 -1.1049 25.7040 23.3008
# 2 41.2577 138.3055 21.7787 2.2956 17.8631 10.1177
# 3 19.6930 21.7787 113.5406 17.6235 19.1286 25.9372
# 4 -1.1049 2.2956 17.6235 50.4813 3.1573 4.8197
# 5 25.7040 17.8631 19.1286 3.1573 23.7168 4.2698
# 6 23.3008 10.1177 25.9372 4.8197 4.2698 57.1515
#
#
#
# Elastic Compliance Matrix: (Units=1/GPa)
#
#
# Indices 1 2 3 4 5 6 
#
# 1 0.017880 -0.002879 0.001601 0.001668 -0.017583 -0.006334
# 2 -0.002879 0.008546 -0.000710 -0.000049 -0.002772 0.000194
# 3 0.001601 -0.000710 0.011859 -0.003008 -0.009475 -0.004948
# 4 0.001668 -0.000049 -0.003008 0.021112 -0.001986 -0.000938
# 5 -0.017583 -0.002772 -0.009475 -0.001986 0.069972 0.006899
# 6 -0.006334 0.000194 -0.004948 -0.000938 0.006899 0.021854
#
#
# Mechanical properties :
#
#
# Convention : Reuss Voigt Hill
#
# Bulk Modulus (GPa) = 29.14622 56.86088 43.00355
# Shear Modulus (GPa) = 30.00581 43.84058 36.92319
#
# Velocity S-wave (km/s) = 3.40075 4.11065 3.77244
# Velocity P-wave (km/s) = 5.16275 6.66677 5.96237
#
# Compressibility (1/GPa) = 0.03430977
#
# Stress axis : x y z
#
# Youngs Moduli (GPa) = 55.92907 117.01858 84.32270
#
# Poissons Ratio (x) = 0.33693 -0.13503
# Poissons Ratio (y) = 0.16104 0.05983
# Poissons Ratio (z) = -0.08956 0.08303
#
# Static dielectric constant tensor:
#      x y z
#    x 2.231680 0.007280 -0.083340 
#    y 0.007280 2.071340 -0.085210 
#    z -0.083340 -0.085210 2.351800 
# 
# From -- ./inp_files/382842.got.cif
#   From: 2010.05.17/outbox.cif.g08.bks.cpg/sg2_192_cif.got.tgz:382842.got - 2010.06.03 11:33:40.
