data_PCOD9014862
_publ_section_title
;
Structure prediction by ZEFSAII (Michael W. Deem and Ramdas Pophale) SiO2 
 PCOD9014862
Probable space group: P -1
;
_chemical_formula_sum "Si O2"
_cell_formula_units_Z 12
_cell_length_a 8.529902
_cell_length_b 11.114051
_cell_length_c 5.644357
_cell_angle_alpha 91.753898
_cell_angle_beta 108.783564
_cell_angle_gamma 109.242940
_cell_volume 472.664241
_symmetry_space_group_name_H-M "P -1"
_symmetry_group_IT_number 2
_symmetry_cell_setting 'triclinic'
loop_
_space_group_symop_operation_xyz
x,y,z
-x,-y,-z
loop_
_atom_site_type_symbol
_atom_site_label
_atom_site_fract_x
_atom_site_fract_y
_atom_site_fract_z
Si Si1 0.107047 0.957114 0.252492
Si Si2 0.733100 0.610857 0.644297
Si Si3 0.428555 0.077196 0.148779
Si Si4 0.784840 0.810040 0.306230
Si Si5 0.064859 0.575380 0.788183
Si Si6 0.416836 0.649914 0.698824
O O1 0.973902 0.824259 0.283540
O O2 0.293523 0.969282 0.239206
O O3 0.160612 0.073165 0.472581
O O4 0.000000 0.000000 0.000000
O O5 0.692333 0.680819 0.397166
O O6 0.610853 0.632253 0.794913
O O7 0.675333 0.460354 0.547117
O O8 0.948155 0.668205 0.759990
O O9 0.554491 0.203722 0.354247
O O10 0.329339 0.148119 0.936715
O O11 0.500000 0.000000 0.000000
O O12 0.278076 0.624519 0.850879
O O13 0.000000 0.500000 0.500000
O O14 0.000000 0.500000 0.000000
#
# Coordination Sequence:
#
# PCOD9014862 Si02
#       6
#     2   2   2   2   2   2
#     4   9  20  41  63  91 133 175 234 276 343 422
#     4  10  22  44  74 100 139 184 233 300 361 432
#     4  11  24  42  63  99 140 181 233 293 351 428
#     4  10  21  41  69  97 129 183 236 283 357 418
#     4  10  24  45  68 107 145 189 239 290 368 442
#     4  10  23  44  69 103 140 179 238 291 366 424
#
# _framework density 25.388002
#
# number of rings (size 3 to 8) (size 9 to 14) (size 15 to 20)
#    0.000    2.000    1.667    0.000    0.000   12.667 
#    9.000    0.000    0.000    0.000    0.000    0.000 
#    0.000    0.000    0.000    0.000    0.000    0.000 
#
# Total GULP energy -66855.634127 kJ/mol
# GULP energy per Si atom -5571.302844 kJ/mol
# Density = 2.533022 g / cm^3
# Si number density = 25.388002 Si / 1000 Ang^3
#
#
#
# Elastic Constant Matrix: (Units=GPa)
#
#
# Indices 1 2 3 4 5 6 
#
# 1 236.1692 63.0907 17.5012 -2.6362 -62.0930 17.1663
# 2 63.0907 92.3385 29.4155 1.9233 -6.2997 12.4263
# 3 17.5012 29.4155 76.8997 -2.3289 -11.2824 -3.3405
# 4 -2.6362 1.9233 -2.3289 46.7249 -5.9300 -15.8400
# 5 -62.0930 -6.2997 -11.2824 -5.9300 37.3318 -7.3909
# 6 17.1663 12.4263 -3.3405 -15.8400 -7.3909 35.2418
#
#
#
# Elastic Compliance Matrix: (Units=1/GPa)
#
#
# Indices 1 2 3 4 5 6 
#
# 1 0.011116 -0.008153 0.003861 0.005155 0.019955 0.004328
# 2 -0.008153 0.019622 -0.008684 -0.007273 -0.016091 -0.010414
# 3 0.003861 -0.008684 0.017880 0.005901 0.012929 0.008240
# 4 0.005155 -0.007273 0.005901 0.030643 0.017576 0.018072
# 5 0.019955 -0.016091 0.012929 0.017576 0.067782 0.019294
# 6 0.004328 -0.010414 0.008240 0.018072 0.019294 0.042889
#
#
# Mechanical properties :
#
#
# Convention : Reuss Voigt Hill
#
# Bulk Modulus (GPa) = 44.11897 69.49137 56.80517
# Shear Modulus (GPa) = 22.37747 43.55302 32.96525
#
# Velocity S-wave (km/s) = 2.97209 4.14635 3.60732
# Velocity P-wave (km/s) = 5.40309 7.09606 6.30664
#
# Compressibility (1/GPa) = 0.02266598
#
# Stress axis : x y z
#
# Youngs Moduli (GPa) = 89.96245 50.96357 55.92723
#
# Poissons Ratio (x) = 0.41552 -0.21593
# Poissons Ratio (y) = 0.73349 0.48565
# Poissons Ratio (z) = -0.34733 0.44255
#
# Static dielectric constant tensor:
#      x y z
#    x 1.831640 -0.225460 0.320770 
#    y -0.225460 1.758540 0.256120 
#    z 0.320770 0.256120 1.929860 
# 
# From -- ./inp_files/25248.got.cif
#   From: 2010.05.17/outbox.cif.g08.bks.cpg/sg2_13_cif.got.tgz:25248.got - 2010.06.03 11:33:40.
