data_PCOD9014282
_publ_section_title
;
Structure prediction by ZEFSAII (Michael W. Deem and Ramdas Pophale) SiO2 
 PCOD9014282
Probable space group: P -1
;
_chemical_formula_sum "Si O2"
_cell_formula_units_Z 16
_cell_length_a 16.312432
_cell_length_b 16.535107
_cell_length_c 7.127544
_cell_angle_alpha 98.094370
_cell_angle_beta 100.599486
_cell_angle_gamma 23.053442
_cell_volume 737.960156
_symmetry_space_group_name_H-M "P -1"
_symmetry_group_IT_number 2
_symmetry_cell_setting 'triclinic'
loop_
_space_group_symop_operation_xyz
x,y,z
-x,-y,-z
loop_
_atom_site_type_symbol
_atom_site_label
_atom_site_fract_x
_atom_site_fract_y
_atom_site_fract_z
Si Si1 0.301243 0.663721 0.100818
Si Si2 0.754312 0.593675 0.987961
Si Si3 0.843818 0.023911 0.338511
Si Si4 0.233638 0.317266 0.611634
Si Si5 0.038140 0.252740 0.734480
Si Si6 0.990799 0.061113 0.254103
Si Si7 0.456960 0.949834 0.689102
Si Si8 0.372242 0.441693 0.287184
O O1 0.333633 0.568075 0.243900
O O2 0.218122 0.821570 0.211358
O O3 0.500000 0.500000 0.000000
O O4 0.120210 0.798746 0.923116
O O5 0.791753 0.591646 0.210173
O O6 0.594533 0.798323 0.877547
O O7 0.650686 0.597264 0.917663
O O8 0.975758 0.379828 0.897399
O O9 0.609063 0.224140 0.382780
O O10 0.865081 0.089870 0.259052
O O11 0.897889 0.893590 0.203769
O O12 0.994148 0.899653 0.541005
O O13 0.382315 0.209821 0.466422
O O14 0.000000 0.500000 0.500000
O O15 0.368033 0.121762 0.695937
O O16 0.806220 0.438100 0.616535
O O17 0.235577 0.099506 0.642398
#
# Coordination Sequence:
#
# PCOD9014282 Si02
#       8
#     2   2   2   2   2   2   2   2
#     4  11  21  40  58  92 127 171 213 273 329 383
#     4  10  23  45  70  94 133 180 212 271 332 390
#     4  11  20  41  62  92 122 172 220 267 319 388
#     4  11  26  45  69 106 135 166 219 271 325 403
#     4  10  21  41  67  92 129 173 219 265 327 389
#     4  10  23  36  63  89 127 167 219 269 324 381
#     4  11  23  45  71  97 132 173 216 270 323 405
#     4  10  22  40  65  88 129 171 219 266 330 389
#
# _framework density 21.681387999999998
#
# number of rings (size 3 to 8) (size 9 to 14) (size 15 to 20)
#    0.750    0.750    3.750    1.125    0.000    5.500 
#    6.750    0.000    0.000    0.000    0.000    0.000 
#    0.000    0.000    0.000    0.000    0.000    0.000 
#
# Total GULP energy -89109.574625 kJ/mol
# GULP energy per Si atom -5569.348414 kJ/mol
# Density = 2.163204 g / cm^3
# Si number density = 21.681388 Si / 1000 Ang^3
#
#
#
# Elastic Constant Matrix: (Units=GPa)
#
#
# Indices 1 2 3 4 5 6 
#
# 1 61.5982 41.5509 19.5837 16.6298 1.2910 -18.5705
# 2 41.5509 119.1137 36.0214 21.2387 4.9078 -12.1593
# 3 19.5837 36.0214 58.0668 12.4601 13.9917 -1.1613
# 4 16.6298 21.2387 12.4601 30.6100 -4.6453 -14.9740
# 5 1.2910 4.9078 13.9917 -4.6453 21.4813 9.7315
# 6 -18.5705 -12.1593 -1.1613 -14.9740 9.7315 48.0949
#
#
#
# Elastic Compliance Matrix: (Units=1/GPa)
#
#
# Indices 1 2 3 4 5 6 
#
# 1 0.024700 -0.006077 -0.002708 -0.005135 -0.002547 0.006852
# 2 -0.006077 0.012637 -0.005081 -0.003577 0.000209 -0.000430
# 3 -0.002708 -0.005081 0.027749 -0.009534 -0.018402 -0.000905
# 4 -0.005135 -0.003577 -0.009534 0.048386 0.013637 0.009188
# 5 -0.002547 0.000209 -0.018402 0.013637 0.066376 -0.010560
# 6 0.006852 -0.000430 -0.000905 0.009188 -0.010560 0.028305
#
#
# Mechanical properties :
#
#
# Convention : Reuss Voigt Hill
#
# Bulk Modulus (GPa) = 26.77150 48.12118 37.44634
# Shear Modulus (GPa) = 20.13400 29.47874 24.80637
#
# Velocity S-wave (km/s) = 3.05065 3.69132 3.38617
# Velocity P-wave (km/s) = 4.97826 6.35694 5.70937
#
# Compressibility (1/GPa) = 0.03735316
#
# Stress axis : x y z
#
# Youngs Moduli (GPa) = 40.48602 79.13145 36.03764
#
# Poissons Ratio (x) = 0.48091 0.09758
# Poissons Ratio (y) = 0.24605 0.18311
# Poissons Ratio (z) = 0.10963 0.40208
#
# Static dielectric constant tensor:
#      x y z
#    x 1.812890 -0.005010 -0.012880 
#    y -0.005010 1.859970 0.028510 
#    z -0.012880 0.028510 1.769900 
# 
# From -- ./inp_files/336532.got.cif
#   From: 2010.05.17/outbox.cif.g08.bks.cpg/sg2_169_cif.got.tgz:336532.got - 2010.06.03 11:33:40.
