data_PCOD9014580
_publ_section_title
;
Structure prediction by ZEFSAII (Michael W. Deem and Ramdas Pophale) SiO2 
 PCOD9014580
Probable space group: P -1
;
_chemical_formula_sum "Si O2"
_cell_formula_units_Z 16
_cell_length_a 18.287602
_cell_length_b 6.864495
_cell_length_c 7.532403
_cell_angle_alpha 58.946784
_cell_angle_beta 111.886365
_cell_angle_gamma 121.209286
_cell_volume 685.619079
_symmetry_space_group_name_H-M "P -1"
_symmetry_group_IT_number 2
_symmetry_cell_setting 'triclinic'
loop_
_space_group_symop_operation_xyz
x,y,z
-x,-y,-z
loop_
_atom_site_type_symbol
_atom_site_label
_atom_site_fract_x
_atom_site_fract_y
_atom_site_fract_z
Si Si1 0.711674 0.645548 0.020965
Si Si2 0.665775 0.729354 0.337031
Si Si3 0.592909 0.187501 0.563905
Si Si4 0.398469 0.874979 0.997164
Si Si5 0.766060 0.193226 0.657730
Si Si6 0.925979 0.132184 0.764820
Si Si7 0.897796 0.781777 0.221106
Si Si8 0.157819 0.276470 0.398714
O O1 0.644465 0.409619 0.969286
O O2 0.735631 0.907130 0.821076
O O3 0.677350 0.684674 0.161255
O O4 0.800731 0.612606 0.148377
O O5 0.595584 0.462652 0.461271
O O6 0.755964 0.774724 0.488646
O O7 0.641357 0.960277 0.220787
O O8 0.613206 0.107067 0.811722
O O9 0.676715 0.212030 0.511108
O O10 0.500000 0.000000 0.500000
O O11 0.500000 0.000000 0.000000
O O12 0.805859 0.423638 0.725617
O O13 0.854395 0.239180 0.609970
O O14 0.899571 0.884971 0.735246
O O15 0.918389 0.038212 0.006580
O O16 0.025146 0.293644 0.730857
O O17 0.889698 0.801807 0.416461
#
# Coordination Sequence:
#
# PCOD9014580 Si02
#       8
#     2   2   2   2   2   2   2   2
#     4  10  22  44  67  90 139 174 224 280 339 408
#     4  10  24  44  65  97 131 175 224 280 338 403
#     4  11  25  44  69  97 137 170 224 289 335 410
#     4  12  27  44  70  99 129 181 227 274 354 413
#     4  10  23  40  67  97 133 182 225 282 340 402
#     4  10  21  41  68  92 143 182 230 285 341 403
#     4   9  21  40  63 102 133 182 233 284 335 407
#     4  10  22  41  67  99 137 183 234 275 344 408
#
# _framework density 23.336570999999999
#
# number of rings (size 3 to 8) (size 9 to 14) (size 15 to 20)
#    0.000    1.750    1.250    1.125    8.750    6.000 
#    0.000   10.625    0.000    0.000    0.000    0.000 
#    0.000    0.000    0.000    0.000    0.000    0.000 
#
# Total GULP energy -89362.748681 kJ/mol
# GULP energy per Si atom -5585.171793 kJ/mol
# Density = 2.328346 g / cm^3
# Si number density = 23.336571 Si / 1000 Ang^3
#
#
#
# Elastic Constant Matrix: (Units=GPa)
#
#
# Indices 1 2 3 4 5 6 
#
# 1 114.2544 43.5452 15.0304 -7.4630 0.2368 10.2390
# 2 43.5452 116.7060 44.3898 -2.5082 16.6369 8.1573
# 3 15.0304 44.3898 73.9781 -16.8206 -4.8009 -6.5627
# 4 -7.4630 -2.5082 -16.8206 37.5620 -4.6231 -0.4344
# 5 0.2368 16.6369 -4.8009 -4.6231 27.0290 -4.1673
# 6 10.2390 8.1573 -6.5627 -0.4344 -4.1673 24.5132
#
#
#
# Elastic Compliance Matrix: (Units=1/GPa)
#
#
# Indices 1 2 3 4 5 6 
#
# 1 0.010755 -0.004824 0.001399 0.002827 0.003314 -0.001899
# 2 -0.004824 0.018926 -0.014411 -0.008412 -0.017338 -0.011238
# 3 0.001399 -0.014411 0.027626 0.014137 0.018496 0.015002
# 4 0.002827 -0.008412 0.014137 0.034893 0.014952 0.008563
# 5 0.003314 -0.017338 0.018496 0.014952 0.056443 0.019198
# 6 -0.001899 -0.011238 0.015002 0.008563 0.019198 0.052759
#
#
# Mechanical properties :
#
#
# Convention : Reuss Voigt Hill
#
# Bulk Modulus (GPa) = 46.22206 56.76325 51.49265
# Shear Modulus (GPa) = 20.46787 31.28573 25.87680
#
# Velocity S-wave (km/s) = 2.96475 3.66544 3.33356
# Velocity P-wave (km/s) = 5.61866 6.50311 6.07700
#
# Compressibility (1/GPa) = 0.02163469
#
# Stress axis : x y z
#
# Youngs Moduli (GPa) = 92.98151 52.83709 36.19771
#
# Poissons Ratio (x) = 0.25488 -0.05063
# Poissons Ratio (y) = 0.44853 0.52165
# Poissons Ratio (z) = -0.13006 0.76144
#
# Static dielectric constant tensor:
#      x y z
#    x 1.959090 -0.011170 -0.056300 
#    y -0.011170 1.840100 -0.016930 
#    z -0.056300 -0.016930 1.978500 
# 
# From -- ./inp_files/323340.got.cif
#   From: 2010.05.17/outbox.cif.g08.bks.cpg/sg2_162_cif.got.tgz:323340.got - 2010.06.03 11:33:40.
