data_PCOD9014526
_publ_section_title
;
Structure prediction by ZEFSAII (Michael W. Deem and Ramdas Pophale) SiO2 
 PCOD9014526
Probable space group: P -1
;
_chemical_formula_sum "Si O2"
_cell_formula_units_Z 15
_cell_length_a 16.565633
_cell_length_b 13.611759
_cell_length_c 15.786573
_cell_angle_alpha 145.620900
_cell_angle_beta 18.064313
_cell_angle_gamma 145.530540
_cell_volume 606.971312
_symmetry_space_group_name_H-M "P -1"
_symmetry_group_IT_number 2
_symmetry_cell_setting 'triclinic'
loop_
_space_group_symop_operation_xyz
x,y,z
-x,-y,-z
loop_
_atom_site_type_symbol
_atom_site_label
_atom_site_fract_x
_atom_site_fract_y
_atom_site_fract_z
Si Si1 0.964236 0.833241 0.225748
Si Si2 0.385195 0.104359 0.918457
Si Si3 0.419115 0.613990 0.584027
Si Si4 0.702271 0.220617 0.847968
Si Si5 0.207044 0.384074 0.034969
Si Si6 0.382078 0.852026 0.582017
Si Si7 0.500000 0.500000 0.000000
Si Si8 0.790076 0.755731 0.536329
O O1 0.866134 0.819474 0.410585
O O2 0.465616 0.189289 0.130775
O O3 0.199087 0.722435 0.907139
O O4 0.098121 0.025324 0.191027
O O5 0.587147 0.114248 0.802813
O O6 0.425141 0.300860 0.979286
O O7 0.705861 0.735787 0.360728
O O8 0.401244 0.962018 0.728066
O O9 0.500000 0.500000 0.500000
O O10 0.282606 0.460780 0.546754
O O11 0.773724 0.428525 0.897438
O O12 0.959147 0.183933 0.610775
O O13 0.919844 0.251239 0.212338
O O14 0.436522 0.290845 0.706310
O O15 0.276059 0.426241 0.095111
O O16 0.500000 0.000000 0.500000
#
# Coordination Sequence:
#
# PCOD9014526 Si02
#       8
#     2   2   2   2   2   2   1   2
#     4  11  24  42  71 108 145 193 242 301 350 430
#     4  11  28  48  75 109 149 190 248 305 366 430
#     4  10  21  41  68 104 145 186 240 298 359 412
#     4  11  26  45  70 108 148 201 231 295 361 433
#     4  11  26  48  76 108 143 190 240 300 366 440
#     4  12  26  49  77 107 139 189 244 310 364 426
#     4  10  24  56  74 104 150 188 240 306 378 434
#     4  11  22  43  71 103 153 194 241 284 364 430
#
# _framework density 24.712865000000001
#
# number of rings (size 3 to 8) (size 9 to 14) (size 15 to 20)
#    0.000    1.067    1.333    5.200    5.600    3.733 
#    2.400    0.000    0.000    0.000    0.000    0.000 
#    0.000    0.000    0.000    0.000    0.000    0.000 
#
# Total GULP energy -83848.841138 kJ/mol
# GULP energy per Si atom -5589.922743 kJ/mol
# Density = 2.465662 g / cm^3
# Si number density = 24.712865 Si / 1000 Ang^3
#
#
#
# Elastic Constant Matrix: (Units=GPa)
#
#
# Indices 1 2 3 4 5 6 
#
# 1 128.2544 73.3639 36.0322 -14.6227 5.6381 18.2422
# 2 73.3639 195.9928 70.9994 -20.8656 -8.9483 32.5966
# 3 36.0322 70.9994 109.0310 -25.1225 -3.2070 16.9835
# 4 -14.6227 -20.8656 -25.1225 37.3102 4.4162 -5.6917
# 5 5.6381 -8.9483 -3.2070 4.4162 27.3130 -1.7078
# 6 18.2422 32.5966 16.9835 -5.6917 -1.7078 52.1449
#
#
#
# Elastic Compliance Matrix: (Units=1/GPa)
#
#
# Indices 1 2 3 4 5 6 
#
# 1 0.010531 -0.003449 -0.000699 0.001992 -0.003783 -0.001207
# 2 -0.003449 0.008342 -0.003787 0.000020 0.002830 -0.002680
# 3 -0.000699 -0.003787 0.013551 0.006642 -0.000648 -0.001098
# 4 0.001992 0.000020 0.006642 0.032727 -0.004883 0.000540
# 5 -0.003783 0.002830 -0.000648 -0.004883 0.039066 0.000512
# 6 -0.001207 -0.002680 -0.001098 0.000540 0.000512 0.021708
#
#
# Mechanical properties :
#
#
# Convention : Reuss Voigt Hill
#
# Bulk Modulus (GPa) = 60.40555 88.22993 74.31774
# Shear Modulus (GPa) = 33.94122 40.21247 37.07685
#
# Velocity S-wave (km/s) = 3.70999 4.03822 3.87758
# Velocity P-wave (km/s) = 6.54584 7.58436 7.08416
#
# Compressibility (1/GPa) = 0.01655477
#
# Stress axis : x y z
#
# Youngs Moduli (GPa) = 94.95574 119.87297 73.79390
#
# Poissons Ratio (x) = 0.41342 0.05157
# Poissons Ratio (y) = 0.32748 0.27948
# Poissons Ratio (z) = 0.06636 0.45400
#
# Static dielectric constant tensor:
#      x y z
#    x 1.974400 0.018580 0.025950 
#    y 0.018580 1.985010 0.034720 
#    z 0.025950 0.034720 1.947590 
# 
# From -- ./inp_files/576124.got.cif
#   From: 2010.05.17/outbox.cif.g08.bks.cpg/sg2_289_cif.got.tgz:576124.got - 2010.06.03 11:33:40.
