data_PCOD9014004
_publ_section_title
;
Structure prediction by ZEFSAII (Michael W. Deem and Ramdas Pophale) SiO2 
 PCOD9014004
Probable space group: P -1
;
_chemical_formula_sum "Si O2"
_cell_formula_units_Z 16
_cell_length_a 10.682024
_cell_length_b 12.316171
_cell_length_c 6.551843
_cell_angle_alpha 54.772466
_cell_angle_beta 90.362979
_cell_angle_gamma 81.866711
_cell_volume 692.900071
_symmetry_space_group_name_H-M "P -1"
_symmetry_group_IT_number 2
_symmetry_cell_setting 'triclinic'
loop_
_space_group_symop_operation_xyz
x,y,z
-x,-y,-z
loop_
_atom_site_type_symbol
_atom_site_label
_atom_site_fract_x
_atom_site_fract_y
_atom_site_fract_z
Si Si1 0.776980 0.361395 0.375059
Si Si2 0.308281 0.963034 0.051863
Si Si3 0.546386 0.904359 0.412976
Si Si4 0.164677 0.210514 0.012848
Si Si5 0.138031 0.414276 0.128910
Si Si6 0.071714 0.844674 0.163683
Si Si7 0.502100 0.628587 0.717470
Si Si8 0.722244 0.579732 0.468076
O O1 0.782328 0.481358 0.086815
O O2 0.897299 0.241412 0.533051
O O3 0.646228 0.312673 0.380352
O O4 0.763598 0.439631 0.505326
O O5 0.440603 0.908320 0.227144
O O6 0.216106 0.861207 0.087236
O O7 0.339364 0.047730 0.762021
O O8 0.230619 0.059577 0.119954
O O9 0.567624 0.751576 0.663804
O O10 0.500000 0.000000 0.500000
O O11 0.149971 0.270755 0.173252
O O12 0.258860 0.300715 0.812544
O O13 0.022613 0.227524 0.895202
O O14 0.179180 0.403900 0.371544
O O15 0.000000 0.500000 0.000000
O O16 0.000000 0.000000 0.000000
O O17 0.583661 0.587998 0.557197
O O18 0.500000 0.500000 0.000000
#
# Coordination Sequence:
#
# PCOD9014004 Si02
#       8
#     2   2   2   2   2   2   2   2
#     4  11  23  42  65  94 133 172 220 276 332 397
#     4  10  22  43  67  93 129 177 216 273 329 400
#     4  11  25  43  68  97 136 173 221 274 341 395
#     4  10  22  40  67  92 131 172 220 269 330 398
#     4  11  23  40  63  97 133 173 218 274 335 392
#     4  10  21  41  66  94 124 173 226 268 324 393
#     4  12  24  44  68 102 135 176 223 279 337 407
#     4  11  23  40  66  95 134 172 216 274 340 397
#
# _framework density 23.091352000000001
#
# number of rings (size 3 to 8) (size 9 to 14) (size 15 to 20)
#    0.000    1.250    3.750    1.875    1.750    3.000 
#    2.250    0.000    0.000    8.250    0.000    0.000 
#    0.000    0.000    0.000    0.000    0.000    0.000 
#
# Total GULP energy -89247.344230 kJ/mol
# GULP energy per Si atom -5577.959014 kJ/mol
# Density = 2.303879 g / cm^3
# Si number density = 23.091352 Si / 1000 Ang^3
#
#
#
# Elastic Constant Matrix: (Units=GPa)
#
#
# Indices 1 2 3 4 5 6 
#
# 1 88.4607 -22.9180 2.7707 -6.5351 -10.5404 15.7546
# 2 -22.9180 67.7071 21.3746 -10.2546 -17.1400 3.1352
# 3 2.7707 21.3746 61.9062 -12.5050 -8.1326 12.0014
# 4 -6.5351 -10.2546 -12.5050 34.6353 0.1387 -4.5482
# 5 -10.5404 -17.1400 -8.1326 0.1387 40.4830 -9.9735
# 6 15.7546 3.1352 12.0014 -4.5482 -9.9735 32.1006
#
#
#
# Elastic Compliance Matrix: (Units=1/GPa)
#
#
# Indices 1 2 3 4 5 6 
#
# 1 0.015331 0.007745 -0.000666 0.004179 0.005728 -0.005660
# 2 0.007745 0.022760 -0.005618 0.006159 0.010560 0.000230
# 3 -0.000666 -0.005618 0.020248 0.004731 0.000016 -0.006019
# 4 0.004179 0.006159 0.004731 0.033417 0.004991 0.001864
# 5 0.005728 0.010560 0.000016 0.004991 0.032353 0.006910
# 6 -0.005660 0.000230 -0.006019 0.001864 0.006910 0.038569
#
#
# Mechanical properties :
#
#
# Convention : Reuss Voigt Hill
#
# Bulk Modulus (GPa) = 16.32402 24.50317 20.41360
# Shear Modulus (GPa) = 27.75050 35.90023 31.82537
#
# Velocity S-wave (km/s) = 3.47042 3.94725 3.71649
# Velocity P-wave (km/s) = 4.81072 5.60436 5.22264
#
# Compressibility (1/GPa) = 0.06125942
#
# Stress axis : x y z
#
# Youngs Moduli (GPa) = 65.22694 43.93645 49.38826
#
# Poissons Ratio (x) = -0.34028 0.03291
# Poissons Ratio (y) = -0.50517 0.27748
# Poissons Ratio (z) = 0.04347 0.24685
#
# Static dielectric constant tensor:
#      x y z
#    x 2.515020 0.282950 -0.175610 
#    y 0.282950 2.059260 -0.142240 
#    z -0.175610 -0.142240 1.967740 
# 
# From -- ./inp_files/68447.got.cif
#   From: 2010.05.17/outbox.cif.g08.bks.cpg/sg2_35_cif.got.tgz:68447.got - 2010.06.03 11:33:40.
