data_PCOD9014245
_publ_section_title
;
Structure prediction by ZEFSAII (Michael W. Deem and Ramdas Pophale) SiO2 
 PCOD9014245
Probable space group: P -1
;
_chemical_formula_sum "Si O2"
_cell_formula_units_Z 14
_cell_length_a 10.853241
_cell_length_b 11.651568
_cell_length_c 6.046963
_cell_angle_alpha 61.899279
_cell_angle_beta 57.606853
_cell_angle_gamma 77.287530
_cell_volume 569.043084
_symmetry_space_group_name_H-M "P -1"
_symmetry_group_IT_number 2
_symmetry_cell_setting 'triclinic'
loop_
_space_group_symop_operation_xyz
x,y,z
-x,-y,-z
loop_
_atom_site_type_symbol
_atom_site_label
_atom_site_fract_x
_atom_site_fract_y
_atom_site_fract_z
Si Si1 0.436875 0.594249 0.661235
Si Si2 0.431234 0.135387 0.681304
Si Si3 0.694515 0.986997 0.680761
Si Si4 0.811139 0.257119 0.501465
Si Si5 0.780137 0.441855 0.733704
Si Si6 0.872086 0.891161 0.236372
Si Si7 0.965604 0.635103 0.140749
O O1 0.500000 0.500000 0.500000
O O2 0.546245 0.712382 0.525811
O O3 0.310673 0.673041 0.589073
O O4 0.361109 0.532208 0.009115
O O5 0.579606 0.059643 0.566149
O O6 0.276809 0.086548 0.774655
O O7 0.406680 0.109935 0.988102
O O8 0.781103 0.104693 0.619497
O O9 0.812137 0.899014 0.534066
O O10 0.780944 0.301230 0.740609
O O11 0.967457 0.312858 0.203065
O O12 0.823953 0.539667 0.401573
O O13 0.906909 0.442711 0.794359
O O14 0.933798 0.759644 0.205958
O O15 0.000000 0.000000 0.000000
#
# Coordination Sequence:
#
# PCOD9014245 Si02
#       7
#     2   2   2   2   2   2   2
#     4  10  24  42  63  98 127 165 226 271 314 389
#     4  10  25  43  66  93 135 174 213 272 324 388
#     4  10  23  44  66  97 128 179 215 263 331 387
#     4  10  21  41  67  89 130 170 217 267 326 386
#     4  10  23  42  68  88 132 176 211 268 329 383
#     4  12  25  41  68  99 135 165 221 274 324 387
#     4  10  23  42  61 100 126 172 217 267 326 387
#
# _framework density 24.602706999999999
#
# number of rings (size 3 to 8) (size 9 to 14) (size 15 to 20)
#    0.000    1.714    1.429    0.857    6.000    5.714 
#    0.000    0.000    0.000    0.000    0.000    0.000 
#    0.000    0.000    0.000    0.000    0.000    0.000 
#
# Total GULP energy -78172.890761 kJ/mol
# GULP energy per Si atom -5583.777912 kJ/mol
# Density = 2.454671 g / cm^3
# Si number density = 24.602707 Si / 1000 Ang^3
#
#
#
# Elastic Constant Matrix: (Units=GPa)
#
#
# Indices 1 2 3 4 5 6 
#
# 1 79.6532 11.4348 13.7404 -8.4463 -20.1774 6.3864
# 2 11.4348 107.6779 60.6645 19.2153 -17.2642 0.1991
# 3 13.7404 60.6645 145.8426 18.1273 -33.0636 -3.5909
# 4 -8.4463 19.2153 18.1273 42.5897 -2.8096 -6.1055
# 5 -20.1774 -17.2642 -33.0636 -2.8096 21.3239 2.0142
# 6 6.3864 0.1991 -3.5909 -6.1055 2.0142 33.9606
#
#
#
# Elastic Compliance Matrix: (Units=1/GPa)
#
#
# Indices 1 2 3 4 5 6 
#
# 1 0.018559 -0.000754 0.003167 0.003619 0.022702 -0.003847
# 2 -0.000754 0.012926 -0.004167 -0.004206 0.002860 -0.001300
# 3 0.003167 -0.004167 0.012913 -0.001802 0.019474 -0.000685
# 4 0.003619 -0.004206 -0.001802 0.027475 0.000462 0.004066
# 5 0.022702 0.002860 0.019474 0.000462 0.101721 -0.008177
# 6 -0.003847 -0.001300 -0.000685 0.004066 -0.008177 0.031320
#
#
# Mechanical properties :
#
#
# Convention : Reuss Voigt Hill
#
# Bulk Modulus (GPa) = 24.45477 56.09479 40.27478
# Shear Modulus (GPa) = 22.51726 36.06378 29.29052
#
# Velocity S-wave (km/s) = 3.02857 3.83279 3.45416
# Velocity P-wave (km/s) = 4.71074 6.51435 5.68453
#
# Compressibility (1/GPa) = 0.04089182
#
# Stress axis : x y z
#
# Youngs Moduli (GPa) = 53.88134 77.36440 77.43935
#
# Poissons Ratio (x) = 0.05835 -0.24528
# Poissons Ratio (y) = 0.04064 0.32265
# Poissons Ratio (z) = -0.17066 0.32234
#
# Static dielectric constant tensor:
#      x y z
#    x 2.066190 -0.018960 -0.030770 
#    y -0.018960 1.987960 0.027150 
#    z -0.030770 0.027150 2.015360 
# 
# From -- ./inp_files/68136.got.cif
#   From: 2010.05.17/outbox.cif.g08.bks.cpg/sg2_35_cif.got.tgz:68136.got - 2010.06.03 11:33:40.
