data_PCOD9014536
_publ_section_title
;
Structure prediction by ZEFSAII (Michael W. Deem and Ramdas Pophale) SiO2 
 PCOD9014536
Probable space group: P -1
;
_chemical_formula_sum "Si O2"
_cell_formula_units_Z 14
_cell_length_a 10.498449
_cell_length_b 18.893205
_cell_length_c 5.505007
_cell_angle_alpha 114.846485
_cell_angle_beta 113.434328
_cell_angle_gamma 30.566076
_cell_volume 502.348457
_symmetry_space_group_name_H-M "P -1"
_symmetry_group_IT_number 2
_symmetry_cell_setting 'triclinic'
loop_
_space_group_symop_operation_xyz
x,y,z
-x,-y,-z
loop_
_atom_site_type_symbol
_atom_site_label
_atom_site_fract_x
_atom_site_fract_y
_atom_site_fract_z
Si Si1 0.586551 0.417477 0.698995
Si Si2 0.907043 0.655473 0.994404
Si Si3 0.113457 0.064905 0.015713
Si Si4 0.275276 0.860156 0.201170
Si Si5 0.639777 0.614249 0.767974
Si Si6 0.140825 0.168560 0.569879
Si Si7 0.459444 0.134194 0.333407
O O1 0.500000 0.500000 0.500000
O O2 0.443324 0.401305 0.539052
O O3 0.891942 0.270548 0.693992
O O4 0.500000 0.500000 0.000000
O O5 0.787081 0.625628 0.845842
O O6 0.821870 0.736467 0.797610
O O7 0.809265 0.762215 0.280669
O O8 0.189540 0.511014 0.086459
O O9 0.067080 0.169420 0.252590
O O10 0.136677 0.998184 0.172402
O O11 0.911273 0.112445 0.770821
O O12 0.372979 0.942465 0.896564
O O13 0.490700 0.804064 0.426712
O O14 0.392480 0.754498 0.924380
O O15 0.388366 0.006396 0.618748
#
# Coordination Sequence:
#
# PCOD9014536 Si02
#       7
#     2   2   2   2   2   2   2
#     4  12  28  53  81 116 152 200 262 319 383 455
#     4  11  25  47  67 107 152 198 250 303 391 459
#     4  10  21  41  70 101 146 183 249 310 374 437
#     4  10  21  41  68 107 139 187 250 307 376 437
#     4  11  24  48  76 104 149 198 247 319 378 460
#     4  11  25  46  73 106 146 196 253 316 377 451
#     4  11  24  41  70 106 146 199 244 314 377 463
#
# _framework density 27.8691
#
# number of rings (size 3 to 8) (size 9 to 14) (size 15 to 20)
#    0.000    1.143    4.286    0.857    2.000    3.429 
#    7.714    0.000    0.000    0.000    0.000    0.000 
#    0.000    0.000    0.000    0.000    0.000    0.000 
#
# Total GULP energy -78372.117807 kJ/mol
# GULP energy per Si atom -5598.008415 kJ/mol
# Density = 2.780567 g / cm^3
# Si number density = 27.869100 Si / 1000 Ang^3
#
#
#
# Elastic Constant Matrix: (Units=GPa)
#
#
# Indices 1 2 3 4 5 6 
#
# 1 125.6444 40.5787 56.7739 -7.8904 30.3487 17.1809
# 2 40.5787 152.6907 54.2007 -20.4460 4.4370 3.1836
# 3 56.7739 54.2007 200.4526 14.7279 41.2607 12.1603
# 4 -7.8904 -20.4460 14.7279 50.0050 3.0887 3.5073
# 5 30.3487 4.4370 41.2607 3.0887 55.5056 0.7715
# 6 17.1809 3.1836 12.1603 3.5073 0.7715 36.4049
#
#
#
# Elastic Compliance Matrix: (Units=1/GPa)
#
#
# Indices 1 2 3 4 5 6 
#
# 1 0.011226 -0.001929 -0.001513 0.002062 -0.004908 -0.004719
# 2 -0.001929 0.008341 -0.002420 0.003655 0.001975 0.000595
# 3 -0.001513 -0.002420 0.007217 -0.003019 -0.004161 -0.001106
# 4 0.002062 0.003655 -0.003019 0.022907 -0.000416 -0.002482
# 5 -0.004908 0.001975 -0.004161 -0.000416 0.023615 0.003073
# 6 -0.004719 0.000595 -0.001106 -0.002482 0.003073 0.030187
#
#
# Mechanical properties :
#
#
# Convention : Reuss Voigt Hill
#
# Bulk Modulus (GPa) = 66.40457 86.87713 76.64085
# Shear Modulus (GPa) = 41.58464 50.19875 45.89170
#
# Velocity S-wave (km/s) = 3.86702 4.24870 4.06234
# Velocity P-wave (km/s) = 6.61948 7.43704 7.04013
#
# Compressibility (1/GPa) = 0.01505921
#
# Stress axis : x y z
#
# Youngs Moduli (GPa) = 89.07926 119.89644 138.56328
#
# Poissons Ratio (x) = 0.23131 0.20962
# Poissons Ratio (y) = 0.17185 0.33533
# Poissons Ratio (z) = 0.13476 0.29016
#
# Static dielectric constant tensor:
#      x y z
#    x 2.319520 -0.011130 0.032330 
#    y -0.011130 2.172010 -0.070310 
#    z 0.032330 -0.070310 2.212940 
# 
# From -- ./inp_files/83468.got.cif
#   From: 2010.05.17/outbox.cif.g08.bks.cpg/sg2_42_cif.got.tgz:83468.got - 2010.06.03 11:33:40.
