data_PCOD9014992
_publ_section_title
;
Structure prediction by ZEFSAII (Michael W. Deem and Ramdas Pophale) SiO2 
 PCOD9014992
Probable space group: P -1
;
_chemical_formula_sum "Si O2"
_cell_formula_units_Z 16
_cell_length_a 13.272372
_cell_length_b 8.873991
_cell_length_c 14.609250
_cell_angle_alpha 43.359095
_cell_angle_beta 128.610935
_cell_angle_gamma 96.070940
_cell_volume 702.628214
_symmetry_space_group_name_H-M "P -1"
_symmetry_group_IT_number 2
_symmetry_cell_setting 'triclinic'
loop_
_space_group_symop_operation_xyz
x,y,z
-x,-y,-z
loop_
_atom_site_type_symbol
_atom_site_label
_atom_site_fract_x
_atom_site_fract_y
_atom_site_fract_z
Si Si1 0.810360 0.839132 0.797250
Si Si2 0.691037 0.712982 0.247699
Si Si3 0.164660 0.468648 0.222894
Si Si4 0.936696 0.465030 0.654077
Si Si5 0.848067 0.326464 0.143944
Si Si6 0.220827 0.943547 0.935259
Si Si7 0.480680 0.447530 0.409055
Si Si8 0.144625 0.691381 0.644169
O O1 0.795810 0.782263 0.708858
O O2 0.652336 0.154269 0.599390
O O3 0.823732 0.599789 0.971612
O O4 0.991364 0.752288 0.954068
O O5 0.771952 0.578670 0.451342
O O6 0.736050 0.485802 0.296369
O O7 0.798005 0.810943 0.237959
O O8 0.500000 0.000000 0.000000
O O9 0.118403 0.480525 0.296104
O O10 0.326530 0.444430 0.318382
O O11 0.019313 0.616351 0.617116
O O12 0.083334 0.129706 0.856003
O O13 0.792414 0.230403 0.071853
O O14 0.763022 0.396341 0.165771
O O15 0.033921 0.027328 0.408355
O O16 0.405771 0.723332 0.182672
O O17 0.500000 0.500000 0.500000
#
# Coordination Sequence:
#
# PCOD9014992 Si02
#       8
#     2   2   2   2   2   2   2   2
#     4  11  25  48  68  99 140 177 227 282 334 401
#     4  11  24  43  62  99 133 170 218 279 331 397
#     4  11  25  45  70  99 134 183 225 272 339 400
#     4  11  21  43  68  95 133 174 220 273 326 403
#     4  11  20  41  72  94 124 175 222 270 338 398
#     4  11  23  44  68  93 131 179 223 273 336 392
#     4  12  28  46  69 100 136 180 228 282 336 396
#     4  10  21  41  70  95 126 171 220 270 336 392
#
# _framework density 22.771643000000001
#
# number of rings (size 3 to 8) (size 9 to 14) (size 15 to 20)
#    0.000    1.000    5.000    1.875    3.500    2.000 
#    4.500    0.625    0.000    0.000    0.000    0.000 
#    0.000    0.000    0.000    0.000    0.000    0.000 
#
# Total GULP energy -89384.491291 kJ/mol
# GULP energy per Si atom -5586.530706 kJ/mol
# Density = 2.271981 g / cm^3
# Si number density = 22.771643 Si / 1000 Ang^3
#
#
#
# Elastic Constant Matrix: (Units=GPa)
#
#
# Indices 1 2 3 4 5 6 
#
# 1 43.3782 40.4621 14.6760 5.9079 4.8322 -15.8911
# 2 40.4621 169.6756 81.0675 11.8433 6.0736 -45.5984
# 3 14.6760 81.0675 121.4685 -1.3555 14.9973 -25.5588
# 4 5.9079 11.8433 -1.3555 42.3601 -6.9931 -9.4729
# 5 4.8322 6.0736 14.9973 -6.9931 45.5395 -0.7048
# 6 -15.8911 -45.5984 -25.5588 -9.4729 -0.7048 46.1098
#
#
#
# Elastic Compliance Matrix: (Units=1/GPa)
#
#
# Indices 1 2 3 4 5 6 
#
# 1 0.031154 -0.007037 0.002297 -0.001819 -0.003331 0.004626
# 2 -0.007037 0.012154 -0.006149 -0.001100 0.001074 0.005976
# 3 0.002297 -0.006149 0.012960 0.001746 -0.003389 0.002202
# 4 -0.001819 -0.001100 0.001746 0.025889 0.003812 0.004631
# 5 -0.003331 0.001074 -0.003389 0.003812 0.023858 -0.000817
# 6 0.004626 0.005976 0.002202 0.004631 -0.000817 0.031351
#
#
# Mechanical properties :
#
#
# Convention : Reuss Voigt Hill
#
# Bulk Modulus (GPa) = 28.99416 67.43705 48.21561
# Shear Modulus (GPa) = 29.30166 40.02298 34.66232
#
# Velocity S-wave (km/s) = 3.59104 4.19690 3.90573
# Velocity P-wave (km/s) = 5.47305 7.29137 6.44664
#
# Compressibility (1/GPa) = 0.03448970
#
# Stress axis : x y z
#
# Youngs Moduli (GPa) = 32.09903 82.28013 77.16140
#
# Poissons Ratio (x) = 0.57901 -0.17723
# Poissons Ratio (y) = 0.22588 0.47443
# Poissons Ratio (z) = -0.07373 0.50590
#
# Static dielectric constant tensor:
#      x y z
#    x 1.978610 0.027210 -0.051430 
#    y 0.027210 1.862990 0.001780 
#    z -0.051430 0.001780 1.820760 
# 
# From -- ./inp_files/528176.got.cif
#   From: 2010.05.17/outbox.cif.g08.bks.cpg/sg2_265_cif.got.tgz:528176.got - 2010.06.03 11:33:40.
