data_PCOD9014845
_publ_section_title
;
Structure prediction by ZEFSAII (Michael W. Deem and Ramdas Pophale) SiO2 
 PCOD9014845
Probable space group: P -1
;
_chemical_formula_sum "Si O2"
_cell_formula_units_Z 16
_cell_length_a 8.051514
_cell_length_b 11.132935
_cell_length_c 8.882372
_cell_angle_alpha 106.390247
_cell_angle_beta 116.578844
_cell_angle_gamma 66.241385
_cell_volume 646.630560
_symmetry_space_group_name_H-M "P -1"
_symmetry_group_IT_number 2
_symmetry_cell_setting 'triclinic'
loop_
_space_group_symop_operation_xyz
x,y,z
-x,-y,-z
loop_
_atom_site_type_symbol
_atom_site_label
_atom_site_fract_x
_atom_site_fract_y
_atom_site_fract_z
Si Si1 0.199411 0.659731 0.497622
Si Si2 0.862510 0.553285 0.820328
Si Si3 0.636860 0.836175 0.831198
Si Si4 0.535019 0.289679 0.869782
Si Si5 0.422792 0.833931 0.482153
Si Si6 0.930280 0.917949 0.571525
Si Si7 0.223362 0.555475 0.804696
Si Si8 0.731738 0.054886 0.086913
O O1 0.206412 0.555847 0.331955
O O2 0.329664 0.748368 0.526139
O O3 0.260992 0.588399 0.658848
O O4 0.985018 0.769001 0.479418
O O5 0.694687 0.684875 0.851694
O O6 0.995754 0.594880 0.764916
O O7 0.000000 0.500000 0.000000
O O8 0.621417 0.831167 0.644195
O O9 0.419925 0.925861 0.829177
O O10 0.778636 0.909535 0.984521
O O11 0.561462 0.238769 0.693753
O O12 0.322574 0.400469 0.826513
O O13 0.679392 0.367695 0.013893
O O14 0.599056 0.160324 0.953336
O O15 0.286486 0.984498 0.458010
O O16 0.075173 0.914713 0.769939
O O17 0.000000 0.000000 0.500000
#
# Coordination Sequence:
#
# PCOD9014845 Si02
#       8
#     2   2   2   2   2   2   2   2
#     4  11  23  44  68  93 133 179 219 266 330 396
#     4  12  27  41  66 100 133 175 219 276 330 392
#     4  11  25  43  67  98 135 171 224 267 328 393
#     4  11  24  42  68  97 133 172 223 273 328 391
#     4  11  24  42  69 101 128 177 224 272 322 396
#     4  10  21  41  69  96 128 175 220 263 331 384
#     4  11  24  44  64  96 136 176 218 270 336 391
#     4  11  23  44  69  98 135 173 216 279 325 391
#
# _framework density 24.743648
#
# number of rings (size 3 to 8) (size 9 to 14) (size 15 to 20)
#    0.000    1.000    3.750    2.625    5.250    7.000 
#    0.000    0.000    0.000    0.000    0.000    0.000 
#    0.000    0.000    0.000    0.000    0.000    0.000 
#
# Total GULP energy -89526.560838 kJ/mol
# GULP energy per Si atom -5595.410052 kJ/mol
# Density = 2.468733 g / cm^3
# Si number density = 24.743648 Si / 1000 Ang^3
#
#
#
# Elastic Constant Matrix: (Units=GPa)
#
#
# Indices 1 2 3 4 5 6 
#
# 1 34.8344 9.5579 3.5748 -9.7046 -6.0130 6.0841
# 2 9.5579 161.3244 72.0477 11.3477 4.4830 -15.2149
# 3 3.5748 72.0477 153.1332 6.9334 -14.0939 3.8960
# 4 -9.7046 11.3477 6.9334 49.5824 7.2387 1.9273
# 5 -6.0130 4.4830 -14.0939 7.2387 31.3624 -6.8096
# 6 6.0841 -15.2149 3.8960 1.9273 -6.8096 35.5246
#
#
#
# Elastic Compliance Matrix: (Units=1/GPa)
#
#
# Indices 1 2 3 4 5 6 
#
# 1 0.033546 -0.003842 0.001301 0.006889 0.004444 -0.007055
# 2 -0.003842 0.009057 -0.004433 -0.002013 -0.002551 0.004643
# 3 0.001301 -0.004433 0.009094 -0.000593 0.004629 -0.002199
# 4 0.006889 -0.002013 -0.000593 0.022930 -0.004852 -0.004151
# 5 0.004444 -0.002551 0.004629 -0.004852 0.037403 0.005072
# 6 -0.007055 0.004643 -0.002199 -0.004151 0.005072 0.032785
#
#
# Mechanical properties :
#
#
# Convention : Reuss Voigt Hill
#
# Bulk Modulus (GPa) = 26.49046 57.73919 42.11482
# Shear Modulus (GPa) = 29.18055 40.90133 35.04094
#
# Velocity S-wave (km/s) = 3.43784 4.07012 3.76727
# Velocity P-wave (km/s) = 5.14660 6.74340 5.99838
#
# Compressibility (1/GPa) = 0.03774944
#
# Stress axis : x y z
#
# Youngs Moduli (GPa) = 29.80942 110.41763 109.95683
#
# Poissons Ratio (x) = 0.42423 -0.14307
# Poissons Ratio (y) = 0.11453 0.48745
# Poissons Ratio (z) = -0.03879 0.48949
#
# Static dielectric constant tensor:
#      x y z
#    x 2.038260 -0.006720 -0.025280 
#    y -0.006720 1.962600 0.001620 
#    z -0.025280 0.001620 1.944510 
# 
# From -- ./inp_files/189557.got.cif
#   From: 2010.05.17/outbox.cif.g08.bks.cpg/sg2_95_cif.got.tgz:189557.got - 2010.06.03 11:33:40.
