data_PCOD9014961
_publ_section_title
;
Structure prediction by ZEFSAII (Michael W. Deem and Ramdas Pophale) SiO2 
 PCOD9014961
Probable space group: P -1
;
_chemical_formula_sum "Si O2"
_cell_formula_units_Z 14
_cell_length_a 8.145245
_cell_length_b 17.128171
_cell_length_c 5.204889
_cell_angle_alpha 85.652725
_cell_angle_beta 77.636767
_cell_angle_gamma 61.816488
_cell_volume 624.944171
_symmetry_space_group_name_H-M "P -1"
_symmetry_group_IT_number 2
_symmetry_cell_setting 'triclinic'
loop_
_space_group_symop_operation_xyz
x,y,z
-x,-y,-z
loop_
_atom_site_type_symbol
_atom_site_label
_atom_site_fract_x
_atom_site_fract_y
_atom_site_fract_z
Si Si1 0.105310 0.895336 0.507940
Si Si2 0.691516 0.252419 0.884193
Si Si3 0.128222 0.204781 0.327837
Si Si4 0.963712 0.314381 0.877037
Si Si5 0.521789 0.796907 0.638678
Si Si6 0.688541 0.513382 0.892957
Si Si7 0.614095 0.628346 0.378809
O O1 0.161616 0.846046 0.225922
O O2 0.312438 0.859194 0.580568
O O3 0.966236 0.858866 0.678876
O O4 0.000000 0.000000 0.500000
O O5 0.784758 0.297247 0.017435
O O6 0.606939 0.316198 0.650079
O O7 0.522867 0.245746 0.086927
O O8 0.350093 0.157290 0.343492
O O9 0.024899 0.264867 0.595764
O O10 0.104271 0.266510 0.075659
O O11 0.876412 0.418796 0.849044
O O12 0.643786 0.711908 0.434888
O O13 0.705864 0.569408 0.111884
O O14 0.500000 0.500000 0.000000
O O15 0.658926 0.564648 0.622248
#
# Coordination Sequence:
#
# PCOD9014961 Si02
#       7
#     2   2   2   2   2   2   2
#     4  10  24  45  72 106 133 169 222 278 338 410
#     4  10  21  41  70  90 139 177 220 272 342 400
#     4  11  26  44  70  98 138 179 223 272 338 405
#     4  11  23  42  63 101 133 180 234 275 329 397
#     4  11  23  45  70  96 139 182 219 273 341 402
#     4  12  22  34  65  98 136 175 236 284 323 381
#     4  11  22  36  61  98 129 181 224 272 331 384
#
# _framework density 22.402000999999998
#
# number of rings (size 3 to 8) (size 9 to 14) (size 15 to 20)
#    0.000    1.143    4.286    1.286    8.000    1.143 
#    0.000    5.000    0.000    0.000    0.000    0.000 
#    0.000    0.000    0.000    0.000    0.000    0.000 
#
# Total GULP energy -78145.019612 kJ/mol
# GULP energy per Si atom -5581.787115 kJ/mol
# Density = 2.235101 g / cm^3
# Si number density = 22.402001 Si / 1000 Ang^3
#
#
#
# Elastic Constant Matrix: (Units=GPa)
#
#
# Indices 1 2 3 4 5 6 
#
# 1 116.2853 38.9615 15.1114 -19.8713 17.1331 -0.9826
# 2 38.9615 174.0666 59.6389 -17.0285 12.9967 5.2990
# 3 15.1114 59.6389 134.5971 -6.7209 5.9358 3.8574
# 4 -19.8713 -17.0285 -6.7209 26.0090 -3.2514 3.2208
# 5 17.1331 12.9967 5.9358 -3.2514 25.0508 -2.5382
# 6 -0.9826 5.2990 3.8574 3.2208 -2.5382 11.4771
#
#
#
# Elastic Compliance Matrix: (Units=1/GPa)
#
#
# Indices 1 2 3 4 5 6 
#
# 1 0.011147 -0.001276 -0.000003 0.007129 -0.006221 -0.001832
# 2 -0.001276 0.007658 -0.002848 0.003524 -0.002394 -0.004206
# 3 -0.000003 -0.002848 0.008808 0.000561 -0.000734 -0.001966
# 4 0.007129 0.003524 0.000561 0.047953 -0.002147 -0.015137
# 5 -0.006221 -0.002394 -0.000734 -0.002147 0.046497 0.011705
# 6 -0.001832 -0.004206 -0.001966 -0.015137 0.011705 0.096412
#
#
# Mechanical properties :
#
#
# Convention : Reuss Voigt Hill
#
# Bulk Modulus (GPa) = 51.65556 72.48585 62.07071
# Shear Modulus (GPa) = 21.44239 33.25653 27.34946
#
# Velocity S-wave (km/s) = 3.09716 3.85714 3.49786
# Velocity P-wave (km/s) = 5.99153 7.22938 6.63936
#
# Compressibility (1/GPa) = 0.01935900
#
# Stress axis : x y z
#
# Youngs Moduli (GPa) = 89.71056 130.58450 113.52725
#
# Poissons Ratio (x) = 0.16666 0.00036
# Poissons Ratio (y) = 0.11449 0.32330
# Poissons Ratio (z) = 0.00028 0.37187
#
# Static dielectric constant tensor:
#      x y z
#    x 1.950130 -0.024150 -0.012050 
#    y -0.024150 1.795490 0.024470 
#    z -0.012050 0.024470 1.870070 
# 
# From -- ./inp_files/47442.got.cif
#   From: 2010.05.17/outbox.cif.g08.bks.cpg/sg2_24_cif.got.tgz:47442.got - 2010.06.03 11:33:40.
