data_PCOD9014227
_publ_section_title
;
Structure prediction by ZEFSAII (Michael W. Deem and Ramdas Pophale) SiO2 
 PCOD9014227
Probable space group: P -1
;
_chemical_formula_sum "Si O2"
_cell_formula_units_Z 14
_cell_length_a 16.269474
_cell_length_b 7.857391
_cell_length_c 5.453818
_cell_angle_alpha 114.793485
_cell_angle_beta 116.506415
_cell_angle_gamma 65.043181
_cell_volume 542.229796
_symmetry_space_group_name_H-M "P -1"
_symmetry_group_IT_number 2
_symmetry_cell_setting 'triclinic'
loop_
_space_group_symop_operation_xyz
x,y,z
-x,-y,-z
loop_
_atom_site_type_symbol
_atom_site_label
_atom_site_fract_x
_atom_site_fract_y
_atom_site_fract_z
Si Si1 0.888061 0.030135 0.384239
Si Si2 0.404222 0.749314 0.904994
Si Si3 0.348315 0.081756 0.695881
Si Si4 0.824015 0.034980 0.806148
Si Si5 0.492416 0.239171 0.444185
Si Si6 0.104096 0.347141 0.073265
Si Si7 0.295490 0.434771 0.526427
O O1 0.851274 0.122020 0.648937
O O2 0.841659 0.136703 0.138810
O O3 0.872005 0.813149 0.212471
O O4 0.000000 0.000000 0.500000
O O5 0.474076 0.683256 0.719657
O O6 0.327968 0.627647 0.720425
O O7 0.350118 0.974531 0.893097
O O8 0.458406 0.715104 0.213842
O O9 0.281416 0.985836 0.381929
O O10 0.543846 0.007571 0.318655
O O11 0.311863 0.308771 0.725392
O O12 0.892358 0.811620 0.800532
O O13 0.379548 0.310795 0.380472
O O14 0.190830 0.439104 0.292349
O O15 0.000000 0.500000 0.000000
#
# Coordination Sequence:
#
# PCOD9014227 Si02
#       7
#     2   2   2   2   2   2   2
#     4  10  21  41  67  86 127 167 217 271 325 378
#     4  10  24  42  66  98 136 174 224 262 328 400
#     4   9  23  41  67  99 136 167 224 262 327 401
#     4   9  21  39  63  94 125 165 212 265 321 389
#     4  10  23  45  64 100 137 173 222 268 323 403
#     4   9  23  43  63  96 126 169 223 268 326 388
#     4  11  21  46  66  98 135 182 209 285 328 383
#
# _framework density 25.819310999999999
#
# number of rings (size 3 to 8) (size 9 to 14) (size 15 to 20)
#    1.714    0.571    0.000    1.714    2.000    2.286 
#   12.857    0.000    0.000    0.000    0.000    0.000 
#    0.000    0.000    0.000    0.000    0.000    0.000 
#
# Total GULP energy -78213.760904 kJ/mol
# GULP energy per Si atom -5586.697207 kJ/mol
# Density = 2.576054 g / cm^3
# Si number density = 25.819311 Si / 1000 Ang^3
#
#
#
# Elastic Constant Matrix: (Units=GPa)
#
#
# Indices 1 2 3 4 5 6 
#
# 1 129.7295 44.6777 83.1301 -18.0085 14.5759 2.9264
# 2 44.6777 120.5355 51.3990 -14.4669 6.6253 13.1906
# 3 83.1301 51.3990 202.8844 -22.5928 3.3755 14.3525
# 4 -18.0085 -14.4669 -22.5928 37.4321 4.8795 5.3185
# 5 14.5759 6.6253 3.3755 4.8795 57.0307 -8.0043
# 6 2.9264 13.1906 14.3525 5.3185 -8.0043 44.2548
#
#
#
# Elastic Compliance Matrix: (Units=1/GPa)
#
#
# Indices 1 2 3 4 5 6 
#
# 1 0.011626 -0.002223 -0.003881 0.002689 -0.002665 0.000347
# 2 -0.002223 0.010367 -0.001156 0.002849 -0.001252 -0.003137
# 3 -0.003881 -0.001156 0.007201 0.002283 0.000229 -0.001967
# 4 0.002689 0.002849 0.002283 0.032035 -0.004805 -0.006486
# 5 -0.002665 -0.001252 0.000229 -0.004805 0.019399 0.004561
# 6 0.000347 -0.003137 -0.001967 -0.006486 0.004561 0.025751
#
#
# Mechanical properties :
#
#
# Convention : Reuss Voigt Hill
#
# Bulk Modulus (GPa) = 68.14330 90.17366 79.15848
# Shear Modulus (GPa) = 39.74860 46.00638 42.87749
#
# Velocity S-wave (km/s) = 3.92789 4.22579 4.07956
# Velocity P-wave (km/s) = 6.85717 7.66879 7.27431
#
# Compressibility (1/GPa) = 0.01467496
#
# Stress axis : x y z
#
# Youngs Moduli (GPa) = 86.01519 96.45949 138.85997
#
# Poissons Ratio (x) = 0.21443 0.53894
# Poissons Ratio (y) = 0.19121 0.16047
# Poissons Ratio (z) = 0.33384 0.11147
#
# Static dielectric constant tensor:
#      x y z
#    x 2.030580 -0.025390 -0.052050 
#    y -0.025390 2.091100 0.009860 
#    z -0.052050 0.009860 2.093810 
# 
# From -- ./inp_files/87876.got.cif
#   From: 2010.05.17/outbox.cif.g08.bks.cpg/sg2_44_cif.got.tgz:87876.got - 2010.06.03 11:33:40.
