data_PCOD9014087
_publ_section_title
;
Structure prediction by ZEFSAII (Michael W. Deem and Ramdas Pophale) SiO2 
 PCOD9014087
Probable space group: P -1
;
_chemical_formula_sum "Si O2"
_cell_formula_units_Z 16
_cell_length_a 12.803183
_cell_length_b 12.865608
_cell_length_c 5.037682
_cell_angle_alpha 54.408211
_cell_angle_beta 97.364177
_cell_angle_gamma 101.235254
_cell_volume 661.743265
_symmetry_space_group_name_H-M "P -1"
_symmetry_group_IT_number 2
_symmetry_cell_setting 'triclinic'
loop_
_space_group_symop_operation_xyz
x,y,z
-x,-y,-z
loop_
_atom_site_type_symbol
_atom_site_label
_atom_site_fract_x
_atom_site_fract_y
_atom_site_fract_z
Si Si1 0.597149 0.033505 0.686319
Si Si2 0.197401 0.388279 0.716653
Si Si3 0.047734 0.083148 0.637791
Si Si4 0.534979 0.782409 0.299198
Si Si5 0.991663 0.364192 0.357080
Si Si6 0.252812 0.247062 0.445162
Si Si7 0.661192 0.355352 0.827102
Si Si8 0.252267 0.743351 0.487752
O O1 0.543348 0.131685 0.710755
O O2 0.713514 0.116618 0.573004
O O3 0.500000 0.000000 0.500000
O O4 0.609443 0.893395 0.998873
O O5 0.233266 0.281976 0.690963
O O6 0.277397 0.513273 0.465683
O O7 0.075761 0.392300 0.584960
O O8 0.211152 0.349641 0.080067
O O9 0.175852 0.111567 0.589001
O O10 0.018089 0.229594 0.432251
O O11 0.000000 0.000000 0.500000
O O12 0.000000 0.000000 0.000000
O O13 0.620619 0.735387 0.589608
O O14 0.462280 0.678724 0.248169
O O15 0.868573 0.322582 0.447916
O O16 0.000000 0.500000 0.000000
O O17 0.716578 0.254903 0.815103
O O18 0.682389 0.340730 0.167125
#
# Coordination Sequence:
#
# PCOD9014087 Si02
#       8
#     2   2   2   2   2   2   2   2
#     4  10  21  41  66  96 136 168 234 292 337 422
#     4  11  25  45  66 101 140 175 235 289 342 426
#     4  11  26  49  68 104 145 187 239 289 350 437
#     4  10  24  41  65  98 131 180 228 282 353 414
#     4  11  25  47  77 109 140 191 242 299 358 420
#     4  11  26  45  69  95 139 189 226 284 351 427
#     4  11  23  42  66  99 137 169 228 288 348 413
#     4  11  24  40  68 103 135 177 222 296 355 405
#
# _framework density 24.178560999999998
#
# number of rings (size 3 to 8) (size 9 to 14) (size 15 to 20)
#    0.000    1.250    2.500    2.250    5.250    5.500 
#    0.000    0.000    0.000    0.000    0.000    0.000 
#    0.000    0.000    0.000    0.000    0.000    0.000 
#
# Total GULP energy -89213.570952 kJ/mol
# GULP energy per Si atom -5575.848184 kJ/mol
# Density = 2.412353 g / cm^3
# Si number density = 24.178561 Si / 1000 Ang^3
#
#
#
# Elastic Constant Matrix: (Units=GPa)
#
#
# Indices 1 2 3 4 5 6 
#
# 1 85.2874 41.3848 30.8340 -1.1599 14.3094 40.9472
# 2 41.3848 122.3531 23.7217 -9.0770 3.4336 36.8437
# 3 30.8340 23.7217 101.8871 -4.7076 1.7490 11.3928
# 4 -1.1599 -9.0770 -4.7076 34.1470 9.0705 -11.7119
# 5 14.3094 3.4336 1.7490 9.0705 39.6272 0.8150
# 6 40.9472 36.8437 11.3928 -11.7119 0.8150 57.9086
#
#
#
# Elastic Compliance Matrix: (Units=1/GPa)
#
#
# Indices 1 2 3 4 5 6 
#
# 1 0.022390 -0.002558 -0.004678 -0.003600 -0.006547 -0.013920
# 2 -0.002558 0.010720 -0.001160 0.001064 -0.000104 -0.004567
# 3 -0.004678 -0.001160 0.011321 0.001589 0.000883 0.002127
# 4 -0.003600 0.001064 0.001589 0.034463 -0.006928 0.008623
# 5 -0.006547 -0.000104 0.000883 -0.006928 0.029099 0.002711
# 6 -0.013920 -0.004567 0.002127 0.008623 0.002711 0.031305
#
#
# Mechanical properties :
#
#
# Convention : Reuss Voigt Hill
#
# Bulk Modulus (GPa) = 36.18011 55.71205 45.94608
# Shear Modulus (GPa) = 30.24750 40.57570 35.41160
#
# Velocity S-wave (km/s) = 3.54079 4.10099 3.83114
# Velocity P-wave (km/s) = 5.63138 6.74656 6.21404
#
# Compressibility (1/GPa) = 0.02763949
#
# Stress axis : x y z
#
# Youngs Moduli (GPa) = 44.66270 93.28090 88.33220
#
# Poissons Ratio (x) = 0.23861 0.41320
# Poissons Ratio (y) = 0.11424 0.10248
# Poissons Ratio (z) = 0.20892 0.10823
#
# Static dielectric constant tensor:
#      x y z
#    x 2.219750 0.091800 0.202720 
#    y 0.091800 2.065420 -0.050790 
#    z 0.202720 -0.050790 2.000350 
# 
# From -- ./inp_files/97452.got.cif
#   From: 2010.05.17/outbox.cif.g08.bks.cpg/sg2_49_cif.got.tgz:97452.got - 2010.06.03 11:33:40.
