data_PCOD9014496
_publ_section_title
;
Structure prediction by ZEFSAII (Michael W. Deem and Ramdas Pophale) SiO2 
 PCOD9014496
Probable space group: P -1
;
_chemical_formula_sum "Si O2"
_cell_formula_units_Z 16
_cell_length_a 6.217671
_cell_length_b 15.599679
_cell_length_c 9.875622
_cell_angle_alpha 123.733501
_cell_angle_beta 82.369521
_cell_angle_gamma 123.339413
_cell_volume 644.679070
_symmetry_space_group_name_H-M "P -1"
_symmetry_group_IT_number 2
_symmetry_cell_setting 'triclinic'
loop_
_space_group_symop_operation_xyz
x,y,z
-x,-y,-z
loop_
_atom_site_type_symbol
_atom_site_label
_atom_site_fract_x
_atom_site_fract_y
_atom_site_fract_z
Si Si1 0.234771 0.849669 0.532871
Si Si2 0.184946 0.409611 0.777177
Si Si3 0.241079 0.008598 0.071602
Si Si4 0.397080 0.570327 0.647507
Si Si5 0.899714 0.737936 0.938538
Si Si6 0.731849 0.264351 0.306950
Si Si7 0.720784 0.927120 0.386925
Si Si8 0.470240 0.354067 0.877854
O O1 0.163255 0.778796 0.619219
O O2 0.529467 0.913453 0.510503
O O3 0.061537 0.736509 0.339582
O O4 0.226998 0.971453 0.642402
O O5 0.194864 0.473233 0.691491
O O6 0.420079 0.389515 0.766316
O O7 0.265983 0.523903 0.974333
O O8 0.421185 0.149617 0.232095
O O9 0.070376 0.887980 0.075915
O O10 0.500000 0.000000 0.000000
O O11 0.000000 0.000000 0.000000
O O12 0.500000 0.500000 0.500000
O O13 0.644299 0.683867 0.814147
O O14 0.277577 0.616148 0.590284
O O15 0.101066 0.718244 0.826199
O O16 0.772869 0.668861 0.029156
O O17 0.585352 0.782384 0.227994
O O18 0.000000 0.000000 0.500000
#
# Coordination Sequence:
#
# PCOD9014496 Si02
#       8
#     2   2   2   2   2   2   2   2
#     4  11  26  45  74 108 143 187 246 297 380 447
#     4  10  23  47  67 107 135 189 248 291 373 439
#     4  10  21  41  68 101 144 191 246 303 377 450
#     4  11  24  43  69  99 143 186 238 297 364 446
#     4  10  23  43  67 101 138 184 242 299 374 440
#     4  11  25  44  68 106 145 189 236 312 371 446
#     4  11  25  47  72 106 143 190 239 306 365 443
#     4  10  23  46  75  98 145 189 239 311 362 445
#
# _framework density 24.818549999999998
#
# number of rings (size 3 to 8) (size 9 to 14) (size 15 to 20)
#    0.000    1.500    2.500    0.750    3.500    5.500 
#   11.250    0.000    0.000    0.000    0.000    0.000 
#    0.000    0.000    0.000    0.000    0.000    0.000 
#
# Total GULP energy -89091.308452 kJ/mol
# GULP energy per Si atom -5568.206778 kJ/mol
# Density = 2.476206 g / cm^3
# Si number density = 24.818550 Si / 1000 Ang^3
#
#
#
# Elastic Constant Matrix: (Units=GPa)
#
#
# Indices 1 2 3 4 5 6 
#
# 1 76.4655 40.9235 30.1447 13.7538 -6.4299 -17.4813
# 2 40.9235 118.3539 33.9574 30.7671 -18.2064 -37.2086
# 3 30.1447 33.9574 88.9263 37.1495 6.9272 -17.0562
# 4 13.7538 30.7671 37.1495 56.5495 6.1083 0.9342
# 5 -6.4299 -18.2064 6.9272 6.1083 31.6319 12.6466
# 6 -17.4813 -37.2086 -17.0562 0.9342 12.6466 51.3404
#
#
#
# Elastic Compliance Matrix: (Units=1/GPa)
#
#
# Indices 1 2 3 4 5 6 
#
# 1 0.017408 -0.004526 -0.004590 0.001077 0.001431 0.000750
# 2 -0.004526 0.015842 0.000169 -0.008458 0.006363 0.008583
# 3 -0.004590 0.000169 0.018961 -0.010951 -0.005431 0.006396
# 4 0.001077 -0.008458 -0.010951 0.029848 -0.004480 -0.008841
# 5 0.001431 0.006363 -0.005431 -0.004480 0.040234 -0.006535
# 6 0.000750 0.008583 0.006396 -0.008841 -0.006535 0.029849
#
#
# Mechanical properties :
#
#
# Convention : Reuss Voigt Hill
#
# Bulk Modulus (GPa) = 29.14111 54.86633 42.00372
# Shear Modulus (GPa) = 27.55204 39.81905 33.68554
#
# Velocity S-wave (km/s) = 3.33549 4.00985 3.68812
# Velocity P-wave (km/s) = 5.15763 6.60254 5.92430
#
# Compressibility (1/GPa) = 0.03431578
#
# Stress axis : x y z
#
# Youngs Moduli (GPa) = 57.44546 63.12454 52.73881
#
# Poissons Ratio (x) = 0.28573 0.24209
# Poissons Ratio (y) = 0.26002 -0.00892
# Poissons Ratio (z) = 0.26369 -0.01067
#
# Static dielectric constant tensor:
#      x y z
#    x 2.062200 -0.044270 -0.006710 
#    y -0.044270 2.021730 -0.021380 
#    z -0.006710 -0.021380 2.032670 
# 
# From -- ./inp_files/367965.got.cif
#   From: 2010.05.17/outbox.cif.g08.bks.cpg/sg2_184_cif.got.tgz:367965.got - 2010.06.03 11:33:40.
