data_PCOD9014104
_publ_section_title
;
Structure prediction by ZEFSAII (Michael W. Deem and Ramdas Pophale) SiO2 
 PCOD9014104
Probable space group: P -1
;
_chemical_formula_sum "Si O2"
_cell_formula_units_Z 16
_cell_length_a 23.711275
_cell_length_b 8.973130
_cell_length_c 23.174949
_cell_angle_alpha 42.531358
_cell_angle_beta 11.881097
_cell_angle_gamma 43.649976
_cell_volume 686.135638
_symmetry_space_group_name_H-M "P -1"
_symmetry_group_IT_number 2
_symmetry_cell_setting 'triclinic'
loop_
_space_group_symop_operation_xyz
x,y,z
-x,-y,-z
loop_
_atom_site_type_symbol
_atom_site_label
_atom_site_fract_x
_atom_site_fract_y
_atom_site_fract_z
Si Si1 0.232267 0.834086 0.437849
Si Si2 0.071031 0.254176 0.549421
Si Si3 0.428060 0.759667 0.497546
Si Si4 0.906412 0.904969 0.910448
Si Si5 0.743805 0.150762 0.227783
Si Si6 0.263972 0.371868 0.943252
Si Si7 0.874915 0.242667 0.560578
Si Si8 0.602378 0.528635 0.972538
O O1 0.492065 0.769429 0.233711
O O2 0.265309 0.743921 0.365762
O O3 0.149315 0.089537 0.464410
O O4 0.992340 0.690240 0.744607
O O5 0.353479 0.347989 0.267659
O O6 0.939271 0.108622 0.775314
O O7 0.813937 0.422335 0.743959
O O8 0.500000 0.500000 0.500000
O O9 0.282857 0.798634 0.692672
O O10 0.204412 0.829346 0.654244
O O11 0.693348 0.909617 0.175678
O O12 0.785623 0.712830 0.047116
O O13 0.711279 0.369612 0.160052
O O14 0.500000 0.000000 0.500000
O O15 0.000000 0.000000 0.000000
O O16 0.619768 0.270150 0.853021
O O17 0.139655 0.398949 0.263502
O O18 0.000000 0.000000 0.500000
#
# Coordination Sequence:
#
# PCOD9014104 Si02
#       8
#     2   2   2   2   2   2   2   2
#     4  11  23  43  72  96 123 180 227 255 333 405
#     4  10  21  41  66  97 134 164 218 282 321 377
#     4  12  24  40  67  89 122 172 232 267 330 395
#     4  11  22  40  68  96 119 171 225 277 326 385
#     4  12  27  45  59  90 137 170 220 278 336 381
#     4  11  23  42  69  91 128 172 223 278 318 397
#     4  11  24  46  70  99 139 179 215 258 320 407
#     4  10  22  42  65  99 139 164 204 277 320 371
#
# _framework density 23.319004
#
# number of rings (size 3 to 8) (size 9 to 14) (size 15 to 20)
#    0.000    1.000    1.250    6.750    1.750    0.000 
#   22.500    3.750    0.000    0.000    0.000    0.000 
#    0.000    0.000    0.000    0.000    0.000    0.000 
#
# Total GULP energy -89166.884592 kJ/mol
# GULP energy per Si atom -5572.930287 kJ/mol
# Density = 2.326593 g / cm^3
# Si number density = 23.319004 Si / 1000 Ang^3
#
#
#
# Elastic Constant Matrix: (Units=GPa)
#
#
# Indices 1 2 3 4 5 6 
#
# 1 62.5692 11.0986 12.8625 11.3258 2.7946 14.5498
# 2 11.0986 116.0650 53.2967 13.8805 1.2808 23.4852
# 3 12.8625 53.2967 176.5968 22.6971 3.9812 5.4103
# 4 11.3258 13.8805 22.6971 51.0883 8.6477 -3.0631
# 5 2.7946 1.2808 3.9812 8.6477 44.2121 1.1228
# 6 14.5498 23.4852 5.4103 -3.0631 1.1228 25.0464
#
#
#
# Elastic Compliance Matrix: (Units=1/GPa)
#
#
# Indices 1 2 3 4 5 6 
#
# 1 0.020050 0.001992 -0.000938 -0.005438 0.000178 -0.013986
# 2 0.001992 0.012955 -0.003230 -0.003444 0.000795 -0.013064
# 3 -0.000938 -0.003230 0.006888 -0.001836 -0.000156 0.001868
# 4 -0.005438 -0.003444 -0.001836 0.023854 -0.004308 0.009896
# 5 0.000178 0.000795 -0.000156 -0.004308 0.023501 -0.002396
# 6 -0.013986 -0.013064 0.001868 0.009896 -0.002396 0.061214
#
#
# Mechanical properties :
#
#
# Convention : Reuss Voigt Hill
#
# Bulk Modulus (GPa) = 28.13640 56.63851 42.38745
# Shear Modulus (GPa) = 30.36513 42.60090 36.48302
#
# Velocity S-wave (km/s) = 3.61246 4.27883 3.95969
# Velocity P-wave (km/s) = 5.43065 6.98230 6.25477
#
# Compressibility (1/GPa) = 0.03554115
#
# Stress axis : x y z
#
# Youngs Moduli (GPa) = 49.87411 77.18946 145.17967
#
# Poissons Ratio (x) = -0.15375 0.13620
# Poissons Ratio (y) = -0.09934 0.46892
# Poissons Ratio (z) = 0.04679 0.24932
#
# Static dielectric constant tensor:
#      x y z
#    x 2.017040 -0.007500 0.044870 
#    y -0.007500 1.911720 -0.017600 
#    z 0.044870 -0.017600 1.855990 
# 
# From -- ./inp_files/621140.got.cif
#   From: 2010.05.17/outbox.cif.g08.bks.cpg/sg2_311_cif.got.tgz:621140.got - 2010.06.03 11:33:40.
