data_PCOD9014348
_publ_section_title
;
Structure prediction by ZEFSAII (Michael W. Deem and Ramdas Pophale) SiO2 
 PCOD9014348
Probable space group: P -1
;
_chemical_formula_sum "Si O2"
_cell_formula_units_Z 14
_cell_length_a 8.908140
_cell_length_b 25.322032
_cell_length_c 8.652897
_cell_angle_alpha 140.618563
_cell_angle_beta 47.464221
_cell_angle_gamma 151.070483
_cell_volume 599.060542
_symmetry_space_group_name_H-M "P -1"
_symmetry_group_IT_number 2
_symmetry_cell_setting 'triclinic'
loop_
_space_group_symop_operation_xyz
x,y,z
-x,-y,-z
loop_
_atom_site_type_symbol
_atom_site_label
_atom_site_fract_x
_atom_site_fract_y
_atom_site_fract_z
Si Si1 0.798853 0.218508 0.924543
Si Si2 0.468120 0.400995 0.878277
Si Si3 0.327408 0.566930 0.857145
Si Si4 0.497848 0.122959 0.397518
Si Si5 0.380816 0.177481 0.892196
Si Si6 0.121980 0.631154 0.509797
Si Si7 0.764968 0.039290 0.093666
O O1 0.874101 0.311027 0.210968
O O2 0.680339 0.231127 0.886868
O O3 0.112914 0.263643 0.784845
O O4 0.512295 0.075433 0.862355
O O5 0.714545 0.407899 0.664879
O O6 0.500000 0.500000 0.000000
O O7 0.519457 0.425838 0.082712
O O8 0.211295 0.481112 0.594151
O O9 0.538263 0.707771 0.973025
O O10 0.000000 0.500000 0.000000
O O11 0.306457 0.093495 0.611902
O O12 0.662732 0.252911 0.500301
O O13 0.752125 0.134578 0.304918
O O14 0.313071 0.019853 0.157288
O O15 0.100732 0.104988 0.042349
#
# Coordination Sequence:
#
# PCOD9014348 Si02
#       7
#     2   2   2   2   2   2   2
#     4  11  26  43  65 101 138 168 220 273 324 388
#     4  11  24  41  68  98 133 170 216 271 329 387
#     4  10  21  41  67  95 127 171 222 257 326 394
#     4  10  22  41  71  92 130 171 229 266 322 388
#     4  12  23  42  70  94 134 177 214 273 327 386
#     4  10  23  45  66  97 136 173 214 272 331 382
#     4  10  25  42  65 101 129 171 227 267 324 388
#
# _framework density 23.369924000000001
#
# number of rings (size 3 to 8) (size 9 to 14) (size 15 to 20)
#    0.000    1.429    2.857    2.571    6.000    6.857 
#    0.000    0.000    0.000    0.000    0.000    0.000 
#    0.000    0.000    0.000    0.000    0.000    0.000 
#
# Total GULP energy -78299.532020 kJ/mol
# GULP energy per Si atom -5592.823716 kJ/mol
# Density = 2.331673 g / cm^3
# Si number density = 23.369924 Si / 1000 Ang^3
#
#
#
# Elastic Constant Matrix: (Units=GPa)
#
#
# Indices 1 2 3 4 5 6 
#
# 1 129.1805 23.4628 0.2008 10.1265 -9.9089 -7.4211
# 2 23.4628 77.9894 -2.4546 -2.3873 -13.1297 2.5944
# 3 0.2008 -2.4546 31.9827 6.6892 -6.8875 -9.4576
# 4 10.1265 -2.3873 6.6892 17.8524 1.2961 -3.4099
# 5 -9.9089 -13.1297 -6.8875 1.2961 28.6646 -1.2492
# 6 -7.4211 2.5944 -9.4576 -3.4099 -1.2492 38.7370
#
#
#
# Elastic Compliance Matrix: (Units=1/GPa)
#
#
# Indices 1 2 3 4 5 6 
#
# 1 0.008988 -0.002396 0.002249 -0.006093 0.002912 0.001989
# 2 -0.002396 0.014739 0.001886 0.002054 0.006257 -0.000603
# 3 0.002249 0.001886 0.039908 -0.015130 0.012312 0.009113
# 4 -0.006093 0.002054 -0.015130 0.066087 -0.007765 0.000568
# 5 0.002912 0.006257 0.012312 -0.007765 0.042235 0.003823
# 6 0.001989 -0.000603 0.009113 0.000568 0.003823 0.028635
#
#
# Mechanical properties :
#
#
# Convention : Reuss Voigt Hill
#
# Bulk Modulus (GPa) = 14.89997 31.28563 23.09280
# Shear Modulus (GPa) = 22.78068 31.58037 27.18053
#
# Velocity S-wave (km/s) = 3.12554 3.68003 3.41406
# Velocity P-wave (km/s) = 4.40624 5.61008 5.04420
#
# Compressibility (1/GPa) = 0.06711422
#
# Stress axis : x y z
#
# Youngs Moduli (GPa) = 111.25918 67.84913 25.05740
#
# Poissons Ratio (x) = 0.16254 -0.05637
# Poissons Ratio (y) = 0.26653 -0.04725
# Poissons Ratio (z) = -0.25027 -0.12795
#
# Static dielectric constant tensor:
#      x y z
#    x 1.886510 0.029000 0.012350 
#    y 0.029000 1.889590 -0.017490 
#    z 0.012350 -0.017490 1.902390 
# 
# From -- ./inp_files/199965.got.cif
#   From: 2010.05.17/outbox.cif.g08.bks.cpg/sg2_100_cif.got.tgz:199965.got - 2010.06.03 11:33:40.
