data_PCOD9014748
_publ_section_title
;
Structure prediction by ZEFSAII (Michael W. Deem and Ramdas Pophale) SiO2 
 PCOD9014748
Probable space group: P -1
;
_chemical_formula_sum "Si O2"
_cell_formula_units_Z 16
_cell_length_a 8.819894
_cell_length_b 8.690194
_cell_length_c 11.682328
_cell_angle_alpha 103.432656
_cell_angle_beta 116.529347
_cell_angle_gamma 63.683977
_cell_volume 717.445272
_symmetry_space_group_name_H-M "P -1"
_symmetry_group_IT_number 2
_symmetry_cell_setting 'triclinic'
loop_
_space_group_symop_operation_xyz
x,y,z
-x,-y,-z
loop_
_atom_site_type_symbol
_atom_site_label
_atom_site_fract_x
_atom_site_fract_y
_atom_site_fract_z
Si Si1 0.608633 0.859296 0.704387
Si Si2 0.065807 0.358966 0.096811
Si Si3 0.143871 0.461682 0.716758
Si Si4 0.807679 0.953491 0.065301
Si Si5 0.379833 0.700786 0.481465
Si Si6 0.947935 0.268196 0.472159
Si Si7 0.863293 0.014562 0.688319
Si Si8 0.565167 0.842794 0.136336
O O1 0.724630 0.698788 0.796817
O O2 0.517078 0.796690 0.561197
O O3 0.748357 0.937043 0.714200
O O4 0.463665 0.003628 0.758034
O O5 0.946481 0.432031 0.182058
O O6 0.072801 0.181466 0.013370
O O7 0.000000 0.500000 0.000000
O O8 0.119715 0.590904 0.627055
O O9 0.348207 0.334818 0.798037
O O10 0.039258 0.341194 0.615781
O O11 0.708685 0.853179 0.091233
O O12 0.943941 0.007652 0.195123
O O13 0.635433 0.108471 0.978643
O O14 0.500000 0.500000 0.500000
O O15 0.230562 0.750002 0.540577
O O16 0.258702 0.785460 0.344064
O O17 0.089532 0.095669 0.432055
#
# Coordination Sequence:
#
# PCOD9014748 Si02
#       8
#     2   2   2   2   2   2   2   2
#     4  11  25  44  68 102 141 183 233 285 352 407
#     4  11  22  42  72 101 139 184 228 284 343 415
#     4  11  22  43  73 105 136 184 231 288 344 409
#     4  10  23  41  70 101 138 189 230 275 351 418
#     4  12  27  42  70 105 136 180 234 297 344 406
#     4  11  25  44  72 101 143 182 232 281 353 419
#     4  12  25  47  71 102 143 187 232 283 352 424
#     4  10  21  41  69 102 139 180 232 286 338 410
#
# _framework density 22.301352000000001
#
# number of rings (size 3 to 8) (size 9 to 14) (size 15 to 20)
#    0.000    1.000    2.500    3.750    5.250    2.000 
#    0.000    1.875    0.000    0.000    0.000    0.000 
#    0.000    0.000    0.000    0.000    0.000    0.000 
#
# Total GULP energy -89485.502203 kJ/mol
# GULP energy per Si atom -5592.843888 kJ/mol
# Density = 2.225059 g / cm^3
# Si number density = 22.301352 Si / 1000 Ang^3
#
#
#
# Elastic Constant Matrix: (Units=GPa)
#
#
# Indices 1 2 3 4 5 6 
#
# 1 67.6271 33.9111 42.7881 -0.8662 -2.4131 4.0067
# 2 33.9111 132.9811 47.2396 -30.3580 1.4776 -19.4209
# 3 42.7881 47.2396 101.0325 -9.8015 2.9949 -3.7392
# 4 -0.8662 -30.3580 -9.8015 40.5480 -2.3276 -2.0914
# 5 -2.4131 1.4776 2.9949 -2.3276 34.2917 4.9784
# 6 4.0067 -19.4209 -3.7392 -2.0914 4.9784 21.4324
#
#
#
# Elastic Compliance Matrix: (Units=1/GPa)
#
#
# Indices 1 2 3 4 5 6 
#
# 1 0.024579 -0.007032 -0.008479 -0.007271 0.004336 -0.014163
# 2 -0.007032 0.015131 -0.002320 0.011313 -0.002545 0.016316
# 3 -0.008479 -0.002320 0.014902 0.001706 -0.002079 0.002732
# 4 -0.007271 0.011313 0.001706 0.034126 -0.001080 0.015489
# 5 0.004336 -0.002545 -0.002079 -0.001080 0.031259 -0.010846
# 6 -0.014163 0.016316 0.002732 0.015489 -0.010846 0.068598
#
#
# Mechanical properties :
#
#
# Convention : Reuss Voigt Hill
#
# Bulk Modulus (GPa) = 52.77357 61.05759 56.91558
# Shear Modulus (GPa) = 21.68509 31.10122 26.39316
#
# Velocity S-wave (km/s) = 3.12166 3.73847 3.44390
# Velocity P-wave (km/s) = 6.05873 6.78769 6.43354
#
# Compressibility (1/GPa) = 0.01894888
#
# Stress axis : x y z
#
# Youngs Moduli (GPa) = 40.68547 66.09030 67.10591
#
# Poissons Ratio (x) = 0.46475 0.56902
# Poissons Ratio (y) = 0.28610 0.15567
# Poissons Ratio (z) = 0.34499 0.15332
#
# Static dielectric constant tensor:
#      x y z
#    x 1.795170 0.001110 0.000120 
#    y 0.001110 1.840710 -0.011800 
#    z 0.000120 -0.011800 1.854980 
# 
# From -- ./inp_files/274893.got.cif
#   From: 2010.05.17/outbox.cif.g08.bks.cpg/sg2_138_cif.got.tgz:274893.got - 2010.06.03 11:33:40.
