data_PCOD9014069
_publ_section_title
;
Structure prediction by ZEFSAII (Michael W. Deem and Ramdas Pophale) SiO2 
 PCOD9014069
Probable space group: P -1
;
_chemical_formula_sum "Si O2"
_cell_formula_units_Z 16
_cell_length_a 12.226140
_cell_length_b 8.672745
_cell_length_c 21.247509
_cell_angle_alpha 149.378915
_cell_angle_beta 140.856934
_cell_angle_gamma 53.356930
_cell_volume 706.735516
_symmetry_space_group_name_H-M "P -1"
_symmetry_group_IT_number 2
_symmetry_cell_setting 'triclinic'
loop_
_space_group_symop_operation_xyz
x,y,z
-x,-y,-z
loop_
_atom_site_type_symbol
_atom_site_label
_atom_site_fract_x
_atom_site_fract_y
_atom_site_fract_z
Si Si1 0.925009 0.684128 0.443589
Si Si2 0.406829 0.769738 0.076517
Si Si3 0.257874 0.280691 0.145049
Si Si4 0.648543 0.390158 0.569000
Si Si5 0.079772 0.111022 0.344388
Si Si6 0.117061 0.606261 0.994461
Si Si7 0.362560 0.871889 0.314694
Si Si8 0.756164 0.011500 0.388306
O O1 0.883877 0.788857 0.531694
O O2 0.782718 0.723286 0.341130
O O3 0.970767 0.348822 0.350906
O O4 0.103834 0.917494 0.580345
O O5 0.560092 0.968580 0.258884
O O6 0.349865 0.992178 0.077040
O O7 0.500000 0.500000 0.000000
O O8 0.231096 0.650481 0.997350
O O9 0.274328 0.373821 0.258953
O O10 0.357479 0.579842 0.255201
O O11 0.049269 0.227718 0.018662
O O12 0.500000 0.500000 0.500000
O O13 0.550435 0.070390 0.446430
O O14 0.790015 0.302744 0.553588
O O15 0.260365 0.107415 0.386652
O O16 0.969904 0.758320 0.166344
O O17 0.248252 0.734935 0.154867
#
# Coordination Sequence:
#
# PCOD9014069 Si02
#       8
#     2   2   2   2   2   2   2   2
#     4  10  23  40  65  93 134 170 214 270 332 401
#     4  12  26  43  64  96 136 177 221 271 332 401
#     4  11  24  42  69  97 131 177 225 273 333 384
#     4  12  22  41  67  99 128 168 225 278 319 382
#     4  10  21  41  66  96 126 173 217 267 332 391
#     4  11  23  46  66  96 134 176 223 268 332 404
#     4  11  23  42  69  97 133 168 228 273 328 390
#     4  11  22  42  62  94 130 173 218 267 330 391
#
# _framework density 22.639305
#
# number of rings (size 3 to 8) (size 9 to 14) (size 15 to 20)
#    0.000    1.000    2.500    5.250    0.000    3.000 
#    4.500    1.250    0.000    0.000    0.000    0.000 
#    0.000    0.000    0.000    0.000    0.000    0.000 
#
# Total GULP energy -89560.483790 kJ/mol
# GULP energy per Si atom -5597.530237 kJ/mol
# Density = 2.258778 g / cm^3
# Si number density = 22.639305 Si / 1000 Ang^3
#
#
#
# Elastic Constant Matrix: (Units=GPa)
#
#
# Indices 1 2 3 4 5 6 
#
# 1 79.3555 22.5281 -4.2610 17.4523 -3.8325 -6.0014
# 2 22.5281 156.6969 14.7217 16.3781 -8.5434 -11.8349
# 3 -4.2610 14.7217 46.6987 3.6282 -4.3727 -8.3423
# 4 17.4523 16.3781 3.6282 25.6900 -9.3303 -7.9203
# 5 -3.8325 -8.5434 -4.3727 -9.3303 30.3999 -0.8424
# 6 -6.0014 -11.8349 -8.3423 -7.9203 -0.8424 29.6581
#
#
#
# Elastic Compliance Matrix: (Units=1/GPa)
#
#
# Indices 1 2 3 4 5 6 
#
# 1 0.015365 -0.001417 0.002622 -0.010174 -0.001192 0.000530
# 2 -0.001417 0.007184 -0.001869 -0.002640 0.000799 0.001372
# 3 0.002622 -0.001869 0.023731 -0.000856 0.003131 0.006320
# 4 -0.010174 -0.002640 -0.000856 0.057170 0.015741 0.012361
# 5 -0.001192 0.000799 0.003131 0.015741 0.038424 0.006254
# 6 0.000530 0.001372 0.006320 0.012361 0.006254 0.039629
#
#
# Mechanical properties :
#
#
# Convention : Reuss Voigt Hill
#
# Bulk Modulus (GPa) = 22.24562 38.74764 30.49663
# Shear Modulus (GPa) = 25.27623 33.80042 29.53833
#
# Velocity S-wave (km/s) = 3.34500 3.86812 3.61603
# Velocity P-wave (km/s) = 4.97655 6.09116 5.56185
#
# Compressibility (1/GPa) = 0.04495267
#
# Stress axis : x y z
#
# Youngs Moduli (GPa) = 65.08432 139.19413 42.13885
#
# Poissons Ratio (x) = 0.19721 -0.11050
# Poissons Ratio (y) = 0.09221 0.07876
# Poissons Ratio (z) = -0.17066 0.26016
#
# Static dielectric constant tensor:
#      x y z
#    x 1.833090 0.002920 -0.019830 
#    y 0.002920 1.875630 0.019590 
#    z -0.019830 0.019590 1.839030 
# 
# From -- ./inp_files/405381.got.cif
#   From: 2010.05.17/outbox.cif.g08.bks.cpg/sg2_203_cif.got.tgz:405381.got - 2010.06.03 11:33:40.
