data_PCOD9014813
_publ_section_title
;
Structure prediction by ZEFSAII (Michael W. Deem and Ramdas Pophale) SiO2 
 PCOD9014813
Probable space group: P -1
;
_chemical_formula_sum "Si O2"
_cell_formula_units_Z 14
_cell_length_a 14.697345
_cell_length_b 9.555592
_cell_length_c 14.134556
_cell_angle_alpha 113.573360
_cell_angle_beta 28.124791
_cell_angle_gamma 133.027536
_cell_volume 554.415895
_symmetry_space_group_name_H-M "P -1"
_symmetry_group_IT_number 2
_symmetry_cell_setting 'triclinic'
loop_
_space_group_symop_operation_xyz
x,y,z
-x,-y,-z
loop_
_atom_site_type_symbol
_atom_site_label
_atom_site_fract_x
_atom_site_fract_y
_atom_site_fract_z
Si Si1 0.650870 0.011123 0.502024
Si Si2 0.063483 0.508165 0.286160
Si Si3 0.693258 0.754812 0.257301
Si Si4 0.021839 0.695042 0.043019
Si Si5 0.930357 0.705267 0.350046
Si Si6 0.623692 0.401868 0.796259
Si Si7 0.972721 0.899324 0.661560
O O1 0.603048 0.834582 0.433745
O O2 0.346600 0.922602 0.761924
O O3 0.926376 0.286097 0.291603
O O4 0.746209 0.003890 0.516010
O O5 0.126280 0.699563 0.223977
O O6 0.788606 0.380030 0.574906
O O7 0.324386 0.615860 0.146310
O O8 0.413398 0.554767 0.392105
O O9 0.770875 0.642519 0.207198
O O10 0.000000 0.000000 0.000000
O O11 0.000000 0.500000 0.000000
O O12 0.005196 0.730044 0.177408
O O13 0.962325 0.902895 0.395042
O O14 0.812247 0.671663 0.686149
O O15 0.272504 0.214358 0.060999
#
# Coordination Sequence:
#
# PCOD9014813 Si02
#       7
#     2   2   2   2   2   2   2
#     4  11  23  44  67  95 133 183 216 266 331 400
#     4  10  23  40  68  97 127 176 225 268 335 392
#     4  12  27  43  67  99 138 178 222 265 325 405
#     4  12  24  42  64  93 141 176 215 273 323 382
#     4  12  24  41  66 104 134 173 222 274 330 392
#     4   9  21  45  67  93 132 176 217 279 334 395
#     4  10  21  41  69  93 130 175 219 272 337 389
#
# _framework density 25.251802000000001
#
# number of rings (size 3 to 8) (size 9 to 14) (size 15 to 20)
#    0.000    1.143    2.857    3.000    4.000    2.286 
#    0.000    0.000    0.000    0.000    0.000    0.000 
#    0.000    0.000    0.000    0.000    0.000    0.000 
#
# Total GULP energy -78400.124258 kJ/mol
# GULP energy per Si atom -5600.008876 kJ/mol
# Density = 2.519433 g / cm^3
# Si number density = 25.251802 Si / 1000 Ang^3
#
#
#
# Elastic Constant Matrix: (Units=GPa)
#
#
# Indices 1 2 3 4 5 6 
#
# 1 83.1036 31.5177 -7.8949 -1.7806 -15.8444 -30.7639
# 2 31.5177 156.6080 -5.1781 -15.8058 -6.4154 -22.5342
# 3 -7.8949 -5.1781 74.5093 7.2471 -13.4442 8.0770
# 4 -1.7806 -15.8058 7.2471 33.8406 -9.0143 -2.3891
# 5 -15.8444 -6.4154 -13.4442 -9.0143 26.1960 1.6056
# 6 -30.7639 -22.5342 8.0770 -2.3891 1.6056 39.6231
#
#
#
# Elastic Compliance Matrix: (Units=1/GPa)
#
#
# Indices 1 2 3 4 5 6 
#
# 1 0.021132 -0.000871 0.002718 0.005131 0.014805 0.015067
# 2 -0.000871 0.007683 0.000075 0.004521 0.002714 0.003841
# 3 0.002718 0.000075 0.015667 -0.000740 0.009538 -0.001472
# 4 0.005131 0.004521 -0.000740 0.036947 0.016037 0.008283
# 5 0.014805 0.002714 0.009538 0.016037 0.057610 0.009726
# 6 0.015067 0.003841 -0.001472 0.008283 0.009726 0.039526
#
#
# Mechanical properties :
#
#
# Convention : Reuss Voigt Hill
#
# Bulk Modulus (GPa) = 20.69262 39.01227 29.85244
# Shear Modulus (GPa) = 26.20142 39.65034 32.92588
#
# Velocity S-wave (km/s) = 3.22468 3.96687 3.61488
# Velocity P-wave (km/s) = 4.69863 6.03857 5.41024
#
# Compressibility (1/GPa) = 0.04832642
#
# Stress axis : x y z
#
# Youngs Moduli (GPa) = 47.32183 130.15483 63.82878
#
# Poissons Ratio (x) = 0.11332 -0.17346
# Poissons Ratio (y) = 0.04120 -0.00481
# Poissons Ratio (z) = -0.12860 -0.00980
#
# Static dielectric constant tensor:
#      x y z
#    x 1.969280 -0.003550 0.045870 
#    y -0.003550 1.992220 -0.026590 
#    z 0.045870 -0.026590 2.020480 
# 
# From -- ./inp_files/529974.got.cif
#   From: 2010.05.17/outbox.cif.g08.bks.cpg/sg2_265_cif.got.tgz:529974.got - 2010.06.03 11:33:40.
