data_PCOD9014769
_publ_section_title
;
Structure prediction by ZEFSAII (Michael W. Deem and Ramdas Pophale) SiO2 
 PCOD9014769
Probable space group: P -1
;
_chemical_formula_sum "Si O2"
_cell_formula_units_Z 16
_cell_length_a 12.110802
_cell_length_b 10.631394
_cell_length_c 9.189738
_cell_angle_alpha 107.884780
_cell_angle_beta 129.318727
_cell_angle_gamma 102.062070
_cell_volume 728.617455
_symmetry_space_group_name_H-M "P -1"
_symmetry_group_IT_number 2
_symmetry_cell_setting 'triclinic'
loop_
_space_group_symop_operation_xyz
x,y,z
-x,-y,-z
loop_
_atom_site_type_symbol
_atom_site_label
_atom_site_fract_x
_atom_site_fract_y
_atom_site_fract_z
Si Si1 0.143149 0.681781 0.143148
Si Si2 0.257711 0.353469 0.920318
Si Si3 0.656020 0.014511 0.054240
Si Si4 0.919808 0.144225 0.091765
Si Si5 0.892942 0.160187 0.574192
Si Si6 0.198061 0.152339 0.515926
Si Si7 0.323357 0.213711 0.197844
Si Si8 0.471407 0.690328 0.313275
O O1 0.063014 0.753128 0.995583
O O2 0.198798 0.789842 0.372633
O O3 0.311335 0.702163 0.219802
O O4 0.000000 0.500000 0.000000
O O5 0.256644 0.249886 0.750046
O O6 0.069758 0.319937 0.740246
O O7 0.268956 0.301006 0.074866
O O8 0.403726 0.535787 0.104126
O O9 0.773082 0.138045 0.069198
O O10 0.792331 0.068886 0.315099
O O11 0.592885 0.848667 0.866445
O O12 0.500000 0.000000 0.000000
O O13 0.094097 0.202976 0.346088
O O14 0.830405 0.954836 0.923889
O O15 0.928063 0.033929 0.627169
O O16 0.364496 0.172703 0.587060
O O17 0.448845 0.315400 0.468084
#
# Coordination Sequence:
#
# PCOD9014769 Si02
#       8
#     2   2   2   2   2   2   2   2
#     4  12  28  47  64 101 143 189 224 285 360 415
#     4  12  22  46  69 106 140 181 226 288 352 414
#     4  10  21  41  69 107 138 178 234 287 339 412
#     4  10  24  43  70 102 136 176 244 283 345 410
#     4  12  22  44  79  93 147 179 235 287 345 414
#     4  12  24  45  74 106 131 183 238 293 339 412
#     4  10  22  42  69 103 134 174 239 276 348 402
#     4  12  28  42  67 101 146 183 229 285 350 414
#
# _framework density 21.959396999999999
#
# number of rings (size 3 to 8) (size 9 to 14) (size 15 to 20)
#    0.750    0.000    5.000    2.625    3.500    3.000 
#    0.000    2.500    0.000    0.000    0.000    0.000 
#    0.000    0.000    0.000    0.000    0.000    0.000 
#
# Total GULP energy -89218.420766 kJ/mol
# GULP energy per Si atom -5576.151298 kJ/mol
# Density = 2.190942 g / cm^3
# Si number density = 21.959397 Si / 1000 Ang^3
#
#
#
# Elastic Constant Matrix: (Units=GPa)
#
#
# Indices 1 2 3 4 5 6 
#
# 1 99.3094 -10.1304 15.2093 7.4962 -3.0980 14.3226
# 2 -10.1304 58.4087 11.9704 -4.2038 7.3188 13.1319
# 3 15.2093 11.9704 107.8600 2.4136 -6.4722 0.3934
# 4 7.4962 -4.2038 2.4136 29.5103 -3.3910 -2.3881
# 5 -3.0980 7.3188 -6.4722 -3.3910 39.7309 4.5234
# 6 14.3226 13.1319 0.3934 -2.3881 4.5234 15.0417
#
#
#
# Elastic Compliance Matrix: (Units=1/GPa)
#
#
# Indices 1 2 3 4 5 6 
#
# 1 0.014682 0.007448 -0.002642 -0.004025 0.001445 -0.021486
# 2 0.007448 0.025952 -0.003907 -0.000420 -0.001542 -0.029250
# 3 -0.002642 -0.003907 0.010155 -0.000117 0.001569 0.005170
# 4 -0.004025 -0.000420 -0.000117 0.035816 0.001735 0.009367
# 5 0.001445 -0.001542 0.001569 0.001735 0.026866 -0.007875
# 6 -0.021486 -0.029250 0.005170 0.009367 -0.007875 0.116197
#
#
# Mechanical properties :
#
#
# Convention : Reuss Voigt Hill
#
# Bulk Modulus (GPa) = 19.01586 33.29741 26.15663
# Shear Modulus (GPa) = 20.37491 33.42515 26.90003
#
# Velocity S-wave (km/s) = 3.04936 3.90569 3.50378
# Velocity P-wave (km/s) = 4.59091 5.96115 5.32033
#
# Compressibility (1/GPa) = 0.05258768
#
# Stress axis : x y z
#
# Youngs Moduli (GPa) = 68.11248 38.53219 98.47068
#
# Poissons Ratio (x) = -0.28698 0.26012
# Poissons Ratio (y) = -0.50728 0.38471
# Poissons Ratio (z) = 0.17993 0.15054
#
# Static dielectric constant tensor:
#      x y z
#    x 1.866930 -0.000490 0.008900 
#    y -0.000490 1.819690 -0.029140 
#    z 0.008900 -0.029140 1.781410 
# 
# From -- ./inp_files/259669.got.cif
#   From: 2010.05.17/outbox.cif.g08.bks.cpg/sg2_130_cif.got.tgz:259669.got - 2010.06.03 11:33:40.
