data_PCOD9014469
_publ_section_title
;
Structure prediction by ZEFSAII (Michael W. Deem and Ramdas Pophale) SiO2 
 PCOD9014469
Probable space group: P -1
;
_chemical_formula_sum "Si O2"
_cell_formula_units_Z 16
_cell_length_a 12.199107
_cell_length_b 8.850977
_cell_length_c 10.437629
_cell_angle_alpha 130.131555
_cell_angle_beta 48.458776
_cell_angle_gamma 116.014075
_cell_volume 644.812341
_symmetry_space_group_name_H-M "P -1"
_symmetry_group_IT_number 2
_symmetry_cell_setting 'triclinic'
loop_
_space_group_symop_operation_xyz
x,y,z
-x,-y,-z
loop_
_atom_site_type_symbol
_atom_site_label
_atom_site_fract_x
_atom_site_fract_y
_atom_site_fract_z
Si Si1 0.940748 0.065698 0.720851
Si Si2 0.725401 0.283562 0.345999
Si Si3 0.827080 0.629049 0.274740
Si Si4 0.408702 0.348567 0.728873
Si Si5 0.662309 0.946563 0.735207
Si Si6 0.541234 0.720969 0.939696
Si Si7 0.238619 0.148549 0.959569
Si Si8 0.967500 0.283862 0.349418
O O1 0.010229 0.279182 0.821943
O O2 0.768782 0.055279 0.815612
O O3 0.000000 0.000000 0.500000
O O4 0.993053 0.892461 0.680278
O O5 0.802533 0.467021 0.314585
O O6 0.550935 0.303948 0.508685
O O7 0.803266 0.272469 0.418064
O O8 0.763949 0.082524 0.134345
O O9 0.726556 0.566917 0.199836
O O10 0.746104 0.824336 0.497714
O O11 0.465185 0.509970 0.875375
O O12 0.337341 0.171928 0.769704
O O13 0.573466 0.789292 0.805759
O O14 0.563766 0.109586 0.835788
O O15 0.686491 0.732011 0.916786
O O16 0.077942 0.237672 0.120486
O O17 0.000000 0.500000 0.500000
#
# Coordination Sequence:
#
# PCOD9014469 Si02
#       8
#     2   2   2   2   2   2   2   2
#     4  10  22  42  69 101 134 176 228 282 338 409
#     4  12  26  45  70 101 142 188 229 284 348 409
#     4  11  24  44  71 101 137 182 233 283 345 410
#     4  12  26  45  71 104 140 182 232 287 347 411
#     4  10  21  41  68 100 131 176 227 283 337 400
#     4  11  23  40  70  97 134 176 228 281 342 403
#     4  12  27  46  68 103 143 182 232 283 347 416
#     4  12  25  47  72  99 141 186 232 285 348 412
#
# _framework density 24.813420000000001
#
# number of rings (size 3 to 8) (size 9 to 14) (size 15 to 20)
#    0.000    0.750    2.500    5.250    3.500    5.000 
#    0.000    1.875    0.000    0.000    0.000    0.000 
#    0.000    0.000    0.000    0.000    0.000    0.000 
#
# Total GULP energy -89565.052401 kJ/mol
# GULP energy per Si atom -5597.815775 kJ/mol
# Density = 2.475694 g / cm^3
# Si number density = 24.813420 Si / 1000 Ang^3
#
#
#
# Elastic Constant Matrix: (Units=GPa)
#
#
# Indices 1 2 3 4 5 6 
#
# 1 106.3642 19.0877 -7.6453 -1.1498 -9.1673 14.1992
# 2 19.0877 116.0692 19.5759 1.1004 -12.5996 15.1650
# 3 -7.6453 19.5759 59.8572 4.7070 -7.8528 5.7134
# 4 -1.1498 1.1004 4.7070 32.0919 5.5434 6.1261
# 5 -9.1673 -12.5996 -7.8528 5.5434 34.8020 3.4290
# 6 14.1992 15.1650 5.7134 6.1261 3.4290 36.3843
#
#
#
# Elastic Compliance Matrix: (Units=1/GPa)
#
#
# Indices 1 2 3 4 5 6 
#
# 1 0.010698 -0.001263 0.002615 0.000311 0.003338 -0.004426
# 2 -0.001263 0.010080 -0.002731 0.000173 0.003027 -0.003594
# 3 0.002615 -0.002731 0.019053 -0.002884 0.004738 -0.002835
# 4 0.000311 0.000173 -0.002884 0.033443 -0.005354 -0.004867
# 5 0.003338 0.003027 0.004738 -0.005354 0.033176 -0.005533
# 6 -0.004426 -0.003594 -0.002835 -0.004867 -0.005533 0.032496
#
#
# Mechanical properties :
#
#
# Convention : Reuss Voigt Hill
#
# Bulk Modulus (GPa) = 26.97336 38.25857 32.61597
# Shear Modulus (GPa) = 32.45450 37.40710 34.93080
#
# Velocity S-wave (km/s) = 3.62047 3.88691 3.75605
# Velocity P-wave (km/s) = 5.32646 5.96624 5.65541
#
# Compressibility (1/GPa) = 0.03707362
#
# Stress axis : x y z
#
# Youngs Moduli (GPa) = 93.47386 99.20187 52.48581
#
# Poissons Ratio (x) = 0.12527 -0.13726
# Poissons Ratio (y) = 0.11803 0.14336
# Poissons Ratio (z) = -0.24446 0.27096
#
# Static dielectric constant tensor:
#      x y z
#    x 1.934350 0.031200 0.002280 
#    y 0.031200 1.984200 -0.057580 
#    z 0.002280 -0.057580 1.989250 
# 
# From -- ./inp_files/333826.got.cif
#   From: 2010.05.17/outbox.cif.g08.bks.cpg/sg2_167_cif.got.tgz:333826.got - 2010.06.03 11:33:40.
