data_PCOD9014022
_publ_section_title
;
Structure prediction by ZEFSAII (Michael W. Deem and Ramdas Pophale) SiO2 
 PCOD9014022
Probable space group: P -1
;
_chemical_formula_sum "Si O2"
_cell_formula_units_Z 14
_cell_length_a 15.487366
_cell_length_b 11.223147
_cell_length_c 5.015041
_cell_angle_alpha 77.124226
_cell_angle_beta 90.139136
_cell_angle_gamma 126.293742
_cell_volume 675.554362
_symmetry_space_group_name_H-M "P -1"
_symmetry_group_IT_number 2
_symmetry_cell_setting 'triclinic'
loop_
_space_group_symop_operation_xyz
x,y,z
-x,-y,-z
loop_
_atom_site_type_symbol
_atom_site_label
_atom_site_fract_x
_atom_site_fract_y
_atom_site_fract_z
Si Si1 0.245882 0.526320 0.747029
Si Si2 0.199199 0.350391 0.329169
Si Si3 0.922123 0.404317 0.294390
Si Si4 0.018610 0.896070 0.229276
Si Si5 0.860911 0.082313 0.286285
Si Si6 0.336315 0.257188 0.555821
Si Si7 0.561709 0.460264 0.213753
O O1 0.255955 0.498150 0.450296
O O2 0.184163 0.601071 0.711102
O O3 0.364566 0.592552 0.835323
O O4 0.173851 0.381607 0.023341
O O5 0.273757 0.294443 0.332256
O O6 0.093122 0.236792 0.563774
O O7 0.879034 0.229051 0.349954
O O8 0.000000 0.500000 0.500000
O O9 0.000000 0.500000 0.000000
O O10 0.093432 0.968986 0.456467
O O11 0.074964 0.860013 0.023127
O O12 0.000000 0.000000 0.000000
O O13 0.742033 0.924202 0.301954
O O14 0.458859 0.325140 0.451268
O O15 0.355679 0.374356 0.726612
O O16 0.500000 0.500000 0.000000
#
# Coordination Sequence:
#
# PCOD9014022 Si02
#       7
#     2   2   2   2   2   2   2
#     4  11  23  39  67  91 123 174 215 260 320 378
#     4  11  21  37  62  93 129 162 208 263 323 393
#     4  12  25  47  65  91 133 179 224 259 310 390
#     4  12  24  37  59  97 134 167 208 262 334 396
#     4  12  26  41  63  94 136 173 215 271 320 387
#     4  10  23  38  61  98 128 164 207 273 340 381
#     4  10  21  41  66  94 130 162 215 277 332 390
#
# _framework density 20.723721999999999
#
# number of rings (size 3 to 8) (size 9 to 14) (size 15 to 20)
#    0.000    0.857    2.857    5.571    4.000    0.000 
#    0.000    0.714    0.000    0.857    0.000    0.000 
#    0.000    0.000    0.000    0.000    0.000    0.000 
#
# Total GULP energy -77963.428394 kJ/mol
# GULP energy per Si atom -5568.816314 kJ/mol
# Density = 2.067655 g / cm^3
# Si number density = 20.723722 Si / 1000 Ang^3
#
#
#
# Elastic Constant Matrix: (Units=GPa)
#
#
# Indices 1 2 3 4 5 6 
#
# 1 131.1859 44.1719 38.1798 -0.7440 -12.6985 -3.3165
# 2 44.1719 110.7161 37.0300 -8.2128 -4.4920 3.5220
# 3 38.1798 37.0300 117.8248 9.9387 -16.4635 7.7081
# 4 -0.7440 -8.2128 9.9387 25.4482 1.5806 4.0690
# 5 -12.6985 -4.4920 -16.4635 1.5806 35.1274 1.1218
# 6 -3.3165 3.5220 7.7081 4.0690 1.1218 25.0807
#
#
#
# Elastic Compliance Matrix: (Units=1/GPa)
#
#
# Indices 1 2 3 4 5 6 
#
# 1 0.009502 -0.003183 -0.001893 -0.000503 0.002091 0.002273
# 2 -0.003183 0.011767 -0.003175 0.005330 -0.001313 -0.001903
# 3 -0.001893 -0.003175 0.011361 -0.005380 0.004561 -0.002627
# 4 -0.000503 0.005330 -0.005380 0.044328 -0.003819 -0.006182
# 5 0.002091 -0.001313 0.004561 -0.003819 0.031420 -0.001726
# 6 0.002273 -0.001903 -0.002627 -0.006182 -0.001726 0.042327
#
#
# Mechanical properties :
#
#
# Convention : Reuss Voigt Hill
#
# Bulk Modulus (GPa) = 62.00232 66.49890 64.25061
# Shear Modulus (GPa) = 28.97146 33.15427 31.06287
#
# Velocity S-wave (km/s) = 3.74302 4.00412 3.87577
# Velocity P-wave (km/s) = 6.97594 7.31678 7.14839
#
# Compressibility (1/GPa) = 0.01612843
#
# Stress axis : x y z
#
# Youngs Moduli (GPa) = 105.23652 84.98623 88.01712
#
# Poissons Ratio (x) = 0.27050 0.16661
# Poissons Ratio (y) = 0.33495 0.27947
# Poissons Ratio (z) = 0.19921 0.26985
#
# Static dielectric constant tensor:
#      x y z
#    x 1.870730 0.019690 0.028130 
#    y 0.019690 1.819190 -0.002500 
#    z 0.028130 -0.002500 1.838640 
# 
# From -- ./inp_files/94630.got.cif
#   From: 2010.05.17/outbox.cif.g08.bks.cpg/sg2_48_cif.got.tgz:94630.got - 2010.06.03 11:33:40.
