data_PCOD9014257
_publ_section_title
;
Structure prediction by ZEFSAII (Michael W. Deem and Ramdas Pophale) SiO2 
 PCOD9014257
Probable space group: P -1
;
_chemical_formula_sum "Si O2"
_cell_formula_units_Z 12
_cell_length_a 8.771795
_cell_length_b 8.015826
_cell_length_c 14.873922
_cell_angle_alpha 63.172252
_cell_angle_beta 136.993496
_cell_angle_gamma 133.589030
_cell_volume 513.707592
_symmetry_space_group_name_H-M "P -1"
_symmetry_group_IT_number 2
_symmetry_cell_setting 'triclinic'
loop_
_space_group_symop_operation_xyz
x,y,z
-x,-y,-z
loop_
_atom_site_type_symbol
_atom_site_label
_atom_site_fract_x
_atom_site_fract_y
_atom_site_fract_z
Si Si1 0.984271 0.724587 0.097058
Si Si2 0.367368 0.905388 0.730135
Si Si3 0.690512 0.193004 0.463376
Si Si4 0.204469 0.798310 0.876835
Si Si5 0.207092 0.404624 0.759960
Si Si6 0.304796 0.332025 0.187747
O O1 0.906293 0.743736 0.161426
O O2 0.314052 0.874720 0.190142
O O3 0.851428 0.452524 0.092636
O O4 0.863399 0.785273 0.948450
O O5 0.250627 0.888516 0.584294
O O6 0.212468 0.889027 0.757499
O O7 0.345995 0.668683 0.786389
O O8 0.492981 0.266999 0.331073
O O9 0.969670 0.353694 0.601406
O O10 0.500000 0.000000 0.500000
O O11 0.935137 0.729447 0.832856
O O12 0.500000 0.000000 0.000000
O O13 0.442500 0.412437 0.803421
#
# Coordination Sequence:
#
# PCOD9014257 Si02
#       6
#     2   2   2   2   2   2
#     4  11  22  42  67  97 131 165 211 270 319 373
#     4  10  21  41  67  90 134 162 212 263 321 367
#     4  11  23  45  67  93 130 170 215 269 315 375
#     4  11  24  42  62  98 138 165 206 266 323 383
#     4  10  23  43  66  93 131 166 216 268 314 375
#     4  11  23  40  67  97 126 173 215 256 324 382
#
# _framework density 23.359591999999999
#
# number of rings (size 3 to 8) (size 9 to 14) (size 15 to 20)
#    0.000    1.333    3.333    3.000    0.000    4.000 
#    0.000    8.333    0.000    0.000    0.000    0.000 
#    0.000    0.000    0.000    0.000    0.000    0.000 
#
# Total GULP energy -66878.500777 kJ/mol
# GULP energy per Si atom -5573.208398 kJ/mol
# Density = 2.330642 g / cm^3
# Si number density = 23.359592 Si / 1000 Ang^3
#
#
#
# Elastic Constant Matrix: (Units=GPa)
#
#
# Indices 1 2 3 4 5 6 
#
# 1 152.9675 60.8917 85.8858 3.0169 -21.6403 67.8084
# 2 60.8917 131.3049 62.8094 16.3019 -9.9086 32.7036
# 3 85.8858 62.8094 158.8615 4.7845 -20.0649 33.7442
# 4 3.0169 16.3019 4.7845 50.2528 15.0139 -9.5858
# 5 -21.6403 -9.9086 -20.0649 15.0139 31.9852 -4.4818
# 6 67.8084 32.7036 33.7442 -9.5858 -4.4818 64.1339
#
#
#
# Elastic Compliance Matrix: (Units=1/GPa)
#
#
# Indices 1 2 3 4 5 6 
#
# 1 0.018620 -0.000437 -0.004706 -0.006915 0.010332 -0.017300
# 2 -0.000437 0.011035 -0.002648 -0.005094 0.003249 -0.004306
# 3 -0.004706 -0.002648 0.009965 -0.000347 0.002579 0.001212
# 4 -0.006915 -0.005094 -0.000347 0.030139 -0.018760 0.013285
# 5 0.010332 0.003249 0.002579 -0.018760 0.047808 -0.013401
# 6 -0.017300 -0.004306 0.001212 0.013285 -0.013401 0.036491
#
#
# Mechanical properties :
#
#
# Convention : Reuss Voigt Hill
#
# Bulk Modulus (GPa) = 41.60053 95.81194 68.70623
# Shear Modulus (GPa) = 28.14460 44.84419 36.49439
#
# Velocity S-wave (km/s) = 3.47485 4.38623 3.95687
# Velocity P-wave (km/s) = 5.82639 8.17051 7.09591
#
# Compressibility (1/GPa) = 0.02403816
#
# Stress axis : x y z
#
# Youngs Moduli (GPa) = 53.70426 90.61719 100.35087
#
# Poissons Ratio (x) = 0.03959 0.47226
# Poissons Ratio (y) = 0.02346 0.26577
# Poissons Ratio (z) = 0.25274 0.23999
#
# Static dielectric constant tensor:
#      x y z
#    x 2.008780 -0.016800 -0.020740 
#    y -0.016800 2.032630 -0.004720 
#    z -0.020740 -0.004720 1.891580 
# 
# From -- ./inp_files/270501.got.cif
#   From: 2010.05.17/outbox.cif.g08.bks.cpg/sg2_136_cif.got.tgz:270501.got - 2010.06.03 11:33:40.
