data_PCOD9014126
_publ_section_title
;
Structure prediction by ZEFSAII (Michael W. Deem and Ramdas Pophale) SiO2 
 PCOD9014126
Probable space group: P -1
;
_chemical_formula_sum "Si O2"
_cell_formula_units_Z 16
_cell_length_a 6.628977
_cell_length_b 22.468751
_cell_length_c 7.286697
_cell_angle_alpha 45.868249
_cell_angle_beta 64.283798
_cell_angle_gamma 77.541122
_cell_volume 695.528435
_symmetry_space_group_name_H-M "P -1"
_symmetry_group_IT_number 2
_symmetry_cell_setting 'triclinic'
loop_
_space_group_symop_operation_xyz
x,y,z
-x,-y,-z
loop_
_atom_site_type_symbol
_atom_site_label
_atom_site_fract_x
_atom_site_fract_y
_atom_site_fract_z
Si Si1 0.275730 0.209221 0.633884
Si Si2 0.565236 0.669861 0.985202
Si Si3 0.656119 0.924572 0.844099
Si Si4 0.364102 0.356150 0.553490
Si Si5 0.106719 0.582806 0.382844
Si Si6 0.260994 0.498611 0.845397
Si Si7 0.040604 0.939879 0.391450
Si Si8 0.151868 0.895300 0.042354
O O1 0.336967 0.243831 0.334494
O O2 0.388505 0.278424 0.582275
O O3 0.003652 0.185491 0.803094
O O4 0.360834 0.124759 0.850314
O O5 0.619988 0.667860 0.185579
O O6 0.298231 0.651670 0.078470
O O7 0.677243 0.594064 0.007053
O O8 0.851494 0.895807 0.698904
O O9 0.744439 0.020241 0.658612
O O10 0.416958 0.905332 0.883817
O O11 0.551161 0.436586 0.265087
O O12 0.114884 0.378272 0.557395
O O13 0.260340 0.542417 0.554873
O O14 0.000000 0.500000 0.500000
O O15 0.000000 0.500000 0.000000
O O16 0.106311 0.893889 0.282930
O O17 0.933825 0.021226 0.183430
#
# Coordination Sequence:
#
# PCOD9014126 Si02
#       8
#     2   2   2   2   2   2   2   2
#     4  11  27  40  58  98 129 170 205 248 324 394
#     4  11  24  42  61  90 125 162 215 267 318 382
#     4  10  21  41  67  96 132 167 212 257 313 376
#     4  11  24  43  62  88 129 160 214 271 317 383
#     4  11  20  40  67  89 109 163 219 266 326 370
#     4  11  23  38  66  90 115 160 217 274 318 375
#     4   9  20  40  70  99 125 164 215 265 298 372
#     4  10  21  41  66  98 133 165 212 256 316 377
#
# _framework density 23.004090999999999
#
# number of rings (size 3 to 8) (size 9 to 14) (size 15 to 20)
#    0.000    1.500    2.500    2.250    3.500    5.000 
#    0.000    0.000    0.000    0.000    0.000    0.000 
#    0.000    0.000    0.000    0.000    0.000    0.000 
#
# Total GULP energy -89286.794000 kJ/mol
# GULP energy per Si atom -5580.424625 kJ/mol
# Density = 2.295173 g / cm^3
# Si number density = 23.004091 Si / 1000 Ang^3
#
#
#
# Elastic Constant Matrix: (Units=GPa)
#
#
# Indices 1 2 3 4 5 6 
#
# 1 96.0070 2.6173 39.6854 -2.0056 -28.0223 8.6812
# 2 2.6173 48.1006 6.4347 10.0715 -5.4068 18.0836
# 3 39.6854 6.4347 106.0797 4.7473 -14.3481 3.6518
# 4 -2.0056 10.0715 4.7473 20.8025 6.1568 -3.2648
# 5 -28.0223 -5.4068 -14.3481 6.1568 44.3157 6.5691
# 6 8.6812 18.0836 3.6518 -3.2648 6.5691 33.9350
#
#
#
# Elastic Compliance Matrix: (Units=1/GPa)
#
#
# Indices 1 2 3 4 5 6 
#
# 1 0.016161 0.005597 -0.004262 -0.005094 0.011623 -0.009399
# 2 0.005597 0.038323 -0.000091 -0.027062 0.016029 -0.027551
# 3 -0.004262 -0.000091 0.011428 -0.003565 0.001600 -0.000744
# 4 -0.005094 -0.027062 -0.003565 0.072213 -0.021752 0.027266
# 5 0.011623 0.016029 0.001600 -0.021752 0.038560 -0.021245
# 6 -0.009399 -0.027551 -0.000744 0.027266 -0.021245 0.053370
#
#
# Mechanical properties :
#
#
# Convention : Reuss Voigt Hill
#
# Bulk Modulus (GPa) = 14.61953 38.62912 26.62433
# Shear Modulus (GPa) = 19.97072 33.24062 26.60567
#
# Velocity S-wave (km/s) = 2.94961 3.80542 3.40452
# Velocity P-wave (km/s) = 4.23902 6.01141 5.20127
#
# Compressibility (1/GPa) = 0.06840166
#
# Stress axis : x y z
#
# Youngs Moduli (GPa) = 61.87759 26.09369 87.50207
#
# Poissons Ratio (x) = -0.14606 0.37292
# Poissons Ratio (y) = -0.34635 0.00797
# Poissons Ratio (z) = 0.26371 0.00238
#
# Static dielectric constant tensor:
#      x y z
#    x 1.977690 0.040670 0.026830 
#    y 0.040670 1.705620 0.373160 
#    z 0.026830 0.373160 1.466260 
# 
# From -- ./inp_files/142995.got.cif
#   From: 2010.05.17/outbox.cif.g08.bks.cpg/sg2_72_cif.got.tgz:142995.got - 2010.06.03 11:33:40.
