data_PCOD9014267
_publ_section_title
;
Structure prediction by ZEFSAII (Michael W. Deem and Ramdas Pophale) SiO2 
 PCOD9014267
Probable space group: P -1
;
_chemical_formula_sum "Si O2"
_cell_formula_units_Z 16
_cell_length_a 18.932092
_cell_length_b 19.850865
_cell_length_c 8.449351
_cell_angle_alpha 42.438367
_cell_angle_beta 52.265494
_cell_angle_gamma 22.080002
_cell_volume 772.454822
_symmetry_space_group_name_H-M "P -1"
_symmetry_group_IT_number 2
_symmetry_cell_setting 'triclinic'
loop_
_space_group_symop_operation_xyz
x,y,z
-x,-y,-z
loop_
_atom_site_type_symbol
_atom_site_label
_atom_site_fract_x
_atom_site_fract_y
_atom_site_fract_z
Si Si1 0.020052 0.888918 0.789112
Si Si2 0.669073 0.564279 0.020479
Si Si3 0.387902 0.201451 0.717918
Si Si4 0.977065 0.603770 0.710903
Si Si5 0.710088 0.748398 0.596053
Si Si6 0.334667 0.919300 0.599133
Si Si7 0.689921 0.258328 0.224607
Si Si8 0.416769 0.685822 0.364655
O O1 0.143699 0.822271 0.868518
O O2 0.154994 0.672670 0.891942
O O3 0.000000 0.000000 0.500000
O O4 0.803008 0.071142 0.819823
O O5 0.733801 0.613522 0.866173
O O6 0.485477 0.746987 0.833673
O O7 0.578769 0.604981 0.231006
O O8 0.311777 0.240747 0.581534
O O9 0.533057 0.149540 0.586218
O O10 0.194020 0.424724 0.688232
O O11 0.500000 0.000000 0.000000
O O12 0.877622 0.649555 0.614963
O O13 0.835591 0.835379 0.546006
O O14 0.000000 0.500000 0.000000
O O15 0.500000 0.000000 0.500000
O O16 0.257561 0.893192 0.679523
O O17 0.627043 0.286682 0.438375
O O18 0.500000 0.500000 0.000000
O O19 0.500000 0.500000 0.500000
#
# Coordination Sequence:
#
# PCOD9014267 Si02
#       8
#     2   2   2   2   2   2   2   2
#     4  10  21  41  67  91 131 165 212 267 322 382
#     4  11  22  43  69  92 133 167 220 272 323 394
#     4  11  23  45  69  96 138 174 220 277 334 397
#     4  12  24  45  68  96 138 174 224 280 329 398
#     4  11  23  44  69  98 134 177 219 277 337 392
#     4  11  24  45  64  97 134 172 216 275 331 389
#     4  11  22  43  67  93 136 171 211 273 329 386
#     4  11  22  42  68  95 129 172 218 268 325 393
#
# _framework density 20.713183000000001
#
# number of rings (size 3 to 8) (size 9 to 14) (size 15 to 20)
#    0.000    1.000    7.500    0.375    0.000    6.000 
#    4.500    1.250    0.000    0.000    0.000    0.000 
#    0.000    0.000    0.000    0.000    0.000    0.000 
#
# Total GULP energy -89366.354083 kJ/mol
# GULP energy per Si atom -5585.397130 kJ/mol
# Density = 2.066604 g / cm^3
# Si number density = 20.713183 Si / 1000 Ang^3
#
#
#
# Elastic Constant Matrix: (Units=GPa)
#
#
# Indices 1 2 3 4 5 6 
#
# 1 82.1561 29.0951 16.0178 -14.7847 -19.9572 0.6012
# 2 29.0951 145.1200 30.0244 -29.0940 -22.7426 -7.0247
# 3 16.0178 30.0244 77.3220 -18.5891 -12.4289 3.3414
# 4 -14.7847 -29.0940 -18.5891 42.4247 6.7543 -2.8254
# 5 -19.9572 -22.7426 -12.4289 6.7543 35.2197 -7.6810
# 6 0.6012 -7.0247 3.3414 -2.8254 -7.6810 29.1075
#
#
#
# Elastic Compliance Matrix: (Units=1/GPa)
#
#
# Indices 1 2 3 4 5 6 
#
# 1 0.015027 -0.000957 -0.000878 0.003141 0.007380 0.001812
# 2 -0.000957 0.009380 -0.001666 0.004869 0.004919 0.004245
# 3 -0.000878 -0.001666 0.015396 0.004798 0.002729 -0.000966
# 4 0.003141 0.004869 0.004798 0.030098 0.001702 0.003930
# 5 0.007380 0.004919 0.002729 0.001702 0.038815 0.011129
# 6 0.001812 0.004245 -0.000966 0.003930 0.011129 0.038772
#
#
# Mechanical properties :
#
#
# Convention : Reuss Voigt Hill
#
# Bulk Modulus (GPa) = 30.48823 50.54142 40.51482
# Shear Modulus (GPa) = 30.22551 36.64775 33.43663
#
# Velocity S-wave (km/s) = 3.82414 4.21086 4.02215
# Velocity P-wave (km/s) = 5.85235 6.93508 6.41659
#
# Compressibility (1/GPa) = 0.03279954
#
# Stress axis : x y z
#
# Youngs Moduli (GPa) = 66.54768 106.61112 64.95264
#
# Poissons Ratio (x) = 0.10203 0.05704
# Poissons Ratio (y) = 0.06369 0.10823
# Poissons Ratio (z) = 0.05844 0.17765
#
# Static dielectric constant tensor:
#      x y z
#    x 1.764650 -0.011210 0.027720 
#    y -0.011210 1.729160 0.026820 
#    z 0.027720 0.026820 1.749000 
# 
# From -- ./inp_files/201072.got.cif
#   From: 2010.05.17/outbox.cif.g08.bks.cpg/sg2_101_cif.got.tgz:201072.got - 2010.06.03 11:33:40.
