data_PCOD9014059
_publ_section_title
;
Structure prediction by ZEFSAII (Michael W. Deem and Ramdas Pophale) SiO2 
 PCOD9014059
Probable space group: P -1
;
_chemical_formula_sum "Si O2"
_cell_formula_units_Z 16
_cell_length_a 21.118694
_cell_length_b 6.715580
_cell_length_c 9.242995
_cell_angle_alpha 50.203371
_cell_angle_beta 137.865574
_cell_angle_gamma 133.741724
_cell_volume 613.040623
_symmetry_space_group_name_H-M "P -1"
_symmetry_group_IT_number 2
_symmetry_cell_setting 'triclinic'
loop_
_space_group_symop_operation_xyz
x,y,z
-x,-y,-z
loop_
_atom_site_type_symbol
_atom_site_label
_atom_site_fract_x
_atom_site_fract_y
_atom_site_fract_z
Si Si1 0.168070 0.204488 0.419279
Si Si2 0.814261 0.375905 0.472240
Si Si3 0.736399 0.730483 0.029921
Si Si4 0.650485 0.380314 0.673978
Si Si5 0.427915 0.146209 0.424895
Si Si6 0.184702 0.749575 0.861891
Si Si7 0.592767 0.172183 0.181334
Si Si8 0.997345 0.673911 0.060906
O O1 0.181735 0.420290 0.477919
O O2 0.263352 0.392021 0.389242
O O3 0.171260 0.922085 0.622964
O O4 0.057906 0.137546 0.186604
O O5 0.699237 0.134272 0.364412
O O6 0.890934 0.241802 0.716800
O O7 0.821536 0.593936 0.249918
O O8 0.671325 0.774724 0.765272
O O9 0.790888 0.028357 0.065286
O O10 0.639930 0.508296 0.068085
O O11 0.541590 0.409929 0.486411
O O12 0.606074 0.065815 0.670262
O O13 0.718236 0.337457 0.940332
O O14 0.440690 0.942699 0.663487
O O15 0.080766 0.500538 0.861991
O O16 0.500000 0.000000 0.000000
O O17 0.000000 0.500000 0.000000
#
# Coordination Sequence:
#
# PCOD9014059 Si02
#       8
#     2   2   2   2   2   2   2   2
#     4   9  15  28  42  65  97 119 149 181 227 279
#     4   8  16  31  39  65  94 120 154 185 219 271
#     4   8  18  29  44  65  90 122 157 186 222 271
#     4   9  17  27  46  70  92 124 147 190 232 278
#     4  10  17  30  48  64  92 124 158 186 234 269
#     4   9  16  28  43  69  99 121 147 184 232 286
#     4  10  20  34  46  62  94 129 161 195 221 259
#     4   9  17  25  43  66  95 127 151 177 231 283
#
# _framework density 26.099413999999999
#
# number of rings (size 3 to 8) (size 9 to 14) (size 15 to 20)
#    0.750    2.250    1.250    0.000    1.750    6.000 
#    0.000    4.375    0.000    0.000    0.000    3.500 
#    0.000    6.000    0.000    0.000    0.000    0.000 
#
# Total GULP energy -89207.872679 kJ/mol
# GULP energy per Si atom -5575.492042 kJ/mol
# Density = 2.604001 g / cm^3
# Si number density = 26.099414 Si / 1000 Ang^3
#
#
#
# Elastic Constant Matrix: (Units=GPa)
#
#
# Indices 1 2 3 4 5 6 
#
# 1 71.6141 16.9314 43.2271 -8.6805 23.6328 -8.8258
# 2 16.9314 86.7213 50.5135 6.0973 8.0342 10.7624
# 3 43.2271 50.5135 247.5769 15.3260 10.8207 14.9989
# 4 -8.6805 6.0973 15.3260 54.8834 5.1901 1.6123
# 5 23.6328 8.0342 10.8207 5.1901 46.1535 -9.5135
# 6 -8.8258 10.7624 14.9989 1.6123 -9.5135 39.1104
#
#
#
# Elastic Compliance Matrix: (Units=1/GPa)
#
#
# Indices 1 2 3 4 5 6 
#
# 1 0.020627 -0.002103 -0.003339 0.005175 -0.009155 0.004074
# 2 -0.002103 0.013849 -0.002098 -0.001031 -0.001510 -0.003806
# 3 -0.003339 -0.002098 0.005250 -0.001764 0.000638 -0.001962
# 4 0.005175 -0.001031 -0.001764 0.020041 -0.004255 0.000267
# 5 -0.009155 -0.001510 0.000638 -0.004255 0.027996 0.005090
# 6 0.004074 -0.003806 -0.001962 0.000267 0.005090 0.029515
#
#
# Mechanical properties :
#
#
# Convention : Reuss Voigt Hill
#
# Bulk Modulus (GPa) = 40.57628 69.69515 55.13571
# Shear Modulus (GPa) = 35.56849 47.71215 41.64032
#
# Velocity S-wave (km/s) = 3.69563 4.28026 3.99864
# Velocity P-wave (km/s) = 5.81298 7.15466 6.51843
#
# Compressibility (1/GPa) = 0.02464494
#
# Stress axis : x y z
#
# Youngs Moduli (GPa) = 48.47945 72.20960 190.46134
#
# Poissons Ratio (x) = 0.15188 0.63603
# Poissons Ratio (y) = 0.10197 0.39957
# Poissons Ratio (z) = 0.16189 0.15149
#
# Static dielectric constant tensor:
#      x y z
#    x 2.227920 -0.055820 0.034810 
#    y -0.055820 2.070780 0.009940 
#    z 0.034810 0.009940 2.075770 
# 
# From -- ./inp_files/477550.got.cif
#   From: 2010.05.17/outbox.cif.g08.bks.cpg/sg2_239_cif.got.tgz:477550.got - 2010.06.03 11:33:40.
