data_PCOD9014503
_publ_section_title
;
Structure prediction by ZEFSAII (Michael W. Deem and Ramdas Pophale) SiO2 
 PCOD9014503
Probable space group: P -1
;
_chemical_formula_sum "Si O2"
_cell_formula_units_Z 13
_cell_length_a 7.921444
_cell_length_b 10.609526
_cell_length_c 7.932116
_cell_angle_alpha 120.619503
_cell_angle_beta 74.055773
_cell_angle_gamma 122.911322
_cell_volume 481.615421
_symmetry_space_group_name_H-M "P -1"
_symmetry_group_IT_number 2
_symmetry_cell_setting 'triclinic'
loop_
_space_group_symop_operation_xyz
x,y,z
-x,-y,-z
loop_
_atom_site_type_symbol
_atom_site_label
_atom_site_fract_x
_atom_site_fract_y
_atom_site_fract_z
Si Si1 0.239802 0.575933 0.473730
Si Si2 0.544993 0.076594 0.226947
Si Si3 0.790353 0.680396 0.461645
Si Si4 0.180772 0.060103 0.861707
Si Si5 0.000000 0.000000 0.500000
Si Si6 0.440154 0.588448 0.928927
Si Si7 0.227227 0.743554 0.258091
O O1 0.380050 0.725348 0.663719
O O2 0.241956 0.407314 0.410248
O O3 0.299138 0.675126 0.349870
O O4 0.000000 0.500000 0.500000
O O5 0.743934 0.076652 0.247072
O O6 0.370692 0.935761 0.296896
O O7 0.500000 0.000000 0.000000
O O8 0.013097 0.730785 0.352796
O O9 0.630338 0.545040 0.291209
O O10 0.811205 0.860756 0.572094
O O11 0.126585 0.082002 0.700864
O O12 0.368608 0.227499 0.996088
O O13 0.000000 0.000000 0.000000
O O14 0.251504 0.626072 0.031848
O O15 0.500000 0.500000 0.000000
#
# Coordination Sequence:
#
# PCOD9014503 Si02
#       7
#     2   2   2   2   1   2   2
#     4  10  21  41  68 102 136 177 243 290 352 428
#     4  11  24  44  71 106 141 182 244 299 364 438
#     4  11  24  46  71 102 142 192 238 297 364 432
#     4  11  26  47  71 104 147 192 237 297 371 437
#     4  12  26  48  74 102 152 190 248 298 368 430
#     4  11  23  45  66 105 140 178 242 293 357 432
#     4  10  23  42  75 103 138 188 235 298 363 432
#
# _framework density 26.992491999999999
#
# number of rings (size 3 to 8) (size 9 to 14) (size 15 to 20)
#    0.000    1.231    1.538    4.615    2.154    6.154 
#    5.538    1.538    0.000    0.000    0.000    0.000 
#    0.000    0.000    0.000    0.000    0.000    0.000 
#
# Total GULP energy -72506.623686 kJ/mol
# GULP energy per Si atom -5577.432591 kJ/mol
# Density = 2.693106 g / cm^3
# Si number density = 26.992492 Si / 1000 Ang^3
#
#
#
# Elastic Constant Matrix: (Units=GPa)
#
#
# Indices 1 2 3 4 5 6 
#
# 1 106.1780 39.6252 -3.5885 -10.0837 -0.3631 23.4637
# 2 39.6252 213.5703 30.6536 -3.3326 9.6903 3.6569
# 3 -3.5885 30.6536 90.9999 4.6182 32.9820 11.1171
# 4 -10.0837 -3.3326 4.6182 52.6291 -4.8184 11.5112
# 5 -0.3631 9.6903 32.9820 -4.8184 45.2164 -5.4205
# 6 23.4637 3.6569 11.1171 11.5112 -5.4205 64.9851
#
#
#
# Elastic Compliance Matrix: (Units=1/GPa)
#
#
# Indices 1 2 3 4 5 6 
#
# 1 0.011754 -0.002303 0.002193 0.002912 -0.001314 -0.005115
# 2 -0.002303 0.005386 -0.002221 -0.000066 0.000557 0.000967
# 3 0.002193 -0.002221 0.016985 -0.001406 -0.012569 -0.004372
# 4 0.002912 -0.000066 -0.001406 0.020866 0.002774 -0.004272
# 5 -0.001314 0.000557 -0.012569 0.002774 0.032022 0.004773
# 6 -0.005115 0.000967 -0.004372 -0.004272 0.004773 0.019083
#
#
# Mechanical properties :
#
#
# Convention : Reuss Voigt Hill
#
# Bulk Modulus (GPa) = 33.94286 60.45877 47.20081
# Shear Modulus (GPa) = 41.46619 55.50332 48.48476
#
# Velocity S-wave (km/s) = 3.92371 4.53951 4.24279
# Velocity P-wave (km/s) = 5.75582 7.06563 6.44409
#
# Compressibility (1/GPa) = 0.02946128
#
# Stress axis : x y z
#
# Youngs Moduli (GPa) = 85.07677 185.68102 58.87613
#
# Poissons Ratio (x) = 0.42760 -0.12910
# Poissons Ratio (y) = 0.19592 0.13079
# Poissons Ratio (z) = -0.18655 0.41247
#
# Static dielectric constant tensor:
#      x y z
#    x 2.300640 -0.150140 -0.091040 
#    y -0.150140 2.256300 -0.010960 
#    z -0.091040 -0.010960 2.169960 
# 
# From -- ./inp_files/172252.got.cif
#   From: 2010.05.17/outbox.cif.g08.bks.cpg/sg2_87_cif.got.tgz:172252.got - 2010.06.03 11:33:40.
