data_PCOD9014509
_publ_section_title
;
Structure prediction by ZEFSAII (Michael W. Deem and Ramdas Pophale) SiO2 
 PCOD9014509
Probable space group: P -1
;
_chemical_formula_sum "Si O2"
_cell_formula_units_Z 16
_cell_length_a 7.836856
_cell_length_b 18.937045
_cell_length_c 5.481030
_cell_angle_alpha 58.887452
_cell_angle_beta 60.378418
_cell_angle_gamma 64.726335
_cell_volume 589.099508
_symmetry_space_group_name_H-M "P -1"
_symmetry_group_IT_number 2
_symmetry_cell_setting 'triclinic'
loop_
_space_group_symop_operation_xyz
x,y,z
-x,-y,-z
loop_
_atom_site_type_symbol
_atom_site_label
_atom_site_fract_x
_atom_site_fract_y
_atom_site_fract_z
Si Si1 0.190868 0.191189 0.094205
Si Si2 0.133440 0.384402 0.806331
Si Si3 0.264672 0.343520 0.281444
Si Si4 0.477043 0.907555 0.241931
Si Si5 0.303041 0.574383 0.979845
Si Si6 0.576011 0.195127 0.130210
Si Si7 0.805515 0.325762 0.615838
Si Si8 0.955303 0.055766 0.683239
O O1 0.398369 0.198048 0.062593
O O2 0.078302 0.129131 0.424360
O O3 0.291776 0.146520 0.856477
O O4 0.083080 0.289701 0.983919
O O5 0.254049 0.387214 0.470091
O O6 0.265309 0.391149 0.938705
O O7 0.917378 0.447744 0.860393
O O8 0.044622 0.321259 0.446612
O O9 0.456884 0.265181 0.286002
O O10 0.396121 0.892735 0.593113
O O11 0.283651 0.899396 0.230765
O O12 0.500000 0.000000 0.000000
O O13 0.299788 0.631603 0.634470
O O14 0.500000 0.500000 0.000000
O O15 0.277915 0.619870 0.181943
O O16 0.760294 0.233426 0.851124
O O17 0.000000 0.000000 0.500000
O O18 0.000000 0.000000 0.000000
#
# Coordination Sequence:
#
# PCOD9014509 Si02
#       8
#     2   2   2   2   2   2   2   2
#     4  11  25  44  69  95 139 177 232 287 352 397
#     4   9  19  36  63  91 124 172 216 265 331 395
#     4   9  19  38  59  92 132 164 217 274 336 376
#     4  12  26  44  70  99 139 184 233 290 352 407
#     4  10  21  41  68 102 141 181 223 277 346 415
#     4  11  25  40  70 101 135 177 240 290 334 413
#     4  10  23  39  70 100 135 180 233 273 342 408
#     4  12  29  48  68  96 136 180 229 282 355 415
#
# _framework density 27.160097
#
# number of rings (size 3 to 8) (size 9 to 14) (size 15 to 20)
#    0.000    1.500    2.500    1.125    7.000    3.000 
#    0.000    0.000    0.000   28.500    0.000    0.000 
#    0.000    0.000    0.000    0.000    0.000    0.000 
#
# Total GULP energy -89450.375694 kJ/mol
# GULP energy per Si atom -5590.648481 kJ/mol
# Density = 2.709828 g / cm^3
# Si number density = 27.160097 Si / 1000 Ang^3
#
#
#
# Elastic Constant Matrix: (Units=GPa)
#
#
# Indices 1 2 3 4 5 6 
#
# 1 94.5985 -1.8720 38.9300 9.6652 -7.5309 -15.0719
# 2 -1.8720 89.0388 35.2706 23.9027 1.5089 -19.0570
# 3 38.9300 35.2706 170.0094 8.2459 6.9109 8.7546
# 4 9.6652 23.9027 8.2459 42.3607 6.0016 3.8834
# 5 -7.5309 1.5089 6.9109 6.0016 62.6165 5.9441
# 6 -15.0719 -19.0570 8.7546 3.8834 5.9441 35.1379
#
#
#
# Elastic Compliance Matrix: (Units=1/GPa)
#
#
# Indices 1 2 3 4 5 6 
#
# 1 0.016082 0.007514 -0.005585 -0.008284 0.001934 0.012954
# 2 0.007514 0.021693 -0.006482 -0.014459 0.000767 0.018071
# 3 -0.005585 -0.006482 0.008780 0.004144 -0.001087 -0.008373
# 4 -0.008284 -0.014459 0.004144 0.034710 -0.002935 -0.015767
# 5 0.001934 0.000767 -0.001087 -0.002935 0.016679 -0.000981
# 6 0.012954 0.018071 -0.008373 -0.015767 -0.000981 0.047811
#
#
# Mechanical properties :
#
#
# Convention : Reuss Voigt Hill
#
# Bulk Modulus (GPa) = 26.70269 55.36710 41.03489
# Shear Modulus (GPa) = 29.87865 46.77757 38.32811
#
# Velocity S-wave (km/s) = 3.32036 4.15455 3.76066
# Velocity P-wave (km/s) = 4.95507 6.59116 5.83079
#
# Compressibility (1/GPa) = 0.03744941
#
# Stress axis : x y z
#
# Youngs Moduli (GPa) = 62.17985 46.09832 113.89479
#
# Poissons Ratio (x) = -0.34639 0.63615
# Poissons Ratio (y) = -0.46722 0.73821
# Poissons Ratio (z) = 0.34730 0.29879
#
# Static dielectric constant tensor:
#      x y z
#    x 2.145150 0.011000 0.047950 
#    y 0.011000 2.425780 0.058970 
#    z 0.047950 0.058970 2.235390 
# 
# From -- ./inp_files/52161.got.cif
#   From: 2010.05.17/outbox.cif.g08.bks.cpg/sg2_27_cif.got.tgz:52161.got - 2010.06.03 11:33:40.
