data_PCOD9014940
_publ_section_title
;
Structure prediction by ZEFSAII (Michael W. Deem and Ramdas Pophale) SiO2 
 PCOD9014940
Probable space group: P -1
;
_chemical_formula_sum "Si O2"
_cell_formula_units_Z 16
_cell_length_a 7.024793
_cell_length_b 9.366625
_cell_length_c 18.621201
_cell_angle_alpha 52.324409
_cell_angle_beta 43.031152
_cell_angle_gamma 76.494305
_cell_volume 608.009971
_symmetry_space_group_name_H-M "P -1"
_symmetry_group_IT_number 2
_symmetry_cell_setting 'triclinic'
loop_
_space_group_symop_operation_xyz
x,y,z
-x,-y,-z
loop_
_atom_site_type_symbol
_atom_site_label
_atom_site_fract_x
_atom_site_fract_y
_atom_site_fract_z
Si Si1 0.338496 0.480370 0.973493
Si Si2 0.243927 0.042408 0.749504
Si Si3 0.641041 0.934663 0.913769
Si Si4 0.925161 0.647582 0.679528
Si Si5 0.918856 0.229421 0.990415
Si Si6 0.400901 0.067490 0.431348
Si Si7 0.373507 0.543226 0.680808
Si Si8 0.793634 0.449225 0.501583
O O1 0.585192 0.600013 0.810121
O O2 0.500000 0.500000 0.000000
O O3 0.280106 0.257462 0.039289
O O4 0.107538 0.585626 0.016842
O O5 0.357891 0.919669 0.700332
O O6 0.986699 0.094818 0.762813
O O7 0.548883 0.226045 0.629530
O O8 0.102760 0.935230 0.895847
O O9 0.385798 0.874078 0.941525
O O10 0.500000 0.000000 0.000000
O O11 0.083890 0.586050 0.722265
O O12 0.988491 0.527855 0.633339
O O13 0.097674 0.881206 0.553072
O O14 0.221757 0.333632 0.827055
O O15 0.413100 0.281032 0.381295
O O16 0.500000 0.000000 0.500000
O O17 0.560849 0.551131 0.554208
O O18 0.000000 0.500000 0.500000
#
# Coordination Sequence:
#
# PCOD9014940 Si02
#       8
#     2   2   2   2   2   2   2   2
#     4  10  21  41  70 103 137 175 236 283 351 418
#     4  11  26  47  68 107 142 180 239 290 355 408
#     4  11  24  42  69 101 140 184 225 287 352 416
#     4  10  21  43  70  98 138 183 232 288 346 419
#     4  11  25  44  74 105 143 184 231 298 343 424
#     4   9  22  40  70  99 132 186 231 285 342 412
#     4  11  21  44  70 102 137 184 234 282 359 408
#     4  11  27  46  65  97 143 186 235 287 344 427
#
# _framework density 26.315356999999999
#
# number of rings (size 3 to 8) (size 9 to 14) (size 15 to 20)
#    0.000    1.500    2.500    1.875    5.250    8.000 
#    4.500    2.500    0.000    0.000    0.000    0.000 
#    0.000    0.000    0.000    0.000    0.000    0.000 
#
# Total GULP energy -89495.794573 kJ/mol
# GULP energy per Si atom -5593.487161 kJ/mol
# Density = 2.625546 g / cm^3
# Si number density = 26.315357 Si / 1000 Ang^3
#
#
#
# Elastic Constant Matrix: (Units=GPa)
#
#
# Indices 1 2 3 4 5 6 
#
# 1 82.5503 26.7564 20.3774 -10.4288 -12.1843 27.0924
# 2 26.7564 160.9309 39.0557 16.8213 -1.3675 24.2480
# 3 20.3774 39.0557 147.7797 18.9265 1.4486 10.9359
# 4 -10.4288 16.8213 18.9265 35.8402 0.2657 -4.9907
# 5 -12.1843 -1.3675 1.4486 0.2657 34.2536 -1.4117
# 6 27.0924 24.2480 10.9359 -4.9907 -1.4117 47.0847
#
#
#
# Elastic Compliance Matrix: (Units=1/GPa)
#
#
# Indices 1 2 3 4 5 6 
#
# 1 0.017383 -0.001757 -0.002169 0.005899 0.005838 -0.007794
# 2 -0.001757 0.007639 -0.001032 -0.003983 -0.000374 -0.003117
# 3 -0.002169 -0.001032 0.007958 -0.004420 -0.001139 -0.000572
# 4 0.005899 -0.003983 -0.004420 0.034277 0.002000 0.003376
# 5 0.005838 -0.000374 -0.001139 0.002000 0.031216 -0.001754
# 6 -0.007794 -0.003117 -0.000572 0.003376 -0.001754 0.027766
#
#
# Mechanical properties :
#
#
# Convention : Reuss Voigt Hill
#
# Bulk Modulus (GPa) = 43.35490 62.62665 52.99077
# Shear Modulus (GPa) = 34.75998 43.77380 39.26689
#
# Velocity S-wave (km/s) = 3.63836 4.08294 3.86705
# Velocity P-wave (km/s) = 5.84475 6.78804 6.33398
#
# Compressibility (1/GPa) = 0.02306544
#
# Stress axis : x y z
#
# Youngs Moduli (GPa) = 57.52639 130.90447 125.65529
#
# Poissons Ratio (x) = 0.22994 0.27252
# Poissons Ratio (y) = 0.10105 0.12971
# Poissons Ratio (z) = 0.12476 0.13513
#
# Static dielectric constant tensor:
#      x y z
#    x 2.130180 -0.013470 -0.025770 
#    y -0.013470 2.072100 -0.080470 
#    z -0.025770 -0.080470 2.119160 
# 
# From -- ./inp_files/587882.got.cif
#   From: 2010.05.17/outbox.cif.g08.bks.cpg/sg2_294_cif.got.tgz:587882.got - 2010.06.03 11:33:40.
