data_PCOD9014169
_publ_section_title
;
Structure prediction by ZEFSAII (Michael W. Deem and Ramdas Pophale) SiO2 
 PCOD9014169
Probable space group: P -1
;
_chemical_formula_sum "Si O2"
_cell_formula_units_Z 14
_cell_length_a 5.481013
_cell_length_b 14.632660
_cell_length_c 21.477414
_cell_angle_alpha 24.060888
_cell_angle_beta 58.308616
_cell_angle_gamma 59.019262
_cell_volume 594.510836
_symmetry_space_group_name_H-M "P -1"
_symmetry_group_IT_number 2
_symmetry_cell_setting 'triclinic'
loop_
_space_group_symop_operation_xyz
x,y,z
-x,-y,-z
loop_
_atom_site_type_symbol
_atom_site_label
_atom_site_fract_x
_atom_site_fract_y
_atom_site_fract_z
Si Si1 0.086901 0.206130 0.041346
Si Si2 0.154561 0.983774 0.055639
Si Si3 0.299986 0.740386 0.303176
Si Si4 0.996402 0.634012 0.853969
Si Si5 0.310709 0.078307 0.536551
Si Si6 0.791334 0.346404 0.493058
Si Si7 0.524184 0.038314 0.283609
O O1 0.339820 0.005539 0.144710
O O2 0.822871 0.116431 0.170525
O O3 0.020700 0.191127 0.986825
O O4 0.139001 0.455618 0.897117
O O5 0.500000 0.000000 0.000000
O O6 0.134138 0.772090 0.238686
O O7 0.000000 0.000000 0.000000
O O8 0.588381 0.572629 0.363870
O O9 0.142736 0.662715 0.435350
O O10 0.145250 0.857539 0.704515
O O11 0.934397 0.710954 0.553618
O O12 0.000000 0.500000 0.000000
O O13 0.500000 0.000000 0.500000
O O14 0.485449 0.089688 0.569711
O O15 0.673404 0.729707 0.822548
O O16 0.598790 0.135972 0.639143
#
# Coordination Sequence:
#
# PCOD9014169 Si02
#       7
#     2   2   2   2   2   2   2
#     4  10  21  41  67 100 132 182 238 295 358 428
#     4  10  24  46  64  99 148 187 237 298 371 440
#     4   9  21  43  68  97 138 181 237 296 358 436
#     4  11  22  41  70  97 134 176 239 293 349 432
#     4  11  24  45  65  99 142 183 235 296 366 435
#     4  10  21  43  69  98 137 182 241 292 360 436
#     4  11  22  41  68  99 130 182 239 293 354 433
#
# _framework density 23.548772
#
# number of rings (size 3 to 8) (size 9 to 14) (size 15 to 20)
#    0.857    0.857    2.857    1.286    2.000    2.857 
#    7.714    0.000    0.000    0.000    0.000    0.000 
#    0.000    0.000    0.000    0.000    0.000    0.000 
#
# Total GULP energy -77983.456274 kJ/mol
# GULP energy per Si atom -5570.246877 kJ/mol
# Density = 2.349517 g / cm^3
# Si number density = 23.548772 Si / 1000 Ang^3
#
#
#
# Elastic Constant Matrix: (Units=GPa)
#
#
# Indices 1 2 3 4 5 6 
#
# 1 57.6018 39.7386 31.3104 11.4416 21.6511 15.0974
# 2 39.7386 166.3056 44.6280 2.8212 27.9596 6.8515
# 3 31.3104 44.6280 65.8366 -23.3085 23.7529 6.4867
# 4 11.4416 2.8212 -23.3085 60.1574 -1.1226 12.2323
# 5 21.6511 27.9596 23.7529 -1.1226 37.5226 7.8628
# 6 15.0974 6.8515 6.4867 12.2323 7.8628 41.3915
#
#
#
# Elastic Compliance Matrix: (Units=1/GPa)
#
#
# Indices 1 2 3 4 5 6 
#
# 1 0.033489 -0.002280 -0.015320 -0.011381 -0.007284 -0.004690
# 2 -0.002280 0.008099 -0.004397 -0.001931 -0.002240 0.001176
# 3 -0.015320 -0.004397 0.034962 0.017003 -0.008987 -0.002481
# 4 -0.011381 -0.001931 0.017003 0.026660 -0.000716 -0.005937
# 5 -0.007284 -0.002240 -0.008987 -0.000716 0.038760 -0.002715
# 6 -0.004690 0.001176 -0.002481 -0.005937 -0.002715 0.028334
#
#
# Mechanical properties :
#
#
# Convention : Reuss Voigt Hill
#
# Bulk Modulus (GPa) = 30.71637 57.89978 44.30808
# Shear Modulus (GPa) = 22.20767 39.41879 30.81323
#
# Velocity S-wave (km/s) = 3.07424 4.09580 3.62122
# Velocity P-wave (km/s) = 5.06689 6.85623 6.02832
#
# Compressibility (1/GPa) = 0.03255593
#
# Stress axis : x y z
#
# Youngs Moduli (GPa) = 29.86092 123.47898 28.60273
#
# Poissons Ratio (x) = 0.28154 0.43819
# Poissons Ratio (y) = 0.06809 0.12575
# Poissons Ratio (z) = 0.45746 0.54288
#
# Static dielectric constant tensor:
#      x y z
#    x 1.975420 -0.055090 0.061330 
#    y -0.055090 1.976650 -0.020610 
#    z 0.061330 -0.020610 2.164750 
# 
# From -- ./inp_files/583501.got.cif
#   From: 2010.05.17/outbox.cif.g08.bks.cpg/sg2_292_cif.got.tgz:583501.got - 2010.06.03 11:33:40.
