data_PCOD9014061
_publ_section_title
;
Structure prediction by ZEFSAII (Michael W. Deem and Ramdas Pophale) SiO2 
 PCOD9014061
Probable space group: P -1
;
_chemical_formula_sum "Si O2"
_cell_formula_units_Z 14
_cell_length_a 11.893652
_cell_length_b 11.640933
_cell_length_c 11.786956
_cell_angle_alpha 33.986968
_cell_angle_beta 60.247384
_cell_angle_gamma 85.334086
_cell_volume 580.527433
_symmetry_space_group_name_H-M "P -1"
_symmetry_group_IT_number 2
_symmetry_cell_setting 'triclinic'
loop_
_space_group_symop_operation_xyz
x,y,z
-x,-y,-z
loop_
_atom_site_type_symbol
_atom_site_label
_atom_site_fract_x
_atom_site_fract_y
_atom_site_fract_z
Si Si1 0.657553 0.894654 0.035412
Si Si2 0.252071 0.536441 0.542168
Si Si3 0.149584 0.523655 0.848661
Si Si4 0.355650 0.404110 0.929659
Si Si5 0.052799 0.777069 0.195815
Si Si6 0.672363 0.046551 0.266090
Si Si7 0.422634 0.125405 0.290542
O O1 0.705132 0.183031 0.748138
O O2 0.802755 0.980780 0.985391
O O3 0.448716 0.658925 0.364112
O O4 0.675445 0.784737 0.002050
O O5 0.143656 0.424561 0.806473
O O6 0.130378 0.317509 0.678443
O O7 0.192915 0.385860 0.027020
O O8 0.314846 0.857188 0.482919
O O9 0.000000 0.500000 0.000000
O O10 0.520054 0.730588 0.555609
O O11 0.403584 0.327733 0.080354
O O12 0.000000 0.500000 0.500000
O O13 0.155914 0.829405 0.987277
O O14 0.670753 0.002112 0.436859
O O15 0.612041 0.217932 0.134528
#
# Coordination Sequence:
#
# PCOD9014061 Si02
#       7
#     2   2   2   2   2   2   2
#     4  10  21  41  69  98 135 178 232 280 341 414
#     4  10  21  41  68  96 137 182 223 285 347 402
#     4  11  23  40  64  95 136 182 228 283 351 411
#     4  11  23  40  70 101 131 184 232 283 348 412
#     4  10  22  39  68 100 135 182 226 278 352 408
#     4  10  22  40  66  99 134 178 230 283 342 414
#     4  10  21  41  66  95 135 182 229 282 345 405
#
# _framework density 24.116
#
# number of rings (size 3 to 8) (size 9 to 14) (size 15 to 20)
#    0.000    1.714    1.429    3.000    4.000    2.857 
#    0.000    4.286    0.000    0.000    0.000    0.000 
#    0.000    0.000    0.000    0.000    0.000    0.000 
#
# Total GULP energy -78214.375310 kJ/mol
# GULP energy per Si atom -5586.741094 kJ/mol
# Density = 2.406111 g / cm^3
# Si number density = 24.116000 Si / 1000 Ang^3
#
#
#
# Elastic Constant Matrix: (Units=GPa)
#
#
# Indices 1 2 3 4 5 6 
#
# 1 217.8582 53.7341 61.7288 0.3398 1.5290 4.2343
# 2 53.7341 98.1895 20.6397 -4.1311 -22.0395 17.8700
# 3 61.7288 20.6397 55.4584 -3.0252 -8.6023 4.4499
# 4 0.3398 -4.1311 -3.0252 34.4857 1.5153 -9.5359
# 5 1.5290 -22.0395 -8.6023 1.5153 28.3359 -12.6389
# 6 4.2343 17.8700 4.4499 -9.5359 -12.6389 41.9418
#
#
#
# Elastic Compliance Matrix: (Units=1/GPa)
#
#
# Indices 1 2 3 4 5 6 
#
# 1 0.008013 -0.003988 -0.008428 -0.001116 -0.006181 -0.000332
# 2 -0.003988 0.015203 0.000745 0.000703 0.011039 -0.002668
# 3 -0.008428 0.000745 0.028756 0.002558 0.010125 0.001115
# 4 -0.001116 0.000703 0.002558 0.031279 0.003095 0.007586
# 5 -0.006181 0.011039 0.010125 0.003095 0.052142 0.011263
# 6 -0.000332 -0.002668 0.001115 0.007586 0.011263 0.030013
#
#
# Mechanical properties :
#
#
# Convention : Reuss Voigt Hill
#
# Bulk Modulus (GPa) = 34.92777 71.52349 53.22563
# Shear Modulus (GPa) = 25.21540 36.64625 30.93082
#
# Velocity S-wave (km/s) = 3.23706 3.90241 3.58521
# Velocity P-wave (km/s) = 5.33724 7.07302 6.26553
#
# Compressibility (1/GPa) = 0.02863052
#
# Stress axis : x y z
#
# Youngs Moduli (GPa) = 124.79151 65.77779 34.77518
#
# Poissons Ratio (x) = 0.26229 0.29310
# Poissons Ratio (y) = 0.49761 -0.02591
# Poissons Ratio (z) = 1.05179 -0.04901
#
# Static dielectric constant tensor:
#      x y z
#    x 2.024570 0.032800 -0.058090 
#    y 0.032800 1.914190 -0.060980 
#    z -0.058090 -0.060980 1.957370 
# 
# From -- ./inp_files/307052.got.cif
#   From: 2010.05.17/outbox.cif.g08.bks.cpg/sg2_154_cif.got.tgz:307052.got - 2010.06.03 11:33:40.
