data_PCOD9014351
_publ_section_title
;
Structure prediction by ZEFSAII (Michael W. Deem and Ramdas Pophale) SiO2 
 PCOD9014351
Probable space group: P -1
;
_chemical_formula_sum "Si O2"
_cell_formula_units_Z 16
_cell_length_a 8.452474
_cell_length_b 8.190178
_cell_length_c 14.140882
_cell_angle_alpha 96.181811
_cell_angle_beta 71.891513
_cell_angle_gamma 134.077440
_cell_volume 659.936415
_symmetry_space_group_name_H-M "P -1"
_symmetry_group_IT_number 2
_symmetry_cell_setting 'triclinic'
loop_
_space_group_symop_operation_xyz
x,y,z
-x,-y,-z
loop_
_atom_site_type_symbol
_atom_site_label
_atom_site_fract_x
_atom_site_fract_y
_atom_site_fract_z
Si Si1 0.586495 0.425963 0.553617
Si Si2 0.011470 0.997202 0.149370
Si Si3 0.774237 0.050204 0.328814
Si Si4 0.506134 0.832481 0.898398
Si Si5 0.375738 0.494631 0.747098
Si Si6 0.720388 0.536433 0.941089
Si Si7 0.417462 0.809603 0.207397
Si Si8 0.074751 0.471723 0.639929
O O1 0.500000 0.500000 0.500000
O O2 0.441134 0.500154 0.337183
O O3 0.833858 0.533414 0.477680
O O4 0.399952 0.148666 0.574490
O O5 0.973079 0.055394 0.263875
O O6 0.240562 0.043802 0.101969
O O7 0.060763 0.189276 0.085923
O O8 0.787923 0.726113 0.166629
O O9 0.857497 0.289563 0.350569
O O10 0.621231 0.944964 0.254262
O O11 0.488286 0.717630 0.797808
O O12 0.500636 0.016563 0.882217
O O13 0.297325 0.619614 0.988627
O O14 0.212226 0.464687 0.695355
O O15 0.675078 0.418449 0.841175
O O16 0.500000 0.500000 0.000000
O O17 0.196128 0.731092 0.299085
#
# Coordination Sequence:
#
# PCOD9014351 Si02
#       8
#     2   2   2   2   2   2   2   2
#     4   9  22  40  66  96 129 166 211 264 316 385
#     4  10  22  40  63  95 126 171 207 269 316 373
#     4  11  23  40  69  93 129 171 209 263 323 379
#     4  11  23  43  66  91 132 171 217 266 315 381
#     4  10  21  41  67  95 129 171 215 257 327 379
#     4  10  24  42  63  96 131 167 214 273 316 375
#     4  12  24  43  66  97 131 167 219 263 318 379
#     4  11  21  43  64  95 133 166 213 264 323 372
#
# _framework density 24.244762000000001
#
# number of rings (size 3 to 8) (size 9 to 14) (size 15 to 20)
#    0.000    1.500    3.750    0.750    7.000    1.000 
#    2.250    4.375    0.000    0.000    0.000    0.000 
#    0.000    0.000    0.000    0.000    0.000    0.000 
#
# Total GULP energy -89472.073306 kJ/mol
# GULP energy per Si atom -5592.004582 kJ/mol
# Density = 2.418958 g / cm^3
# Si number density = 24.244762 Si / 1000 Ang^3
#
#
#
# Elastic Constant Matrix: (Units=GPa)
#
#
# Indices 1 2 3 4 5 6 
#
# 1 71.3502 27.9360 25.2839 -9.0669 -2.5044 -3.6001
# 2 27.9360 87.7164 28.1354 -10.0017 7.6241 -25.9225
# 3 25.2839 28.1354 94.3542 -25.3872 -10.2070 2.3389
# 4 -9.0669 -10.0017 -25.3872 48.7151 -12.3022 3.0968
# 5 -2.5044 7.6241 -10.2070 -12.3022 45.2704 -9.2110
# 6 -3.6001 -25.9225 2.3389 3.0968 -9.2110 33.1198
#
#
#
# Elastic Compliance Matrix: (Units=1/GPa)
#
#
# Indices 1 2 3 4 5 6 
#
# 1 0.017015 -0.005078 -0.002547 0.001209 0.001200 -0.001724
# 2 -0.005078 0.018899 -0.005167 -0.001180 -0.002073 0.014139
# 3 -0.002547 -0.005167 0.015814 0.008426 0.005637 -0.004658
# 4 0.001209 -0.001180 0.008426 0.027341 0.009320 -0.001351
# 5 0.001200 -0.002073 0.005637 0.009320 0.027291 0.004829
# 6 -0.001724 0.014139 -0.004658 -0.001351 0.004829 0.042870
#
#
# Mechanical properties :
#
#
# Convention : Reuss Voigt Hill
#
# Bulk Modulus (GPa) = 38.25004 46.23682 42.24343
# Shear Modulus (GPa) = 27.24364 36.89211 32.06787
#
# Velocity S-wave (km/s) = 3.35579 3.90507 3.64080
# Velocity P-wave (km/s) = 5.55211 6.28053 5.92752
#
# Compressibility (1/GPa) = 0.02614376
#
# Stress axis : x y z
#
# Youngs Moduli (GPa) = 58.77161 52.91324 63.23513
#
# Poissons Ratio (x) = 0.26869 0.16108
# Poissons Ratio (y) = 0.29843 0.32673
# Poissons Ratio (z) = 0.14971 0.27339
#
# Static dielectric constant tensor:
#      x y z
#    x 1.960630 -0.024210 0.011850 
#    y -0.024210 1.878030 -0.026580 
#    z 0.011850 -0.026580 1.992270 
# 
# From -- ./inp_files/495056.got.cif
#   From: 2010.05.17/outbox.cif.g08.bks.cpg/sg2_248_cif.got.tgz:495056.got - 2010.06.03 11:33:40.
