data_PCOD9014248
_publ_section_title
;
Structure prediction by ZEFSAII (Michael W. Deem and Ramdas Pophale) SiO2 
 PCOD9014248
Probable space group: P -1
;
_chemical_formula_sum "Si O2"
_cell_formula_units_Z 16
_cell_length_a 12.357142
_cell_length_b 21.826342
_cell_length_c 7.948060
_cell_angle_alpha 103.970925
_cell_angle_beta 86.813633
_cell_angle_gamma 26.660580
_cell_volume 730.023474
_symmetry_space_group_name_H-M "P -1"
_symmetry_group_IT_number 2
_symmetry_cell_setting 'triclinic'
loop_
_space_group_symop_operation_xyz
x,y,z
-x,-y,-z
loop_
_atom_site_type_symbol
_atom_site_label
_atom_site_fract_x
_atom_site_fract_y
_atom_site_fract_z
Si Si1 0.265996 0.632396 0.954616
Si Si2 0.699756 0.568172 0.521111
Si Si3 0.954306 0.674109 0.966413
Si Si4 0.177768 0.756309 0.739360
Si Si5 0.222243 0.928615 0.842333
Si Si6 0.751686 0.000097 0.391741
Si Si7 0.903187 0.697237 0.379625
Si Si8 0.246234 0.080104 0.346530
O O1 0.363592 0.625086 0.791909
O O2 0.500000 0.500000 0.000000
O O3 0.166221 0.619788 0.884608
O O4 0.962713 0.830464 0.184815
O O5 0.400693 0.686168 0.590214
O O6 0.556871 0.714708 0.669301
O O7 0.863878 0.451692 0.595783
O O8 0.926411 0.440793 0.257111
O O9 0.998996 0.634275 0.134758
O O10 0.593823 0.889051 0.117239
O O11 0.038786 0.775659 0.656147
O O12 0.867954 0.959674 0.972054
O O13 0.146393 0.990152 0.696564
O O14 0.000000 0.000000 0.000000
O O15 0.766883 0.975216 0.569955
O O16 0.404187 0.176128 0.484145
O O17 0.808975 0.822604 0.492747
#
# Coordination Sequence:
#
# PCOD9014248 Si02
#       8
#     2   2   2   2   2   2   2   2
#     4  11  21  36  65  93 129 171 213 263 327 389
#     4  11  25  42  65  94 130 174 226 272 310 380
#     4  11  23  39  63  99 133 168 214 264 329 391
#     4  10  24  41  65  93 129 174 221 264 329 384
#     4   9  22  48  63  87 128 175 225 268 318 379
#     4  10  21  41  67  89 130 176 207 262 335 383
#     4  11  22  42  66  97 139 168 205 273 330 395
#     4  11  22  42  64  99 135 169 208 264 339 400
#
# _framework density 21.917104999999999
#
# number of rings (size 3 to 8) (size 9 to 14) (size 15 to 20)
#    0.000    1.500    2.500    2.250    5.250    2.500 
#    2.250    2.500    0.000    0.000    0.000    0.000 
#    0.000    0.000    0.000    0.000    0.000    0.000 
#
# Total GULP energy -89261.273472 kJ/mol
# GULP energy per Si atom -5578.829592 kJ/mol
# Density = 2.186722 g / cm^3
# Si number density = 21.917105 Si / 1000 Ang^3
#
#
#
# Elastic Constant Matrix: (Units=GPa)
#
#
# Indices 1 2 3 4 5 6 
#
# 1 42.2200 29.3431 19.9090 -11.3667 -6.9275 11.7479
# 2 29.3431 109.9307 52.9053 -0.6890 14.9683 11.6741
# 3 19.9090 52.9053 125.1454 12.1304 11.6555 13.5265
# 4 -11.3667 -0.6890 12.1304 22.8367 11.8386 3.3027
# 5 -6.9275 14.9683 11.6555 11.8386 18.7487 -4.6404
# 6 11.7479 11.6741 13.5265 3.3027 -4.6404 32.1524
#
#
#
# Elastic Compliance Matrix: (Units=1/GPa)
#
#
# Indices 1 2 3 4 5 6 
#
# 1 0.042140 -0.009486 -0.004464 0.018479 0.011705 -0.010284
# 2 -0.009486 0.017403 -0.004153 0.010698 -0.022937 -0.005515
# 3 -0.004464 -0.004153 0.011384 -0.007932 -0.000632 -0.000927
# 4 0.018479 0.010698 -0.007932 0.093542 -0.062256 -0.025893
# 5 0.011705 -0.022937 -0.000632 -0.062256 0.122713 0.028423
# 6 -0.010284 -0.005515 -0.000927 -0.025893 0.028423 0.044014
#
#
# Mechanical properties :
#
#
# Convention : Reuss Voigt Hill
#
# Bulk Modulus (GPa) = 28.79900 53.51231 41.15565
# Shear Modulus (GPa) = 13.19353 26.42346 19.80850
#
# Velocity S-wave (km/s) = 2.45618 3.47596 3.00957
# Velocity P-wave (km/s) = 4.60567 6.37012 5.55836
#
# Compressibility (1/GPa) = 0.03472343
#
# Stress axis : x y z
#
# Youngs Moduli (GPa) = 23.73038 57.46118 87.84063
#
# Poissons Ratio (x) = 0.54507 0.39208
# Poissons Ratio (y) = 0.22510 0.36477
# Poissons Ratio (z) = 0.10592 0.23861
#
# Static dielectric constant tensor:
#      x y z
#    x 1.743840 0.028570 -0.020100 
#    y 0.028570 1.820440 -0.034600 
#    z -0.020100 -0.034600 1.863480 
# 
# From -- ./inp_files/208991.got.cif
#   From: 2010.05.17/outbox.cif.g08.bks.cpg/sg2_105_cif.got.tgz:208991.got - 2010.06.03 11:33:40.
