data_PCOD9014229
_publ_section_title
;
Structure prediction by ZEFSAII (Michael W. Deem and Ramdas Pophale) SiO2 
 PCOD9014229
Probable space group: P -1
;
_chemical_formula_sum "Si O2"
_cell_formula_units_Z 12
_cell_length_a 9.283232
_cell_length_b 15.256431
_cell_length_c 9.382778
_cell_angle_alpha 130.437625
_cell_angle_beta 108.048202
_cell_angle_gamma 38.553279
_cell_volume 573.173260
_symmetry_space_group_name_H-M "P -1"
_symmetry_group_IT_number 2
_symmetry_cell_setting 'triclinic'
loop_
_space_group_symop_operation_xyz
x,y,z
-x,-y,-z
loop_
_atom_site_type_symbol
_atom_site_label
_atom_site_fract_x
_atom_site_fract_y
_atom_site_fract_z
Si Si1 0.926426 0.450001 0.036892
Si Si2 0.782247 0.903687 0.892988
Si Si3 0.100118 0.099414 0.749122
Si Si4 0.333191 0.528553 0.588578
Si Si5 0.712027 0.703094 0.778618
Si Si6 0.581249 0.295764 0.707199
O O1 0.633310 0.599039 0.130863
O O2 0.028826 0.435316 0.203427
O O3 0.000000 0.500000 0.000000
O O4 0.074372 0.242122 0.826907
O O5 0.712591 0.810332 0.782346
O O6 0.047605 0.753332 0.736341
O O7 0.839932 0.915397 0.082480
O O8 0.526588 0.126748 0.009248
O O9 0.825236 0.209128 0.757646
O O10 0.308342 0.889320 0.522137
O O11 0.500000 0.500000 0.500000
O O12 0.312483 0.408039 0.407849
O O13 0.454882 0.446992 0.698710
#
# Coordination Sequence:
#
# PCOD9014229 Si02
#       6
#     2   2   2   2   2   2
#     4  11  25  41  67  92 122 164 205 254 306 364
#     4  10  21  41  67  87 120 167 204 254 303 366
#     4  10  22  42  67  88 124 166 206 248 311 356
#     4  12  25  38  63  96 124 163 203 254 308 362
#     4  10  22  41  63  90 125 156 209 251 311 357
#     4  11  23  43  64  89 128 163 204 254 302 367
#
# _framework density 20.936077999999998
#
# number of rings (size 3 to 8) (size 9 to 14) (size 15 to 20)
#    0.000    1.333    5.000    1.000    2.333    1.333 
#    6.000    0.000    0.000    0.000    0.000    0.000 
#    0.000    0.000    0.000    0.000    0.000    0.000 
#
# Total GULP energy -67031.897423 kJ/mol
# GULP energy per Si atom -5585.991452 kJ/mol
# Density = 2.088843 g / cm^3
# Si number density = 20.936078 Si / 1000 Ang^3
#
#
#
# Elastic Constant Matrix: (Units=GPa)
#
#
# Indices 1 2 3 4 5 6 
#
# 1 82.6466 18.1326 34.8256 1.6476 -10.1958 -3.5545
# 2 18.1326 39.5097 3.3295 12.1172 -3.9312 -15.7266
# 3 34.8256 3.3295 74.2135 17.7560 7.2500 -0.7366
# 4 1.6476 12.1172 17.7560 25.5674 -16.1685 -2.8522
# 5 -10.1958 -3.9312 7.2500 -16.1685 44.9894 2.0167
# 6 -3.5545 -15.7266 -0.7366 -2.8522 2.0167 31.3728
#
#
#
# Elastic Compliance Matrix: (Units=1/GPa)
#
#
# Indices 1 2 3 4 5 6 
#
# 1 0.030402 -0.025460 -0.025802 0.042670 0.024500 -0.007619
# 2 -0.025460 0.059980 0.026472 -0.059780 -0.027360 0.024127
# 3 -0.025802 0.026472 0.041734 -0.059127 -0.031868 0.007999
# 4 0.042670 -0.059780 -0.059127 0.146409 0.067378 -0.017541
# 5 0.024500 -0.027360 -0.031868 0.067378 0.055147 -0.009107
# 6 -0.007619 0.024127 0.007999 -0.017541 -0.009107 0.042285
#
#
# Mechanical properties :
#
#
# Convention : Reuss Voigt Hill
#
# Bulk Modulus (GPa) = 12.11613 34.32722 23.22167
# Shear Modulus (GPa) = 11.03630 29.72473 20.38051
#
# Velocity S-wave (km/s) = 2.29845 3.77209 3.12342
# Velocity P-wave (km/s) = 3.58380 5.95007 4.91157
#
# Compressibility (1/GPa) = 0.08253459
#
# Stress axis : x y z
#
# Youngs Moduli (GPa) = 32.89230 16.67236 23.96118
#
# Poissons Ratio (x) = 0.42448 0.61826
# Poissons Ratio (y) = 0.83744 -0.63429
# Poissons Ratio (z) = 0.84870 -0.44134
#
# Static dielectric constant tensor:
#      x y z
#    x 1.884440 0.012460 -0.078210 
#    y 0.012460 1.807630 0.003020 
#    z -0.078210 0.003020 1.810130 
# 
# From -- ./inp_files/180989.got.cif
#   From: 2010.05.17/outbox.cif.g08.bks.cpg/sg2_91_cif.got.tgz:180989.got - 2010.06.03 11:33:40.
