data_PCOD9014647
_publ_section_title
;
Structure prediction by ZEFSAII (Michael W. Deem and Ramdas Pophale) SiO2 
 PCOD9014647
Probable space group: P -1
;
_chemical_formula_sum "Si O2"
_cell_formula_units_Z 16
_cell_length_a 13.465565
_cell_length_b 9.886016
_cell_length_c 8.475482
_cell_angle_alpha 49.908786
_cell_angle_beta 116.793695
_cell_angle_gamma 96.818880
_cell_volume 745.758037
_symmetry_space_group_name_H-M "P -1"
_symmetry_group_IT_number 2
_symmetry_cell_setting 'triclinic'
loop_
_space_group_symop_operation_xyz
x,y,z
-x,-y,-z
loop_
_atom_site_type_symbol
_atom_site_label
_atom_site_fract_x
_atom_site_fract_y
_atom_site_fract_z
Si Si1 0.735743 0.361555 0.117608
Si Si2 0.152674 0.136769 0.914850
Si Si3 0.117866 0.959225 0.711000
Si Si4 0.713438 0.216044 0.544998
Si Si5 0.926568 0.563090 0.138891
Si Si6 0.151308 0.306044 0.360414
Si Si7 0.281280 0.406221 0.629257
Si Si8 0.505521 0.479378 0.330586
O O1 0.713418 0.238031 0.340105
O O2 0.817560 0.481843 0.154546
O O3 0.810625 0.243917 0.119528
O O4 0.615939 0.473264 0.877475
O O5 0.102138 0.025856 0.829179
O O6 0.231004 0.620336 0.475229
O O7 0.063136 0.288649 0.836058
O O8 0.231630 0.255656 0.797335
O O9 0.186038 0.092993 0.579541
O O10 0.000000 0.000000 0.500000
O O11 0.776391 0.017737 0.801143
O O12 0.585813 0.284493 0.477815
O O13 0.041783 0.404205 0.317643
O O14 0.893540 0.656740 0.875245
O O15 0.252798 0.385983 0.439542
O O16 0.416179 0.384495 0.771547
O O17 0.500000 0.500000 0.500000
#
# Coordination Sequence:
#
# PCOD9014647 Si02
#       8
#     2   2   2   2   2   2   2   2
#     4  12  22  42  68  96 135 174 218 271 329 387
#     4  11  23  43  66  99 131 169 224 267 326 393
#     4  11  24  41  64  96 132 171 220 267 325 391
#     4  10  23  41  67  96 134 170 220 265 334 379
#     4  11  22  38  66  93 132 170 219 269 330 383
#     4  10  22  40  62  93 132 171 219 268 328 390
#     4   9  22  41  64  92 132 169 212 271 321 383
#     4  10  21  41  68  96 131 177 217 268 332 385
#
# _framework density 21.454681999999998
#
# number of rings (size 3 to 8) (size 9 to 14) (size 15 to 20)
#    0.750    0.750    2.500    2.625    1.750    3.000 
#    0.000   11.250    0.000    0.000    0.000    0.000 
#    0.000    0.000    0.000    0.000    0.000    0.000 
#
# Total GULP energy -89241.054539 kJ/mol
# GULP energy per Si atom -5577.565909 kJ/mol
# Density = 2.140585 g / cm^3
# Si number density = 21.454682 Si / 1000 Ang^3
#
#
#
# Elastic Constant Matrix: (Units=GPa)
#
#
# Indices 1 2 3 4 5 6 
#
# 1 57.6097 17.9999 25.0485 2.3876 3.8005 -6.3496
# 2 17.9999 110.0698 15.0880 4.2606 3.1658 -19.1296
# 3 25.0485 15.0880 71.9177 -9.1704 -3.1948 -3.4631
# 4 2.3876 4.2606 -9.1704 19.8013 0.1657 -7.0019
# 5 3.8005 3.1658 -3.1948 0.1657 39.1429 2.9744
# 6 -6.3496 -19.1296 -3.4631 -7.0019 2.9744 32.8242
#
#
#
# Elastic Compliance Matrix: (Units=1/GPa)
#
#
# Indices 1 2 3 4 5 6 
#
# 1 0.022006 -0.001980 -0.007997 -0.005433 -0.002708 0.001346
# 2 -0.001980 0.010644 -0.001416 -0.000706 -0.001209 0.005629
# 3 -0.007997 -0.001416 0.018486 0.010373 0.002235 0.001588
# 4 -0.005433 -0.000706 0.010373 0.060540 0.000223 0.012526
# 5 -0.002708 -0.001209 0.002235 0.000223 0.026343 -0.003332
# 6 0.001346 0.005629 0.001588 0.012526 -0.003332 0.037148
#
#
# Mechanical properties :
#
#
# Convention : Reuss Voigt Hill
#
# Bulk Modulus (GPa) = 35.27572 39.54112 37.40842
# Shear Modulus (GPa) = 24.10758 30.45105 27.27932
#
# Velocity S-wave (km/s) = 3.35573 3.77147 3.56966
# Velocity P-wave (km/s) = 5.61179 6.11845 5.87059
#
# Compressibility (1/GPa) = 0.02834811
#
# Stress axis : x y z
#
# Youngs Moduli (GPa) = 45.44139 93.95356 54.09566
#
# Poissons Ratio (x) = 0.18607 0.43263
# Poissons Ratio (y) = 0.08999 0.07659
# Poissons Ratio (z) = 0.36342 0.13303
#
# Static dielectric constant tensor:
#      x y z
#    x 1.842630 -0.008140 -0.043610 
#    y -0.008140 1.799160 0.034750 
#    z -0.043610 0.034750 1.743930 
# 
# From -- ./inp_files/294995.got.cif
#   From: 2010.05.17/outbox.cif.g08.bks.cpg/sg2_148_cif.got.tgz:294995.got - 2010.06.03 11:33:40.
