data_PCOD9014981
_publ_section_title
;
Structure prediction by ZEFSAII (Michael W. Deem and Ramdas Pophale) SiO2 
 PCOD9014981
Probable space group: P -1
;
_chemical_formula_sum "Si O2"
_cell_formula_units_Z 14
_cell_length_a 11.969112
_cell_length_b 8.168356
_cell_length_c 8.664744
_cell_angle_alpha 130.097033
_cell_angle_beta 62.104503
_cell_angle_gamma 124.520999
_cell_volume 526.757904
_symmetry_space_group_name_H-M "P -1"
_symmetry_group_IT_number 2
_symmetry_cell_setting 'triclinic'
loop_
_space_group_symop_operation_xyz
x,y,z
-x,-y,-z
loop_
_atom_site_type_symbol
_atom_site_label
_atom_site_fract_x
_atom_site_fract_y
_atom_site_fract_z
Si Si1 0.558424 0.825126 0.705044
Si Si2 0.601949 0.007001 0.297863
Si Si3 0.890049 0.541064 0.712130
Si Si4 0.340950 0.276089 0.123608
Si Si5 0.228181 0.776127 0.024878
Si Si6 0.211455 0.963649 0.543118
Si Si7 0.937357 0.726504 0.132286
O O1 0.422702 0.817781 0.702964
O O2 0.667881 0.841202 0.511321
O O3 0.572603 0.664210 0.736297
O O4 0.630758 0.087656 0.890190
O O5 0.500000 0.000000 0.500000
O O6 0.742571 0.067597 0.334243
O O7 0.567045 0.750413 0.093547
O O8 0.769534 0.610309 0.759484
O O9 0.813998 0.280048 0.665301
O O10 0.000000 0.500000 0.500000
O O11 0.947840 0.695169 0.921378
O O12 0.252129 0.994377 0.024527
O O13 0.193011 0.502327 0.864106
O O14 0.071056 0.742496 0.147267
O O15 0.086455 0.041110 0.679653
#
# Coordination Sequence:
#
# PCOD9014981 Si02
#       7
#     2   2   2   2   2   2   2
#     4   9  21  42  64  94 127 169 221 267 314 390
#     4  10  21  41  70  93 131 170 221 274 322 385
#     4  12  25  38  64 101 135 171 214 262 329 398
#     4  10  21  42  65  97 134 168 214 276 320 377
#     4   9  22  39  66  91 130 171 216 262 329 378
#     4  11  23  42  66  93 134 170 220 260 329 388
#     4  11  22  43  63  96 131 178 209 271 322 391
#
# _framework density 26.577674999999999
#
# number of rings (size 3 to 8) (size 9 to 14) (size 15 to 20)
#    0.857    0.857    2.857    1.286    2.000    4.000 
#    0.000    8.571    0.000    0.000    0.000    0.000 
#    0.000    0.000    0.000    0.000    0.000    0.000 
#
# Total GULP energy -77962.688700 kJ/mol
# GULP energy per Si atom -5568.763479 kJ/mol
# Density = 2.651718 g / cm^3
# Si number density = 26.577675 Si / 1000 Ang^3
#
#
#
# Elastic Constant Matrix: (Units=GPa)
#
#
# Indices 1 2 3 4 5 6 
#
# 1 150.5813 39.8992 43.3680 10.2121 -13.2267 -59.3226
# 2 39.8992 55.5330 47.3552 12.3243 -4.9086 -10.5704
# 3 43.3680 47.3552 112.6985 3.9216 -30.1324 -32.5515
# 4 10.2121 12.3243 3.9216 40.5548 -14.6053 2.4948
# 5 -13.2267 -4.9086 -30.1324 -14.6053 48.5277 3.4160
# 6 -59.3226 -10.5704 -32.5515 2.4948 3.4160 53.6217
#
#
#
# Elastic Compliance Matrix: (Units=1/GPa)
#
#
# Indices 1 2 3 4 5 6 
#
# 1 0.016038 -0.012579 0.005927 0.000050 0.005491 0.018509
# 2 -0.012579 0.044389 -0.022498 -0.012670 -0.015508 -0.017247
# 3 0.005927 -0.022498 0.024514 0.007693 0.015776 0.015640
# 4 0.000050 -0.012670 0.007693 0.032556 0.013317 -0.000135
# 5 0.005491 -0.015508 0.015776 0.013317 0.033646 0.009832
# 6 0.018509 -0.017247 0.015640 -0.000135 0.009832 0.044600
#
#
# Mechanical properties :
#
#
# Convention : Reuss Voigt Hill
#
# Bulk Modulus (GPa) = 37.53950 64.45086 50.99518
# Shear Modulus (GPa) = 19.01686 41.08688 30.05187
#
# Velocity S-wave (km/s) = 2.67782 3.93608 3.36626
# Velocity P-wave (km/s) = 4.86992 6.70519 5.85985
#
# Compressibility (1/GPa) = 0.02663861
#
# Stress axis : x y z
#
# Youngs Moduli (GPa) = 62.35286 22.52825 40.79316
#
# Poissons Ratio (x) = 0.28339 -0.24177
# Poissons Ratio (y) = 0.78436 0.91777
# Poissons Ratio (z) = -0.36955 0.50684
#
# Static dielectric constant tensor:
#      x y z
#    x 2.030140 0.085940 0.017590 
#    y 0.085940 2.327440 -0.218610 
#    z 0.017590 -0.218610 2.373820 
# 
# From -- ./inp_files/241258.got.cif
#   From: 2010.05.17/outbox.cif.g08.bks.cpg/sg2_121_cif.got.tgz:241258.got - 2010.06.03 11:33:40.
