data_PCOD9014154
_publ_section_title
;
Structure prediction by ZEFSAII (Michael W. Deem and Ramdas Pophale) SiO2 
 PCOD9014154
Probable space group: P -1
;
_chemical_formula_sum "Si O2"
_cell_formula_units_Z 16
_cell_length_a 8.158876
_cell_length_b 12.845907
_cell_length_c 12.176602
_cell_angle_alpha 118.585019
_cell_angle_beta 146.318947
_cell_angle_gamma 69.971543
_cell_volume 617.404131
_symmetry_space_group_name_H-M "P -1"
_symmetry_group_IT_number 2
_symmetry_cell_setting 'triclinic'
loop_
_space_group_symop_operation_xyz
x,y,z
-x,-y,-z
loop_
_atom_site_type_symbol
_atom_site_label
_atom_site_fract_x
_atom_site_fract_y
_atom_site_fract_z
Si Si1 0.471832 0.361306 0.528732
Si Si2 0.702496 0.111908 0.122189
Si Si3 0.581037 0.119935 0.824324
Si Si4 0.976173 0.690561 0.941214
Si Si5 0.104620 0.331316 0.863565
Si Si6 0.955375 0.746329 0.438763
Si Si7 0.343003 0.083913 0.370891
Si Si8 0.552619 0.545059 0.212130
O O1 0.290595 0.360163 0.314306
O O2 0.451983 0.224093 0.492428
O O3 0.345259 0.433811 0.594197
O O4 0.820731 0.408783 0.743627
O O5 0.782520 0.207918 0.310458
O O6 0.004698 0.075835 0.218217
O O7 0.550832 0.156534 0.952009
O O8 0.500000 0.000000 0.000000
O O9 0.299184 0.168238 0.634342
O O10 0.596354 0.980916 0.742740
O O11 0.879115 0.187161 0.972467
O O12 0.882608 0.710832 0.024871
O O13 0.261814 0.615546 0.065822
O O14 0.992847 0.244785 0.657397
O O15 0.415308 0.410044 0.049497
O O16 0.814291 0.611647 0.318768
O O17 0.500000 0.000000 0.500000
#
# Coordination Sequence:
#
# PCOD9014154 Si02
#       8
#     2   2   2   2   2   2   2   2
#     4  11  22  40  67  95 137 169 227 285 326 400
#     4  12  27  44  68  99 135 177 227 279 336 402
#     4  11  24  43  69  94 132 182 227 271 334 406
#     4  10  21  41  66  99 132 171 227 279 330 404
#     4  11  25  38  69 101 132 176 227 278 337 401
#     4  11  24  47  63  97 142 178 218 285 339 399
#     4  12  22  44  71  97 131 187 222 273 339 397
#     4  10  21  44  67  97 131 179 226 274 341 399
#
# _framework density 25.914954000000002
#
# number of rings (size 3 to 8) (size 9 to 14) (size 15 to 20)
#    0.000    1.000    3.750    3.750    1.750    5.500 
#    0.000    0.000    0.000    6.000    0.000    0.000 
#    0.000    0.000    0.000    0.000    0.000    0.000 
#
# Total GULP energy -89546.943875 kJ/mol
# GULP energy per Si atom -5596.683992 kJ/mol
# Density = 2.585597 g / cm^3
# Si number density = 25.914954 Si / 1000 Ang^3
#
#
#
# Elastic Constant Matrix: (Units=GPa)
#
#
# Indices 1 2 3 4 5 6 
#
# 1 91.6959 21.3111 49.9401 3.2958 -20.6650 30.2524
# 2 21.3111 87.8695 32.8471 1.3842 -0.4094 10.1728
# 3 49.9401 32.8471 164.2844 -3.9913 -35.1137 38.7600
# 4 3.2958 1.3842 -3.9913 51.1892 7.3176 5.1381
# 5 -20.6650 -0.4094 -35.1137 7.3176 64.1564 -2.0060
# 6 30.2524 10.1728 38.7600 5.1381 -2.0060 32.1963
#
#
#
# Elastic Compliance Matrix: (Units=1/GPa)
#
#
# Indices 1 2 3 4 5 6 
#
# 1 0.017829 -0.002438 -0.000212 -0.000295 0.005165 -0.015358
# 2 -0.002438 0.012774 -0.002541 -0.000219 -0.002031 0.001222
# 3 -0.000212 -0.002541 0.010521 0.001325 0.005161 -0.011553
# 4 -0.000295 -0.000219 0.001325 0.020390 -0.001842 -0.004617
# 5 0.005165 -0.002031 0.005161 -0.001842 0.019995 -0.008885
# 6 -0.015358 0.001222 -0.011553 -0.004617 -0.008885 0.059196
#
#
# Mechanical properties :
#
#
# Convention : Reuss Voigt Hill
#
# Bulk Modulus (GPa) = 32.52861 61.33850 46.93355
# Shear Modulus (GPa) = 30.99166 45.49181 38.24173
#
# Velocity S-wave (km/s) = 3.46193 4.19433 3.84560
# Velocity P-wave (km/s) = 5.34408 6.86855 6.15371
#
# Compressibility (1/GPa) = 0.03074217
#
# Stress axis : x y z
#
# Youngs Moduli (GPa) = 56.08737 78.28336 95.05235
#
# Poissons Ratio (x) = 0.19086 0.02017
# Poissons Ratio (y) = 0.13675 0.24149
# Poissons Ratio (z) = 0.01190 0.19889
#
# Static dielectric constant tensor:
#      x y z
#    x 2.073830 -0.046440 -0.038450 
#    y -0.046440 2.092190 -0.012920 
#    z -0.038450 -0.012920 2.077950 
# 
# From -- ./inp_files/399488.got.cif
#   From: 2010.05.17/outbox.cif.g08.bks.cpg/sg2_200_cif.got.tgz:399488.got - 2010.06.03 11:33:40.
