data_PCOD9014720
_publ_section_title
;
Structure prediction by ZEFSAII (Michael W. Deem and Ramdas Pophale) SiO2 
 PCOD9014720
Probable space group: P -1
;
_chemical_formula_sum "Si O2"
_cell_formula_units_Z 14
_cell_length_a 11.537256
_cell_length_b 9.297357
_cell_length_c 7.305281
_cell_angle_alpha 99.567741
_cell_angle_beta 94.282239
_cell_angle_gamma 127.994882
_cell_volume 592.940724
_symmetry_space_group_name_H-M "P -1"
_symmetry_group_IT_number 2
_symmetry_cell_setting 'triclinic'
loop_
_space_group_symop_operation_xyz
x,y,z
-x,-y,-z
loop_
_atom_site_type_symbol
_atom_site_label
_atom_site_fract_x
_atom_site_fract_y
_atom_site_fract_z
Si Si1 0.576283 0.151183 0.233780
Si Si2 0.883611 0.534325 0.449673
Si Si3 0.643060 0.248096 0.846693
Si Si4 0.273005 0.104468 0.182710
Si Si5 0.838619 0.801123 0.484639
Si Si6 0.923317 0.309317 0.840374
Si Si7 0.323206 0.391499 0.962681
O O1 0.715784 0.337823 0.387650
O O2 0.434167 0.149022 0.204718
O O3 0.519646 0.951168 0.268193
O O4 0.643129 0.187413 0.043980
O O5 0.873358 0.680950 0.578107
O O6 0.000000 0.500000 0.500000
O O7 0.956832 0.639799 0.285478
O O8 0.768758 0.264341 0.749104
O O9 0.680594 0.447662 0.918723
O O10 0.254220 0.163240 0.391290
O O11 0.258130 0.216418 0.052195
O O12 0.137612 0.879303 0.099886
O O13 0.744297 0.685092 0.265467
O O14 0.000000 0.000000 0.500000
O O15 0.000000 0.500000 0.000000
O O16 0.500000 0.500000 0.000000
#
# Coordination Sequence:
#
# PCOD9014720 Si02
#       7
#     2   2   2   2   2   2   2
#     4  10  21  46  71 101 141 183 248 303 353 433
#     4  12  26  45  69 104 145 194 236 300 371 429
#     4  10  21  41  69 100 135 180 240 302 343 429
#     4  11  26  47  77 108 145 200 237 310 379 427
#     4  12  27  50  69 109 161 181 246 315 359 447
#     4  11  22  44  70  99 140 187 244 291 362 439
#     4  12  25  46  78 108 143 200 248 295 379 440
#
# _framework density 23.611127
#
# number of rings (size 3 to 8) (size 9 to 14) (size 15 to 20)
#    0.000    0.857    5.714    0.000    2.000    5.143 
#    0.000    1.429    0.000    0.000    0.000    0.000 
#    0.000    0.000    0.000    0.000    0.000    0.000 
#
# Total GULP energy -78164.519382 kJ/mol
# GULP energy per Si atom -5583.179956 kJ/mol
# Density = 2.355739 g / cm^3
# Si number density = 23.611127 Si / 1000 Ang^3
#
#
#
# Elastic Constant Matrix: (Units=GPa)
#
#
# Indices 1 2 3 4 5 6 
#
# 1 109.1128 40.5442 34.6648 5.4456 -16.3324 -7.4194
# 2 40.5442 200.7436 40.1388 22.4296 6.2039 -16.4247
# 3 34.6648 40.1388 53.8069 -2.4043 -12.7088 -5.5914
# 4 5.4456 22.4296 -2.4043 32.3775 1.0957 -5.8083
# 5 -16.3324 6.2039 -12.7088 1.0957 32.6878 4.1196
# 6 -7.4194 -16.4247 -5.5914 -5.8083 4.1196 43.5028
#
#
#
# Elastic Compliance Matrix: (Units=1/GPa)
#
#
# Indices 1 2 3 4 5 6 
#
# 1 0.012247 -0.001143 -0.006155 -0.001815 0.003973 0.000248
# 2 -0.001143 0.007114 -0.005600 -0.004738 -0.004132 0.001530
# 3 -0.006155 -0.005600 0.029240 0.006898 0.009041 0.000659
# 4 -0.001815 -0.004738 0.006898 0.035566 0.001049 0.003438
# 5 0.003973 -0.004132 0.009041 0.001049 0.037233 -0.003106
# 6 0.000248 0.001530 0.000659 0.003438 -0.003106 0.024445
#
#
# Mechanical properties :
#
#
# Convention : Reuss Voigt Hill
#
# Bulk Modulus (GPa) = 43.84659 66.03989 54.94324
# Shear Modulus (GPa) = 27.89543 38.26798 33.08171
#
# Velocity S-wave (km/s) = 3.44096 4.03023 3.74720
# Velocity P-wave (km/s) = 5.86494 7.04894 6.48402
#
# Compressibility (1/GPa) = 0.02280679
#
# Stress axis : x y z
#
# Youngs Moduli (GPa) = 81.65420 140.56536 34.20027
#
# Poissons Ratio (x) = 0.16060 0.21049
# Poissons Ratio (y) = 0.09329 0.19151
# Poissons Ratio (z) = 0.50256 0.78711
#
# Static dielectric constant tensor:
#      x y z
#    x 1.985210 -0.044770 0.033720 
#    y -0.044770 2.024240 -0.028100 
#    z 0.033720 -0.028100 1.998850 
# 
# From -- ./inp_files/206359.got.cif
#   From: 2010.05.17/outbox.cif.g08.bks.cpg/sg2_104_cif.got.tgz:206359.got - 2010.06.03 11:33:40.
