data_PCOD9014481
_publ_section_title
;
Structure prediction by ZEFSAII (Michael W. Deem and Ramdas Pophale) SiO2 
 PCOD9014481
Probable space group: P -1
;
_chemical_formula_sum "Si O2"
_cell_formula_units_Z 12
_cell_length_a 15.414688
_cell_length_b 21.361622
_cell_length_c 7.310714
_cell_angle_alpha 146.955830
_cell_angle_beta 147.241160
_cell_angle_gamma 23.727329
_cell_volume 497.624816
_symmetry_space_group_name_H-M "P -1"
_symmetry_group_IT_number 2
_symmetry_cell_setting 'triclinic'
loop_
_space_group_symop_operation_xyz
x,y,z
-x,-y,-z
loop_
_atom_site_type_symbol
_atom_site_label
_atom_site_fract_x
_atom_site_fract_y
_atom_site_fract_z
Si Si1 0.668877 0.274759 0.603957
Si Si2 0.846659 0.324203 0.716082
Si Si3 0.575682 0.088031 0.789637
Si Si4 0.191382 0.451081 0.078622
Si Si5 0.319608 0.997349 0.634696
Si Si6 0.782191 0.179699 0.962799
O O1 0.599673 0.171426 0.589249
O O2 0.798947 0.221247 0.893776
O O3 0.709183 0.122909 0.221640
O O4 0.391701 0.413247 0.457488
O O5 0.871179 0.430580 0.909099
O O6 0.709470 0.309488 0.298874
O O7 0.101887 0.142522 0.721919
O O8 0.744957 0.340616 0.770042
O O9 0.329836 0.277243 0.799833
O O10 0.714008 0.990906 0.613151
O O11 0.500000 0.000000 0.500000
O O12 0.000000 0.500000 0.000000
O O13 0.500000 0.000000 0.000000
O O14 0.000000 0.000000 0.000000
#
# Coordination Sequence:
#
# PCOD9014481 Si02
#       6
#     2   2   2   2   2   2
#     4  10  23  42  72 102 143 189 237 294 357 420
#     4  11  23  46  70 104 146 184 242 295 357 433
#     4  10  21  41  68 100 142 185 236 290 356 425
#     4  10  23  43  72 104 146 190 235 296 357 433
#     4  11  23  41  67 101 143 186 234 300 347 421
#     4  10  22  41  67 104 139 183 240 291 356 419
#
# _framework density 24.114552
#
# number of rings (size 3 to 8) (size 9 to 14) (size 15 to 20)
#    1.000    0.667    1.667    2.500    2.333    3.333 
#    9.000    0.833    0.000    0.000    0.000    0.000 
#    0.000    0.000    0.000    0.000    0.000    0.000 
#
# Total GULP energy -66804.898189 kJ/mol
# GULP energy per Si atom -5567.074849 kJ/mol
# Density = 2.405967 g / cm^3
# Si number density = 24.114552 Si / 1000 Ang^3
#
#
#
# Elastic Constant Matrix: (Units=GPa)
#
#
# Indices 1 2 3 4 5 6 
#
# 1 200.1902 48.4813 23.7181 -17.5533 20.3397 21.1558
# 2 48.4813 42.1802 13.8174 -5.6931 6.6834 13.8925
# 3 23.7181 13.8174 61.9230 2.3714 9.5539 14.7640
# 4 -17.5533 -5.6931 2.3714 31.8525 15.3616 12.9145
# 5 20.3397 6.6834 9.5539 15.3616 49.3548 -5.8541
# 6 21.1558 13.8925 14.7640 12.9145 -5.8541 48.0435
#
#
#
# Elastic Compliance Matrix: (Units=1/GPa)
#
#
# Indices 1 2 3 4 5 6 
#
# 1 0.008224 -0.005822 -0.000145 0.008187 -0.005689 -0.004787
# 2 -0.005822 0.037955 -0.002779 0.012067 -0.007345 -0.011696
# 3 -0.000145 -0.002779 0.018987 0.002959 -0.004914 -0.006361
# 4 0.008187 0.012067 0.002959 0.063197 -0.028629 -0.028480
# 5 -0.005689 -0.007345 -0.004914 -0.028629 0.035618 0.018175
# 6 -0.004787 -0.011696 -0.006361 -0.028480 0.018175 0.038130
#
#
# Mechanical properties :
#
#
# Convention : Reuss Voigt Hill
#
# Bulk Modulus (GPa) = 20.97670 52.92524 36.95097
# Shear Modulus (GPa) = 21.23193 40.40194 30.81694
#
# Velocity S-wave (km/s) = 2.97048 4.09763 3.57871
# Velocity P-wave (km/s) = 4.52577 6.66202 5.69496
#
# Compressibility (1/GPa) = 0.04767194
#
# Stress axis : x y z
#
# Youngs Moduli (GPa) = 121.59296 26.34706 52.66886
#
# Poissons Ratio (x) = 0.15339 0.00766
# Poissons Ratio (y) = 0.70792 0.14639
# Poissons Ratio (z) = 0.01768 0.07323
#
# Static dielectric constant tensor:
#      x y z
#    x 2.014550 0.097620 0.041220 
#    y 0.097620 1.874060 0.056910 
#    z 0.041220 0.056910 1.986740 
# 
# From -- ./inp_files/350139.got.cif
#   From: 2010.05.17/outbox.cif.g08.bks.cpg/sg2_176_cif.got.tgz:350139.got - 2010.06.03 11:33:40.
