data_PCOD9014963
_publ_section_title
;
Structure prediction by ZEFSAII (Michael W. Deem and Ramdas Pophale) SiO2 
 PCOD9014963
Probable space group: P -1
;
_chemical_formula_sum "Si O2"
_cell_formula_units_Z 16
_cell_length_a 14.079205
_cell_length_b 27.479742
_cell_length_c 9.789283
_cell_angle_alpha 142.106862
_cell_angle_beta 130.624102
_cell_angle_gamma 20.099492
_cell_volume 723.077579
_symmetry_space_group_name_H-M "P -1"
_symmetry_group_IT_number 2
_symmetry_cell_setting 'triclinic'
loop_
_space_group_symop_operation_xyz
x,y,z
-x,-y,-z
loop_
_atom_site_type_symbol
_atom_site_label
_atom_site_fract_x
_atom_site_fract_y
_atom_site_fract_z
Si Si1 0.001650 0.353361 0.838334
Si Si2 0.448169 0.397832 0.786171
Si Si3 0.374951 0.276248 0.350513
Si Si4 0.125494 0.119817 0.557095
Si Si5 0.525315 0.787866 0.008480
Si Si6 0.466325 0.098780 0.278104
Si Si7 0.807393 0.456418 0.587857
Si Si8 0.391597 0.542723 0.816471
O O1 0.188703 0.167780 0.648958
O O2 0.195322 0.319443 0.913090
O O3 0.817410 0.438787 0.719469
O O4 0.782194 0.495912 0.076232
O O5 0.541363 0.264104 0.503991
O O6 0.287309 0.542409 0.836425
O O7 0.677171 0.327446 0.917092
O O8 0.466499 0.167164 0.317617
O O9 0.000000 0.500000 0.500000
O O10 0.478540 0.188306 0.102971
O O11 0.760375 0.325105 0.680966
O O12 0.246864 0.979436 0.263482
O O13 0.288671 0.028868 0.655127
O O14 0.595312 0.654423 0.792667
O O15 0.142135 0.284131 0.462446
O O16 0.500000 0.000000 0.000000
O O17 0.717887 0.428078 0.363276
#
# Coordination Sequence:
#
# PCOD9014963 Si02
#       8
#     2   2   2   2   2   2   2   2
#     4  11  23  41  71  99 131 177 225 282 330 397
#     4  10  21  41  70  91 130 177 229 266 324 402
#     4  12  22  41  71 102 130 176 231 275 334 396
#     4  11  27  44  65 100 143 176 216 282 345 386
#     4  12  23  41  69 101 139 169 221 289 334 392
#     4  12  27  42  70 105 136 172 227 287 332 392
#     4  12  25  43  71 100 131 184 228 265 340 407
#     4  10  24  46  69  94 138 185 222 272 334 406
#
# _framework density 22.127642000000002
#
# number of rings (size 3 to 8) (size 9 to 14) (size 15 to 20)
#    0.000    0.750    5.000    1.500   10.500    2.500 
#    0.000    1.875    2.750    0.000    0.000    0.000 
#    0.000    0.000    0.000    0.000    0.000    0.000 
#
# Total GULP energy -89441.573711 kJ/mol
# GULP energy per Si atom -5590.098357 kJ/mol
# Density = 2.207728 g / cm^3
# Si number density = 22.127642 Si / 1000 Ang^3
#
#
#
# Elastic Constant Matrix: (Units=GPa)
#
#
# Indices 1 2 3 4 5 6 
#
# 1 59.5045 25.9735 17.3392 -5.3194 1.2542 13.5930
# 2 25.9735 81.1546 20.9200 -28.3776 -7.3377 8.3072
# 3 17.3392 20.9200 101.5412 -25.2451 -6.9227 -5.1254
# 4 -5.3194 -28.3776 -25.2451 39.2226 -2.6953 -0.6347
# 5 1.2542 -7.3377 -6.9227 -2.6953 52.1956 -4.4019
# 6 13.5930 8.3072 -5.1254 -0.6347 -4.4019 28.6665
#
#
#
# Elastic Compliance Matrix: (Units=1/GPa)
#
#
# Indices 1 2 3 4 5 6 
#
# 1 0.023355 -0.007500 -0.004594 -0.005616 -0.003389 -0.010367
# 2 -0.007500 0.019916 0.000907 0.014214 0.003736 -0.001165
# 3 -0.004594 0.000907 0.013049 0.008706 0.002829 0.004876
# 4 -0.005616 0.014214 0.008706 0.041033 0.005564 0.001863
# 5 -0.003389 0.003736 0.002829 0.005564 0.020794 0.004347
# 6 -0.010367 -0.001165 0.004876 0.001863 0.004347 0.041718
#
#
# Mechanical properties :
#
#
# Convention : Reuss Voigt Hill
#
# Bulk Modulus (GPa) = 29.45664 41.18508 35.32086
# Shear Modulus (GPa) = 25.83267 35.88145 30.85706
#
# Velocity S-wave (km/s) = 3.42049 4.03124 3.73836
# Velocity P-wave (km/s) = 5.37966 6.34986 5.88479
#
# Compressibility (1/GPa) = 0.03394820
#
# Stress axis : x y z
#
# Youngs Moduli (GPa) = 42.81703 50.21157 76.63373
#
# Poissons Ratio (x) = 0.37656 0.35202
# Poissons Ratio (y) = 0.32111 -0.06953
# Poissons Ratio (z) = 0.19668 -0.04555
#
# Static dielectric constant tensor:
#      x y z
#    x 1.820090 -0.024810 0.006640 
#    y -0.024810 1.832560 0.007480 
#    z 0.006640 0.007480 1.852380 
# 
# From -- ./inp_files/320760.got.cif
#   From: 2010.05.17/outbox.cif.g08.bks.cpg/sg2_161_cif.got.tgz:320760.got - 2010.06.03 11:33:40.
