data_PCOD9014179
_publ_section_title
;
Structure prediction by ZEFSAII (Michael W. Deem and Ramdas Pophale) SiO2 
 PCOD9014179
Probable space group: P -1
;
_chemical_formula_sum "Si O2"
_cell_formula_units_Z 14
_cell_length_a 9.776316
_cell_length_b 8.444459
_cell_length_c 15.838098
_cell_angle_alpha 127.345126
_cell_angle_beta 32.228278
_cell_angle_gamma 132.388993
_cell_volume 512.817238
_symmetry_space_group_name_H-M "P -1"
_symmetry_group_IT_number 2
_symmetry_cell_setting 'triclinic'
loop_
_space_group_symop_operation_xyz
x,y,z
-x,-y,-z
loop_
_atom_site_type_symbol
_atom_site_label
_atom_site_fract_x
_atom_site_fract_y
_atom_site_fract_z
Si Si1 0.676896 0.587695 0.790916
Si Si2 0.415061 0.836769 0.094175
Si Si3 0.530892 0.711243 0.724589
Si Si4 0.080966 0.446911 0.621683
Si Si5 0.541046 0.906578 0.539622
Si Si6 0.766177 0.849306 0.134808
Si Si7 0.059526 0.254624 0.805780
O O1 0.641050 0.649581 0.734644
O O2 0.941428 0.526658 0.643318
O O3 0.399960 0.383900 0.892057
O O4 0.672212 0.769581 0.917205
O O5 0.171176 0.663498 0.219899
O O6 0.255249 0.811586 0.079157
O O7 0.487420 0.060252 0.177237
O O8 0.243121 0.511468 0.789163
O O9 0.760434 0.707080 0.536441
O O10 0.315717 0.669990 0.600638
O O11 0.822494 0.869140 0.364339
O O12 0.500000 0.000000 0.500000
O O13 0.473974 0.058570 0.689924
O O14 0.882881 0.810279 0.151727
O O15 0.000000 0.000000 0.000000
#
# Coordination Sequence:
#
# PCOD9014179 Si02
#       7
#     2   2   2   2   2   2   2
#     4  11  25  44  65 102 136 178 226 276 341 410
#     4  12  25  45  68 102 141 180 218 289 344 390
#     4  10  24  45  71  98 132 183 227 279 344 394
#     4  11  24  45  69 100 136 174 237 276 328 416
#     4   9  20  40  68  98 127 176 224 275 333 392
#     4  10  21  41  67 101 131 176 224 279 336 397
#     4   9  23  44  69  97 135 177 232 271 336 415
#
# _framework density 27.300174999999999
#
# number of rings (size 3 to 8) (size 9 to 14) (size 15 to 20)
#    0.000    1.714    0.000    3.429    6.000    4.571 
#   10.286    0.000    0.000    0.000    0.000    0.000 
#    0.000    0.000    0.000    0.000    0.000    0.000 
#
# Total GULP energy -78573.874395 kJ/mol
# GULP energy per Si atom -5612.419600 kJ/mol
# Density = 2.723804 g / cm^3
# Si number density = 27.300175 Si / 1000 Ang^3
#
#
#
# Elastic Constant Matrix: (Units=GPa)
#
#
# Indices 1 2 3 4 5 6 
#
# 1 105.1125 15.1841 24.1074 0.0852 6.1042 1.6148
# 2 15.1841 140.5494 47.8053 14.9710 5.8065 18.3071
# 3 24.1074 47.8053 138.7672 17.6293 3.8367 0.7445
# 4 0.0852 14.9710 17.6293 53.7595 -4.1843 4.0890
# 5 6.1042 5.8065 3.8367 -4.1843 38.1803 -12.5862
# 6 1.6148 18.3071 0.7445 4.0890 -12.5862 26.7245
#
#
#
# Elastic Compliance Matrix: (Units=1/GPa)
#
#
# Indices 1 2 3 4 5 6 
#
# 1 0.010061 -0.000360 -0.001643 0.000581 -0.001726 -0.001218
# 2 -0.000360 0.009486 -0.002878 -0.001390 -0.003891 -0.008016
# 3 -0.001643 -0.002878 0.008742 -0.002213 0.000347 0.002329
# 4 0.000581 -0.001390 -0.002213 0.019963 0.002183 -0.001047
# 5 -0.001726 -0.003891 0.000347 0.002183 0.033221 0.018071
# 6 -0.001218 -0.008016 0.002329 -0.001047 0.018071 0.051590
#
#
# Mechanical properties :
#
#
# Convention : Reuss Voigt Hill
#
# Bulk Modulus (GPa) = 53.97814 62.06920 58.02367
# Shear Modulus (GPa) = 33.55689 43.55501 38.55595
#
# Velocity S-wave (km/s) = 3.50977 3.99859 3.76213
# Velocity P-wave (km/s) = 6.01994 6.64105 6.33811
#
# Compressibility (1/GPa) = 0.01852602
#
# Stress axis : x y z
#
# Youngs Moduli (GPa) = 99.39352 105.42256 114.38565
#
# Poissons Ratio (x) = 0.03795 0.18799
# Poissons Ratio (y) = 0.03578 0.32921
# Poissons Ratio (z) = 0.16335 0.30341
#
# Static dielectric constant tensor:
#      x y z
#    x 2.190560 -0.090790 0.004340 
#    y -0.090790 2.143040 0.006330 
#    z 0.004340 0.006330 2.063100 
# 
# From -- ./inp_files/263432.got.cif
#   From: 2010.05.17/outbox.cif.g08.bks.cpg/sg2_132_cif.got.tgz:263432.got - 2010.06.03 11:33:40.
