data_PCOD9014436
_publ_section_title
;
Structure prediction by ZEFSAII (Michael W. Deem and Ramdas Pophale) SiO2 
 PCOD9014436
Probable space group: P -1
;
_chemical_formula_sum "Si O2"
_cell_formula_units_Z 14
_cell_length_a 14.436952
_cell_length_b 12.170179
_cell_length_c 9.114015
_cell_angle_alpha 56.968082
_cell_angle_beta 55.195853
_cell_angle_gamma 29.278145
_cell_volume 638.570102
_symmetry_space_group_name_H-M "P -1"
_symmetry_group_IT_number 2
_symmetry_cell_setting 'triclinic'
loop_
_space_group_symop_operation_xyz
x,y,z
-x,-y,-z
loop_
_atom_site_type_symbol
_atom_site_label
_atom_site_fract_x
_atom_site_fract_y
_atom_site_fract_z
Si Si1 0.274787 0.311795 0.838865
Si Si2 0.909920 0.100465 0.846890
Si Si3 0.643690 0.271006 0.737160
Si Si4 0.226436 0.655153 0.688076
Si Si5 0.265131 0.089197 0.225975
Si Si6 0.726522 0.788366 0.411591
Si Si7 0.993414 0.694973 0.408026
O O1 0.188557 0.538686 0.771392
O O2 0.239352 0.283744 0.733355
O O3 0.509392 0.106347 0.788064
O O4 0.211851 0.266928 0.050202
O O5 0.702327 0.243610 0.872134
O O6 0.913870 0.251539 0.710249
O O7 0.056404 0.889605 0.756124
O O8 0.000000 0.000000 0.000000
O O9 0.415645 0.480610 0.750731
O O10 0.724984 0.309873 0.529349
O O11 0.733520 0.047507 0.766104
O O12 0.130058 0.206636 0.403817
O O13 0.836665 0.818100 0.331393
O O14 0.836726 0.572989 0.563500
O O15 0.500000 0.000000 0.500000
#
# Coordination Sequence:
#
# PCOD9014436 Si02
#       7
#     2   2   2   2   2   2   2
#     4  10  22  40  69 101 128 169 215 281 324 387
#     4  12  27  43  64 100 136 174 224 275 327 397
#     4  10  22  42  68  95 129 178 221 271 327 393
#     4  10  22  43  72  96 127 174 225 270 335 392
#     4  10  21  41  67  98 129 164 229 267 325 392
#     4  11  24  43  67  95 137 175 211 272 340 387
#     4  11  25  43  65  97 130 178 224 265 329 403
#
# _framework density 21.923984999999998
#
# number of rings (size 3 to 8) (size 9 to 14) (size 15 to 20)
#    0.000    1.429    2.857    1.286    4.000    4.571 
#    2.571    0.000    0.000    0.000    0.000    0.000 
#    0.000    0.000    0.000    0.000    0.000    0.000 
#
# Total GULP energy -78313.897554 kJ/mol
# GULP energy per Si atom -5593.849825 kJ/mol
# Density = 2.187408 g / cm^3
# Si number density = 21.923985 Si / 1000 Ang^3
#
#
#
# Elastic Constant Matrix: (Units=GPa)
#
#
# Indices 1 2 3 4 5 6 
#
# 1 165.8907 19.8312 26.7859 -11.2324 21.1176 5.0825
# 2 19.8312 76.1424 -16.0822 -11.1546 -7.2366 -5.0956
# 3 26.7859 -16.0822 33.9881 -16.2022 1.9667 -1.5788
# 4 -11.2324 -11.1546 -16.2022 21.1822 4.9189 -2.3529
# 5 21.1176 -7.2366 1.9667 4.9189 37.5518 -13.7803
# 6 5.0825 -5.0956 -1.5788 -2.3529 -13.7803 35.5275
#
#
#
# Elastic Compliance Matrix: (Units=1/GPa)
#
#
# Indices 1 2 3 4 5 6 
#
# 1 0.010878 -0.010515 -0.020244 -0.014251 -0.008182 -0.008082
# 2 -0.010515 0.035722 0.049567 0.050733 0.009362 0.015822
# 3 -0.020244 0.049567 0.121339 0.108788 0.010057 0.026503
# 4 -0.014251 0.050733 0.108788 0.152035 0.001243 0.024701
# 5 -0.008182 0.009362 0.010057 0.001243 0.039016 0.018176
# 6 -0.008082 0.015822 0.026503 0.024701 0.018176 0.041436
#
#
# Mechanical properties :
#
#
# Convention : Reuss Voigt Hill
#
# Bulk Modulus (GPa) = 4.86488 37.45455 21.15972
# Shear Modulus (GPa) = 11.59209 35.21805 23.40507
#
# Velocity S-wave (km/s) = 2.30193 4.01230 3.27089
# Velocity P-wave (km/s) = 3.04778 6.21174 4.89258
#
# Compressibility (1/GPa) = 0.20555499
#
# Stress axis : x y z
#
# Youngs Moduli (GPa) = 91.92772 27.99399 8.24139
#
# Poissons Ratio (x) = 0.29436 0.16684
# Poissons Ratio (y) = 0.96664 -0.40850
# Poissons Ratio (z) = 1.86099 -1.38759
#
# Static dielectric constant tensor:
#      x y z
#    x 1.830980 -0.053310 0.014930 
#    y -0.053310 1.794000 -0.032050 
#    z 0.014930 -0.032050 1.787100 
# 
# From -- ./inp_files/261385.got.cif
#   From: 2010.05.17/outbox.cif.g08.bks.cpg/sg2_131_cif.got.tgz:261385.got - 2010.06.03 11:33:40.
