data_PCOD9014808
_publ_section_title
;
Structure prediction by ZEFSAII (Michael W. Deem and Ramdas Pophale) SiO2 
 PCOD9014808
Probable space group: P -1
;
_chemical_formula_sum "Si O2"
_cell_formula_units_Z 16
_cell_length_a 14.455340
_cell_length_b 14.896836
_cell_length_c 8.122390
_cell_angle_alpha 98.326959
_cell_angle_beta 41.011539
_cell_angle_gamma 129.639509
_cell_volume 659.291799
_symmetry_space_group_name_H-M "P -1"
_symmetry_group_IT_number 2
_symmetry_cell_setting 'triclinic'
loop_
_space_group_symop_operation_xyz
x,y,z
-x,-y,-z
loop_
_atom_site_type_symbol
_atom_site_label
_atom_site_fract_x
_atom_site_fract_y
_atom_site_fract_z
Si Si1 0.833143 0.064484 0.031369
Si Si2 0.886934 0.481200 0.480333
Si Si3 0.400512 0.220215 0.916615
Si Si4 0.216259 0.340970 0.804845
Si Si5 0.585348 0.855104 0.639838
Si Si6 0.805079 0.195049 0.852479
Si Si7 0.989797 0.130854 0.373667
Si Si8 0.743313 0.434349 0.195224
O O1 0.760894 0.950556 0.964594
O O2 0.703177 0.958936 0.341645
O O3 0.746560 0.114278 0.081232
O O4 0.108245 0.230610 0.764157
O O5 0.604182 0.310698 0.803789
O O6 0.000000 0.500000 0.500000
O O7 0.942863 0.617098 0.431884
O O8 0.040014 0.520380 0.132043
O O9 0.578379 0.336484 0.552851
O O10 0.209694 0.200553 0.195630
O O11 0.500000 0.500000 0.500000
O O12 0.137091 0.404432 0.921162
O O13 0.110165 0.236771 0.078608
O O14 0.449523 0.692172 0.724671
O O15 0.392924 0.833517 0.937117
O O16 0.798232 0.958119 0.513378
O O17 0.845295 0.135523 0.655595
#
# Coordination Sequence:
#
# PCOD9014808 Si02
#       8
#     2   2   2   2   2   2   2   2
#     4  10  24  40  66  95 127 170 216 264 314 379
#     4  11  25  45  65  93 128 171 214 266 323 382
#     4  11  24  43  64  96 130 168 216 264 322 377
#     4  11  22  40  66  97 130 167 213 261 314 382
#     4   9  22  41  67  95 132 171 212 262 318 382
#     4  11  23  43  64  94 128 174 215 263 317 380
#     4  11  24  40  64  98 134 169 211 267 321 381
#     4  10  21  41  69  93 126 172 215 259 313 382
#
# _framework density 24.268466
#
# number of rings (size 3 to 8) (size 9 to 14) (size 15 to 20)
#    0.000    1.500    1.250    2.625    1.750    9.500 
#    2.250    0.000    0.000    0.000    0.000    0.000 
#    0.000    0.000    0.000    0.000    0.000    0.000 
#
# Total GULP energy -89422.062093 kJ/mol
# GULP energy per Si atom -5588.878881 kJ/mol
# Density = 2.421323 g / cm^3
# Si number density = 24.268466 Si / 1000 Ang^3
#
#
#
# Elastic Constant Matrix: (Units=GPa)
#
#
# Indices 1 2 3 4 5 6 
#
# 1 88.1472 32.1569 19.3026 -8.2432 -13.6339 12.6882
# 2 32.1569 128.2778 14.1037 -33.0202 -12.7137 13.4727
# 3 19.3026 14.1037 70.3251 -23.9415 2.8563 16.5829
# 4 -8.2432 -33.0202 -23.9415 37.9503 1.9523 0.1745
# 5 -13.6339 -12.7137 2.8563 1.9523 37.1249 -13.5248
# 6 12.6882 13.4727 16.5829 0.1745 -13.5248 38.9181
#
#
#
# Elastic Compliance Matrix: (Units=1/GPa)
#
#
# Indices 1 2 3 4 5 6 
#
# 1 0.013913 -0.003286 -0.004278 -0.002765 0.004453 -0.000015
# 2 -0.003286 0.011760 0.003608 0.011801 0.000286 -0.004491
# 3 -0.004278 0.003608 0.024136 0.017900 -0.007850 -0.012947
# 4 -0.002765 0.011801 0.017900 0.047657 -0.005580 -0.012964
# 5 0.004453 0.000286 -0.007850 -0.005580 0.034612 0.013847
# 6 -0.000015 -0.004491 -0.012947 -0.012964 0.013847 0.037642
#
#
# Mechanical properties :
#
#
# Convention : Reuss Voigt Hill
#
# Bulk Modulus (GPa) = 23.86817 46.43072 35.14945
# Shear Modulus (GPa) = 26.09637 37.54445 31.82041
#
# Velocity S-wave (km/s) = 3.28276 3.93752 3.62496
# Velocity P-wave (km/s) = 4.92190 6.31235 5.65998
#
# Compressibility (1/GPa) = 0.04189680
#
# Stress axis : x y z
#
# Youngs Moduli (GPa) = 71.87665 85.03101 41.43169
#
# Poissons Ratio (x) = 0.27942 0.17726
# Poissons Ratio (y) = 0.23620 -0.14950
# Poissons Ratio (z) = 0.30751 -0.30682
#
# Static dielectric constant tensor:
#      x y z
#    x 2.000090 0.026800 0.016140 
#    y 0.026800 1.967940 -0.003920 
#    z 0.016140 -0.003920 1.945950 
# 
# From -- ./inp_files/315372.got.cif
#   From: 2010.05.17/outbox.cif.g08.bks.cpg/sg2_158_cif.got.tgz:315372.got - 2010.06.03 11:33:40.
