data_PCOD9014075
_publ_section_title
;
Structure prediction by ZEFSAII (Michael W. Deem and Ramdas Pophale) SiO2 
 PCOD9014075
Probable space group: P -1
;
_chemical_formula_sum "Si O2"
_cell_formula_units_Z 16
_cell_length_a 24.401897
_cell_length_b 12.185729
_cell_length_c 5.587693
_cell_angle_alpha 58.252148
_cell_angle_beta 52.426719
_cell_angle_gamma 31.269981
_cell_volume 683.506517
_symmetry_space_group_name_H-M "P -1"
_symmetry_group_IT_number 2
_symmetry_cell_setting 'triclinic'
loop_
_space_group_symop_operation_xyz
x,y,z
-x,-y,-z
loop_
_atom_site_type_symbol
_atom_site_label
_atom_site_fract_x
_atom_site_fract_y
_atom_site_fract_z
Si Si1 0.730257 0.175955 0.663993
Si Si2 0.866745 0.624541 0.456874
Si Si3 0.530053 0.807428 0.631400
Si Si4 0.919252 0.040268 0.995067
Si Si5 0.960539 0.389389 0.982998
Si Si6 0.727238 0.377915 0.827216
Si Si7 0.465717 0.398277 0.534568
Si Si8 0.345442 0.934718 0.290315
O O1 0.824580 0.104035 0.329950
O O2 0.753708 0.203098 0.825915
O O3 0.599913 0.412914 0.691414
O O4 0.727132 0.032722 0.756258
O O5 0.901062 0.500133 0.754723
O O6 0.941480 0.645600 0.226735
O O7 0.737770 0.857751 0.568709
O O8 0.889280 0.518531 0.267854
O O9 0.661530 0.576423 0.605391
O O10 0.506326 0.774483 0.480855
O O11 0.500000 0.000000 0.500000
O O12 0.443232 0.869013 0.975213
O O13 0.844620 0.242651 0.790898
O O14 0.987658 0.829794 0.913653
O O15 0.000000 0.000000 0.000000
O O16 0.632620 0.489001 0.147501
O O17 0.582091 0.268744 0.497768
#
# Coordination Sequence:
#
# PCOD9014075 Si02
#       8
#     2   2   2   2   2   2   2   2
#     4  10  21  41  66  96 132 169 225 284 347 418
#     4  10  23  43  68 102 136 187 234 292 358 416
#     4  10  23  44  65  96 139 176 223 282 352 432
#     4  11  24  44  66  97 133 183 233 291 355 413
#     4  10  23  45  67  97 144 181 238 299 348 417
#     4   9  22  42  68  94 130 177 224 285 349 424
#     4   9  21  40  62 101 131 167 219 279 347 422
#     4  11  22  38  68 100 130 180 225 283 351 421
#
# _framework density 23.408702999999999
#
# number of rings (size 3 to 8) (size 9 to 14) (size 15 to 20)
#    0.000    2.000    1.250    0.375    3.500   10.000 
#    9.000    0.000    0.000    0.000    0.000    0.000 
#    0.000    0.000    0.000    0.000    0.000    0.000 
#
# Total GULP energy -89386.681970 kJ/mol
# GULP energy per Si atom -5586.667623 kJ/mol
# Density = 2.335542 g / cm^3
# Si number density = 23.408703 Si / 1000 Ang^3
#
#
#
# Elastic Constant Matrix: (Units=GPa)
#
#
# Indices 1 2 3 4 5 6 
#
# 1 125.4808 71.0805 41.7128 9.7950 17.9130 -2.5991
# 2 71.0805 121.8968 43.2451 25.6898 8.4780 -0.9436
# 3 41.7128 43.2451 93.6045 27.2553 18.1937 9.7450
# 4 9.7950 25.6898 27.2553 34.9219 13.0076 10.9630
# 5 17.9130 8.4780 18.1937 13.0076 37.0770 5.4437
# 6 -2.5991 -0.9436 9.7450 10.9630 5.4437 45.1862
#
#
#
# Elastic Compliance Matrix: (Units=1/GPa)
#
#
# Indices 1 2 3 4 5 6 
#
# 1 0.013834 -0.007833 -0.003393 0.006455 -0.005561 0.000468
# 2 -0.007833 0.015179 -0.001692 -0.009920 0.004313 0.002118
# 3 -0.003393 -0.001692 0.016271 -0.009168 -0.002564 -0.001206
# 4 0.006455 -0.009920 -0.009168 0.048343 -0.012118 -0.008128
# 5 -0.005561 0.004313 -0.002564 -0.012118 0.034308 -0.000870
# 6 0.000468 0.002118 -0.001206 -0.008128 -0.000870 0.024539
#
#
# Mechanical properties :
#
#
# Convention : Reuss Voigt Hill
#
# Bulk Modulus (GPa) = 51.42459 72.56211 61.99335
# Shear Modulus (GPa) = 27.05719 35.76660 31.41190
#
# Velocity S-wave (km/s) = 3.40348 3.91310 3.66716
# Velocity P-wave (km/s) = 6.12052 7.17507 6.66868
#
# Compressibility (1/GPa) = 0.01944595
#
# Stress axis : x y z
#
# Youngs Moduli (GPa) = 72.28435 65.88162 61.45950
#
# Poissons Ratio (x) = 0.51606 0.20856
# Poissons Ratio (y) = 0.56621 0.10401
# Poissons Ratio (z) = 0.24529 0.11150
#
# Static dielectric constant tensor:
#      x y z
#    x 1.954550 -0.018460 0.047070 
#    y -0.018460 1.934890 -0.079670 
#    z 0.047070 -0.079670 1.907530 
# 
# From -- ./inp_files/123619.got.cif
#   From: 2010.05.17/outbox.cif.g08.bks.cpg/sg2_62_cif.got.tgz:123619.got - 2010.06.03 11:33:40.
