data_PCOD9014652
_publ_section_title
;
Structure prediction by ZEFSAII (Michael W. Deem and Ramdas Pophale) SiO2 
 PCOD9014652
Probable space group: P -1
;
_chemical_formula_sum "Si O2"
_cell_formula_units_Z 16
_cell_length_a 11.703621
_cell_length_b 18.999252
_cell_length_c 9.142495
_cell_angle_alpha 148.116012
_cell_angle_beta 56.914841
_cell_angle_gamma 134.894336
_cell_volume 752.892263
_symmetry_space_group_name_H-M "P -1"
_symmetry_group_IT_number 2
_symmetry_cell_setting 'triclinic'
loop_
_space_group_symop_operation_xyz
x,y,z
-x,-y,-z
loop_
_atom_site_type_symbol
_atom_site_label
_atom_site_fract_x
_atom_site_fract_y
_atom_site_fract_z
Si Si1 0.347237 0.631210 0.113630
Si Si2 0.684559 0.552998 0.918868
Si Si3 0.889759 0.050709 0.240054
Si Si4 0.086364 0.420163 0.723765
Si Si5 0.668969 0.089364 0.249706
Si Si6 0.709549 0.111379 0.922041
Si Si7 0.267395 0.148116 0.710059
Si Si8 0.142372 0.541602 0.586720
O O1 0.262602 0.494981 0.056705
O O2 0.307339 0.761817 0.413641
O O3 0.542287 0.729726 0.163624
O O4 0.273736 0.538567 0.851558
O O5 0.714545 0.461418 0.606433
O O6 0.500000 0.500000 0.000000
O O7 0.779531 0.736463 0.126913
O O8 0.747671 0.018193 0.168991
O O9 0.999545 0.240528 0.522269
O O10 0.822488 0.949908 0.256443
O O11 0.000000 0.000000 0.000000
O O12 0.081142 0.424127 0.559349
O O13 0.000000 0.500000 0.000000
O O14 0.477962 0.969147 0.137351
O O15 0.737705 0.139035 0.125110
O O16 0.749910 0.983184 0.621581
O O17 0.801022 0.283343 0.087368
O O18 0.000000 0.500000 0.500000
#
# Coordination Sequence:
#
# PCOD9014652 Si02
#       8
#     2   2   2   2   2   2   2   2
#     4  10  21  43  70  98 128 175 223 285 326 401
#     4  10  22  45  68  96 139 174 225 288 337 400
#     4  12  26  45  62  96 145 179 215 284 347 403
#     4  12  24  41  68  99 135 177 228 275 343 401
#     4  10  21  41  68  96 134 167 225 276 336 398
#     4  10  22  40  71 100 121 179 229 278 335 402
#     4  10  24  43  67  98 135 177 224 274 343 406
#     4  12  24  42  69 100 136 178 231 279 341 416
#
# _framework density 21.251380999999999
#
# number of rings (size 3 to 8) (size 9 to 14) (size 15 to 20)
#    0.000    1.250    2.500    3.000    3.500    2.000 
#    2.250    5.000    0.000    0.000    0.000    0.000 
#    0.000    0.000    0.000    0.000    0.000    0.000 
#
# Total GULP energy -89357.084104 kJ/mol
# GULP energy per Si atom -5584.817757 kJ/mol
# Density = 2.120301 g / cm^3
# Si number density = 21.251381 Si / 1000 Ang^3
#
#
#
# Elastic Constant Matrix: (Units=GPa)
#
#
# Indices 1 2 3 4 5 6 
#
# 1 49.6330 22.8359 34.5330 3.5119 0.6699 -13.4369
# 2 22.8359 121.9528 40.2419 16.4281 -0.8289 -17.7391
# 3 34.5330 40.2419 106.9487 21.2702 -4.2607 2.4099
# 4 3.5119 16.4281 21.2702 39.0395 -5.5928 -7.7000
# 5 0.6699 -0.8289 -4.2607 -5.5928 35.4742 5.7741
# 6 -13.4369 -17.7391 2.4099 -7.7000 5.7741 17.9633
#
#
#
# Elastic Compliance Matrix: (Units=1/GPa)
#
#
# Indices 1 2 3 4 5 6 
#
# 1 0.044397 0.003222 -0.019654 0.013499 -0.008747 0.047626
# 2 0.003222 0.011865 -0.006163 0.000854 -0.003042 0.016298
# 3 -0.019654 -0.006163 0.021450 -0.012590 0.005855 -0.030944
# 4 0.013499 0.000854 -0.012590 0.036420 -0.000635 0.028445
# 5 -0.008747 -0.003042 0.005855 -0.000635 0.032303 -0.020988
# 6 0.047626 0.016298 -0.030944 0.028445 -0.020988 0.130479
#
#
# Mechanical properties :
#
#
# Convention : Reuss Voigt Hill
#
# Bulk Modulus (GPa) = 30.74941 52.63956 41.69448
# Shear Modulus (GPa) = 15.01751 30.55698 22.78725
#
# Velocity S-wave (km/s) = 2.66119 3.79606 3.27811
# Velocity P-wave (km/s) = 4.89320 6.63605 5.83012
#
# Compressibility (1/GPa) = 0.03252095
#
# Stress axis : x y z
#
# Youngs Moduli (GPa) = 22.52430 84.27973 46.62043
#
# Poissons Ratio (x) = -0.27153 0.91628
# Poissons Ratio (y) = -0.07257 0.28733
# Poissons Ratio (z) = 0.44269 0.51942
#
# Static dielectric constant tensor:
#      x y z
#    x 1.814140 0.044060 -0.001330 
#    y 0.044060 1.761120 -0.016110 
#    z -0.001330 -0.016110 1.760670 
# 
# From -- ./inp_files/280244.got.cif
#   From: 2010.05.17/outbox.cif.g08.bks.cpg/sg2_141_cif.got.tgz:280244.got - 2010.06.03 11:33:40.
