data_PCOD9014980
_publ_section_title
;
Structure prediction by ZEFSAII (Michael W. Deem and Ramdas Pophale) SiO2 
 PCOD9014980
Probable space group: P -1
;
_chemical_formula_sum "Si O2"
_cell_formula_units_Z 12
_cell_length_a 10.892775
_cell_length_b 8.557923
_cell_length_c 8.506989
_cell_angle_alpha 49.486605
_cell_angle_beta 58.476059
_cell_angle_gamma 56.360921
_cell_volume 485.009001
_symmetry_space_group_name_H-M "P -1"
_symmetry_group_IT_number 2
_symmetry_cell_setting 'triclinic'
loop_
_space_group_symop_operation_xyz
x,y,z
-x,-y,-z
loop_
_atom_site_type_symbol
_atom_site_label
_atom_site_fract_x
_atom_site_fract_y
_atom_site_fract_z
Si Si1 0.231758 0.530447 0.345163
Si Si2 0.924013 0.006990 0.715322
Si Si3 0.528649 0.633908 0.181377
Si Si4 0.681340 0.948071 0.399786
Si Si5 0.808429 0.304548 0.067310
Si Si6 0.637740 0.003225 0.743655
O O1 0.116637 0.746978 0.355861
O O2 0.400303 0.546437 0.252064
O O3 0.238119 0.294930 0.555339
O O4 0.192171 0.542679 0.178861
O O5 0.766064 0.962441 0.818141
O O6 0.000000 0.000000 0.500000
O O7 0.032152 0.831501 0.874870
O O8 0.691716 0.448340 0.180870
O O9 0.473381 0.750666 0.309302
O O10 0.547263 0.834131 0.935580
O O11 0.718374 0.971524 0.542960
O O12 0.500000 0.000000 0.500000
O O13 0.735009 0.128604 0.162266
#
# Coordination Sequence:
#
# PCOD9014980 Si02
#       6
#     2   2   2   2   2   2
#     4  11  24  45  68  97 136 168 219 279 322 385
#     4  11  25  45  65  96 136 178 218 264 329 399
#     4  10  21  41  70  93 130 170 217 272 324 378
#     4  12  23  39  70  99 129 170 223 268 328 385
#     4  12  23  41  70  99 131 174 220 267 331 387
#     4  10  22  42  64  97 131 172 216 267 325 388
#
# _framework density 24.741811999999999
#
# number of rings (size 3 to 8) (size 9 to 14) (size 15 to 20)
#    0.000    1.000    5.000    2.000    0.000    3.333 
#    0.000    0.000    0.000    0.000    0.000    0.000 
#    0.000    0.000    0.000    0.000    0.000    0.000 
#
# Total GULP energy -67216.498762 kJ/mol
# GULP energy per Si atom -5601.374897 kJ/mol
# Density = 2.468550 g / cm^3
# Si number density = 24.741812 Si / 1000 Ang^3
#
#
#
# Elastic Constant Matrix: (Units=GPa)
#
#
# Indices 1 2 3 4 5 6 
#
# 1 98.4566 27.6634 -5.4223 -12.0139 8.9273 -12.3391
# 2 27.6634 176.8830 5.1136 -12.2279 7.6026 -12.1025
# 3 -5.4223 5.1136 40.8838 -9.2501 -5.7320 3.7451
# 4 -12.0139 -12.2279 -9.2501 42.1861 3.4475 -1.4596
# 5 8.9273 7.6026 -5.7320 3.4475 25.0882 -4.1765
# 6 -12.3391 -12.1025 3.7451 -1.4596 -4.1765 32.4307
#
#
#
# Elastic Compliance Matrix: (Units=1/GPa)
#
#
# Indices 1 2 3 4 5 6 
#
# 1 0.011819 -0.001250 0.001786 0.003792 -0.003347 0.003564
# 2 -0.001250 0.006165 -0.001002 0.001400 -0.001544 0.001805
# 3 0.001786 -0.001002 0.026945 0.005673 0.004721 -0.001943
# 4 0.003792 0.001400 0.005673 0.026817 -0.003825 0.002024
# 5 -0.003347 -0.001544 0.004721 -0.003825 0.043631 0.003052
# 6 0.003564 0.001805 -0.001943 0.002024 0.003052 0.033573
#
#
# Mechanical properties :
#
#
# Convention : Reuss Voigt Hill
#
# Bulk Modulus (GPa) = 22.72883 41.21476 31.97180
# Shear Modulus (GPa) = 30.38647 39.19890 34.79269
#
# Velocity S-wave (km/s) = 3.50829 3.98467 3.75404
# Velocity P-wave (km/s) = 5.06134 6.15339 5.63389
#
# Compressibility (1/GPa) = 0.04399698
#
# Stress axis : x y z
#
# Youngs Moduli (GPa) = 84.60821 162.21765 37.11223
#
# Poissons Ratio (x) = 0.20282 -0.06629
# Poissons Ratio (y) = 0.10578 0.03719
# Poissons Ratio (z) = -0.15113 0.16254
#
# Static dielectric constant tensor:
#      x y z
#    x 1.998270 0.010920 -0.004760 
#    y 0.010920 1.960750 0.021890 
#    z -0.004760 0.021890 1.941270 
# 
# From -- ./inp_files/149839.got.cif
#   From: 2010.05.17/outbox.cif.g08.bks.cpg/sg2_75_cif.got.tgz:149839.got - 2010.06.03 11:33:40.
