data_PCOD9014636
_publ_section_title
;
Structure prediction by ZEFSAII (Michael W. Deem and Ramdas Pophale) SiO2 
 PCOD9014636
Probable space group: P -1
;
_chemical_formula_sum "Si O2"
_cell_formula_units_Z 14
_cell_length_a 18.061435
_cell_length_b 23.005305
_cell_length_c 8.532367
_cell_angle_alpha 139.483736
_cell_angle_beta 147.574125
_cell_angle_gamma 20.725571
_cell_volume 664.715903
_symmetry_space_group_name_H-M "P -1"
_symmetry_group_IT_number 2
_symmetry_cell_setting 'triclinic'
loop_
_space_group_symop_operation_xyz
x,y,z
-x,-y,-z
loop_
_atom_site_type_symbol
_atom_site_label
_atom_site_fract_x
_atom_site_fract_y
_atom_site_fract_z
Si Si1 0.189105 0.027033 0.840710
Si Si2 0.759273 0.199053 0.653811
Si Si3 0.758717 0.439338 0.666463
Si Si4 0.653131 0.769893 0.383009
Si Si5 0.306990 0.134154 0.064129
Si Si6 0.232746 0.493987 0.849683
Si Si7 0.631212 0.354357 0.046163
O O1 0.185162 0.935168 0.552997
O O2 0.442721 0.892662 0.125643
O O3 0.946834 0.154717 0.787035
O O4 0.208807 0.100181 0.911748
O O5 0.468846 0.380563 0.452742
O O6 0.793718 0.206968 0.913049
O O7 0.763408 0.339676 0.388886
O O8 0.712133 0.469534 0.831787
O O9 0.045158 0.322542 0.918474
O O10 0.570016 0.867327 0.591183
O O11 0.699656 0.640979 0.241396
O O12 0.931029 0.659452 0.609826
O O13 0.500000 0.000000 0.000000
O O14 0.409852 0.419012 0.866528
O O15 0.500000 0.500000 0.000000
#
# Coordination Sequence:
#
# PCOD9014636 Si02
#       7
#     2   2   2   2   2   2   2
#     4  11  24  44  65  91 134 164 213 264 316 377
#     4  10  24  42  65  97 121 171 211 261 324 364
#     4  10  22  43  66  91 128 163 213 262 310 382
#     4  10  23  42  66  88 129 173 206 259 319 380
#     4  11  27  41  65  96 127 168 213 262 318 375
#     4  10  21  41  68  96 120 170 218 252 320 377
#     4  10  23  36  66  96 126 158 213 265 309 372
#
# _framework density 21.061629
#
# number of rings (size 3 to 8) (size 9 to 14) (size 15 to 20)
#    0.000    1.714    1.429    0.857   14.000    2.286 
#    0.000    2.857    0.000    0.000    0.000    0.000 
#    0.000    0.000    0.000    0.000    0.000    0.000 
#
# Total GULP energy -78227.855663 kJ/mol
# GULP energy per Si atom -5587.703976 kJ/mol
# Density = 2.101369 g / cm^3
# Si number density = 21.061629 Si / 1000 Ang^3
#
#
#
# Elastic Constant Matrix: (Units=GPa)
#
#
# Indices 1 2 3 4 5 6 
#
# 1 91.2338 42.2968 45.3751 13.4375 -1.3070 -26.9628
# 2 42.2968 74.4575 22.9373 18.4187 -11.7035 -21.2720
# 3 45.3751 22.9373 95.7067 25.6359 -12.7651 -8.6628
# 4 13.4375 18.4187 25.6359 32.3516 -5.0355 -18.5558
# 5 -1.3070 -11.7035 -12.7651 -5.0355 16.4643 5.5290
# 6 -26.9628 -21.2720 -8.6628 -18.5558 5.5290 39.3618
#
#
#
# Elastic Compliance Matrix: (Units=1/GPa)
#
#
# Indices 1 2 3 4 5 6 
#
# 1 0.027012 -0.012328 -0.014851 0.015082 -0.019717 0.018452
# 2 -0.012328 0.023649 0.005239 -0.011037 0.017235 -0.002135
# 3 -0.014851 0.005239 0.022899 -0.020362 0.018963 -0.014565
# 4 0.015082 -0.011037 -0.020362 0.063002 -0.013750 0.031517
# 5 -0.019717 0.017235 0.018963 -0.013750 0.088267 -0.018899
# 6 0.018452 -0.002135 -0.014565 0.031517 -0.018899 0.051198
#
#
# Mechanical properties :
#
#
# Convention : Reuss Voigt Hill
#
# Bulk Modulus (GPa) = 33.69392 53.62408 43.65900
# Shear Modulus (GPa) = 15.16069 27.68811 21.42440
#
# Velocity S-wave (km/s) = 2.68587 3.62971 3.19286
# Velocity P-wave (km/s) = 5.06468 6.56370 5.86230
#
# Compressibility (1/GPa) = 0.02967894
#
# Stress axis : x y z
#
# Youngs Moduli (GPa) = 37.02080 42.28509 43.66963
#
# Poissons Ratio (x) = 0.52129 0.64856
# Poissons Ratio (y) = 0.45639 -0.22878
# Poissons Ratio (z) = 0.54981 -0.22152
#
# Static dielectric constant tensor:
#      x y z
#    x 1.723090 -0.008330 -0.013840 
#    y -0.008330 1.790120 0.014040 
#    z -0.013840 0.014040 1.777190 
# 
# From -- ./inp_files/185293.got.cif
#   From: 2010.05.17/outbox.cif.g08.bks.cpg/sg2_93_cif.got.tgz:185293.got - 2010.06.03 11:33:40.
