data_PCOD9014337
_publ_section_title
;
Structure prediction by ZEFSAII (Michael W. Deem and Ramdas Pophale) SiO2 
 PCOD9014337
Probable space group: P -1
;
_chemical_formula_sum "Si O2"
_cell_formula_units_Z 16
_cell_length_a 16.578324
_cell_length_b 8.382240
_cell_length_c 14.266153
_cell_angle_alpha 39.849016
_cell_angle_beta 46.556750
_cell_angle_gamma 35.052716
_cell_volume 720.088196
_symmetry_space_group_name_H-M "P -1"
_symmetry_group_IT_number 2
_symmetry_cell_setting 'triclinic'
loop_
_space_group_symop_operation_xyz
x,y,z
-x,-y,-z
loop_
_atom_site_type_symbol
_atom_site_label
_atom_site_fract_x
_atom_site_fract_y
_atom_site_fract_z
Si Si1 0.487606 0.290543 0.676852
Si Si2 0.860659 0.157773 0.825119
Si Si3 0.983162 0.604711 0.305543
Si Si4 0.746200 0.996885 0.744950
Si Si5 0.654945 0.694401 0.048026
Si Si6 0.253368 0.887461 0.878482
Si Si7 0.092073 0.818148 0.415250
Si Si8 0.470219 0.304536 0.179733
O O1 0.500000 0.500000 0.500000
O O2 0.355965 0.449916 0.783535
O O3 0.621829 0.129589 0.710781
O O4 0.491219 0.017682 0.747753
O O5 0.942210 0.980471 0.743052
O O6 0.701501 0.463658 0.779882
O O7 0.953945 0.247636 0.756640
O O8 0.822147 0.018500 0.001613
O O9 0.922668 0.449255 0.479306
O O10 0.114521 0.309567 0.275791
O O11 0.857779 0.851332 0.224083
O O12 0.759267 0.270213 0.631170
O O13 0.729790 0.857194 0.915832
O O14 0.717687 0.436211 0.032195
O O15 0.500000 0.000000 0.000000
O O16 0.407645 0.806900 0.790314
O O17 0.000000 0.000000 0.500000
O O18 0.500000 0.500000 0.000000
#
# Coordination Sequence:
#
# PCOD9014337 Si02
#       8
#     2   2   2   2   2   2   2   2
#     4  11  24  41  68 101 140 174 227 285 341 400
#     4  11  21  42  70  91 131 179 224 274 334 407
#     4  11  22  45  64  97 137 172 222 281 337 398
#     4  10  21  43  65  91 133 184 221 268 346 402
#     4  10  21  41  67  94 136 177 218 278 341 404
#     4  11  24  40  70 105 129 168 236 282 326 400
#     4  10  25  41  63  93 132 177 222 272 337 405
#     4  10  22  41  68 102 129 176 230 274 335 406
#
# _framework density 22.2195
#
# number of rings (size 3 to 8) (size 9 to 14) (size 15 to 20)
#    0.000    1.500    2.500    3.000    8.750    1.000 
#    4.500    3.750    0.000    0.000    0.000    0.000 
#    0.000    0.000    0.000    0.000    0.000    0.000 
#
# Total GULP energy -89078.864671 kJ/mol
# GULP energy per Si atom -5567.429042 kJ/mol
# Density = 2.216893 g / cm^3
# Si number density = 22.219500 Si / 1000 Ang^3
#
#
#
# Elastic Constant Matrix: (Units=GPa)
#
#
# Indices 1 2 3 4 5 6 
#
# 1 115.6458 16.0129 40.2517 6.3733 -18.2871 -28.5561
# 2 16.0129 19.8647 16.7912 5.4453 16.5390 -8.2094
# 3 40.2517 16.7912 136.0478 16.0333 -2.8999 -5.1380
# 4 6.3733 5.4453 16.0333 21.6656 3.2945 3.5916
# 5 -18.2871 16.5390 -2.8999 3.2945 47.3515 4.6179
# 6 -28.5561 -8.2094 -5.1380 3.5916 4.6179 34.4368
#
#
#
# Elastic Compliance Matrix: (Units=1/GPa)
#
#
# Indices 1 2 3 4 5 6 
#
# 1 0.015071 -0.016235 -0.001732 -0.001896 0.010823 0.007115
# 2 -0.016235 0.132201 -0.009662 -0.017298 -0.054341 0.025702
# 3 -0.001732 -0.009662 0.009556 -0.004322 0.003823 -0.002376
# 4 -0.001896 -0.017298 -0.004322 0.055971 0.002369 -0.012496
# 5 0.010823 -0.054341 0.003823 0.002369 0.045297 -0.009730
# 6 0.007115 0.025702 -0.002376 -0.012496 -0.009730 0.043319
#
#
# Mechanical properties :
#
#
# Convention : Reuss Voigt Hill
#
# Bulk Modulus (GPa) = 9.84549 46.40775 28.12662
# Shear Modulus (GPa) = 12.80306 33.92427 23.36366
#
# Velocity S-wave (km/s) = 2.40304 3.91164 3.24619
# Velocity P-wave (km/s) = 3.48426 6.42905 5.17072
#
# Compressibility (1/GPa) = 0.10156935
#
# Stress axis : x y z
#
# Youngs Moduli (GPa) = 66.35312 7.56421 104.64127
#
# Poissons Ratio (x) = 0.12281 0.18127
# Poissons Ratio (y) = 1.07727 1.01105
# Poissons Ratio (z) = 0.11494 0.07309
#
# Static dielectric constant tensor:
#      x y z
#    x 1.862790 0.020500 -0.045230 
#    y 0.020500 1.887460 0.052920 
#    z -0.045230 0.052920 1.920510 
# 
# From -- ./inp_files/528071.got.cif
#   From: 2010.05.17/outbox.cif.g08.bks.cpg/sg2_265_cif.got.tgz:528071.got - 2010.06.03 11:33:40.
