data_PCOD9014802
_publ_section_title
;
Structure prediction by ZEFSAII (Michael W. Deem and Ramdas Pophale) SiO2 
 PCOD9014802
Probable space group: P -1
;
_chemical_formula_sum "Si O2"
_cell_formula_units_Z 16
_cell_length_a 13.519400
_cell_length_b 8.625973
_cell_length_c 8.875163
_cell_angle_alpha 48.609238
_cell_angle_beta 83.126726
_cell_angle_gamma 82.368209
_cell_volume 768.893025
_symmetry_space_group_name_H-M "P -1"
_symmetry_group_IT_number 2
_symmetry_cell_setting 'triclinic'
loop_
_space_group_symop_operation_xyz
x,y,z
-x,-y,-z
loop_
_atom_site_type_symbol
_atom_site_label
_atom_site_fract_x
_atom_site_fract_y
_atom_site_fract_z
Si Si1 0.251765 0.714442 0.675087
Si Si2 0.087857 0.096445 0.017278
Si Si3 0.578980 0.593215 0.041028
Si Si4 0.762883 0.296155 0.674265
Si Si5 0.103707 0.355397 0.571864
Si Si6 0.535453 0.217764 0.792072
Si Si7 0.424543 0.972906 0.396805
Si Si8 0.054000 0.933420 0.685564
O O1 0.317930 0.540454 0.865635
O O2 0.235233 0.673807 0.526637
O O3 0.323472 0.903106 0.531399
O O4 0.149363 0.779961 0.733705
O O5 0.169261 0.911276 0.161978
O O6 0.127177 0.272123 0.790915
O O7 0.028331 0.167419 0.131557
O O8 0.000000 0.000000 0.000000
O O9 0.530520 0.620122 0.199172
O O10 0.500000 0.500000 0.000000
O O11 0.597001 0.816437 0.826572
O O12 0.812484 0.499078 0.596302
O O13 0.651032 0.261022 0.769628
O O14 0.088688 0.146635 0.615790
O O15 0.000000 0.500000 0.500000
O O16 0.529548 0.193410 0.628108
O O17 0.500000 0.000000 0.000000
O O18 0.500000 0.000000 0.500000
O O19 0.000000 0.000000 0.500000
#
# Coordination Sequence:
#
# PCOD9014802 Si02
#       8
#     2   2   2   2   2   2   2   2
#     4  11  24  43  64  96 134 176 219 278 342 402
#     4  10  21  41  69  92 137 171 219 283 337 400
#     4  11  23  43  65  96 136 171 229 284 333 410
#     4  11  22  43  71  97 133 176 233 277 341 411
#     4  11  22  42  68  99 133 179 232 281 334 409
#     4   9  23  43  70  97 133 179 225 279 353 398
#     4  10  21  44  67  94 137 172 220 285 340 403
#     4  11  22  45  69  96 142 179 219 284 348 404
#
# _framework density 20.809137
#
# number of rings (size 3 to 8) (size 9 to 14) (size 15 to 20)
#    0.000    1.500    5.000    0.000    0.000    8.000 
#    4.500    1.250    0.000    0.000    0.000    0.000 
#    0.000    0.000    0.000    0.000    0.000    0.000 
#
# Total GULP energy -89312.973643 kJ/mol
# GULP energy per Si atom -5582.060853 kJ/mol
# Density = 2.076177 g / cm^3
# Si number density = 20.809137 Si / 1000 Ang^3
#
#
#
# Elastic Constant Matrix: (Units=GPa)
#
#
# Indices 1 2 3 4 5 6 
#
# 1 102.3302 44.9447 47.2339 -4.6710 0.7188 -8.9508
# 2 44.9447 76.1338 38.0472 -0.7492 9.5367 -18.4519
# 3 47.2339 38.0472 143.9492 -14.3897 9.0307 -11.7219
# 4 -4.6710 -0.7492 -14.3897 31.2560 3.2567 -2.3938
# 5 0.7188 9.5367 9.0307 3.2567 46.8230 -5.7897
# 6 -8.9508 -18.4519 -11.7219 -2.3938 -5.7897 37.1168
#
#
#
# Elastic Compliance Matrix: (Units=1/GPa)
#
#
# Indices 1 2 3 4 5 6 
#
# 1 0.014284 -0.007419 -0.002864 0.000395 0.001711 -0.000856
# 2 -0.007419 0.020813 -0.002387 -0.000867 -0.002698 0.007327
# 3 -0.002864 -0.002387 0.009078 0.003916 -0.001366 0.001029
# 4 0.000395 -0.000867 0.003916 0.034316 -0.002637 0.002703
# 5 0.001711 -0.002698 -0.001366 -0.002637 0.022573 0.001991
# 6 -0.000856 0.007327 0.001029 0.002703 0.001991 0.031188
#
#
# Mechanical properties :
#
#
# Convention : Reuss Voigt Hill
#
# Bulk Modulus (GPa) = 53.09231 64.76276 58.92754
# Shear Modulus (GPa) = 30.51184 35.85166 33.18175
#
# Velocity S-wave (km/s) = 3.83335 4.15526 3.99755
# Velocity P-wave (km/s) = 6.72027 7.36284 7.04888
#
# Compressibility (1/GPa) = 0.01883512
#
# Stress axis : x y z
#
# Youngs Moduli (GPa) = 70.00984 48.04739 110.15147
#
# Poissons Ratio (x) = 0.35646 0.31542
# Poissons Ratio (y) = 0.51940 0.26297
# Poissons Ratio (z) = 0.20048 0.11471
#
# Static dielectric constant tensor:
#      x y z
#    x 1.742220 0.024800 -0.010740 
#    y 0.024800 1.782560 0.004510 
#    z -0.010740 0.004510 1.740980 
# 
# From -- ./inp_files/201073.got.cif
#   From: 2010.05.17/outbox.cif.g08.bks.cpg/sg2_101_cif.got.tgz:201073.got - 2010.06.03 11:33:40.
