data_PCOD9014080
_publ_section_title
;
Structure prediction by ZEFSAII (Michael W. Deem and Ramdas Pophale) SiO2 
 PCOD9014080
Probable space group: P -1
;
_chemical_formula_sum "Si O2"
_cell_formula_units_Z 14
_cell_length_a 13.686751
_cell_length_b 5.226003
_cell_length_c 9.925140
_cell_angle_alpha 121.768124
_cell_angle_beta 116.142091
_cell_angle_gamma 85.842666
_cell_volume 529.858667
_symmetry_space_group_name_H-M "P -1"
_symmetry_group_IT_number 2
_symmetry_cell_setting 'triclinic'
loop_
_space_group_symop_operation_xyz
x,y,z
-x,-y,-z
loop_
_atom_site_type_symbol
_atom_site_label
_atom_site_fract_x
_atom_site_fract_y
_atom_site_fract_z
Si Si1 0.816212 0.669584 0.291747
Si Si2 0.436523 0.528786 0.333011
Si Si3 0.416523 0.410823 0.798149
Si Si4 0.320254 0.927212 0.952989
Si Si5 0.198489 0.695483 0.261282
Si Si6 0.101016 0.150864 0.857187
Si Si7 0.883981 0.687402 0.638638
O O1 0.704374 0.797897 0.299231
O O2 0.922171 0.795086 0.298104
O O3 0.860600 0.587210 0.441760
O O4 0.750918 0.360609 0.088067
O O5 0.500000 0.500000 0.500000
O O6 0.519203 0.700902 0.316073
O O7 0.324981 0.657421 0.315533
O O8 0.398536 0.182298 0.156015
O O9 0.500000 0.500000 0.000000
O O10 0.382518 0.740624 0.836733
O O11 0.222471 0.080056 0.884886
O O12 0.154470 0.580487 0.351751
O O13 0.182902 0.034337 0.306931
O O14 0.121787 0.442270 0.047807
O O15 0.011091 0.870583 0.782436
#
# Coordination Sequence:
#
# PCOD9014080 Si02
#       7
#     2   2   2   2   2   2   2
#     4  10  25  42  69 103 134 176 239 286 340 420
#     4  11  23  42  69 101 136 186 226 292 342 413
#     4  10  21  41  66  96 132 181 223 280 351 405
#     4   9  24  41  68  95 141 168 238 272 357 408
#     4  11  28  45  70 104 145 181 240 280 349 421
#     4  11  24  45  73  97 138 185 229 291 353 411
#     4  12  27  47  71 104 142 187 231 293 345 411
#
# _framework density 26.422139999999999
#
# number of rings (size 3 to 8) (size 9 to 14) (size 15 to 20)
#    0.857    0.571    0.000    4.286    8.000    1.714 
#    0.000    2.143    0.000    0.000    0.000    0.000 
#    0.000    0.000    0.000    0.000    0.000    0.000 
#
# Total GULP energy -78256.161172 kJ/mol
# GULP energy per Si atom -5589.725798 kJ/mol
# Density = 2.636200 g / cm^3
# Si number density = 26.422140 Si / 1000 Ang^3
#
#
#
# Elastic Constant Matrix: (Units=GPa)
#
#
# Indices 1 2 3 4 5 6 
#
# 1 142.6325 36.0982 39.4192 -18.5165 -0.7066 -6.3035
# 2 36.0982 63.0911 4.8189 10.7238 1.7838 3.9785
# 3 39.4192 4.8189 96.7620 5.6330 8.8577 5.2280
# 4 -18.5165 10.7238 5.6330 44.6362 10.5287 -0.1760
# 5 -0.7066 1.7838 8.8577 10.5287 31.3541 -7.7102
# 6 -6.3035 3.9785 5.2280 -0.1760 -7.7102 41.3297
#
#
#
# Elastic Compliance Matrix: (Units=1/GPa)
#
#
# Indices 1 2 3 4 5 6 
#
# 1 0.011303 -0.007501 -0.004855 0.007002 0.000484 0.003180
# 2 -0.007501 0.021636 0.002691 -0.008626 -0.000157 -0.003633
# 3 -0.004855 0.002691 0.012884 -0.003461 -0.003553 -0.003307
# 4 0.007002 -0.008626 -0.003461 0.029738 -0.008127 0.000947
# 5 0.000484 -0.000157 -0.003553 -0.008127 0.037490 0.007498
# 6 0.003180 -0.003633 -0.003307 0.000947 0.007498 0.026851
#
#
# Mechanical properties :
#
#
# Convention : Reuss Voigt Hill
#
# Bulk Modulus (GPa) = 37.74478 51.46200 44.60339
# Shear Modulus (GPa) = 29.75086 38.27396 34.01241
#
# Velocity S-wave (km/s) = 3.35921 3.81012 3.59175
# Velocity P-wave (km/s) = 5.41867 6.23499 5.84111
#
# Compressibility (1/GPa) = 0.02649373
#
# Stress axis : x y z
#
# Youngs Moduli (GPa) = 88.47221 46.21943 77.61682
#
# Poissons Ratio (x) = 0.34668 0.37682
# Poissons Ratio (y) = 0.66360 -0.20887
# Poissons Ratio (z) = 0.42952 -0.12438
#
# Static dielectric constant tensor:
#      x y z
#    x 2.177760 0.174330 -0.076880 
#    y 0.174330 2.718020 -0.270920 
#    z -0.076880 -0.270920 2.159550 
# 
# From -- ./inp_files/289245.got.cif
#   From: 2010.05.17/outbox.cif.g08.bks.cpg/sg2_145_cif.got.tgz:289245.got - 2010.06.03 11:33:40.
