data_PCOD9014228
_publ_section_title
;
Structure prediction by ZEFSAII (Michael W. Deem and Ramdas Pophale) SiO2 
 PCOD9014228
Probable space group: P -1
;
_chemical_formula_sum "Si O2"
_cell_formula_units_Z 16
_cell_length_a 15.465199
_cell_length_b 8.078462
_cell_length_c 8.563086
_cell_angle_alpha 109.106505
_cell_angle_beta 41.232144
_cell_angle_gamma 113.770859
_cell_volume 644.797208
_symmetry_space_group_name_H-M "P -1"
_symmetry_group_IT_number 2
_symmetry_cell_setting 'triclinic'
loop_
_space_group_symop_operation_xyz
x,y,z
-x,-y,-z
loop_
_atom_site_type_symbol
_atom_site_label
_atom_site_fract_x
_atom_site_fract_y
_atom_site_fract_z
Si Si1 0.305367 0.787010 0.895529
Si Si2 0.066954 0.178274 0.103423
Si Si3 0.469000 0.672063 0.409077
Si Si4 0.935610 0.234432 0.016140
Si Si5 0.622572 0.240149 0.762472
Si Si6 0.781523 0.672797 0.362348
Si Si7 0.671595 0.926990 0.787537
Si Si8 0.734087 0.544944 0.915762
O O1 0.450598 0.782786 0.623020
O O2 0.265518 0.618133 0.014983
O O3 0.196523 0.756651 0.894717
O O4 0.303964 0.966782 0.049191
O O5 0.182876 0.227589 0.823748
O O6 0.126515 0.304767 0.205788
O O7 0.944551 0.232208 0.192689
O O8 0.044387 0.968776 0.107807
O O9 0.420012 0.770022 0.360283
O O10 0.354316 0.483145 0.522992
O O11 0.610420 0.631456 0.158536
O O12 0.075071 0.374552 0.815057
O O13 0.686831 0.083356 0.686280
O O14 0.481908 0.196067 0.038530
O O15 0.703091 0.441904 0.762061
O O16 0.761592 0.799289 0.569663
#
# Coordination Sequence:
#
# PCOD9014228 Si02
#       8
#     2   2   2   2   2   2   2   2
#     4  11  24  39  63  95 126 165 209 259 306 368
#     4   9  21  39  66  90 124 165 207 260 300 373
#     4  12  24  38  66  97 124 167 205 256 319 374
#     4   9  22  42  61  94 123 169 212 255 302 367
#     4  10  24  40  61  93 136 157 206 253 319 378
#     4  10  21  41  67  86 128 169 204 255 311 366
#     4  10  23  42  61  92 132 168 196 262 311 369
#     4  11  22  41  62  94 128 162 206 257 320 371
#
# _framework density 24.814004000000001
#
# number of rings (size 3 to 8) (size 9 to 14) (size 15 to 20)
#    0.750    1.000    2.500    0.750    3.500    3.000 
#    0.000    0.000    0.000    3.750    0.000    0.000 
#    0.000    0.000    0.000    0.000    0.000    0.000 
#
# Total GULP energy -89429.307783 kJ/mol
# GULP energy per Si atom -5589.331736 kJ/mol
# Density = 2.475753 g / cm^3
# Si number density = 24.814004 Si / 1000 Ang^3
#
#
#
# Elastic Constant Matrix: (Units=GPa)
#
#
# Indices 1 2 3 4 5 6 
#
# 1 90.0613 26.4049 0.2825 8.2928 -8.3110 2.7189
# 2 26.4049 65.5391 19.4903 6.1044 10.2843 22.5842
# 3 0.2825 19.4903 63.6194 18.9758 0.7497 -4.8434
# 4 8.2928 6.1044 18.9758 38.6967 -1.5839 5.9001
# 5 -8.3110 10.2843 0.7497 -1.5839 20.9474 2.4954
# 6 2.7189 22.5842 -4.8434 5.9001 2.4954 40.1720
#
#
#
# Elastic Compliance Matrix: (Units=1/GPa)
#
#
# Indices 1 2 3 4 5 6 
#
# 1 0.015441 -0.010806 0.004872 -0.004432 0.010251 0.005632
# 2 -0.010806 0.031835 -0.012578 0.005586 -0.016846 -0.018456
# 3 0.004872 -0.012578 0.024017 -0.012331 0.004989 0.011138
# 4 -0.004432 0.005586 -0.012331 0.033342 -0.000443 -0.009197
# 5 0.010251 -0.016846 0.004989 -0.000443 0.059177 0.005767
# 6 0.005632 -0.018456 0.011138 -0.009197 0.005767 0.037223
#
#
# Mechanical properties :
#
#
# Convention : Reuss Voigt Hill
#
# Bulk Modulus (GPa) = 29.18040 34.61948 31.89994
# Shear Modulus (GPa) = 20.04156 31.49935 25.77046
#
# Velocity S-wave (km/s) = 2.84504 3.56676 3.22614
# Velocity P-wave (km/s) = 4.75158 5.56275 5.17309
#
# Compressibility (1/GPa) = 0.03426958
#
# Stress axis : x y z
#
# Youngs Moduli (GPa) = 64.76468 31.41194 41.63658
#
# Poissons Ratio (x) = 0.33943 -0.20285
# Poissons Ratio (y) = 0.69984 0.52369
# Poissons Ratio (z) = -0.31553 0.39509
#
# Static dielectric constant tensor:
#      x y z
#    x 2.000150 0.020080 0.004850 
#    y 0.020080 1.991610 -0.001310 
#    z 0.004850 -0.001310 1.934030 
# 
# From -- ./inp_files/295999.got.cif
#   From: 2010.05.17/outbox.cif.g08.bks.cpg/sg2_148_cif.got.tgz:295999.got - 2010.06.03 11:33:40.
