data_PCOD9014065
_publ_section_title
;
Structure prediction by ZEFSAII (Michael W. Deem and Ramdas Pophale) SiO2 
 PCOD9014065
Probable space group: P -1
;
_chemical_formula_sum "Si O2"
_cell_formula_units_Z 13
_cell_length_a 20.857462
_cell_length_b 13.214861
_cell_length_c 15.419294
_cell_angle_alpha 152.807576
_cell_angle_beta 159.319718
_cell_angle_gamma 24.093953
_cell_volume 593.937949
_symmetry_space_group_name_H-M "P -1"
_symmetry_group_IT_number 2
_symmetry_cell_setting 'triclinic'
loop_
_space_group_symop_operation_xyz
x,y,z
-x,-y,-z
loop_
_atom_site_type_symbol
_atom_site_label
_atom_site_fract_x
_atom_site_fract_y
_atom_site_fract_z
Si Si1 0.800063 0.482671 0.266861
Si Si2 0.500000 0.500000 0.500000
Si Si3 0.590495 0.273095 0.153140
Si Si4 0.311687 0.743040 0.276402
Si Si5 0.703556 0.815132 0.059076
Si Si6 0.837091 0.489077 0.522595
Si Si7 0.170941 0.039160 0.160977
O O1 0.786884 0.498872 0.365431
O O2 0.000000 0.500000 0.500000
O O3 0.596395 0.692946 0.119198
O O4 0.808188 0.215758 0.048949
O O5 0.379480 0.740777 0.458723
O O6 0.664897 0.595247 0.805589
O O7 0.482276 0.466425 0.244431
O O8 0.721609 0.374951 0.345071
O O9 0.718865 0.990300 0.137321
O O10 0.292991 0.950173 0.339469
O O11 0.078458 0.783670 0.003835
O O12 0.915557 0.692701 0.288634
O O13 0.500000 0.000000 0.000000
O O14 0.768969 0.782929 0.682753
#
# Coordination Sequence:
#
# PCOD9014065 Si02
#       7
#     2   1   2   2   2   2   2
#     4  11  24  41  72  98 126 173 222 268 317 386
#     4  12  24  40  70  98 116 174 230 264 320 370
#     4  11  25  45  63  98 139 169 212 271 333 389
#     4  10  21  41  66  96 123 169 215 273 310 380
#     4  12  25  44  68  93 129 173 225 272 313 388
#     4  12  25  44  65  98 136 174 209 268 340 385
#     4  10  22  42  66  95 129 164 221 270 319 383
#
# _framework density 21.887808
#
# number of rings (size 3 to 8) (size 9 to 14) (size 15 to 20)
#    0.000    0.923    3.077    4.615    6.462    2.462 
#    2.769    0.769    0.000    0.000    0.000    0.000 
#    0.000    0.000    0.000    0.000    0.000    0.000 
#
# Total GULP energy -72415.054294 kJ/mol
# GULP energy per Si atom -5570.388792 kJ/mol
# Density = 2.183799 g / cm^3
# Si number density = 21.887808 Si / 1000 Ang^3
#
#
#
# Elastic Constant Matrix: (Units=GPa)
#
#
# Indices 1 2 3 4 5 6 
#
# 1 41.8013 21.6177 10.9867 12.9103 7.3809 21.7900
# 2 21.6177 107.4162 26.0695 6.4382 1.1905 35.5622
# 3 10.9867 26.0695 69.8520 8.7803 3.1006 15.7690
# 4 12.9103 6.4382 8.7803 46.8060 10.2172 5.6926
# 5 7.3809 1.1905 3.1006 10.2172 23.3353 4.1293
# 6 21.7900 35.5622 15.7690 5.6926 4.1293 39.5797
#
#
#
# Elastic Compliance Matrix: (Units=1/GPa)
#
#
# Indices 1 2 3 4 5 6 
#
# 1 0.036751 -0.001008 -0.000344 -0.006580 -0.005520 -0.017668
# 2 -0.001008 0.013753 -0.002560 -0.000238 0.002000 -0.010957
# 3 -0.000344 -0.002560 0.016447 -0.002106 -0.000365 -0.003722
# 4 -0.006580 -0.000238 -0.002106 0.025348 -0.009075 0.001976
# 5 -0.005520 0.002000 -0.000365 -0.009075 0.048947 -0.002414
# 6 -0.017668 -0.010957 -0.003722 0.001976 -0.002414 0.046288
#
#
# Mechanical properties :
#
#
# Convention : Reuss Voigt Hill
#
# Bulk Modulus (GPa) = 16.91234 37.37969 27.14602
# Shear Modulus (GPa) = 23.24873 32.63724 27.94298
#
# Velocity S-wave (km/s) = 3.26264 3.86568 3.57689
# Velocity P-wave (km/s) = 4.68366 6.08602 5.43030
#
# Compressibility (1/GPa) = 0.05912843
#
# Stress axis : x y z
#
# Youngs Moduli (GPa) = 27.21012 72.70991 60.80286
#
# Poissons Ratio (x) = 0.07329 0.02089
# Poissons Ratio (y) = 0.02743 0.15564
# Poissons Ratio (z) = 0.00935 0.18612
#
# Static dielectric constant tensor:
#      x y z
#    x 1.854850 0.005130 -0.014280 
#    y 0.005130 1.851500 0.047450 
#    z -0.014280 0.047450 1.793950 
# 
# From -- ./inp_files/253346.got.cif
#   From: 2010.05.17/outbox.cif.g08.bks.cpg/sg2_127_cif.got.tgz:253346.got - 2010.06.03 11:33:40.
