data_PCOD9014318
_publ_section_title
;
Structure prediction by ZEFSAII (Michael W. Deem and Ramdas Pophale) SiO2 
 PCOD9014318
Probable space group: P -1
;
_chemical_formula_sum "Si O2"
_cell_formula_units_Z 14
_cell_length_a 17.242814
_cell_length_b 18.202400
_cell_length_c 12.257275
_cell_angle_alpha 27.400979
_cell_angle_beta 140.435007
_cell_angle_gamma 158.425286
_cell_volume 616.077963
_symmetry_space_group_name_H-M "P -1"
_symmetry_group_IT_number 2
_symmetry_cell_setting 'triclinic'
loop_
_space_group_symop_operation_xyz
x,y,z
-x,-y,-z
loop_
_atom_site_type_symbol
_atom_site_label
_atom_site_fract_x
_atom_site_fract_y
_atom_site_fract_z
Si Si1 0.813965 0.154039 0.527587
Si Si2 0.785696 0.878617 0.426398
Si Si3 0.345641 0.177241 0.878898
Si Si4 0.663873 0.333937 0.536575
Si Si5 0.265222 0.769120 0.452363
Si Si6 0.226102 0.199380 0.925739
Si Si7 0.780950 0.153368 0.236609
O O1 0.723383 0.200327 0.444332
O O2 0.781758 0.112190 0.419914
O O3 0.085119 0.441718 0.454986
O O4 0.702653 0.878256 0.828520
O O5 0.573822 0.527773 0.667758
O O6 0.753861 0.933390 0.203748
O O7 0.795851 0.021804 0.343381
O O8 0.000000 0.000000 0.500000
O O9 0.187284 0.101841 0.888746
O O10 0.371775 0.033823 0.151651
O O11 0.660928 0.300672 0.446776
O O12 0.631452 0.485040 0.329010
O O13 0.465074 0.033451 0.786121
O O14 0.000000 0.500000 0.500000
O O15 0.000000 0.000000 0.000000
O O16 0.000000 0.500000 0.000000
#
# Coordination Sequence:
#
# PCOD9014318 Si02
#       7
#     2   2   2   2   2   2   2
#     4   9  22  42  66  93 130 161 212 265 317 383
#     4  11  27  44  66  92 126 178 216 261 312 376
#     4  10  22  46  67  91 130 164 221 258 313 385
#     4  10  21  41  67  94 127 169 207 263 324 364
#     4   9  20  41  68  99 123 169 208 260 328 372
#     4   9  18  39  68  95 117 164 209 266 318 368
#     4  12  28  43  60  99 131 169 219 257 319 382
#
# _framework density 22.724397
#
# number of rings (size 3 to 8) (size 9 to 14) (size 15 to 20)
#    0.000    2.000    1.429    0.857   10.000    1.714 
#    0.000    0.000    0.000    0.000    0.000    0.000 
#    0.000    0.000    0.000    0.000    0.000    0.000 
#
# Total GULP energy -78111.262646 kJ/mol
# GULP energy per Si atom -5579.375903 kJ/mol
# Density = 2.267268 g / cm^3
# Si number density = 22.724397 Si / 1000 Ang^3
#
#
#
# Elastic Constant Matrix: (Units=GPa)
#
#
# Indices 1 2 3 4 5 6 
#
# 1 194.8734 61.8305 32.9005 -0.8512 -9.5276 -25.0630
# 2 61.8305 95.6502 25.8107 -0.5125 -8.3333 -26.1774
# 3 32.9005 25.8107 82.0704 -6.3858 -14.9914 -7.4190
# 4 -0.8512 -0.5125 -6.3858 29.3887 -1.6241 -11.6887
# 5 -9.5276 -8.3333 -14.9914 -1.6241 32.6206 -2.6372
# 6 -25.0630 -26.1774 -7.4190 -11.6887 -2.6372 51.2003
#
#
#
# Elastic Compliance Matrix: (Units=1/GPa)
#
#
# Indices 1 2 3 4 5 6 
#
# 1 0.006683 -0.003530 -0.001299 0.000443 0.000589 0.001410
# 2 -0.003530 0.015327 -0.002170 0.002408 0.002530 0.006474
# 3 -0.001299 -0.002170 0.015027 0.004224 0.006321 0.001722
# 4 0.000443 0.002408 0.004224 0.039862 0.005596 0.011449
# 5 0.000589 0.002530 0.006321 0.005596 0.035109 0.005584
# 6 0.001410 0.006474 0.001722 0.011449 0.005584 0.026682
#
#
# Mechanical properties :
#
#
# Convention : Reuss Voigt Hill
#
# Bulk Modulus (GPa) = 43.40655 68.18637 55.79646
# Shear Modulus (GPa) = 31.17802 39.44544 35.31173
#
# Velocity S-wave (km/s) = 3.70808 4.17084 3.94625
# Velocity P-wave (km/s) = 6.12176 7.29832 6.73578
#
# Compressibility (1/GPa) = 0.02303800
#
# Stress axis : x y z
#
# Youngs Moduli (GPa) = 149.63485 65.24249 66.54610
#
# Poissons Ratio (x) = 0.23029 0.08647
# Poissons Ratio (y) = 0.52819 0.14444
# Poissons Ratio (z) = 0.19444 0.14161
#
# Static dielectric constant tensor:
#      x y z
#    x 1.845420 0.013140 0.019430 
#    y 0.013140 1.972250 -0.061020 
#    z 0.019430 -0.061020 1.915780 
# 
# From -- ./inp_files/455478.got.cif
#   From: 2010.05.17/outbox.cif.g08.bks.cpg/sg2_228_cif.got.tgz:455478.got - 2010.06.03 11:33:40.
