data_PCOD9014912
_publ_section_title
;
Structure prediction by ZEFSAII (Michael W. Deem and Ramdas Pophale) SiO2 
 PCOD9014912
Probable space group: P -1
;
_chemical_formula_sum "Si O2"
_cell_formula_units_Z 14
_cell_length_a 8.260942
_cell_length_b 15.413974
_cell_length_c 7.964878
_cell_angle_alpha 44.995928
_cell_angle_beta 89.292394
_cell_angle_gamma 115.275836
_cell_volume 564.691131
_symmetry_space_group_name_H-M "P -1"
_symmetry_group_IT_number 2
_symmetry_cell_setting 'triclinic'
loop_
_space_group_symop_operation_xyz
x,y,z
-x,-y,-z
loop_
_atom_site_type_symbol
_atom_site_label
_atom_site_fract_x
_atom_site_fract_y
_atom_site_fract_z
Si Si1 0.540894 0.335678 0.867546
Si Si2 0.302202 0.100679 0.696489
Si Si3 0.621103 0.434123 0.116651
Si Si4 0.190826 0.333397 0.751901
Si Si5 0.952301 0.335576 0.182802
Si Si6 0.984455 0.136655 0.703311
Si Si7 0.272109 0.832316 0.902073
O O1 0.312397 0.287405 0.922723
O O2 0.669328 0.483851 0.539607
O O3 0.630252 0.391213 0.980801
O O4 0.584790 0.214773 0.982886
O O5 0.502310 0.277978 0.440008
O O6 0.107235 0.094155 0.647568
O O7 0.345164 0.001481 0.718944
O O8 0.213541 0.009329 0.999149
O O9 0.500000 0.500000 0.000000
O O10 0.821048 0.578939 0.011385
O O11 0.152006 0.247018 0.692422
O O12 0.961256 0.274425 0.876071
O O13 0.934830 0.239836 0.472799
O O14 0.775066 0.211268 0.232765
O O15 0.000000 0.500000 0.000000
#
# Coordination Sequence:
#
# PCOD9014912 Si02
#       7
#     2   2   2   2   2   2   2
#     4  11  22  40  68 102 141 174 242 290 340 417
#     4  10  24  44  70  99 143 185 229 292 357 416
#     4  12  22  43  70 100 135 179 239 288 342 422
#     4  10  21  41  70 100 134 191 227 291 347 411
#     4  12  23  43  73 101 139 185 231 290 347 415
#     4  10  21  46  67 100 143 182 234 283 357 423
#     4  11  24  43  69 104 140 185 231 287 356 418
#
# _framework density 24.792316
#
# number of rings (size 3 to 8) (size 9 to 14) (size 15 to 20)
#    0.000    1.143    4.286    1.286    0.000    3.429 
#    5.143    1.429    0.000    0.000    0.000    0.000 
#    0.000    0.000    0.000    0.000    0.000    0.000 
#
# Total GULP energy -78130.605802 kJ/mol
# GULP energy per Si atom -5580.757557 kJ/mol
# Density = 2.473589 g / cm^3
# Si number density = 24.792316 Si / 1000 Ang^3
#
#
#
# Elastic Constant Matrix: (Units=GPa)
#
#
# Indices 1 2 3 4 5 6 
#
# 1 116.6278 40.5305 20.5357 1.0349 26.6645 -23.1010
# 2 40.5305 79.7149 19.8909 -5.0501 27.4369 -10.0476
# 3 20.5357 19.8909 136.9540 -16.0239 17.9585 2.6933
# 4 1.0349 -5.0501 -16.0239 22.2541 -6.1830 5.2193
# 5 26.6645 27.4369 17.9585 -6.1830 43.5897 -10.2633
# 6 -23.1010 -10.0476 2.6933 5.2193 -10.2633 43.6046
#
#
#
# Elastic Compliance Matrix: (Units=1/GPa)
#
#
# Indices 1 2 3 4 5 6 
#
# 1 0.012225 -0.004241 -0.001403 -0.004802 -0.003665 0.005298
# 2 -0.004241 0.017738 -0.000694 0.001516 -0.008119 -0.000209
# 3 -0.001403 -0.000694 0.008655 0.006202 -0.002016 -0.002655
# 4 -0.004802 0.001516 0.006202 0.053215 0.005155 -0.007734
# 5 -0.003665 -0.008119 -0.002016 0.005155 0.032651 0.003380
# 6 0.005298 -0.000209 -0.002655 -0.007734 0.003380 0.027577
#
#
# Mechanical properties :
#
#
# Convention : Reuss Voigt Hill
#
# Bulk Modulus (GPa) = 38.54594 55.02345 46.78469
# Shear Modulus (GPa) = 28.83767 38.71233 33.77500
#
# Velocity S-wave (km/s) = 3.41423 3.95582 3.69496
# Velocity P-wave (km/s) = 5.57888 6.56557 6.09223
#
# Compressibility (1/GPa) = 0.02594307
#
# Stress axis : x y z
#
# Youngs Moduli (GPa) = 81.80040 56.37506 115.53884
#
# Poissons Ratio (x) = 0.23907 0.16205
# Poissons Ratio (y) = 0.34689 0.08022
# Poissons Ratio (z) = 0.11473 0.03914
#
# Static dielectric constant tensor:
#      x y z
#    x 2.131060 -0.099800 -0.110430 
#    y -0.099800 2.068350 0.051780 
#    z -0.110430 0.051780 1.972590 
# 
# From -- ./inp_files/211693.got.cif
#   From: 2010.05.17/outbox.cif.g08.bks.cpg/sg2_106_cif.got.tgz:211693.got - 2010.06.03 11:33:40.
