data_PCOD9014448
_publ_section_title
;
Structure prediction by ZEFSAII (Michael W. Deem and Ramdas Pophale) SiO2 
 PCOD9014448
Probable space group: P -1
;
_chemical_formula_sum "Si O2"
_cell_formula_units_Z 14
_cell_length_a 15.611334
_cell_length_b 12.037222
_cell_length_c 12.058574
_cell_angle_alpha 128.667595
_cell_angle_beta 151.988899
_cell_angle_gamma 40.111782
_cell_volume 676.076394
_symmetry_space_group_name_H-M "P -1"
_symmetry_group_IT_number 2
_symmetry_cell_setting 'triclinic'
loop_
_space_group_symop_operation_xyz
x,y,z
-x,-y,-z
loop_
_atom_site_type_symbol
_atom_site_label
_atom_site_fract_x
_atom_site_fract_y
_atom_site_fract_z
Si Si1 0.969388 0.681447 0.092279
Si Si2 0.448309 0.590522 0.653148
Si Si3 0.466707 0.439224 0.807608
Si Si4 0.997874 0.395664 0.536171
Si Si5 0.044357 0.848045 0.824548
Si Si6 0.914824 0.224282 0.926795
Si Si7 0.633947 0.806265 0.985646
O O1 0.206155 0.640300 0.375791
O O2 0.929658 0.770222 0.982621
O O3 0.778312 0.787060 0.031900
O O4 0.000000 0.500000 0.000000
O O5 0.462253 0.559585 0.782063
O O6 0.664515 0.403397 0.741207
O O7 0.481414 0.737682 0.745978
O O8 0.225856 0.477582 0.568093
O O9 0.500000 0.500000 0.000000
O O10 0.686672 0.244141 0.920446
O O11 0.999635 0.238428 0.381712
O O12 0.000000 0.500000 0.500000
O O13 0.199416 0.319045 0.804035
O O14 0.002851 0.794554 0.863860
O O15 0.916592 0.054559 0.800966
O O16 0.500000 0.000000 0.000000
#
# Coordination Sequence:
#
# PCOD9014448 Si02
#       7
#     2   2   2   2   2   2   2
#     4  12  26  43  71  96 134 187 229 271 351 417
#     4  11  23  44  66  92 139 179 221 284 338 412
#     4   9  18  37  64  92 127 176 218 271 351 390
#     4  11  22  40  67  95 139 179 230 284 344 412
#     4   9  21  38  68 100 129 176 229 286 337 406
#     4  10  21  41  67  98 136 176 227 281 346 405
#     4  12  28  44  67 107 137 179 238 283 344 413
#
# _framework density 20.707719000000001
#
# number of rings (size 3 to 8) (size 9 to 14) (size 15 to 20)
#    0.000    1.429    2.857    3.000    2.000    4.000 
#    0.000    0.000    0.000    6.857    0.000    0.000 
#    0.000    0.000    0.000    0.000    0.000    0.000 
#
# Total GULP energy -78197.423171 kJ/mol
# GULP energy per Si atom -5585.530226 kJ/mol
# Density = 2.066059 g / cm^3
# Si number density = 20.707719 Si / 1000 Ang^3
#
#
#
# Elastic Constant Matrix: (Units=GPa)
#
#
# Indices 1 2 3 4 5 6 
#
# 1 182.6733 44.9327 27.8944 -3.0627 13.2280 -6.9753
# 2 44.9327 108.6354 21.9167 7.9495 21.7729 -8.8620
# 3 27.8944 21.9167 82.0592 10.0992 17.2362 0.0698
# 4 -3.0627 7.9495 10.0992 21.3847 2.0674 -2.0150
# 5 13.2280 21.7729 17.2362 2.0674 32.1679 2.3246
# 6 -6.9753 -8.8620 0.0698 -2.0150 2.3246 31.7504
#
#
#
# Elastic Compliance Matrix: (Units=1/GPa)
#
#
# Indices 1 2 3 4 5 6 
#
# 1 0.006441 -0.002355 -0.001837 0.002787 -0.000319 0.000962
# 2 -0.002355 0.012219 -0.000546 -0.003645 -0.007005 0.003176
# 3 -0.001837 -0.000546 0.015144 -0.006631 -0.006525 -0.000532
# 4 0.002787 -0.003645 -0.006631 0.051782 0.001344 0.002797
# 5 -0.000319 -0.007005 -0.006525 0.001344 0.039718 -0.004834
# 6 0.000962 0.003176 -0.000532 0.002797 -0.004834 0.033126
#
#
# Mechanical properties :
#
#
# Convention : Reuss Voigt Hill
#
# Bulk Modulus (GPa) = 41.10550 62.53951 51.82250
# Shear Modulus (GPa) = 28.40676 35.63552 32.02114
#
# Velocity S-wave (km/s) = 3.70779 4.15285 3.93662
# Velocity P-wave (km/s) = 6.18253 7.29805 6.76333
#
# Compressibility (1/GPa) = 0.02432765
#
# Stress axis : x y z
#
# Youngs Moduli (GPa) = 155.26596 81.84026 66.03393
#
# Poissons Ratio (x) = 0.19272 0.12132
# Poissons Ratio (y) = 0.36562 0.03604
# Poissons Ratio (z) = 0.28526 0.04466
#
# Static dielectric constant tensor:
#      x y z
#    x 1.774910 -0.013380 -0.005660 
#    y -0.013380 1.728990 -0.023100 
#    z -0.005660 -0.023100 1.840730 
# 
# From -- ./inp_files/419971.got.cif
#   From: 2010.05.17/outbox.cif.g08.bks.cpg/sg2_210_cif.got.tgz:419971.got - 2010.06.03 11:33:40.
