data_PCOD9014039
_publ_section_title
;
Structure prediction by ZEFSAII (Michael W. Deem and Ramdas Pophale) SiO2 
 PCOD9014039
Probable space group: P -1
;
_chemical_formula_sum "Si O2"
_cell_formula_units_Z 16
_cell_length_a 15.161387
_cell_length_b 11.392398
_cell_length_c 15.327337
_cell_angle_alpha 139.398473
_cell_angle_beta 27.564319
_cell_angle_gamma 142.352986
_cell_volume 732.708202
_symmetry_space_group_name_H-M "P -1"
_symmetry_group_IT_number 2
_symmetry_cell_setting 'triclinic'
loop_
_space_group_symop_operation_xyz
x,y,z
-x,-y,-z
loop_
_atom_site_type_symbol
_atom_site_label
_atom_site_fract_x
_atom_site_fract_y
_atom_site_fract_z
Si Si1 0.319511 0.074261 0.724812
Si Si2 0.617457 0.725420 0.389918
Si Si3 0.948937 0.423471 0.716416
Si Si4 0.657328 0.640368 0.685752
Si Si5 0.189748 0.775880 0.817739
Si Si6 0.258481 0.944447 0.199383
Si Si7 0.006469 0.719446 0.126355
Si Si8 0.409773 0.479736 0.972028
O O1 0.256683 0.125065 0.713480
O O2 0.395687 0.277478 0.826005
O O3 0.500000 0.000000 0.500000
O O4 0.178086 0.912544 0.825156
O O5 0.512672 0.514434 0.315065
O O6 0.420742 0.774344 0.617726
O O7 0.776049 0.717086 0.318855
O O8 0.816843 0.200708 0.734903
O O9 0.163379 0.436973 0.495117
O O10 0.024201 0.561198 0.813845
O O11 0.812394 0.506110 0.825603
O O12 0.549360 0.645642 0.874830
O O13 0.757259 0.846019 0.664854
O O14 0.132407 0.829014 0.991936
O O15 0.122705 0.826998 0.170726
O O16 0.500000 0.000000 0.000000
O O17 0.000000 0.500000 0.000000
O O18 0.500000 0.500000 0.000000
#
# Coordination Sequence:
#
# PCOD9014039 Si02
#       8
#     2   2   2   2   2   2   2   2
#     4   9  20  41  68  93 124 168 213 264 327 382
#     4   9  21  43  65  92 126 161 211 265 317 379
#     4  11  23  44  67  92 130 173 218 261 330 391
#     4  10  22  44  67  93 130 175 211 265 326 390
#     4  10  21  41  66  95 122 164 208 270 321 371
#     4  12  24  44  65  91 130 177 215 263 326 391
#     4  12  24  39  61  95 127 160 218 266 312 379
#     4  11  24  42  66  96 135 171 215 268 327 390
#
# _framework density 21.836797000000001
#
# number of rings (size 3 to 8) (size 9 to 14) (size 15 to 20)
#    0.000    1.500    2.500    3.375    1.750    3.000 
#    9.000    0.000    0.000    0.000    0.000    0.000 
#    0.000    0.000    0.000    0.000    0.000    0.000 
#
# Total GULP energy -89407.348652 kJ/mol
# GULP energy per Si atom -5587.959291 kJ/mol
# Density = 2.178710 g / cm^3
# Si number density = 21.836797 Si / 1000 Ang^3
#
#
#
# Elastic Constant Matrix: (Units=GPa)
#
#
# Indices 1 2 3 4 5 6 
#
# 1 106.2582 16.7318 35.4957 0.3512 -37.4799 16.3127
# 2 16.7318 89.8777 5.0224 0.3672 -10.8506 -16.0825
# 3 35.4957 5.0224 63.2299 2.4907 -28.3339 10.1575
# 4 0.3512 0.3672 2.4907 29.0530 -3.1631 -6.2950
# 5 -37.4799 -10.8506 -28.3339 -3.1631 35.3647 -7.7307
# 6 16.3127 -16.0825 10.1575 -6.2950 -7.7307 26.2845
#
#
#
# Elastic Compliance Matrix: (Units=1/GPa)
#
#
# Indices 1 2 3 4 5 6 
#
# 1 0.016225 -0.002549 -0.001734 -0.000065 0.013486 -0.007008
# 2 -0.002549 0.014402 0.000434 0.003059 0.005060 0.012447
# 3 -0.001734 0.000434 0.025284 -0.000972 0.017711 -0.003452
# 4 -0.000065 0.003059 -0.000972 0.038039 0.006396 0.013280
# 5 0.013486 0.005060 0.017711 0.006396 0.060456 0.007195
# 6 -0.007008 0.012447 -0.003452 0.013280 0.007195 0.056642
#
#
# Mechanical properties :
#
#
# Convention : Reuss Voigt Hill
#
# Bulk Modulus (GPa) = 20.74164 41.54063 31.14114
# Shear Modulus (GPa) = 21.29330 31.61482 26.45406
#
# Velocity S-wave (km/s) = 3.12606 3.80909 3.48436
# Velocity P-wave (km/s) = 4.74856 6.19759 5.52082
#
# Compressibility (1/GPa) = 0.04821219
#
# Stress axis : x y z
#
# Youngs Moduli (GPa) = 61.63501 69.43390 39.55146
#
# Poissons Ratio (x) = 0.17700 0.06859
# Poissons Ratio (y) = 0.15712 -0.01718
# Poissons Ratio (z) = 0.10689 -0.03016
#
# Static dielectric constant tensor:
#      x y z
#    x 1.777220 -0.052990 -0.030590 
#    y -0.052990 1.841660 -0.003250 
#    z -0.030590 -0.003250 1.826230 
# 
# From -- ./inp_files/532019.got.cif
#   From: 2010.05.17/outbox.cif.g08.bks.cpg/sg2_267_cif.got.tgz:532019.got - 2010.06.03 11:33:40.
