data_PCOD9014301
_publ_section_title
;
Structure prediction by ZEFSAII (Michael W. Deem and Ramdas Pophale) SiO2 
 PCOD9014301
Probable space group: P -1
;
_chemical_formula_sum "Si O2"
_cell_formula_units_Z 15
_cell_length_a 11.306370
_cell_length_b 8.165456
_cell_length_c 7.163645
_cell_angle_alpha 77.292001
_cell_angle_beta 102.597010
_cell_angle_gamma 116.669012
_cell_volume 571.093556
_symmetry_space_group_name_H-M "P -1"
_symmetry_group_IT_number 2
_symmetry_cell_setting 'triclinic'
loop_
_space_group_symop_operation_xyz
x,y,z
-x,-y,-z
loop_
_atom_site_type_symbol
_atom_site_label
_atom_site_fract_x
_atom_site_fract_y
_atom_site_fract_z
Si Si1 0.672675 0.591883 0.844286
Si Si2 0.112639 0.678211 0.094856
Si Si3 0.595668 0.919631 0.303635
Si Si4 0.510512 0.232215 0.089454
Si Si5 0.111809 0.442324 0.462605
Si Si6 0.875951 0.102107 0.288686
Si Si7 0.891352 0.769280 0.159207
Si Si8 0.500000 0.500000 0.500000
O O1 0.555106 0.657247 0.839811
O O2 0.653072 0.577710 0.621054
O O3 0.633042 0.395649 0.984043
O O4 0.807227 0.730006 0.950828
O O5 0.179774 0.598483 0.290231
O O6 0.034270 0.777677 0.153306
O O7 0.179638 0.798665 0.909569
O O8 0.000000 0.500000 0.000000
O O9 0.520391 0.716673 0.415207
O O10 0.538375 0.076583 0.249789
O O11 0.749270 0.010990 0.403105
O O12 0.587579 0.867522 0.091930
O O13 0.181076 0.399998 0.676321
O O14 0.000000 0.500000 0.500000
O O15 0.014991 0.247470 0.382910
O O16 0.900541 0.946659 0.225687
#
# Coordination Sequence:
#
# PCOD9014301 Si02
#       8
#     2   2   2   2   2   2   2   1
#     4  10  21  41  67  93 129 172 217 268 337 383
#     4   9  21  40  60  92 134 166 218 264 312 393
#     4  10  21  41  68  93 129 171 215 273 331 389
#     4   9  20  40  66  92 125 169 213 273 326 399
#     4   9  21  40  61  93 134 164 215 266 313 395
#     4  11  21  40  65  95 128 177 211 263 333 386
#     4  11  21  40  65  93 130 178 209 270 325 383
#     4  10  24  46  60  98 132 160 228 282 318 390
#
# _framework density 26.265397
#
# number of rings (size 3 to 8) (size 9 to 14) (size 15 to 20)
#    0.000    2.133    1.333    0.800    5.600    0.533 
#   12.000    0.000    0.000    0.000    0.000    0.000 
#    0.000    0.000    0.000    0.000    0.000    0.000 
#
# Total GULP energy -83568.802489 kJ/mol
# GULP energy per Si atom -5571.253499 kJ/mol
# Density = 2.620562 g / cm^3
# Si number density = 26.265397 Si / 1000 Ang^3
#
#
#
# Elastic Constant Matrix: (Units=GPa)
#
#
# Indices 1 2 3 4 5 6 
#
# 1 48.9140 11.6078 7.7270 -8.5949 15.9410 -15.1750
# 2 11.6078 104.7874 24.8335 -31.4755 17.9639 0.5739
# 3 7.7270 24.8335 133.0298 -16.0613 22.4131 4.3691
# 4 -8.5949 -31.4755 -16.0613 49.6502 1.7004 13.9555
# 5 15.9410 17.9639 22.4131 1.7004 32.1680 -9.1703
# 6 -15.1750 0.5739 4.3691 13.9555 -9.1703 33.7353
#
#
#
# Elastic Compliance Matrix: (Units=1/GPa)
#
#
# Indices 1 2 3 4 5 6 
#
# 1 0.027131 -0.000340 0.000516 0.002841 -0.011531 0.007833
# 2 -0.000340 0.015528 0.001186 0.013284 -0.012748 -0.009532
# 3 0.000516 0.001186 0.009890 0.006156 -0.009935 -0.006316
# 4 0.002841 0.013284 0.006156 0.037693 -0.021117 -0.021079
# 5 -0.011531 -0.012748 -0.009935 -0.021117 0.057885 0.020787
# 6 0.007833 -0.009532 -0.006316 -0.021079 0.020787 0.048517
#
#
# Mechanical properties :
#
#
# Convention : Reuss Voigt Hill
#
# Bulk Modulus (GPa) = 18.09230 41.67419 29.88324
# Shear Modulus (GPa) = 23.54665 39.28157 31.41411
#
# Velocity S-wave (km/s) = 2.99739 3.87145 3.46211
# Velocity P-wave (km/s) = 4.34538 5.99042 5.23295
#
# Compressibility (1/GPa) = 0.05527215
#
# Stress axis : x y z
#
# Youngs Moduli (GPa) = 36.85859 64.40104 101.10855
#
# Poissons Ratio (x) = 0.02192 -0.05220
# Poissons Ratio (y) = 0.01255 -0.11990
# Poissons Ratio (z) = -0.01903 -0.07637
#
# Static dielectric constant tensor:
#      x y z
#    x 2.074960 0.017950 0.020170 
#    y 0.017950 2.036000 -0.073640 
#    z 0.020170 -0.073640 2.023470 
# 
# From -- ./inp_files/294586.got.cif
#   From: 2010.05.17/outbox.cif.g08.bks.cpg/sg2_148_cif.got.tgz:294586.got - 2010.06.03 11:33:40.
