data_PCOD9014850
_publ_section_title
;
Structure prediction by ZEFSAII (Michael W. Deem and Ramdas Pophale) SiO2 
 PCOD9014850
Probable space group: P -1
;
_chemical_formula_sum "Si O2"
_cell_formula_units_Z 14
_cell_length_a 13.534075
_cell_length_b 8.976921
_cell_length_c 15.635842
_cell_angle_alpha 134.258668
_cell_angle_beta 140.565280
_cell_angle_gamma 30.709449
_cell_volume 612.859677
_symmetry_space_group_name_H-M "P -1"
_symmetry_group_IT_number 2
_symmetry_cell_setting 'triclinic'
loop_
_space_group_symop_operation_xyz
x,y,z
-x,-y,-z
loop_
_atom_site_type_symbol
_atom_site_label
_atom_site_fract_x
_atom_site_fract_y
_atom_site_fract_z
Si Si1 0.968372 0.256537 0.821719
Si Si2 0.322079 0.499697 0.916841
Si Si3 0.996246 0.112380 0.451800
Si Si4 0.192605 0.336235 0.633278
Si Si5 0.463307 0.227085 0.627663
Si Si6 0.765672 0.325964 0.883184
Si Si7 0.365301 0.167362 0.090894
O O1 0.956434 0.187243 0.885341
O O2 0.180603 0.200519 0.934280
O O3 0.962843 0.083457 0.678137
O O4 0.756930 0.607396 0.820170
O O5 0.156462 0.567943 0.762556
O O6 0.500000 0.500000 0.000000
O O7 0.206599 0.678760 0.998732
O O8 0.450111 0.164897 0.891247
O O9 0.175928 0.127043 0.580398
O O10 0.756851 0.440115 0.410713
O O11 0.000000 0.000000 0.500000
O O12 0.415321 0.179977 0.670304
O O13 0.000000 0.500000 0.500000
O O14 0.658404 0.205660 0.746973
O O15 0.500000 0.000000 0.500000
O O16 0.593655 0.673362 0.879274
#
# Coordination Sequence:
#
# PCOD9014850 Si02
#       7
#     2   2   2   2   2   2   2
#     4   9  21  42  64  96 134 170 222 274 341 383
#     4  12  23  41  69 105 133 171 231 274 340 397
#     4  11  25  41  69  93 130 184 230 274 333 410
#     4  10  25  44  62  95 141 179 214 280 344 401
#     4  11  23  44  66  95 136 179 220 281 347 397
#     4  10  21  41  69  96 131 179 219 282 330 404
#     4   9  22  39  69  93 136 171 220 282 333 398
#
# _framework density 22.843727999999999
#
# number of rings (size 3 to 8) (size 9 to 14) (size 15 to 20)
#    0.857    0.857    1.429    2.143    6.000    1.143 
#    0.000    4.286    0.000    0.000    0.000    0.000 
#    0.000    0.000    0.000    0.000    0.000    0.000 
#
# Total GULP energy -78170.263559 kJ/mol
# GULP energy per Si atom -5583.590254 kJ/mol
# Density = 2.279173 g / cm^3
# Si number density = 22.843728 Si / 1000 Ang^3
#
#
#
# Elastic Constant Matrix: (Units=GPa)
#
#
# Indices 1 2 3 4 5 6 
#
# 1 133.2641 17.0936 65.7921 20.4040 0.7847 23.2330
# 2 17.0936 74.9749 36.8010 26.5231 -12.9448 -5.9322
# 3 65.7921 36.8010 198.2655 38.1639 -2.1342 4.0369
# 4 20.4040 26.5231 38.1639 35.3443 0.9911 -3.0181
# 5 0.7847 -12.9448 -2.1342 0.9911 48.2280 7.0418
# 6 23.2330 -5.9322 4.0369 -3.0181 7.0418 33.6811
#
#
#
# Elastic Compliance Matrix: (Units=1/GPa)
#
#
# Indices 1 2 3 4 5 6 
#
# 1 0.010751 -0.000264 -0.002608 -0.003871 0.000839 -0.007672
# 2 -0.000264 0.019721 -0.000909 -0.013694 0.005331 0.001423
# 3 -0.002608 -0.000909 0.007133 -0.005499 0.000190 0.000252
# 4 -0.003871 -0.013694 -0.005499 0.047447 -0.005762 0.006373
# 5 0.000839 0.005331 0.000190 -0.005762 0.023007 -0.004989
# 6 -0.007672 0.001423 0.000252 0.006373 -0.004989 0.036817
#
#
# Mechanical properties :
#
#
# Convention : Reuss Voigt Hill
#
# Bulk Modulus (GPa) = 33.28482 71.76420 52.52451
# Shear Modulus (GPa) = 30.77838 42.57187 36.67513
#
# Velocity S-wave (km/s) = 3.67460 4.32164 4.01119
# Velocity P-wave (km/s) = 5.71016 7.50903 6.67051
#
# Compressibility (1/GPa) = 0.03004373
#
# Stress axis : x y z
#
# Youngs Moduli (GPa) = 93.01851 50.70662 140.18858
#
# Poissons Ratio (x) = 0.01337 0.36564
# Poissons Ratio (y) = 0.02454 0.12739
# Poissons Ratio (z) = 0.24261 0.04608
#
# Static dielectric constant tensor:
#      x y z
#    x 1.941520 0.053440 -0.028810 
#    y 0.053440 2.081960 0.033280 
#    z -0.028810 0.033280 1.889000 
# 
# From -- ./inp_files/530251.got.cif
#   From: 2010.05.17/outbox.cif.g08.bks.cpg/sg2_266_cif.got.tgz:530251.got - 2010.06.03 11:33:40.
