data_PCOD9014458
_publ_section_title
;
Structure prediction by ZEFSAII (Michael W. Deem and Ramdas Pophale) SiO2 
 PCOD9014458
Probable space group: P -1
;
_chemical_formula_sum "Si O2"
_cell_formula_units_Z 16
_cell_length_a 7.954503
_cell_length_b 7.771643
_cell_length_c 13.453289
_cell_angle_alpha 97.900769
_cell_angle_beta 52.644923
_cell_angle_gamma 108.115823
_cell_volume 626.876483
_symmetry_space_group_name_H-M "P -1"
_symmetry_group_IT_number 2
_symmetry_cell_setting 'triclinic'
loop_
_space_group_symop_operation_xyz
x,y,z
-x,-y,-z
loop_
_atom_site_type_symbol
_atom_site_label
_atom_site_fract_x
_atom_site_fract_y
_atom_site_fract_z
Si Si1 0.388697 0.798793 0.065794
Si Si2 0.846735 0.812323 0.934627
Si Si3 0.639820 0.697474 0.191243
Si Si4 0.214757 0.380519 0.343661
Si Si5 0.882938 0.004480 0.731337
Si Si6 0.041228 0.483763 0.845823
Si Si7 0.379941 0.152083 0.571782
Si Si8 0.210755 0.527337 0.573146
O O1 0.191176 0.666586 0.066550
O O2 0.265888 0.857561 0.209794
O O3 0.589431 0.711846 0.990364
O O4 0.500000 0.000000 0.000000
O O5 0.916207 0.957685 0.833020
O O6 0.999834 0.679490 0.871879
O O7 0.780121 0.846773 0.074137
O O8 0.397800 0.556276 0.247099
O O9 0.786623 0.559239 0.144646
O O10 0.623636 0.800633 0.306548
O O11 0.241521 0.186268 0.289628
O O12 0.219498 0.410809 0.462624
O O13 0.975341 0.375965 0.385751
O O14 0.133132 0.084875 0.611321
O O15 0.128542 0.445653 0.703038
O O16 0.551499 0.331635 0.481382
O O17 0.500000 0.000000 0.500000
#
# Coordination Sequence:
#
# PCOD9014458 Si02
#       8
#     2   2   2   2   2   2   2   2
#     4  10  24  42  68  98 136 175 224 282 339 401
#     4  11  24  43  70  98 132 189 220 277 341 407
#     4  11  26  40  67 103 138 173 237 275 323 413
#     4  10  21  41  67  99 133 174 226 274 330 405
#     4  11  22  45  70 102 139 175 223 285 348 395
#     4  12  22  45  69 101 135 185 225 274 338 407
#     4  11  21  43  67  99 137 180 217 284 342 392
#     4  10  22  40  73  98 132 179 233 268 331 408
#
# _framework density 25.523368999999999
#
# number of rings (size 3 to 8) (size 9 to 14) (size 15 to 20)
#    0.000    1.250    3.750    1.500    3.500    2.500 
#    0.000    3.125    0.000    0.000    0.000    0.000 
#    0.000    0.000    0.000    0.000    0.000    0.000 
#
# Total GULP energy -89397.088164 kJ/mol
# GULP energy per Si atom -5587.318010 kJ/mol
# Density = 2.546528 g / cm^3
# Si number density = 25.523369 Si / 1000 Ang^3
#
#
#
# Elastic Constant Matrix: (Units=GPa)
#
#
# Indices 1 2 3 4 5 6 
#
# 1 65.3384 9.0895 22.2860 -10.5810 -18.5395 -8.3141
# 2 9.0895 69.3783 8.4335 0.1220 -2.8763 -0.0281
# 3 22.2860 8.4335 91.4205 -16.1323 -4.3777 3.5966
# 4 -10.5810 0.1220 -16.1323 54.1599 0.9099 -8.4594
# 5 -18.5395 -2.8763 -4.3777 0.9099 48.6747 -2.9669
# 6 -8.3141 -0.0281 3.5966 -8.4594 -2.9669 40.5399
#
#
#
# Elastic Compliance Matrix: (Units=1/GPa)
#
#
# Indices 1 2 3 4 5 6 
#
# 1 0.020422 -0.001873 -0.004041 0.003576 0.007594 0.005847
# 2 -0.001873 0.014787 -0.001024 -0.000774 0.000056 -0.000441
# 3 -0.004041 -0.001024 0.012527 0.002733 -0.000610 -0.001415
# 4 0.003576 -0.000774 0.002733 0.020722 0.001475 0.004922
# 5 0.007594 0.000056 -0.000610 0.001475 0.023580 0.003645
# 6 0.005847 -0.000441 -0.001415 0.004922 0.003645 0.027285
#
#
# Mechanical properties :
#
#
# Convention : Reuss Voigt Hill
#
# Bulk Modulus (GPa) = 29.53420 33.97280 31.75350
# Shear Modulus (GPa) = 34.60536 41.09678 37.85107
#
# Velocity S-wave (km/s) = 3.68616 4.01704 3.85515
# Velocity P-wave (km/s) = 5.45101 5.90380 5.68192
#
# Compressibility (1/GPa) = 0.03385906
#
# Stress axis : x y z
#
# Youngs Moduli (GPa) = 48.96750 67.62636 79.82910
#
# Poissons Ratio (x) = 0.12669 0.32258
# Poissons Ratio (y) = 0.09174 0.08175
# Poissons Ratio (z) = 0.19787 0.06925
#
# Static dielectric constant tensor:
#      x y z
#    x 2.098770 -0.042960 0.033800 
#    y -0.042960 1.999260 0.003190 
#    z 0.033800 0.003190 2.093570 
# 
# From -- ./inp_files/495150.got.cif
#   From: 2010.05.17/outbox.cif.g08.bks.cpg/sg2_248_cif.got.tgz:495150.got - 2010.06.03 11:33:40.
