data_PCOD9014855
_publ_section_title
;
Structure prediction by ZEFSAII (Michael W. Deem and Ramdas Pophale) SiO2 
 PCOD9014855
Probable space group: P -1
;
_chemical_formula_sum "Si O2"
_cell_formula_units_Z 13
_cell_length_a 15.987281
_cell_length_b 8.159975
_cell_length_c 9.624114
_cell_angle_alpha 68.793475
_cell_angle_beta 36.134168
_cell_angle_gamma 85.811185
_cell_volume 633.030392
_symmetry_space_group_name_H-M "P -1"
_symmetry_group_IT_number 2
_symmetry_cell_setting 'triclinic'
loop_
_space_group_symop_operation_xyz
x,y,z
-x,-y,-z
loop_
_atom_site_type_symbol
_atom_site_label
_atom_site_fract_x
_atom_site_fract_y
_atom_site_fract_z
Si Si1 0.017145 0.200358 0.843361
Si Si2 0.345788 0.311260 0.240054
Si Si3 0.554316 0.935589 0.620284
Si Si4 0.000000 0.500000 0.000000
Si Si5 0.661341 0.674917 0.078784
Si Si6 0.326102 0.611549 0.642400
Si Si7 0.266898 0.985175 0.913764
O O1 0.192876 0.304266 0.523994
O O2 0.971638 0.331120 0.970440
O O3 0.897276 0.143551 0.892038
O O4 0.000000 0.000000 0.000000
O O5 0.390756 0.145940 0.296723
O O6 0.500000 0.500000 0.000000
O O7 0.308000 0.287065 0.135476
O O8 0.370671 0.875969 0.868328
O O9 0.623989 0.164856 0.465192
O O10 0.629023 0.892497 0.393462
O O11 0.821024 0.474562 0.230846
O O12 0.476961 0.601125 0.371905
O O13 0.708779 0.513546 0.132004
O O14 0.739431 0.867208 0.006991
#
# Coordination Sequence:
#
# PCOD9014855 Si02
#       7
#     2   2   2   1   2   2   2
#     4  12  24  45  70 100 139 182 230 282 343 413
#     4  12  27  43  66 105 143 176 222 294 345 401
#     4  10  22  42  69  95 133 178 231 276 337 409
#     4  12  22  38  70 104 126 176 238 280 328 406
#     4  10  24  41  68  98 137 180 225 280 348 405
#     4  10  21  41  69  96 133 183 230 268 340 423
#     4  10  21  41  71  95 128 181 233 273 332 415
#
# _framework density 20.536138000000001
#
# number of rings (size 3 to 8) (size 9 to 14) (size 15 to 20)
#    0.000    1.231    3.077    1.846    8.615    3.077 
#    0.000    7.692    0.000    0.000    0.000    0.000 
#    0.000    0.000    0.000    0.000    0.000    0.000 
#
# Total GULP energy -72392.989701 kJ/mol
# GULP energy per Si atom -5568.691515 kJ/mol
# Density = 2.048940 g / cm^3
# Si number density = 20.536138 Si / 1000 Ang^3
#
#
#
# Elastic Constant Matrix: (Units=GPa)
#
#
# Indices 1 2 3 4 5 6 
#
# 1 100.4947 34.5632 34.1354 -1.2713 -33.0800 13.3871
# 2 34.5632 94.8890 31.4245 4.5392 6.5942 13.1110
# 3 34.1354 31.4245 75.9662 8.0179 -7.7889 0.6891
# 4 -1.2713 4.5392 8.0179 13.1169 1.3495 -0.8785
# 5 -33.0800 6.5942 -7.7889 1.3495 54.9263 1.2501
# 6 13.3871 13.1110 0.6891 -0.8785 1.2501 28.6850
#
#
#
# Elastic Compliance Matrix: (Units=1/GPa)
#
#
# Indices 1 2 3 4 5 6 
#
# 1 0.017831 -0.004809 -0.005432 0.005205 0.010561 -0.006294
# 2 -0.004809 0.014729 -0.004118 -0.002808 -0.005083 -0.004254
# 3 -0.005432 -0.004118 0.018336 -0.010062 -0.000013 0.003669
# 4 0.005205 -0.002808 -0.010062 0.083982 -0.000057 0.001671
# 5 0.010561 -0.005083 -0.000013 -0.000057 0.025261 -0.003708
# 6 -0.006294 -0.004254 0.003669 0.001671 -0.003708 0.039867
#
#
# Mechanical properties :
#
#
# Convention : Reuss Voigt Hill
#
# Bulk Modulus (GPa) = 45.09279 52.39957 48.74618
# Shear Modulus (GPa) = 21.17593 30.76078 25.96835
#
# Velocity S-wave (km/s) = 3.21464 3.87445 3.55987
# Velocity P-wave (km/s) = 5.98197 6.75177 6.37849
#
# Compressibility (1/GPa) = 0.02217649
#
# Stress axis : x y z
#
# Youngs Moduli (GPa) = 56.08331 67.89116 54.53854
#
# Poissons Ratio (x) = 0.32649 0.29627
# Poissons Ratio (y) = 0.26971 0.22461
# Poissons Ratio (z) = 0.30466 0.27960
#
# Static dielectric constant tensor:
#      x y z
#    x 1.759030 -0.009480 -0.001600 
#    y -0.009480 1.750540 -0.007270 
#    z -0.001600 -0.007270 1.730700 
# 
# From -- ./inp_files/297563.got.cif
#   From: 2010.05.17/outbox.cif.g08.bks.cpg/sg2_149_cif.got.tgz:297563.got - 2010.06.03 11:33:40.
