data_PCOD9014935
_publ_section_title
;
Structure prediction by ZEFSAII (Michael W. Deem and Ramdas Pophale) SiO2 
 PCOD9014935
Probable space group: P -1
;
_chemical_formula_sum "Si O2"
_cell_formula_units_Z 14
_cell_length_a 10.536880
_cell_length_b 16.761653
_cell_length_c 7.505252
_cell_angle_alpha 61.111983
_cell_angle_beta 122.226790
_cell_angle_gamma 148.175503
_cell_volume 589.963559
_symmetry_space_group_name_H-M "P -1"
_symmetry_group_IT_number 2
_symmetry_cell_setting 'triclinic'
loop_
_space_group_symop_operation_xyz
x,y,z
-x,-y,-z
loop_
_atom_site_type_symbol
_atom_site_label
_atom_site_fract_x
_atom_site_fract_y
_atom_site_fract_z
Si Si1 0.745417 0.852479 0.205268
Si Si2 0.781197 0.363496 0.854065
Si Si3 0.757027 0.445230 0.412690
Si Si4 0.778918 0.672539 0.569464
Si Si5 0.218102 0.899429 0.370412
Si Si6 0.974340 0.694973 0.068733
Si Si7 0.257943 0.134755 0.209053
O O1 0.490797 0.783049 0.111436
O O2 0.761782 0.773228 0.427646
O O3 0.734528 0.813823 0.032887
O O4 0.998743 0.032277 0.221101
O O5 0.754683 0.439939 0.627476
O O6 0.855188 0.681202 0.818199
O O7 0.000000 0.500000 0.000000
O O8 0.857894 0.307853 0.874297
O O9 0.507378 0.274992 0.347856
O O10 0.775649 0.546837 0.207799
O O11 0.500000 0.500000 0.500000
O O12 0.009309 0.761565 0.506603
O O13 0.127234 0.829579 0.178858
O O14 0.500000 0.000000 0.500000
O O15 0.238553 0.017516 0.285974
O O16 0.000000 0.500000 0.500000
#
# Coordination Sequence:
#
# PCOD9014935 Si02
#       7
#     2   2   2   2   2   2   2
#     4  10  23  44  69  99 143 193 230 294 359 429
#     4  11  23  41  72 105 139 185 241 297 348 430
#     4  10  21  41  70 102 137 181 242 290 349 429
#     4  11  25  47  72 107 151 188 242 301 366 430
#     4  11  26  47  75 105 152 187 238 311 364 426
#     4  11  26  45  78 109 138 189 248 294 369 428
#     4  10  22  47  69  99 146 191 236 295 361 428
#
# _framework density 23.73028
#
# number of rings (size 3 to 8) (size 9 to 14) (size 15 to 20)
#    0.000    1.429    0.000    5.143    6.000    1.714 
#   12.857    0.000    0.000    0.000    0.000    0.000 
#    0.000    0.000    0.000    0.000    0.000    0.000 
#
# Total GULP energy -78253.479198 kJ/mol
# GULP energy per Si atom -5589.534228 kJ/mol
# Density = 2.367627 g / cm^3
# Si number density = 23.730280 Si / 1000 Ang^3
#
#
#
# Elastic Constant Matrix: (Units=GPa)
#
#
# Indices 1 2 3 4 5 6 
#
# 1 96.0697 71.9592 37.4012 14.7192 0.9021 22.5137
# 2 71.9592 189.4763 96.8202 36.8511 -4.1012 17.2273
# 3 37.4012 96.8202 224.4987 21.5181 -8.5427 5.8731
# 4 14.7192 36.8511 21.5181 44.4777 -0.3486 6.0632
# 5 0.9021 -4.1012 -8.5427 -0.3486 26.4379 0.1632
# 6 22.5137 17.2273 5.8731 6.0632 0.1632 44.6491
#
#
#
# Elastic Compliance Matrix: (Units=1/GPa)
#
#
# Indices 1 2 3 4 5 6 
#
# 1 0.015976 -0.005481 -0.000212 0.000153 -0.001425 -0.005929
# 2 -0.005481 0.009757 -0.002797 -0.004916 0.000732 0.000032
# 3 -0.000212 -0.002797 0.005782 -0.000465 0.001433 0.000483
# 4 0.000153 -0.004916 -0.000465 0.026969 -0.000551 -0.001780
# 5 -0.001425 0.000732 0.001433 -0.000551 0.038441 0.000182
# 6 -0.005929 0.000032 0.000483 -0.001780 0.000182 0.025552
#
#
# Mechanical properties :
#
#
# Convention : Reuss Voigt Hill
#
# Bulk Modulus (GPa) = 68.78946 102.48953 85.63949
# Shear Modulus (GPa) = 34.64963 43.37055 39.01009
#
# Velocity S-wave (km/s) = 3.82533 4.27974 4.05890
# Velocity P-wave (km/s) = 6.96863 8.22828 7.62451
#
# Compressibility (1/GPa) = 0.01453711
#
# Stress axis : x y z
#
# Youngs Moduli (GPa) = 62.59321 102.48591 172.94347
#
# Poissons Ratio (x) = 0.56172 0.03661
# Poissons Ratio (y) = 0.34307 0.48369
# Poissons Ratio (z) = 0.01325 0.28663
#
# Static dielectric constant tensor:
#      x y z
#    x 1.863240 -0.058890 0.053380 
#    y -0.058890 1.840010 0.024220 
#    z 0.053380 0.024220 1.892500 
# 
# From -- ./inp_files/277625.got.cif
#   From: 2010.05.17/outbox.cif.g08.bks.cpg/sg2_139_cif.got.tgz:277625.got - 2010.06.03 11:33:40.
