data_PCOD9014624
_publ_section_title
;
Structure prediction by ZEFSAII (Michael W. Deem and Ramdas Pophale) SiO2 
 PCOD9014624
Probable space group: P -1
;
_chemical_formula_sum "Si O2"
_cell_formula_units_Z 14
_cell_length_a 8.770882
_cell_length_b 20.415398
_cell_length_c 17.402916
_cell_angle_alpha 17.451575
_cell_angle_beta 139.180773
_cell_angle_gamma 137.452463
_cell_volume 609.149293
_symmetry_space_group_name_H-M "P -1"
_symmetry_group_IT_number 2
_symmetry_cell_setting 'triclinic'
loop_
_space_group_symop_operation_xyz
x,y,z
-x,-y,-z
loop_
_atom_site_type_symbol
_atom_site_label
_atom_site_fract_x
_atom_site_fract_y
_atom_site_fract_z
Si Si1 0.900087 0.809435 0.120695
Si Si2 0.724098 0.379356 0.634804
Si Si3 0.548213 0.731669 0.946888
Si Si4 0.090476 0.986547 0.463043
Si Si5 0.207850 0.448814 0.362105
Si Si6 0.251527 0.428001 0.948946
Si Si7 0.195381 0.418199 0.224051
O O1 0.800506 0.611767 0.360775
O O2 0.110871 0.765921 0.189937
O O3 0.683893 0.846638 0.940691
O O4 0.000000 0.000000 0.000000
O O5 0.442905 0.318414 0.593553
O O6 0.765898 0.407444 0.711023
O O7 0.332469 0.866740 0.687919
O O8 0.714742 0.681774 0.997209
O O9 0.441188 0.486465 0.202969
O O10 0.891489 0.833352 0.514480
O O11 0.144542 0.225690 0.184148
O O12 0.000000 0.000000 0.500000
O O13 0.217365 0.542166 0.174501
O O14 0.928217 0.380095 0.336762
O O15 0.500000 0.500000 0.000000
O O16 0.000000 0.500000 0.000000
#
# Coordination Sequence:
#
# PCOD9014624 Si02
#       7
#     2   2   2   2   2   2   2
#     4  11  24  45  71 100 135 179 239 293 355 410
#     4  10  24  46  68  98 135 186 232 289 346 407
#     4  11  22  43  64  97 139 174 232 291 348 420
#     4  11  24  40  64 100 135 179 234 282 357 423
#     4  11  22  44  69  94 138 181 234 281 347 418
#     4  12  24  41  67 100 139 181 225 290 357 420
#     4  10  21  41  68  95 134 183 223 285 353 414
#
# _framework density 22.982873000000001
#
# number of rings (size 3 to 8) (size 9 to 14) (size 15 to 20)
#    0.000    1.143    2.857    4.714    0.000    3.429 
#    0.000    1.429    0.000    0.000    0.000    0.000 
#    0.000    0.000    0.000    0.000    0.000    0.000 
#
# Total GULP energy -77996.759406 kJ/mol
# GULP energy per Si atom -5571.197100 kJ/mol
# Density = 2.293056 g / cm^3
# Si number density = 22.982873 Si / 1000 Ang^3
#
#
#
# Elastic Constant Matrix: (Units=GPa)
#
#
# Indices 1 2 3 4 5 6 
#
# 1 136.7903 24.0992 19.4547 11.7167 -3.6923 -7.6991
# 2 24.0992 127.8186 21.8623 17.0053 -5.7952 3.8175
# 3 19.4547 21.8623 29.2018 -3.2922 -2.6216 7.0068
# 4 11.7167 17.0053 -3.2922 27.8078 5.4414 -3.1875
# 5 -3.6923 -5.7952 -2.6216 5.4414 33.6994 14.6304
# 6 -7.6991 3.8175 7.0068 -3.1875 14.6304 49.4832
#
#
#
# Elastic Compliance Matrix: (Units=1/GPa)
#
#
# Indices 1 2 3 4 5 6 
#
# 1 0.008762 0.000047 -0.006807 -0.004360 0.000293 0.001956
# 2 0.000047 0.010468 -0.008277 -0.008085 0.002904 -0.001008
# 3 -0.006807 -0.008277 0.048361 0.012275 0.002780 -0.007300
# 4 -0.004360 -0.008085 0.012275 0.046701 -0.010304 0.004262
# 5 0.000293 0.002904 0.002780 -0.010304 0.037426 -0.012302
# 6 0.001956 -0.001008 -0.007300 0.004262 -0.012302 0.025536
#
#
# Mechanical properties :
#
#
# Convention : Reuss Voigt Hill
#
# Bulk Modulus (GPa) = 26.65486 47.18258 36.91872
# Shear Modulus (GPa) = 22.74440 37.42436 30.08438
#
# Velocity S-wave (km/s) = 3.14924 4.03967 3.62192
# Velocity P-wave (km/s) = 4.98463 6.50635 5.79565
#
# Compressibility (1/GPa) = 0.03751661
#
# Stress axis : x y z
#
# Youngs Moduli (GPa) = 114.13329 95.52996 20.67763
#
# Poissons Ratio (x) = -0.00451 0.14075
# Poissons Ratio (y) = -0.00539 0.17116
# Poissons Ratio (z) = 0.77691 0.79074
#
# Static dielectric constant tensor:
#      x y z
#    x 1.892170 -0.001670 0.021090 
#    y -0.001670 1.896570 0.011550 
#    z 0.021090 0.011550 1.969920 
# 
# From -- ./inp_files/562603.got.cif
#   From: 2010.05.17/outbox.cif.g08.bks.cpg/sg2_282_cif.got.tgz:562603.got - 2010.06.03 11:33:40.
