data_PCOD9014573
_publ_section_title
;
Structure prediction by ZEFSAII (Michael W. Deem and Ramdas Pophale) SiO2 
 PCOD9014573
Probable space group: P -1
;
_chemical_formula_sum "Si O2"
_cell_formula_units_Z 16
_cell_length_a 16.642461
_cell_length_b 10.332893
_cell_length_c 8.451615
_cell_angle_alpha 54.086072
_cell_angle_beta 130.396928
_cell_angle_gamma 87.940562
_cell_volume 661.753761
_symmetry_space_group_name_H-M "P -1"
_symmetry_group_IT_number 2
_symmetry_cell_setting 'triclinic'
loop_
_space_group_symop_operation_xyz
x,y,z
-x,-y,-z
loop_
_atom_site_type_symbol
_atom_site_label
_atom_site_fract_x
_atom_site_fract_y
_atom_site_fract_z
Si Si1 0.368477 0.064850 0.070586
Si Si2 0.308945 0.356199 0.264947
Si Si3 0.534247 0.662925 0.000174
Si Si4 0.213117 0.966722 0.745848
Si Si5 0.758506 0.894476 0.779929
Si Si6 0.259765 0.641950 0.280287
Si Si7 0.021370 0.145553 0.078109
Si Si8 0.260089 0.672125 0.760918
O O1 0.286481 0.119410 0.093373
O O2 0.523674 0.820264 0.442700
O O3 0.406125 0.214127 0.992162
O O4 0.282031 0.060986 0.825538
O O5 0.257990 0.228999 0.279911
O O6 0.281809 0.476735 0.303750
O O7 0.224154 0.544303 0.893435
O O8 0.590575 0.503742 0.334460
O O9 0.615709 0.500637 0.074669
O O10 0.366584 0.853913 0.610842
O O11 0.300260 0.759578 0.887347
O O12 0.076939 0.136647 0.335889
O O13 0.203448 0.859728 0.964224
O O14 0.914546 0.804423 0.009496
O O15 0.144155 0.708272 0.214856
O O16 0.113029 0.892067 0.349131
#
# Coordination Sequence:
#
# PCOD9014573 Si02
#       8
#     2   2   2   2   2   2   2   2
#     4  11  22  43  67 100 127 166 214 272 316 382
#     4  10  21  41  68  92 131 169 213 260 327 374
#     4  11  23  42  68  98 129 167 216 261 328 377
#     4   9  24  41  64  92 132 164 214 262 317 372
#     4  11  23  42  67  96 133 167 209 274 316 379
#     4  11  25  42  67  93 129 177 212 262 317 388
#     4  10  25  44  62  94 133 171 215 260 320 380
#     4   9  20  42  62  91 127 171 206 263 312 383
#
# _framework density 24.178176000000001
#
# number of rings (size 3 to 8) (size 9 to 14) (size 15 to 20)
#    0.750    1.000    2.500    1.125    5.250    5.500 
#    0.000    0.625    0.000    0.000    0.000    0.000 
#    0.000    0.000    0.000    0.000    0.000    0.000 
#
# Total GULP energy -89344.801835 kJ/mol
# GULP energy per Si atom -5584.050115 kJ/mol
# Density = 2.412315 g / cm^3
# Si number density = 24.178176 Si / 1000 Ang^3
#
#
#
# Elastic Constant Matrix: (Units=GPa)
#
#
# Indices 1 2 3 4 5 6 
#
# 1 83.7403 8.3137 16.5359 -6.7760 17.1088 -13.7499
# 2 8.3137 133.5324 7.5971 -2.0365 6.3997 8.9819
# 3 16.5359 7.5971 55.4014 1.6021 12.6641 3.3395
# 4 -6.7760 -2.0365 1.6021 17.0590 -3.4439 6.1480
# 5 17.1088 6.3997 12.6641 -3.4439 33.2086 -0.2681
# 6 -13.7499 8.9819 3.3395 6.1480 -0.2681 27.8936
#
#
#
# Elastic Compliance Matrix: (Units=1/GPa)
#
#
# Indices 1 2 3 4 5 6 
#
# 1 0.015467 -0.000953 -0.003629 0.002331 -0.006096 0.007793
# 2 -0.000953 0.007857 -0.000483 0.001659 -0.000694 -0.003314
# 3 -0.003629 -0.000483 0.020978 -0.003532 -0.006431 -0.003429
# 4 0.002331 0.001659 -0.003532 0.066274 0.006590 -0.013506
# 5 -0.006096 -0.000694 -0.006431 0.006590 0.036498 -0.003113
# 6 0.007793 -0.003314 -0.003429 -0.013506 -0.003113 0.044117
#
#
# Mechanical properties :
#
#
# Convention : Reuss Voigt Hill
#
# Bulk Modulus (GPa) = 29.26351 37.50751 33.38551
# Shear Modulus (GPa) = 23.50605 31.64741 27.57673
#
# Velocity S-wave (km/s) = 3.12140 3.62183 3.38089
# Velocity P-wave (km/s) = 5.01202 5.74777 5.39246
#
# Compressibility (1/GPa) = 0.03417225
#
# Stress axis : x y z
#
# Youngs Moduli (GPa) = 64.65517 127.27340 47.66791
#
# Poissons Ratio (x) = 0.12129 0.17301
# Poissons Ratio (y) = 0.06161 0.02300
# Poissons Ratio (z) = 0.23466 0.06142
#
# Static dielectric constant tensor:
#      x y z
#    x 1.999210 0.018560 -0.051360 
#    y 0.018560 1.914370 0.053630 
#    z -0.051360 0.053630 1.914810 
# 
# From -- ./inp_files/331775.got.cif
#   From: 2010.05.17/outbox.cif.g08.bks.cpg/sg2_166_cif.got.tgz:331775.got - 2010.06.03 11:33:40.
