data_PCOD9014170
_publ_section_title
;
Structure prediction by ZEFSAII (Michael W. Deem and Ramdas Pophale) SiO2 
 PCOD9014170
Probable space group: P -1
;
_chemical_formula_sum "Si O2"
_cell_formula_units_Z 14
_cell_length_a 11.453509
_cell_length_b 8.918337
_cell_length_c 9.661716
_cell_angle_alpha 46.318830
_cell_angle_beta 99.929457
_cell_angle_gamma 114.105918
_cell_volume 642.434722
_symmetry_space_group_name_H-M "P -1"
_symmetry_group_IT_number 2
_symmetry_cell_setting 'triclinic'
loop_
_space_group_symop_operation_xyz
x,y,z
-x,-y,-z
loop_
_atom_site_type_symbol
_atom_site_label
_atom_site_fract_x
_atom_site_fract_y
_atom_site_fract_z
Si Si1 0.964347 0.314897 0.277923
Si Si2 0.377350 0.490099 0.394767
Si Si3 0.837405 0.951327 0.238394
Si Si4 0.184343 0.445764 0.040345
Si Si5 0.700791 0.086748 0.874205
Si Si6 0.460241 0.627931 0.029326
Si Si7 0.097162 0.933882 0.282588
O O1 0.113223 0.423949 0.187999
O O2 0.897660 0.126095 0.265812
O O3 0.936503 0.205013 0.491943
O O4 0.903920 0.497474 0.125141
O O5 0.500000 0.500000 0.500000
O O6 0.256197 0.282088 0.563259
O O7 0.350657 0.716436 0.253396
O O8 0.411884 0.470532 0.255142
O O9 0.958451 0.920878 0.209975
O O10 0.757368 0.033661 0.062142
O O11 0.327393 0.641965 0.943417
O O12 0.181215 0.200460 0.161872
O O13 0.818719 0.146278 0.751257
O O14 0.578302 0.859716 0.946751
O O15 0.500000 0.500000 0.000000
#
# Coordination Sequence:
#
# PCOD9014170 Si02
#       7
#     2   2   2   2   2   2   2
#     4  10  22  40  72 100 133 175 229 279 331 398
#     4  12  27  46  68  97 138 180 226 271 341 404
#     4  11  24  44  70  98 137 182 221 280 338 401
#     4  10  21  41  67 100 133 174 226 277 336 386
#     4  12  27  45  67 103 141 178 218 282 343 397
#     4  12  24  45  72  96 136 179 224 279 333 402
#     4  11  23  43  69 104 134 173 231 278 333 403
#
# _framework density 21.792096999999998
#
# number of rings (size 3 to 8) (size 9 to 14) (size 15 to 20)
#    0.000    0.857    2.857    5.143    2.000    5.143 
#    0.000    1.429    0.000    0.000    0.000    0.000 
#    0.000    0.000    0.000    0.000    0.000    0.000 
#
# Total GULP energy -78369.766784 kJ/mol
# GULP energy per Si atom -5597.840485 kJ/mol
# Density = 2.174250 g / cm^3
# Si number density = 21.792097 Si / 1000 Ang^3
#
#
#
# Elastic Constant Matrix: (Units=GPa)
#
#
# Indices 1 2 3 4 5 6 
#
# 1 157.0769 59.5049 70.1394 6.3418 -8.3264 5.2639
# 2 59.5049 87.8122 51.3951 -2.6155 -9.7227 7.6564
# 3 70.1394 51.3951 129.5460 -1.9664 6.9645 -13.1037
# 4 6.3418 -2.6155 -1.9664 24.6110 6.4419 -14.3900
# 5 -8.3264 -9.7227 6.9645 6.4419 40.2807 -2.1759
# 6 5.2639 7.6564 -13.1037 -14.3900 -2.1759 35.6321
#
#
#
# Elastic Compliance Matrix: (Units=1/GPa)
#
#
# Indices 1 2 3 4 5 6 
#
# 1 0.010743 -0.003585 -0.005257 -0.007722 0.003193 -0.005674
# 2 -0.003585 0.018630 -0.006434 -0.002809 0.004957 -0.006671
# 3 -0.005257 -0.006434 0.014743 0.010054 -0.006188 0.011263
# 4 -0.007722 -0.002809 0.010054 0.064367 -0.012650 0.030664
# 5 0.003193 0.004957 -0.006188 -0.012650 0.029390 -0.007127
# 6 -0.005674 -0.006671 0.011263 0.030664 -0.007127 0.046427
#
#
# Mechanical properties :
#
#
# Convention : Reuss Voigt Hill
#
# Bulk Modulus (GPa) = 73.72648 81.83488 77.78068
# Shear Modulus (GPa) = 22.79225 32.99780 27.89502
#
# Velocity S-wave (km/s) = 3.23754 3.89551 3.58166
# Velocity P-wave (km/s) = 6.91959 7.60706 7.27145
#
# Compressibility (1/GPa) = 0.01356365
#
# Stress axis : x y z
#
# Youngs Moduli (GPa) = 93.08467 53.67777 67.82978
#
# Poissons Ratio (x) = 0.19242 0.35659
# Poissons Ratio (y) = 0.33368 0.43642
# Poissons Ratio (z) = 0.48936 0.34537
#
# Static dielectric constant tensor:
#      x y z
#    x 1.848450 0.031130 0.020350 
#    y 0.031130 1.848850 0.011220 
#    z 0.020350 0.011220 1.771430 
# 
# From -- ./inp_files/242194.got.cif
#   From: 2010.05.17/outbox.cif.g08.bks.cpg/sg2_122_cif.got.tgz:242194.got - 2010.06.03 11:33:40.
