data_PCOD9014463
_publ_section_title
;
Structure prediction by ZEFSAII (Michael W. Deem and Ramdas Pophale) SiO2 
 PCOD9014463
Probable space group: P -1
;
_chemical_formula_sum "Si O2"
_cell_formula_units_Z 10
_cell_length_a 7.459471
_cell_length_b 9.357321
_cell_length_c 12.820379
_cell_angle_alpha 33.625112
_cell_angle_beta 108.167436
_cell_angle_gamma 88.636567
_cell_volume 396.690314
_symmetry_space_group_name_H-M "P -1"
_symmetry_group_IT_number 2
_symmetry_cell_setting 'triclinic'
loop_
_space_group_symop_operation_xyz
x,y,z
-x,-y,-z
loop_
_atom_site_type_symbol
_atom_site_label
_atom_site_fract_x
_atom_site_fract_y
_atom_site_fract_z
Si Si1 0.509947 0.618021 0.074856
Si Si2 0.780358 0.600412 0.965766
Si Si3 0.694869 0.751164 0.264012
Si Si4 0.517335 0.783169 0.538611
Si Si5 0.106127 0.652218 0.274459
O O1 0.746766 0.512842 0.128567
O O2 0.555322 0.445047 0.297802
O O3 0.368716 0.501268 0.060618
O O4 0.339193 0.981646 0.824492
O O5 0.000000 0.500000 0.000000
O O6 0.651653 0.966337 0.724977
O O7 0.722903 0.489373 0.508066
O O8 0.908587 0.630118 0.302406
O O9 0.500000 0.000000 0.000000
O O10 0.761328 0.569251 0.663953
O O11 0.500000 0.000000 0.500000
O O12 0.000000 0.000000 0.000000
#
# Coordination Sequence:
#
# PCOD9014463 Si02
#       5
#     2   2   2   2   2
#     4  10  21  43  65  98 142 180 239 300 350 429
#     4  10  22  41  69 100 137 188 240 299 364 428
#     4  11  25  44  69 105 143 194 241 294 363 438
#     4  10  21  41  67  99 138 180 233 302 358 421
#     4  11  23  46  71 100 144 191 239 306 358 430
#
# _framework density 25.208583999999998
#
# number of rings (size 3 to 8) (size 9 to 14) (size 15 to 20)
#    0.000    1.600    4.000    0.000    0.000    4.800 
#    7.200    0.000    0.000    0.000    0.000    0.000 
#    0.000    0.000    0.000    0.000    0.000    0.000 
#
# Total GULP energy -55668.617057 kJ/mol
# GULP energy per Si atom -5566.861706 kJ/mol
# Density = 2.515121 g / cm^3
# Si number density = 25.208584 Si / 1000 Ang^3
#
#
#
# Elastic Constant Matrix: (Units=GPa)
#
#
# Indices 1 2 3 4 5 6 
#
# 1 164.2524 54.4329 52.0360 -5.0267 0.3565 -68.6197
# 2 54.4329 108.0528 63.9678 -5.1966 1.3594 -41.2391
# 3 52.0360 63.9678 179.6139 -1.0141 -19.9941 -14.4160
# 4 -5.0267 -5.1966 -1.0141 56.2794 -13.3235 8.2234
# 5 0.3565 1.3594 -19.9941 -13.3235 35.8195 -4.6309
# 6 -68.6197 -41.2391 -14.4160 8.2234 -4.6309 59.9997
#
#
#
# Elastic Compliance Matrix: (Units=1/GPa)
#
#
# Indices 1 2 3 4 5 6 
#
# 1 0.012810 0.000759 -0.002841 -0.001028 -0.000235 0.014613
# 2 0.000759 0.016074 -0.005384 -0.000678 -0.002515 0.010521
# 3 -0.002841 -0.005384 0.008472 0.001229 0.004810 -0.004711
# 4 -0.001028 -0.000678 0.001229 0.019969 0.007698 -0.003489
# 5 -0.000235 -0.002515 0.004810 0.007698 0.033654 0.000701
# 6 0.014613 0.010521 -0.004711 -0.003489 0.000701 0.040011
#
#
# Mechanical properties :
#
#
# Convention : Reuss Voigt Hill
#
# Bulk Modulus (GPa) = 44.59218 88.08804 66.34011
# Shear Modulus (GPa) = 32.59514 49.18521 40.89017
#
# Velocity S-wave (km/s) = 3.59976 4.42195 4.03187
# Velocity P-wave (km/s) = 5.91653 7.81608 6.93168
#
# Compressibility (1/GPa) = 0.02242546
#
# Stress axis : x y z
#
# Youngs Moduli (GPa) = 78.06121 62.21110 118.03406
#
# Poissons Ratio (x) = -0.04721 0.33530
# Poissons Ratio (y) = -0.05924 0.63548
# Poissons Ratio (z) = 0.22175 0.33494
#
# Static dielectric constant tensor:
#      x y z
#    x 2.569600 1.842280 2.031680 
#    y 1.842280 8.184170 6.899230 
#    z 2.031680 6.899230 10.216160 
# 
# From -- ./inp_files/161912.got.cif
#   From: 2010.05.17/outbox.cif.g08.bks.cpg/sg2_81_cif.got.tgz:161912.got - 2010.06.03 11:33:40.
