data_PCOD9014161
_publ_section_title
;
Structure prediction by ZEFSAII (Michael W. Deem and Ramdas Pophale) SiO2 
 PCOD9014161
Probable space group: P -1
;
_chemical_formula_sum "Si O2"
_cell_formula_units_Z 16
_cell_length_a 9.869068
_cell_length_b 5.331163
_cell_length_c 14.961589
_cell_angle_alpha 117.846389
_cell_angle_beta 63.317259
_cell_angle_gamma 109.172279
_cell_volume 614.852985
_symmetry_space_group_name_H-M "P -1"
_symmetry_group_IT_number 2
_symmetry_cell_setting 'triclinic'
loop_
_space_group_symop_operation_xyz
x,y,z
-x,-y,-z
loop_
_atom_site_type_symbol
_atom_site_label
_atom_site_fract_x
_atom_site_fract_y
_atom_site_fract_z
Si Si1 0.716778 0.065715 0.425754
Si Si2 0.604079 0.810445 0.031253
Si Si3 0.889928 0.617352 0.481372
Si Si4 0.955622 0.117624 0.671503
Si Si5 0.794911 0.668426 0.111805
Si Si6 0.541538 0.047229 0.652849
Si Si7 0.512881 0.335925 0.221258
Si Si8 0.874140 0.122376 0.892192
O O1 0.734214 0.407566 0.484191
O O2 0.638108 0.961350 0.524817
O O3 0.885607 0.985563 0.363605
O O4 0.623832 0.976921 0.350418
O O5 0.680115 0.816441 0.108924
O O6 0.508331 0.080136 0.106535
O O7 0.500000 0.500000 0.000000
O O8 0.750983 0.880826 0.934310
O O9 0.978221 0.605585 0.359218
O O10 0.000000 0.500000 0.500000
O O11 0.874803 0.919329 0.582470
O O12 0.860049 0.124950 0.789704
O O13 0.692870 0.478974 0.185237
O O14 0.947417 0.873419 0.132059
O O15 0.842999 0.426180 0.990882
O O16 0.578571 0.391548 0.722234
O O17 0.534677 0.829636 0.700657
#
# Coordination Sequence:
#
# PCOD9014161 Si02
#       8
#     2   2   2   2   2   2   2   2
#     4  10  24  39  66  97 142 183 237 301 351 435
#     4  11  25  47  72 107 155 189 240 303 372 452
#     4   9  21  41  59  92 137 178 238 292 354 422
#     4  10  21  41  66  99 136 191 237 300 358 433
#     4  10  22  45  68 111 144 188 244 311 352 448
#     4  11  25  42  69 106 139 190 237 298 367 422
#     4  11  24  45  70 104 142 193 244 295 364 438
#     4  10  23  40  74 106 142 193 244 302 371 431
#
# _framework density 26.022478
#
# number of rings (size 3 to 8) (size 9 to 14) (size 15 to 20)
#    0.000    1.750    1.250    1.125    5.250    6.000 
#    2.250    0.000    0.000    0.000    0.000    0.000 
#    0.000    0.000    0.000    0.000    0.000    0.000 
#
# Total GULP energy -89424.942289 kJ/mol
# GULP energy per Si atom -5589.058893 kJ/mol
# Density = 2.596325 g / cm^3
# Si number density = 26.022478 Si / 1000 Ang^3
#
#
#
# Elastic Constant Matrix: (Units=GPa)
#
#
# Indices 1 2 3 4 5 6 
#
# 1 80.9817 41.3441 15.0081 -2.3526 6.7685 14.4328
# 2 41.3441 157.5129 74.2256 -36.3068 10.8872 9.6176
# 3 15.0081 74.2256 136.1772 -37.5079 12.7351 11.4359
# 4 -2.3526 -36.3068 -37.5079 56.4714 -0.8958 2.0524
# 5 6.7685 10.8872 12.7351 -0.8958 37.2827 1.1857
# 6 14.4328 9.6176 11.4359 2.0524 1.1857 42.1676
#
#
#
# Elastic Compliance Matrix: (Units=1/GPa)
#
#
# Indices 1 2 3 4 5 6 
#
# 1 0.015294 -0.004355 0.000795 -0.001504 -0.001674 -0.004337
# 2 -0.004355 0.010308 -0.004043 0.003746 -0.000751 0.000075
# 3 0.000795 -0.004043 0.011295 0.004988 -0.002620 -0.002582
# 4 -0.001504 0.003746 0.004988 0.023438 -0.001873 -0.002781
# 5 -0.001674 -0.000751 -0.002620 -0.001873 0.028171 0.000754
# 6 -0.004337 0.000075 -0.002582 -0.002781 0.000754 0.025997
#
#
# Mechanical properties :
#
#
# Convention : Reuss Voigt Hill
#
# Bulk Modulus (GPa) = 46.10258 70.64748 58.37503
# Shear Modulus (GPa) = 36.51272 43.45727 39.98499
#
# Velocity S-wave (km/s) = 3.74989 4.09098 3.92415
# Velocity P-wave (km/s) = 6.04184 7.03722 6.55844
#
# Compressibility (1/GPa) = 0.02169076
#
# Stress axis : x y z
#
# Youngs Moduli (GPa) = 65.38656 97.01617 88.53326
#
# Poissons Ratio (x) = 0.42250 -0.07036
# Poissons Ratio (y) = 0.28475 0.35791
# Poissons Ratio (z) = -0.05197 0.39221
#
# Static dielectric constant tensor:
#      x y z
#    x 2.093400 -0.018210 -0.076210 
#    y -0.018210 2.124350 0.078890 
#    z -0.076210 0.078890 2.175130 
# 
# From -- ./inp_files/511236.got.cif
#   From: 2010.05.17/outbox.cif.g08.bks.cpg/sg2_256_cif.got.tgz:511236.got - 2010.06.03 11:33:40.
