data_PCOD9014569
_publ_section_title
;
Structure prediction by ZEFSAII (Michael W. Deem and Ramdas Pophale) SiO2 
 PCOD9014569
Probable space group: P -1
;
_chemical_formula_sum "Si O2"
_cell_formula_units_Z 16
_cell_length_a 5.292193
_cell_length_b 20.578439
_cell_length_c 9.131569
_cell_angle_alpha 37.580375
_cell_angle_beta 103.352195
_cell_angle_gamma 101.236041
_cell_volume 589.991852
_symmetry_space_group_name_H-M "P -1"
_symmetry_group_IT_number 2
_symmetry_cell_setting 'triclinic'
loop_
_space_group_symop_operation_xyz
x,y,z
-x,-y,-z
loop_
_atom_site_type_symbol
_atom_site_label
_atom_site_fract_x
_atom_site_fract_y
_atom_site_fract_z
Si Si1 0.813211 0.744564 0.639835
Si Si2 0.929330 0.205274 0.690646
Si Si3 0.768044 0.934051 0.775315
Si Si4 0.057913 0.838472 0.745379
Si Si5 0.476196 0.940807 0.253797
Si Si6 0.824544 0.508671 0.629604
Si Si7 0.591556 0.544891 0.085936
Si Si8 0.172768 0.673711 0.277556
O O1 0.883092 0.725197 0.515511
O O2 0.049223 0.750221 0.774688
O O3 0.710947 0.862752 0.431405
O O4 0.607458 0.669131 0.827705
O O5 0.777254 0.132937 0.680515
O O6 0.751263 0.282030 0.629157
O O7 0.067757 0.125788 0.966840
O O8 0.795873 0.858477 0.772716
O O9 0.529300 0.976150 0.763415
O O10 0.855747 0.048894 0.512232
O O11 0.221992 0.777518 0.999154
O O12 0.500000 0.000000 0.000000
O O13 0.614947 0.493840 0.753689
O O14 0.750513 0.424715 0.640927
O O15 0.113626 0.484725 0.776130
O O16 0.876753 0.627980 0.357541
O O17 0.500000 0.500000 0.000000
#
# Coordination Sequence:
#
# PCOD9014569 Si02
#       8
#     2   2   2   2   2   2   2   2
#     4  12  25  41  71 100 138 185 236 298 356 434
#     4  11  23  45  68  97 143 185 239 287 361 435
#     4  10  21  41  68  91 141 178 231 293 354 424
#     4  10  21  43  67  98 131 188 231 293 356 423
#     4  12  24  39  64 103 133 184 236 291 358 424
#     4  11  26  52  74 108 148 191 238 300 366 429
#     4  12  28  48  79 112 149 186 239 304 366 426
#     4  10  24  46  75 100 138 194 236 297 357 438
#
# _framework density 27.119021
#
# number of rings (size 3 to 8) (size 9 to 14) (size 15 to 20)
#    0.000    1.000    3.750    2.250    5.250    2.500 
#    4.500    0.000    0.000    0.000    0.000    0.000 
#    0.000    0.000    0.000    0.000    0.000    0.000 
#
# Total GULP energy -89290.437921 kJ/mol
# GULP energy per Si atom -5580.652370 kJ/mol
# Density = 2.705730 g / cm^3
# Si number density = 27.119021 Si / 1000 Ang^3
#
#
#
# Elastic Constant Matrix: (Units=GPa)
#
#
# Indices 1 2 3 4 5 6 
#
# 1 104.0686 41.3540 48.7170 22.3709 -15.5286 -11.9389
# 2 41.3540 157.2642 54.7413 24.7011 -14.7625 -13.9772
# 3 48.7170 54.7413 152.2202 18.1141 -32.0126 -2.3828
# 4 22.3709 24.7011 18.1141 54.2968 -4.4007 -15.4111
# 5 -15.5286 -14.7625 -32.0126 -4.4007 49.4276 5.0210
# 6 -11.9389 -13.9772 -2.3828 -15.4111 5.0210 34.6562
#
#
#
# Elastic Compliance Matrix: (Units=1/GPa)
#
#
# Indices 1 2 3 4 5 6 
#
# 1 0.012592 -0.001581 -0.002843 -0.002836 0.001179 0.002073
# 2 -0.001581 0.007944 -0.002070 -0.001773 0.000205 0.001699
# 3 -0.002843 -0.002070 0.009321 -0.001309 0.004655 -0.002430
# 4 -0.002836 -0.001773 -0.001309 0.023209 -0.001085 0.008696
# 5 0.001179 0.000205 0.004655 -0.001085 0.023900 -0.003136
# 6 0.002073 0.001699 -0.002430 0.008696 -0.003136 0.034408
#
#
# Mechanical properties :
#
#
# Convention : Reuss Voigt Hill
#
# Bulk Modulus (GPa) = 59.28697 78.13083 68.70890
# Shear Modulus (GPa) = 38.46588 45.59217 42.02902
#
# Velocity S-wave (km/s) = 3.77026 4.10468 3.94102
# Velocity P-wave (km/s) = 6.39237 7.16501 6.78969
#
# Compressibility (1/GPa) = 0.01686711
#
# Stress axis : x y z
#
# Youngs Moduli (GPa) = 79.41695 125.88564 107.28882
#
# Poissons Ratio (x) = 0.19902 0.30507
# Poissons Ratio (y) = 0.12556 0.22210
# Poissons Ratio (z) = 0.22582 0.26060
#
# Static dielectric constant tensor:
#      x y z
#    x 2.228870 -0.021090 -0.151910 
#    y -0.021090 2.032370 -0.254850 
#    z -0.151910 -0.254850 1.849450 
# 
# From -- ./inp_files/141018.got.cif
#   From: 2010.05.17/outbox.cif.g08.bks.cpg/sg2_71_cif.got.tgz:141018.got - 2010.06.03 11:33:40.
