data_PCOD9014214
_publ_section_title
;
Structure prediction by ZEFSAII (Michael W. Deem and Ramdas Pophale) SiO2 
 PCOD9014214
Probable space group: P -1
;
_chemical_formula_sum "Si O2"
_cell_formula_units_Z 14
_cell_length_a 12.233135
_cell_length_b 21.340976
_cell_length_c 15.627522
_cell_angle_alpha 161.064641
_cell_angle_beta 40.308697
_cell_angle_gamma 151.576188
_cell_volume 563.203372
_symmetry_space_group_name_H-M "P -1"
_symmetry_group_IT_number 2
_symmetry_cell_setting 'triclinic'
loop_
_space_group_symop_operation_xyz
x,y,z
-x,-y,-z
loop_
_atom_site_type_symbol
_atom_site_label
_atom_site_fract_x
_atom_site_fract_y
_atom_site_fract_z
Si Si1 0.693137 0.243753 0.128457
Si Si2 0.801615 0.863307 0.165848
Si Si3 0.896417 0.679826 0.213549
Si Si4 0.097159 0.251636 0.887924
Si Si5 0.687523 0.837458 0.840248
Si Si6 0.660526 0.094317 0.673440
Si Si7 0.822758 0.086270 0.266707
O O1 0.494151 0.135248 0.034142
O O2 0.884054 0.589882 0.478895
O O3 0.897988 0.251723 0.008795
O O4 0.500000 0.000000 0.000000
O O5 0.724680 0.638699 0.994670
O O6 0.755566 0.027756 0.456502
O O7 0.733733 0.869898 0.118011
O O8 0.079997 0.005332 0.160496
O O9 0.772318 0.605161 0.098176
O O10 0.194394 0.861419 0.272221
O O11 0.922333 0.908421 0.537385
O O12 0.764322 0.397667 0.981236
O O13 0.500000 0.500000 0.500000
O O14 0.787425 0.952576 0.024851
O O15 0.359080 0.878027 0.576969
#
# Coordination Sequence:
#
# PCOD9014214 Si02
#       7
#     2   2   2   2   2   2   2
#     4  12  26  47  75  99 148 191 243 303 369 433
#     4  11  23  44  70 108 147 193 242 301 361 437
#     4   9  20  40  72 108 146 188 241 295 370 432
#     4  10  21  41  67 105 144 189 236 294 363 430
#     4  12  27  48  76 106 147 192 250 304 361 442
#     4  10  22  42  76 108 145 189 248 304 360 434
#     4  12  27  46  74 109 145 194 251 304 363 437
#
# _framework density 24.857810000000001
#
# number of rings (size 3 to 8) (size 9 to 14) (size 15 to 20)
#    0.000    1.143    2.857    2.571    6.000    0.571 
#    0.000    7.857    0.000    0.000    0.000    0.000 
#    0.000    0.000    0.000    0.000    0.000    0.000 
#
# Total GULP energy -78091.014807 kJ/mol
# GULP energy per Si atom -5577.929629 kJ/mol
# Density = 2.480123 g / cm^3
# Si number density = 24.857810 Si / 1000 Ang^3
#
#
#
# Elastic Constant Matrix: (Units=GPa)
#
#
# Indices 1 2 3 4 5 6 
#
# 1 212.9426 38.0275 43.3693 -1.0732 0.4101 -0.2248
# 2 38.0275 114.3280 36.3293 -11.5271 12.3386 5.6177
# 3 43.3693 36.3293 82.3485 -12.9264 -16.5788 4.7885
# 4 -1.0732 -11.5271 -12.9264 27.1489 10.8555 -0.6199
# 5 0.4101 12.3386 -16.5788 10.8555 37.5998 -7.5582
# 6 -0.2248 5.6177 4.7885 -0.6199 -7.5582 51.5781
#
#
#
# Elastic Compliance Matrix: (Units=1/GPa)
#
#
# Indices 1 2 3 4 5 6 
#
# 1 0.005431 -0.001038 -0.002724 -0.001326 -0.000476 0.000304
# 2 -0.001038 0.012559 -0.005693 0.006044 -0.008779 -0.002058
# 3 -0.002724 -0.005693 0.018340 0.002484 0.009328 0.000302
# 4 -0.001326 0.006044 0.002484 0.046378 -0.014766 -0.002501
# 5 -0.000476 -0.008779 0.009328 -0.014766 0.038988 0.005624
# 6 0.000304 -0.002058 0.000302 -0.002501 0.005624 0.020380
#
#
# Mechanical properties :
#
#
# Convention : Reuss Voigt Hill
#
# Bulk Modulus (GPa) = 57.40467 71.67457 64.53962
# Shear Modulus (GPa) = 29.97761 42.72490 36.35126
#
# Velocity S-wave (km/s) = 3.47647 4.15030 3.82824
# Velocity P-wave (km/s) = 6.26560 7.20161 6.74985
#
# Compressibility (1/GPa) = 0.01742018
#
# Stress axis : x y z
#
# Youngs Moduli (GPa) = 184.13570 79.62447 54.52638
#
# Poissons Ratio (x) = 0.08266 0.14851
# Poissons Ratio (y) = 0.19116 0.31041
# Poissons Ratio (z) = 0.50153 0.45329
#
# Static dielectric constant tensor:
#      x y z
#    x 2.158750 -0.075860 0.023380 
#    y -0.075860 2.262100 -0.041390 
#    z 0.023380 -0.041390 2.019550 
# 
# From -- ./inp_files/524139.got.cif
#   From: 2010.05.17/outbox.cif.g08.bks.cpg/sg2_263_cif.got.tgz:524139.got - 2010.06.03 11:33:40.
