data_PCOD9014842
_publ_section_title
;
Structure prediction by ZEFSAII (Michael W. Deem and Ramdas Pophale) SiO2 
 PCOD9014842
Probable space group: P -1
;
_chemical_formula_sum "Si O2"
_cell_formula_units_Z 16
_cell_length_a 19.802573
_cell_length_b 6.853947
_cell_length_c 8.409801
_cell_angle_alpha 99.179197
_cell_angle_beta 94.355259
_cell_angle_gamma 46.172612
_cell_volume 811.957887
_symmetry_space_group_name_H-M "P -1"
_symmetry_group_IT_number 2
_symmetry_cell_setting 'triclinic'
loop_
_space_group_symop_operation_xyz
x,y,z
-x,-y,-z
loop_
_atom_site_type_symbol
_atom_site_label
_atom_site_fract_x
_atom_site_fract_y
_atom_site_fract_z
Si Si1 0.234616 0.642174 0.239288
Si Si2 0.826039 0.620659 0.321032
Si Si3 0.046622 0.331950 0.824431
Si Si4 0.678971 0.180571 0.524898
Si Si5 0.388187 0.060139 0.343679
Si Si6 0.596554 0.645418 0.347766
Si Si7 0.780110 0.295429 0.125586
Si Si8 0.079816 0.714345 0.390391
O O1 0.255970 0.786906 0.373939
O O2 0.315873 0.317565 0.249466
O O3 0.137644 0.735383 0.284076
O O4 0.232684 0.705847 0.064296
O O5 0.911392 0.571689 0.256093
O O6 0.804205 0.474965 0.191747
O O7 0.851027 0.496736 0.486266
O O8 0.738407 0.941332 0.373665
O O9 0.969283 0.367770 0.717022
O O10 0.134008 0.010851 0.836546
O O11 0.000000 0.500000 0.000000
O O12 0.599855 0.463669 0.455358
O O13 0.641839 0.099957 0.636617
O O14 0.388595 0.184768 0.525134
O O15 0.495088 0.852744 0.276461
O O16 0.684092 0.443761 0.220804
O O17 0.000000 0.000000 0.500000
#
# Coordination Sequence:
#
# PCOD9014842 Si02
#       8
#     2   2   2   2   2   2   2   2
#     4  11  26  40  62  94 132 164 205 263 317 370
#     4  12  23  43  69  89 123 169 215 261 307 370
#     4  12  28  42  63  96 128 167 211 260 318 372
#     4  11  20  41  68  95 120 164 215 259 306 368
#     4  10  21  42  68  96 125 164 211 258 311 373
#     4  10  21  41  69  96 125 163 210 260 311 374
#     4  12  25  44  61  94 134 165 203 262 320 374
#     4  12  24  44  66  90 125 170 216 262 307 369
#
# _framework density 19.705456000000002
#
# number of rings (size 3 to 8) (size 9 to 14) (size 15 to 20)
#    0.000    0.750    5.000    3.000    3.500    2.500 
#    0.000    0.625    0.000    0.000    0.000    0.000 
#    0.000    0.000    0.000    0.000    0.000    0.000 
#
# Total GULP energy -89479.182419 kJ/mol
# GULP energy per Si atom -5592.448901 kJ/mol
# Density = 1.966061 g / cm^3
# Si number density = 19.705456 Si / 1000 Ang^3
#
#
#
# Elastic Constant Matrix: (Units=GPa)
#
#
# Indices 1 2 3 4 5 6 
#
# 1 73.6049 9.6385 -8.4011 8.4884 -6.0428 2.8312
# 2 9.6385 63.4310 -6.3693 11.9635 1.2834 -0.8857
# 3 -8.4011 -6.3693 41.8599 10.8991 -2.2568 -0.3146
# 4 8.4884 11.9635 10.8991 29.1806 3.3322 -2.1912
# 5 -6.0428 1.2834 -2.2568 3.3322 22.9917 0.3625
# 6 2.8312 -0.8857 -0.3146 -2.1912 0.3625 37.3176
#
#
#
# Elastic Compliance Matrix: (Units=1/GPa)
#
#
# Indices 1 2 3 4 5 6 
#
# 1 0.015588 -0.000683 0.005124 -0.006937 0.005669 -0.001618
# 2 -0.000683 0.018092 0.005039 -0.009175 0.000635 -0.000021
# 3 0.005124 0.005039 0.030073 -0.015582 0.006291 -0.000992
# 4 -0.006937 -0.009175 -0.015582 0.047209 -0.009730 0.003044
# 5 0.005669 0.000635 0.006291 -0.009730 0.046998 -0.001390
# 6 -0.001618 -0.000021 -0.000992 0.003044 -0.001390 0.027103
#
#
# Mechanical properties :
#
#
# Convention : Reuss Voigt Hill
#
# Bulk Modulus (GPa) = 12.08993 18.73687 15.41340
# Shear Modulus (GPa) = 25.81655 30.16648 27.99152
#
# Velocity S-wave (km/s) = 3.62349 3.91688 3.77304
# Velocity P-wave (km/s) = 4.86363 5.47586 5.17880
#
# Compressibility (1/GPa) = 0.08271347
#
# Stress axis : x y z
#
# Youngs Moduli (GPa) = 64.15173 55.27242 33.25231
#
# Poissons Ratio (x) = 0.03775 -0.17039
# Poissons Ratio (y) = 0.04381 -0.16755
# Poissons Ratio (z) = -0.32873 -0.27850
#
# Static dielectric constant tensor:
#      x y z
#    x 1.701360 -0.026610 0.008550 
#    y -0.026610 1.758290 -0.015040 
#    z 0.008550 -0.015040 1.666720 
# 
# From -- ./inp_files/39746.got.cif
#   From: 2010.05.17/outbox.cif.g08.bks.cpg/sg2_20_cif.got.tgz:39746.got - 2010.06.03 11:33:40.
