data_PCOD9014574
_publ_section_title
;
Structure prediction by ZEFSAII (Michael W. Deem and Ramdas Pophale) SiO2 
 PCOD9014574
Probable space group: P -1
;
_chemical_formula_sum "Si O2"
_cell_formula_units_Z 12
_cell_length_a 22.312966
_cell_length_b 19.350317
_cell_length_c 12.958684
_cell_angle_alpha 151.985285
_cell_angle_beta 160.538158
_cell_angle_gamma 18.782071
_cell_volume 597.678752
_symmetry_space_group_name_H-M "P -1"
_symmetry_group_IT_number 2
_symmetry_cell_setting 'triclinic'
loop_
_space_group_symop_operation_xyz
x,y,z
-x,-y,-z
loop_
_atom_site_type_symbol
_atom_site_label
_atom_site_fract_x
_atom_site_fract_y
_atom_site_fract_z
Si Si1 0.138596 0.296639 0.755824
Si Si2 0.324939 0.591077 0.234703
Si Si3 0.258078 0.322582 0.754401
Si Si4 0.703495 0.951315 0.688359
Si Si5 0.593943 0.169695 0.458606
Si Si6 0.530472 0.651261 0.277113
O O1 0.205258 0.337083 0.808970
O O2 0.838804 0.503373 0.571621
O O3 0.193314 0.088992 0.553027
O O4 0.330053 0.248601 0.090595
O O5 0.500000 0.500000 0.500000
O O6 0.354858 0.715131 0.374729
O O7 0.415777 0.376965 0.056400
O O8 0.010094 0.761695 0.968676
O O9 0.353673 0.108569 0.587391
O O10 0.000000 0.500000 0.500000
O O11 0.500000 0.000000 0.500000
O O12 0.629231 0.161070 0.819085
O O13 0.568808 0.241912 0.629895
O O14 0.500000 0.500000 0.000000
#
# Coordination Sequence:
#
# PCOD9014574 Si02
#       6
#     2   2   2   2   2   2
#     4  11  23  46  67  95 137 179 220 275 339 400
#     4  11  23  43  67  97 128 175 221 274 335 396
#     4  10  21  41  68  92 131 176 219 269 338 392
#     4  11  25  43  66  97 135 173 225 275 334 402
#     4  11  25  43  68  97 137 176 224 276 338 400
#     4  12  26  41  69 101 132 174 227 280 331 399
#
# _framework density 20.077676
#
# number of rings (size 3 to 8) (size 9 to 14) (size 15 to 20)
#    0.000    1.000    3.333    3.500    7.000    1.333 
#    0.000    0.833    0.000    0.000    0.000    0.000 
#    0.000    0.000    0.000    0.000    0.000    0.000 
#
# Total GULP energy -66948.728825 kJ/mol
# GULP energy per Si atom -5579.060735 kJ/mol
# Density = 2.003198 g / cm^3
# Si number density = 20.077676 Si / 1000 Ang^3
#
#
#
# Elastic Constant Matrix: (Units=GPa)
#
#
# Indices 1 2 3 4 5 6 
#
# 1 100.5908 31.6458 27.9145 5.4351 3.0335 15.8999
# 2 31.6458 104.6619 34.8645 16.3417 9.2118 25.3492
# 3 27.9145 34.8645 91.7094 11.6602 -2.8140 -0.5891
# 4 5.4351 16.3417 11.6602 49.7780 3.2982 9.2506
# 5 3.0335 9.2118 -2.8140 3.2982 32.6782 3.9164
# 6 15.8999 25.3492 -0.5891 9.2506 3.9164 36.4482
#
#
#
# Elastic Compliance Matrix: (Units=1/GPa)
#
#
# Indices 1 2 3 4 5 6 
#
# 1 0.011982 -0.001597 -0.003184 0.000797 -0.000499 -0.004316
# 2 -0.001597 0.014258 -0.004886 -0.001564 -0.003107 -0.008567
# 3 -0.003184 -0.004886 0.014164 -0.002534 0.002502 0.005390
# 4 0.000797 -0.001564 -0.002534 0.022091 -0.001512 -0.004745
# 5 -0.000499 -0.003107 0.002502 -0.001512 0.031968 -0.000632
# 6 -0.004316 -0.008567 0.005390 -0.004745 -0.000632 0.036637
#
#
# Mechanical properties :
#
#
# Convention : Reuss Voigt Hill
#
# Bulk Modulus (GPa) = 47.46239 53.97910 50.72075
# Shear Modulus (GPa) = 31.75490 37.28336 34.51913
#
# Velocity S-wave (km/s) = 3.98125 4.31392 4.15092
# Velocity P-wave (km/s) = 6.69511 7.19421 6.94914
#
# Compressibility (1/GPa) = 0.02106932
#
# Stress axis : x y z
#
# Youngs Moduli (GPa) = 83.46148 70.13768 70.60120
#
# Poissons Ratio (x) = 0.11203 0.22480
# Poissons Ratio (y) = 0.13331 0.34493
# Poissons Ratio (z) = 0.26575 0.34266
#
# Static dielectric constant tensor:
#      x y z
#    x 1.685200 -0.009770 0.031330 
#    y -0.009770 1.772100 0.043270 
#    z 0.031330 0.043270 1.650050 
# 
# From -- ./inp_files/164295.got.cif
#   From: 2010.05.17/outbox.cif.g08.bks.cpg/sg2_83_cif.got.tgz:164295.got - 2010.06.03 11:33:40.
