data_PCOD9014525
_publ_section_title
;
Structure prediction by ZEFSAII (Michael W. Deem and Ramdas Pophale) SiO2 
 PCOD9014525
Probable space group: P -1
;
_chemical_formula_sum "Si O2"
_cell_formula_units_Z 14
_cell_length_a 5.477431
_cell_length_b 19.702491
_cell_length_c 8.413188
_cell_angle_alpha 42.195019
_cell_angle_beta 77.768241
_cell_angle_gamma 67.843135
_cell_volume 561.453475
_symmetry_space_group_name_H-M "P -1"
_symmetry_group_IT_number 2
_symmetry_cell_setting 'triclinic'
loop_
_space_group_symop_operation_xyz
x,y,z
-x,-y,-z
loop_
_atom_site_type_symbol
_atom_site_label
_atom_site_fract_x
_atom_site_fract_y
_atom_site_fract_z
Si Si1 0.782201 0.610760 0.785669
Si Si2 0.531991 0.779645 0.755040
Si Si3 0.584780 0.005430 0.795794
Si Si4 0.787096 0.116452 0.081951
Si Si5 0.100649 0.705530 0.385406
Si Si6 0.077818 0.329075 0.855652
Si Si7 0.623362 0.540528 0.593796
O O1 0.566744 0.671404 0.839454
O O2 0.663759 0.585049 0.683604
O O3 0.931820 0.695049 0.575636
O O4 0.000000 0.500000 0.000000
O O5 0.494169 0.876152 0.471863
O O6 0.304045 0.820197 0.849537
O O7 0.797061 0.746715 0.884229
O O8 0.416622 0.945827 0.821308
O O9 0.905364 0.956628 0.826417
O O10 0.500000 0.000000 0.000000
O O11 0.763071 0.204421 0.792991
O O12 0.309256 0.586048 0.538726
O O13 0.929562 0.730359 0.204932
O O14 0.263090 0.399728 0.660691
O O15 0.795781 0.416887 0.780040
#
# Coordination Sequence:
#
# PCOD9014525 Si02
#       7
#     2   2   2   2   2   2   2
#     4  11  25  46  68 111 157 197 256 312 386 463
#     4  12  25  47  76 111 154 202 251 327 385 457
#     4  12  29  53  82 115 154 200 259 327 396 465
#     4  12  27  52  78 117 150 204 265 319 386 465
#     4  11  24  42  74 101 149 205 255 318 385 453
#     4  10  21  41  68 104 143 199 256 312 376 452
#     4  10  21  42  68  99 149 197 255 305 376 453
#
# _framework density 24.935282000000001
#
# number of rings (size 3 to 8) (size 9 to 14) (size 15 to 20)
#    0.000    0.857    2.857    3.429    4.000    2.857 
#    5.143    0.000    0.000    0.000    0.000    0.000 
#    0.000    0.000    0.000    0.000    0.000    0.000 
#
# Total GULP energy -78386.542211 kJ/mol
# GULP energy per Si atom -5599.038729 kJ/mol
# Density = 2.487853 g / cm^3
# Si number density = 24.935282 Si / 1000 Ang^3
#
#
#
# Elastic Constant Matrix: (Units=GPa)
#
#
# Indices 1 2 3 4 5 6 
#
# 1 97.3942 52.5019 38.4916 -2.0271 16.4649 -19.7481
# 2 52.5019 154.6498 55.2649 4.1540 13.1195 -22.7811
# 3 38.4916 55.2649 154.7227 4.0338 22.8715 -16.2763
# 4 -2.0271 4.1540 4.0338 40.4466 -7.8354 7.3487
# 5 16.4649 13.1195 22.8715 -7.8354 49.4381 -2.0066
# 6 -19.7481 -22.7811 -16.2763 7.3487 -2.0066 40.7022
#
#
#
# Elastic Compliance Matrix: (Units=1/GPa)
#
#
# Indices 1 2 3 4 5 6 
#
# 1 0.013992 -0.003375 -0.001387 -0.000158 -0.002976 0.004227
# 2 -0.003375 0.008774 -0.001900 -0.001468 -0.000446 0.002757
# 3 -0.001387 -0.001900 0.008143 -0.001565 -0.002982 0.001655
# 4 -0.000158 -0.001468 -0.001565 0.027155 0.005220 -0.006170
# 5 -0.002976 -0.000446 -0.002982 0.005220 0.023435 -0.002673
# 6 0.004227 0.002757 0.001655 -0.006170 -0.002673 0.029807
#
#
# Mechanical properties :
#
#
# Convention : Reuss Voigt Hill
#
# Bulk Modulus (GPa) = 56.86671 77.69817 67.28244
# Shear Modulus (GPa) = 38.31672 43.48460 40.90066
#
# Velocity S-wave (km/s) = 3.92426 4.18053 4.05442
# Velocity P-wave (km/s) = 6.58698 7.38445 6.99708
#
# Compressibility (1/GPa) = 0.01758498
#
# Stress axis : x y z
#
# Youngs Moduli (GPa) = 71.46979 113.96678 122.81147
#
# Poissons Ratio (x) = 0.38466 0.17028
# Poissons Ratio (y) = 0.24123 0.23337
# Poissons Ratio (z) = 0.09910 0.21656
#
# Static dielectric constant tensor:
#      x y z
#    x 2.022360 0.012460 -0.019350 
#    y 0.012460 1.990760 -0.022770 
#    z -0.019350 -0.022770 1.951260 
# 
# From -- ./inp_files/40188.got.cif
#   From: 2010.05.17/outbox.cif.g08.bks.cpg/sg2_21_cif.got.tgz:40188.got - 2010.06.03 11:33:40.
