data_PCOD9014327
_publ_section_title
;
Structure prediction by ZEFSAII (Michael W. Deem and Ramdas Pophale) SiO2 
 PCOD9014327
Probable space group: P -1
;
_chemical_formula_sum "Si O2"
_cell_formula_units_Z 14
_cell_length_a 16.910748
_cell_length_b 6.271753
_cell_length_c 6.328540
_cell_angle_alpha 103.224571
_cell_angle_beta 103.268908
_cell_angle_gamma 93.137430
_cell_volume 631.875346
_symmetry_space_group_name_H-M "P -1"
_symmetry_group_IT_number 2
_symmetry_cell_setting 'triclinic'
loop_
_space_group_symop_operation_xyz
x,y,z
-x,-y,-z
loop_
_atom_site_type_symbol
_atom_site_label
_atom_site_fract_x
_atom_site_fract_y
_atom_site_fract_z
Si Si1 0.682370 0.431484 0.756862
Si Si2 0.560825 0.076331 0.364989
Si Si3 0.443585 0.302006 0.029533
Si Si4 0.911743 0.467477 0.850548
Si Si5 0.796973 0.191913 0.016238
Si Si6 0.902150 0.045765 0.444389
Si Si7 0.189990 0.231673 0.337156
O O1 0.631837 0.244821 0.543736
O O2 0.626075 0.606503 0.853401
O O3 0.746858 0.561842 0.659019
O O4 0.713651 0.307683 0.959100
O O5 0.505105 0.191831 0.193714
O O6 0.500000 0.000000 0.500000
O O7 0.590979 0.871275 0.210702
O O8 0.500000 0.500000 0.000000
O O9 0.892313 0.698057 0.799456
O O10 0.901671 0.267490 0.633727
O O11 0.855569 0.389595 0.994036
O O12 0.000000 0.500000 0.000000
O O13 0.850175 0.106052 0.219917
O O14 0.782889 0.983278 0.804378
O O15 0.842243 0.843917 0.467860
O O16 0.000000 0.000000 0.500000
#
# Coordination Sequence:
#
# PCOD9014327 Si02
#       7
#     2   2   2   2   2   2   2
#     4  11  25  48  70  99 154 184 225 303 348 414
#     4  11  25  47  75 107 138 182 246 283 345 428
#     4  11  25  47  74 109 133 188 244 278 355 423
#     4  10  21  41  67  94 132 177 228 285 347 418
#     4  10  24  44  62 103 136 178 234 280 356 412
#     4  11  23  43  72 100 134 184 239 285 336 426
#     4  10  24  44  62  99 139 179 224 287 360 396
#
# _framework density 22.156269999999999
#
# number of rings (size 3 to 8) (size 9 to 14) (size 15 to 20)
#    0.000    1.429    1.429    2.143    2.000    6.857 
#   20.571    0.000    0.000    0.000    0.000    0.000 
#    0.000    0.000    0.000    0.000    0.000    0.000 
#
# Total GULP energy -78006.670462 kJ/mol
# GULP energy per Si atom -5571.905033 kJ/mol
# Density = 2.210584 g / cm^3
# Si number density = 22.156270 Si / 1000 Ang^3
#
#
#
# Elastic Constant Matrix: (Units=GPa)
#
#
# Indices 1 2 3 4 5 6 
#
# 1 70.9540 26.1497 37.1557 8.6480 3.6715 -8.9159
# 2 26.1497 99.8982 42.5707 -15.7153 -2.3303 -7.7777
# 3 37.1557 42.5707 107.5394 -7.3002 6.7366 4.4070
# 4 8.6480 -15.7153 -7.3002 52.7068 3.3395 -2.0084
# 5 3.6715 -2.3303 6.7366 3.3395 23.1183 -1.0881
# 6 -8.9159 -7.7777 4.4070 -2.0084 -1.0881 41.5890
#
#
#
# Elastic Compliance Matrix: (Units=1/GPa)
#
#
# Indices 1 2 3 4 5 6 
#
# 1 0.019436 -0.002994 -0.005964 -0.004706 -0.000783 0.003991
# 2 -0.002994 0.013507 -0.004324 0.003850 0.002663 0.002598
# 3 -0.005964 -0.004324 0.013572 0.001678 -0.003853 -0.003545
# 4 -0.004706 0.003850 0.001678 0.021297 -0.002406 0.000499
# 5 -0.000783 0.002663 -0.003853 -0.002406 0.045204 0.001805
# 6 0.003991 0.002598 -0.003545 0.000499 0.001805 0.025833
#
#
# Mechanical properties :
#
#
# Convention : Reuss Voigt Hill
#
# Bulk Modulus (GPa) = 50.12569 54.46043 52.29306
# Shear Modulus (GPa) = 29.05922 34.98384 32.02153
#
# Velocity S-wave (km/s) = 3.62547 3.97792 3.80578
# Velocity P-wave (km/s) = 6.34021 6.76254 6.55478
#
# Compressibility (1/GPa) = 0.01994985
#
# Stress axis : x y z
#
# Youngs Moduli (GPa) = 51.45166 74.03758 73.68172
#
# Poissons Ratio (x) = 0.22166 0.43944
# Poissons Ratio (y) = 0.15404 0.31862
# Poissons Ratio (z) = 0.30686 0.32016
#
# Static dielectric constant tensor:
#      x y z
#    x 1.838180 -0.036030 -0.004520 
#    y -0.036030 1.840110 -0.011720 
#    z -0.004520 -0.011720 1.840500 
# 
# From -- ./inp_files/7741.got.cif
#   From: 2010.05.17/outbox.cif.g08.bks.cpg/sg2_4_cif.got.tgz:7741.got - 2010.06.03 11:33:40.
