data_PCOD9014849
_publ_section_title
;
Structure prediction by ZEFSAII (Michael W. Deem and Ramdas Pophale) SiO2 
 PCOD9014849
Probable space group: P -1
;
_chemical_formula_sum "Si O2"
_cell_formula_units_Z 14
_cell_length_a 12.960532
_cell_length_b 12.243467
_cell_length_c 14.266101
_cell_angle_alpha 148.888176
_cell_angle_beta 147.894364
_cell_angle_gamma 47.139502
_cell_volume 613.273924
_symmetry_space_group_name_H-M "P -1"
_symmetry_group_IT_number 2
_symmetry_cell_setting 'triclinic'
loop_
_space_group_symop_operation_xyz
x,y,z
-x,-y,-z
loop_
_atom_site_type_symbol
_atom_site_label
_atom_site_fract_x
_atom_site_fract_y
_atom_site_fract_z
Si Si1 0.110493 0.223782 0.791321
Si Si2 0.907449 0.323824 0.886595
Si Si3 0.813350 0.780102 0.735252
Si Si4 0.129894 0.059362 0.297677
Si Si5 0.474266 0.883364 0.995624
Si Si6 0.048361 0.602277 0.508878
Si Si7 0.467655 0.674340 0.525988
O O1 0.337703 0.238504 0.948113
O O2 0.067168 0.228882 0.874630
O O3 0.030195 0.436484 0.848911
O O4 0.000000 0.000000 0.500000
O O5 0.821738 0.149420 0.768234
O O6 0.739187 0.357946 0.708981
O O7 0.964574 0.611738 0.718960
O O8 0.631114 0.666302 0.568422
O O9 0.749820 0.843059 0.628622
O O10 0.919986 0.979629 0.024800
O O11 0.101330 0.228381 0.480982
O O12 0.503229 0.085583 0.235562
O O13 0.266041 0.735354 0.751088
O O14 0.500000 0.000000 0.000000
O O15 0.000000 0.500000 0.500000
O O16 0.500000 0.500000 0.500000
#
# Coordination Sequence:
#
# PCOD9014849 Si02
#       7
#     2   2   2   2   2   2   2
#     4  11  24  42  62  97 138 173 217 278 341 393
#     4  11  25  41  64  97 135 173 221 278 336 395
#     4  10  22  41  67  93 130 172 222 267 325 398
#     4  10  22  41  66  96 127 174 223 267 326 397
#     4  12  23  41  67  96 132 171 225 279 327 403
#     4  10  21  41  69  96 130 175 222 272 330 398
#     4  12  25  42  66  98 134 173 222 278 341 397
#
# _framework density 22.828296999999999
#
# number of rings (size 3 to 8) (size 9 to 14) (size 15 to 20)
#    0.000    1.143    2.857    3.429    4.000    2.857 
#    0.000    0.000    0.000    2.571    0.000    0.000 
#    0.000    0.000    0.000    0.000    0.000    0.000 
#
# Total GULP energy -78114.323938 kJ/mol
# GULP energy per Si atom -5579.594567 kJ/mol
# Density = 2.277634 g / cm^3
# Si number density = 22.828297 Si / 1000 Ang^3
#
#
#
# Elastic Constant Matrix: (Units=GPa)
#
#
# Indices 1 2 3 4 5 6 
#
# 1 142.8046 51.1962 26.9838 15.4789 19.4779 4.6859
# 2 51.1962 94.2823 17.0869 29.3484 3.9817 15.8004
# 3 26.9838 17.0869 84.1278 28.7433 -3.4689 4.3378
# 4 15.4789 29.3484 28.7433 39.8560 -7.1192 1.6176
# 5 19.4779 3.9817 -3.4689 -7.1192 46.9566 19.2837
# 6 4.6859 15.8004 4.3378 1.6176 19.2837 37.0251
#
#
#
# Elastic Compliance Matrix: (Units=1/GPa)
#
#
# Indices 1 2 3 4 5 6 
#
# 1 0.010141 -0.005905 -0.002986 0.001398 -0.005522 0.004401
# 2 -0.005905 0.018503 0.003011 -0.012705 0.002582 -0.008291
# 3 -0.002986 0.003011 0.016828 -0.012784 0.001578 -0.003142
# 4 0.001398 -0.012705 -0.012784 0.044005 0.005400 0.002007
# 5 -0.005522 0.002582 0.001578 0.005400 0.031346 -0.017150
# 6 0.004401 -0.008291 -0.003142 0.002007 -0.017150 0.039202
#
#
# Mechanical properties :
#
#
# Convention : Reuss Voigt Hill
#
# Bulk Modulus (GPa) = 29.66370 56.86095 43.26233
# Shear Modulus (GPa) = 27.31919 39.83071 33.57495
#
# Velocity S-wave (km/s) = 3.46312 4.18161 3.83921
# Velocity P-wave (km/s) = 5.38641 6.94814 6.21651
#
# Compressibility (1/GPa) = 0.03371123
#
# Stress axis : x y z
#
# Youngs Moduli (GPa) = 98.61020 54.04661 59.42607
#
# Poissons Ratio (x) = 0.31915 0.17742
# Poissons Ratio (y) = 0.58230 -0.17892
# Poissons Ratio (z) = 0.29441 -0.16272
#
# Static dielectric constant tensor:
#      x y z
#    x 1.926430 -0.013670 -0.032100 
#    y -0.013670 1.900390 0.046710 
#    z -0.032100 0.046710 1.953630 
# 
# From -- ./inp_files/519432.got.cif
#   From: 2010.05.17/outbox.cif.g08.bks.cpg/sg2_260_cif.got.tgz:519432.got - 2010.06.03 11:33:40.
