data_PCOD9014797
_publ_section_title
;
Structure prediction by ZEFSAII (Michael W. Deem and Ramdas Pophale) SiO2 
 PCOD9014797
Probable space group: P -1
;
_chemical_formula_sum "Si O2"
_cell_formula_units_Z 12
_cell_length_a 10.478253
_cell_length_b 12.171013
_cell_length_c 4.830281
_cell_angle_alpha 76.552037
_cell_angle_beta 89.247191
_cell_angle_gamma 65.141152
_cell_volume 541.104104
_symmetry_space_group_name_H-M "P -1"
_symmetry_group_IT_number 2
_symmetry_cell_setting 'triclinic'
loop_
_space_group_symop_operation_xyz
x,y,z
-x,-y,-z
loop_
_atom_site_type_symbol
_atom_site_label
_atom_site_fract_x
_atom_site_fract_y
_atom_site_fract_z
Si Si1 0.004194 0.193323 0.801105
Si Si2 0.714158 0.608011 0.745321
Si Si3 0.714422 0.372637 0.552204
Si Si4 0.864759 0.058890 0.271459
Si Si5 0.117753 0.385903 0.736268
Si Si6 0.401585 0.702970 0.876776
O O1 0.056344 0.288067 0.882974
O O2 0.879122 0.279556 0.545486
O O3 0.135293 0.068348 0.769907
O O4 0.917234 0.136587 0.017418
O O5 0.284365 0.509769 0.356979
O O6 0.822025 0.573222 0.021193
O O7 0.761999 0.677054 0.465016
O O8 0.559236 0.682506 0.830867
O O9 0.631607 0.394590 0.255076
O O10 0.635234 0.316546 0.796744
O O11 0.712143 0.160698 0.305410
O O12 0.000000 0.000000 0.500000
O O13 0.000000 0.500000 0.500000
#
# Coordination Sequence:
#
# PCOD9014797 Si02
#       6
#     2   2   2   2   2   2
#     4  10  23  39  65  98 120 169 221 267 316 368
#     4  12  25  41  62  97 133 174 207 260 331 383
#     4  11  21  38  67  92 129 163 216 271 316 375
#     4  10  21  41  69  92 124 164 224 275 309 367
#     4  12  26  43  66  93 137 172 213 257 318 406
#     4  11  23  40  64  96 130 166 215 269 320 375
#
# _framework density 22.176880000000001
#
# number of rings (size 3 to 8) (size 9 to 14) (size 15 to 20)
#    0.000    1.000    3.333    3.500    2.333    0.000 
#    0.000    1.667    0.000    0.000    0.000    0.000 
#    0.000    0.000    0.000    0.000    0.000    0.000 
#
# Total GULP energy -67004.787992 kJ/mol
# GULP energy per Si atom -5583.732333 kJ/mol
# Density = 2.212640 g / cm^3
# Si number density = 22.176880 Si / 1000 Ang^3
#
#
#
# Elastic Constant Matrix: (Units=GPa)
#
#
# Indices 1 2 3 4 5 6 
#
# 1 97.7067 48.7776 10.1511 1.8783 5.7786 -11.5222
# 2 48.7776 118.5045 13.9858 -1.8083 7.5927 -5.1654
# 3 10.1511 13.9858 73.4832 16.3104 7.3679 3.4483
# 4 1.8783 -1.8083 16.3104 28.8815 2.3237 0.8657
# 5 5.7786 7.5927 7.3679 2.3237 35.4774 5.7945
# 6 -11.5222 -5.1654 3.4483 0.8657 5.7945 33.0541
#
#
#
# Elastic Compliance Matrix: (Units=1/GPa)
#
#
# Indices 1 2 3 4 5 6 
#
# 1 0.013522 -0.005202 -0.000746 -0.000785 -0.001581 0.004276
# 2 -0.005202 0.010906 -0.001699 0.002079 -0.001310 0.000243
# 3 -0.000746 -0.001699 0.016329 -0.009066 -0.002046 -0.001633
# 4 -0.000785 0.002079 -0.009066 0.040008 -0.001077 0.000138
# 5 -0.001581 -0.001310 -0.002046 -0.001077 0.030168 -0.005803
# 6 0.004276 0.000243 -0.001633 0.000138 -0.005803 0.032966
#
#
# Mechanical properties :
#
#
# Convention : Reuss Voigt Hill
#
# Bulk Modulus (GPa) = 39.27032 48.39149 43.83090
# Shear Modulus (GPa) = 29.81862 33.93459 31.87660
#
# Velocity S-wave (km/s) = 3.67083 3.91599 3.79539
# Velocity P-wave (km/s) = 5.97603 6.50498 6.24610
#
# Compressibility (1/GPa) = 0.02546453
#
# Stress axis : x y z
#
# Youngs Moduli (GPa) = 73.95303 91.68892 61.24125
#
# Poissons Ratio (x) = 0.47697 0.04567
# Poissons Ratio (y) = 0.38471 0.10402
# Poissons Ratio (z) = 0.05515 0.15574
#
# Static dielectric constant tensor:
#      x y z
#    x 1.878860 -0.048590 0.008440 
#    y -0.048590 1.956330 -0.005510 
#    z 0.008440 -0.005510 1.900950 
# 
# From -- ./inp_files/23380.got.cif
#   From: 2010.05.17/outbox.cif.g08.bks.cpg/sg2_12_cif.got.tgz:23380.got - 2010.06.03 11:33:40.
