data_PCOD9014531
_publ_section_title
;
Structure prediction by ZEFSAII (Michael W. Deem and Ramdas Pophale) SiO2 
 PCOD9014531
Probable space group: P -1
;
_chemical_formula_sum "Si O2"
_cell_formula_units_Z 14
_cell_length_a 11.578817
_cell_length_b 18.033850
_cell_length_c 5.023186
_cell_angle_alpha 95.867398
_cell_angle_beta 76.482869
_cell_angle_gamma 40.579910
_cell_volume 594.994974
_symmetry_space_group_name_H-M "P -1"
_symmetry_group_IT_number 2
_symmetry_cell_setting 'triclinic'
loop_
_space_group_symop_operation_xyz
x,y,z
-x,-y,-z
loop_
_atom_site_type_symbol
_atom_site_label
_atom_site_fract_x
_atom_site_fract_y
_atom_site_fract_z
Si Si1 0.839820 0.515475 0.674410
Si Si2 0.928166 0.193167 0.974994
Si Si3 0.659138 0.814408 0.299247
Si Si4 0.002696 0.705462 0.752164
Si Si5 0.156244 0.859961 0.485663
Si Si6 0.596046 0.681394 0.381919
Si Si7 0.706852 0.937537 0.624557
O O1 0.654648 0.613489 0.600507
O O2 0.000000 0.500000 0.500000
O O3 0.921030 0.389999 0.547059
O O4 0.753666 0.574838 0.033046
O O5 0.810214 0.216584 0.798991
O O6 0.144934 0.100801 0.686892
O O7 0.932608 0.134144 0.198764
O O8 0.852032 0.312234 0.171359
O O9 0.633395 0.749581 0.425740
O O10 0.630730 0.896243 0.547564
O O11 0.487712 0.911270 0.199644
O O12 0.877283 0.715965 0.018559
O O13 0.843685 0.845421 0.764377
O O14 0.370064 0.784004 0.436446
O O15 0.000000 0.000000 0.500000
#
# Coordination Sequence:
#
# PCOD9014531 Si02
#       7
#     2   2   2   2   2   2   2
#     4  12  26  46  73 104 148 185 235 286 352 425
#     4  11  24  44  71 100 135 183 238 279 357 403
#     4  10  22  38  67 106 138 175 231 297 357 426
#     4  11  23  42  73  97 144 183 233 287 359 406
#     4  12  26  49  73 102 144 188 235 294 347 418
#     4  12  27  45  71 107 139 185 241 285 356 413
#     4  10  21  41  68 105 137 180 229 293 360 420
#
# _framework density 23.529610000000002
#
# number of rings (size 3 to 8) (size 9 to 14) (size 15 to 20)
#    0.000    0.857    2.857    3.857    4.000    1.143 
#    0.000    4.286    0.000    0.000    0.000    0.000 
#    0.000    0.000    0.000    0.000    0.000    0.000 
#
# Total GULP energy -78296.668342 kJ/mol
# GULP energy per Si atom -5592.619167 kJ/mol
# Density = 2.347606 g / cm^3
# Si number density = 23.529610 Si / 1000 Ang^3
#
#
#
# Elastic Constant Matrix: (Units=GPa)
#
#
# Indices 1 2 3 4 5 6 
#
# 1 100.3491 24.6847 21.5753 -10.4236 -3.3662 6.4154
# 2 24.6847 83.5922 8.1636 -18.0236 -8.0156 -14.7569
# 3 21.5753 8.1636 54.2978 -18.7082 1.9022 4.6945
# 4 -10.4236 -18.0236 -18.7082 35.0293 1.4334 0.2984
# 5 -3.3662 -8.0156 1.9022 1.4334 36.3525 -8.6044
# 6 6.4154 -14.7569 4.6945 0.2984 -8.6044 25.1958
#
#
#
# Elastic Compliance Matrix: (Units=1/GPa)
#
#
# Indices 1 2 3 4 5 6 
#
# 1 0.012103 -0.004317 -0.003901 -0.000626 -0.000823 -0.005157
# 2 -0.004317 0.017897 0.000267 0.007686 0.006460 0.013647
# 3 -0.003901 0.000267 0.024694 0.012335 -0.003190 -0.004687
# 4 -0.000626 0.007686 0.012335 0.038892 -0.000100 0.001868
# 5 -0.000823 0.006460 -0.003190 -0.000100 0.032762 0.015777
# 6 -0.005157 0.013647 -0.004687 0.001868 0.015777 0.055234
#
#
# Mechanical properties :
#
#
# Convention : Reuss Voigt Hill
#
# Bulk Modulus (GPa) = 25.77905 38.56516 32.17210
# Shear Modulus (GPa) = 23.76242 31.56988 27.66615
#
# Velocity S-wave (km/s) = 3.18133 3.66691 3.43272
# Velocity P-wave (km/s) = 4.94715 5.86122 5.42348
#
# Compressibility (1/GPa) = 0.03879119
#
# Stress axis : x y z
#
# Youngs Moduli (GPa) = 82.62402 55.87386 40.49565
#
# Poissons Ratio (x) = 0.24122 0.15797
# Poissons Ratio (y) = 0.35671 -0.01079
# Poissons Ratio (z) = 0.32231 -0.01489
#
# Static dielectric constant tensor:
#      x y z
#    x 1.928100 -0.065790 0.027960 
#    y -0.065790 1.956680 -0.010200 
#    z 0.027960 -0.010200 1.894440 
# 
# From -- ./inp_files/70876.got.cif
#   From: 2010.05.17/outbox.cif.g08.bks.cpg/sg2_36_cif.got.tgz:70876.got - 2010.06.03 11:33:40.
