data_PCOD9014280
_publ_section_title
;
Structure prediction by ZEFSAII (Michael W. Deem and Ramdas Pophale) SiO2 
 PCOD9014280
Probable space group: P -1
;
_chemical_formula_sum "Si O2"
_cell_formula_units_Z 12
_cell_length_a 12.021869
_cell_length_b 8.832042
_cell_length_c 9.446303
_cell_angle_alpha 90.696568
_cell_angle_beta 146.089547
_cell_angle_gamma 73.983643
_cell_volume 491.914362
_symmetry_space_group_name_H-M "P -1"
_symmetry_group_IT_number 2
_symmetry_cell_setting 'triclinic'
loop_
_space_group_symop_operation_xyz
x,y,z
-x,-y,-z
loop_
_atom_site_type_symbol
_atom_site_label
_atom_site_fract_x
_atom_site_fract_y
_atom_site_fract_z
Si Si1 0.007314 0.842397 0.350965
Si Si2 0.503766 0.143482 0.807197
Si Si3 0.144332 0.401383 0.959693
Si Si4 0.475004 0.340495 0.528118
Si Si5 0.048214 0.331044 0.461528
Si Si6 0.631671 0.118749 0.445932
O O1 0.065818 0.759418 0.568194
O O2 0.175926 0.898050 0.457219
O O3 0.994294 0.697722 0.233229
O O4 0.758414 0.003584 0.104478
O O5 0.495339 0.302656 0.713654
O O6 0.318896 0.210518 0.736102
O O7 0.409622 0.044304 0.603583
O O8 0.228637 0.378161 0.209967
O O9 0.393969 0.283453 0.151021
O O10 0.042859 0.591049 0.788680
O O11 0.500000 0.500000 0.500000
O O12 0.657358 0.172039 0.633172
O O13 0.000000 0.500000 0.500000
#
# Coordination Sequence:
#
# PCOD9014280 Si02
#       6
#     2   2   2   2   2   2
#     4  10  21  41  67  92 128 170 209 253 319 376
#     4  11  23  42  64  94 132 163 211 262 314 373
#     4   8  21  41  60  96 127 165 204 265 308 366
#     4  10  23  42  66  96 127 164 211 261 319 375
#     4  10  22  40  66  92 128 171 208 261 313 368
#     4   9  22  42  63  97 125 165 209 257 318 374
#
# _framework density 24.394489
#
# number of rings (size 3 to 8) (size 9 to 14) (size 15 to 20)
#    1.000    1.333    0.000    1.000    4.667    4.000 
#    0.000    1.667    0.000    0.000    0.000    0.000 
#    0.000    0.000    0.000    0.000    0.000    0.000 
#
# Total GULP energy -67018.783498 kJ/mol
# GULP energy per Si atom -5584.898625 kJ/mol
# Density = 2.433897 g / cm^3
# Si number density = 24.394489 Si / 1000 Ang^3
#
#
#
# Elastic Constant Matrix: (Units=GPa)
#
#
# Indices 1 2 3 4 5 6 
#
# 1 93.1524 1.3975 11.3114 -3.6053 7.8756 27.1683
# 2 1.3975 69.8050 -0.2017 5.6151 2.6149 7.4124
# 3 11.3114 -0.2017 59.3036 -18.9112 1.4631 15.3266
# 4 -3.6053 5.6151 -18.9112 25.9667 -4.7754 -0.3821
# 5 7.8756 2.6149 1.4631 -4.7754 49.2889 -9.4482
# 6 27.1683 7.4124 15.3266 -0.3821 -9.4482 40.0702
#
#
#
# Elastic Compliance Matrix: (Units=1/GPa)
#
#
# Indices 1 2 3 4 5 6 
#
# 1 0.014313 0.000959 0.000683 0.001309 -0.004371 -0.011161
# 2 0.000959 0.015095 -0.000290 -0.003776 -0.002049 -0.003851
# 3 0.000683 -0.000290 0.025149 0.018138 -0.001018 -0.010096
# 4 0.001309 -0.003776 0.018138 0.053278 0.003504 -0.005793
# 5 -0.004371 -0.002049 -0.001018 0.003504 0.023238 0.009245
# 6 -0.011161 -0.003851 -0.010096 -0.005793 0.009245 0.039223
#
#
# Mechanical properties :
#
#
# Convention : Reuss Voigt Hill
#
# Bulk Modulus (GPa) = 17.46335 27.47503 22.46919
# Shear Modulus (GPa) = 26.78405 37.04876 31.91640
#
# Velocity S-wave (km/s) = 3.31714 3.90132 3.62103
# Velocity P-wave (km/s) = 4.67391 5.61970 5.16848
#
# Compressibility (1/GPa) = 0.05726277
#
# Stress axis : x y z
#
# Youngs Moduli (GPa) = 69.86527 66.24707 39.76230
#
# Poissons Ratio (x) = -0.06353 -0.02717
# Poissons Ratio (y) = -0.06700 0.01152
# Poissons Ratio (z) = -0.04773 0.01919
#
# Static dielectric constant tensor:
#      x y z
#    x 1.962530 -0.082740 -0.033020 
#    y -0.082740 1.979540 0.024560 
#    z -0.033020 0.024560 1.987240 
# 
# From -- ./inp_files/417228.got.cif
#   From: 2010.05.17/outbox.cif.g08.bks.cpg/sg2_209_cif.got.tgz:417228.got - 2010.06.03 11:33:40.
