data_PCOD9014719
_publ_section_title
;
Structure prediction by ZEFSAII (Michael W. Deem and Ramdas Pophale) SiO2 
 PCOD9014719
Probable space group: P -1
;
_chemical_formula_sum "Si O2"
_cell_formula_units_Z 16
_cell_length_a 27.283429
_cell_length_b 6.132488
_cell_length_c 29.475187
_cell_angle_alpha 61.331187
_cell_angle_beta 170.817340
_cell_angle_gamma 118.960128
_cell_volume 688.541040
_symmetry_space_group_name_H-M "P -1"
_symmetry_group_IT_number 2
_symmetry_cell_setting 'triclinic'
loop_
_space_group_symop_operation_xyz
x,y,z
-x,-y,-z
loop_
_atom_site_type_symbol
_atom_site_label
_atom_site_fract_x
_atom_site_fract_y
_atom_site_fract_z
Si Si1 0.246768 0.310504 0.729696
Si Si2 0.075577 0.753744 0.652128
Si Si3 0.764895 0.479143 0.480543
Si Si4 0.485532 0.555362 0.402228
Si Si5 0.094499 0.787857 0.073800
Si Si6 0.861209 0.831687 0.086605
Si Si7 0.966484 0.203077 0.851286
Si Si8 0.462450 0.665810 0.270179
O O1 0.000000 0.500000 0.500000
O O2 0.174012 0.271337 0.613677
O O3 0.174221 0.048275 0.715374
O O4 0.611496 0.377063 0.061773
O O5 0.937629 0.639506 0.583502
O O6 0.712670 0.641224 0.461971
O O7 0.957580 0.251771 0.695834
O O8 0.436961 0.361981 0.174291
O O9 0.132287 0.439500 0.092193
O O10 0.568364 0.690245 0.416993
O O11 0.689964 0.322270 0.612857
O O12 0.449182 0.723372 0.396962
O O13 0.033451 0.933615 0.956776
O O14 0.000000 0.000000 0.000000
O O15 0.071719 0.806655 0.236776
O O16 0.739704 0.105199 0.948712
O O17 0.254173 0.404239 0.103486
#
# Coordination Sequence:
#
# PCOD9014719 Si02
#       8
#     2   2   2   2   2   2   2   2
#     4  10  21  41  69 100 135 177 210 263 317 364
#     4  10  22  40  65 101 135 169 220 262 310 376
#     4  11  25  43  65  96 133 171 216 266 313 375
#     4  11  23  40  61  87 116 155 211 257 331 395
#     4  11  23  40  59  89 118 154 206 271 329 393
#     4  11  25  42  65  92 127 173 217 263 321 379
#     4  11  23  40  63  86 119 161 205 270 323 393
#     4  11  24  41  63  89 122 168 214 261 326 386
#
# _framework density 23.237539999999999
#
# number of rings (size 3 to 8) (size 9 to 14) (size 15 to 20)
#    0.000    1.250    3.750    1.500    1.750    3.500 
#    0.000    0.000    0.000    0.000    0.000    0.000 
#    0.000    0.000    0.000    0.000    0.000    0.000 
#
# Total GULP energy -89427.282616 kJ/mol
# GULP energy per Si atom -5589.205164 kJ/mol
# Density = 2.318465 g / cm^3
# Si number density = 23.237540 Si / 1000 Ang^3
#
#
#
# Elastic Constant Matrix: (Units=GPa)
#
#
# Indices 1 2 3 4 5 6 
#
# 1 102.7735 48.4446 24.4494 1.0037 25.1062 34.6768
# 2 48.4446 93.8210 40.0877 -29.4872 25.7127 18.9311
# 3 24.4494 40.0877 90.2733 -17.3572 15.4014 8.2907
# 4 1.0037 -29.4872 -17.3572 43.9441 -5.9910 1.6222
# 5 25.1062 25.7127 15.4014 -5.9910 34.4280 -1.4111
# 6 34.6768 18.9311 8.2907 1.6222 -1.4111 29.7777
#
#
#
# Elastic Compliance Matrix: (Units=1/GPa)
#
#
# Indices 1 2 3 4 5 6 
#
# 1 0.025107 -0.004229 -0.000514 -0.004921 -0.016881 -0.026937
# 2 -0.004229 0.023928 -0.004055 0.013428 -0.011063 -0.010414
# 3 -0.000514 -0.004055 0.014014 0.002526 -0.002466 -0.000980
# 4 -0.004921 0.013428 0.002526 0.032791 -0.002084 -0.005394
# 5 -0.016881 -0.011063 -0.002466 -0.002084 0.051586 0.029936
# 6 -0.026937 -0.010414 -0.000980 -0.005394 0.029936 0.073557
#
#
# Mechanical properties :
#
#
# Convention : Reuss Voigt Hill
#
# Bulk Modulus (GPa) = 22.00093 56.98125 39.49109
# Shear Modulus (GPa) = 19.70589 33.22238 26.46413
#
# Velocity S-wave (km/s) = 2.91524 3.78522 3.37835
# Velocity P-wave (km/s) = 4.56288 6.60896 5.67883
#
# Compressibility (1/GPa) = 0.04545262
#
# Stress axis : x y z
#
# Youngs Moduli (GPa) = 39.82991 41.79133 71.35829
#
# Poissons Ratio (x) = 0.17675 0.03669
# Poissons Ratio (y) = 0.16845 0.28934
# Poissons Ratio (z) = 0.02048 0.16945
#
# Static dielectric constant tensor:
#      x y z
#    x 1.986780 -0.237060 -0.026660 
#    y -0.237060 2.198390 0.008220 
#    z -0.026660 0.008220 1.877880 
# 
# From -- ./inp_files/11040.got.cif
#   From: 2010.05.17/outbox.cif.g08.bks.cpg/sg2_6_cif.got.tgz:11040.got - 2010.06.03 11:33:40.
