data_PCOD9014269
_publ_section_title
;
Structure prediction by ZEFSAII (Michael W. Deem and Ramdas Pophale) SiO2 
 PCOD9014269
Probable space group: P -1
;
_chemical_formula_sum "Si O2"
_cell_formula_units_Z 16
_cell_length_a 11.414326
_cell_length_b 7.789577
_cell_length_c 11.219177
_cell_angle_alpha 77.854729
_cell_angle_beta 120.879481
_cell_angle_gamma 126.443510
_cell_volume 682.225714
_symmetry_space_group_name_H-M "P -1"
_symmetry_group_IT_number 2
_symmetry_cell_setting 'triclinic'
loop_
_space_group_symop_operation_xyz
x,y,z
-x,-y,-z
loop_
_atom_site_type_symbol
_atom_site_label
_atom_site_fract_x
_atom_site_fract_y
_atom_site_fract_z
Si Si1 0.399143 0.092178 0.724051
Si Si2 0.991633 0.525176 0.632462
Si Si3 0.583304 0.753265 0.851778
Si Si4 0.055789 0.922109 0.928153
Si Si5 0.633190 0.174008 0.455538
Si Si6 0.090301 0.995852 0.666571
Si Si7 0.321410 0.686062 0.884773
Si Si8 0.274886 0.507686 0.137754
O O1 0.575256 0.294431 0.737984
O O2 0.308996 0.940209 0.585277
O O3 0.393613 0.926651 0.839959
O O4 0.287834 0.159101 0.717109
O O5 0.797100 0.358715 0.583109
O O6 0.046858 0.756841 0.672153
O O7 0.000000 0.500000 0.500000
O O8 0.139041 0.512269 0.759393
O O9 0.467241 0.764437 0.690603
O O10 0.458355 0.652373 0.913282
O O11 0.653098 0.625777 0.851413
O O12 0.751687 0.980289 0.952281
O O13 0.053197 0.014234 0.782661
O O14 0.911814 0.664342 0.887362
O O15 0.000000 0.000000 0.000000
O O16 0.500000 0.000000 0.500000
O O17 0.000000 0.000000 0.500000
O O18 0.283878 0.641422 0.009412
#
# Coordination Sequence:
#
# PCOD9014269 Si02
#       8
#     2   2   2   2   2   2   2   2
#     4  10  23  43  61  99 133 175 231 277 336 413
#     4  11  22  44  65 100 133 178 238 269 342 414
#     4  10  22  43  66  95 131 180 231 275 340 411
#     4  10  25  45  63 104 141 171 229 289 350 394
#     4  11  25  43  66  96 141 183 223 283 345 409
#     4  11  25  44  74  98 138 185 231 281 336 422
#     4  10  21  41  67  91 133 178 223 277 334 421
#     4  11  23  39  67  96 131 171 225 288 341 387
#
# _framework density 23.452649000000001
#
# number of rings (size 3 to 8) (size 9 to 14) (size 15 to 20)
#    0.000    1.500    3.750    1.500    5.250    8.000 
#    0.000    6.250    0.000    0.000    0.000    0.000 
#    0.000    0.000    0.000    0.000    0.000    0.000 
#
# Total GULP energy -89207.923966 kJ/mol
# GULP energy per Si atom -5575.495248 kJ/mol
# Density = 2.339927 g / cm^3
# Si number density = 23.452649 Si / 1000 Ang^3
#
#
#
# Elastic Constant Matrix: (Units=GPa)
#
#
# Indices 1 2 3 4 5 6 
#
# 1 92.8335 28.3280 46.4932 -2.1923 6.5543 23.3500
# 2 28.3280 108.7591 33.1598 27.8019 20.3941 33.3209
# 3 46.4932 33.1598 76.0358 22.8643 7.3421 19.2685
# 4 -2.1923 27.8019 22.8643 40.0319 16.5847 5.8576
# 5 6.5543 20.3941 7.3421 16.5847 43.7276 11.0655
# 6 23.3500 33.3209 19.2685 5.8576 11.0655 38.9390
#
#
#
# Elastic Compliance Matrix: (Units=1/GPa)
#
#
# Indices 1 2 3 4 5 6 
#
# 1 0.019757 -0.002323 -0.013399 0.012299 -0.003241 -0.004158
# 2 -0.002323 0.015355 0.000100 -0.009011 -0.000830 -0.010204
# 3 -0.013399 0.000100 0.027291 -0.017943 0.005288 -0.004359
# 4 0.012299 -0.009011 -0.017943 0.047078 -0.014032 0.006120
# 5 -0.003241 -0.000830 0.005288 -0.014032 0.029773 -0.006313
# 6 -0.004158 -0.010204 -0.004359 0.006120 -0.006313 0.039937
#
#
# Mechanical properties :
#
#
# Convention : Reuss Voigt Hill
#
# Bulk Modulus (GPa) = 32.09512 54.84339 43.46926
# Shear Modulus (GPa) = 22.64282 35.84953 29.24618
#
# Velocity S-wave (km/s) = 3.11057 3.91396 3.53516
# Velocity P-wave (km/s) = 5.15904 6.62276 5.93619
#
# Compressibility (1/GPa) = 0.03115738
#
# Stress axis : x y z
#
# Youngs Moduli (GPa) = 50.61611 65.12676 36.64246
#
# Poissons Ratio (x) = 0.15129 0.49098
# Poissons Ratio (y) = 0.11758 -0.00366
# Poissons Ratio (z) = 0.67821 -0.00650
#
# Static dielectric constant tensor:
#      x y z
#    x 1.909940 -0.100150 -0.093020 
#    y -0.100150 1.811190 -0.165550 
#    z -0.093020 -0.165550 1.629830 
# 
# From -- ./inp_files/419369.got.cif
#   From: 2010.05.17/outbox.cif.g08.bks.cpg/sg2_210_cif.got.tgz:419369.got - 2010.06.03 11:33:40.
