data_PCOD9014152
_publ_section_title
;
Structure prediction by ZEFSAII (Michael W. Deem and Ramdas Pophale) SiO2 
 PCOD9014152
Probable space group: P -1
;
_chemical_formula_sum "Si O2"
_cell_formula_units_Z 16
_cell_length_a 15.551882
_cell_length_b 8.979927
_cell_length_c 13.706142
_cell_angle_alpha 129.985564
_cell_angle_beta 146.542431
_cell_angle_gamma 46.918409
_cell_volume 758.089076
_symmetry_space_group_name_H-M "P -1"
_symmetry_group_IT_number 2
_symmetry_cell_setting 'triclinic'
loop_
_space_group_symop_operation_xyz
x,y,z
-x,-y,-z
loop_
_atom_site_type_symbol
_atom_site_label
_atom_site_fract_x
_atom_site_fract_y
_atom_site_fract_z
Si Si1 0.137169 0.295983 0.497724
Si Si2 0.393182 0.184945 0.403720
Si Si3 0.368644 0.050881 0.122387
Si Si4 0.217541 0.352910 0.965565
Si Si5 0.452405 0.585288 0.702095
Si Si6 0.957118 0.796583 0.846649
Si Si7 0.509779 0.634107 0.156022
Si Si8 0.695089 0.948456 0.265878
O O1 0.075876 0.223778 0.309133
O O2 0.310731 0.335829 0.655458
O O3 0.000000 0.500000 0.500000
O O4 0.185291 0.130805 0.561713
O O5 0.441194 0.147954 0.320358
O O6 0.397138 0.409854 0.527751
O O7 0.209402 0.186411 0.246513
O O8 0.500000 0.000000 0.500000
O O9 0.511616 0.963196 0.137786
O O10 0.361777 0.850270 0.088486
O O11 0.204118 0.202642 0.978058
O O12 0.087847 0.576185 0.912293
O O13 0.251816 0.212479 0.840866
O O14 0.382092 0.393588 0.176550
O O15 0.509875 0.490013 0.821909
O O16 0.321920 0.818237 0.681008
O O17 0.000000 0.000000 0.000000
O O18 0.500000 0.500000 0.000000
#
# Coordination Sequence:
#
# PCOD9014152 Si02
#       8
#     2   2   2   2   2   2   2   2
#     4  11  22  43  66  93 132 176 218 274 330 391
#     4  12  23  44  65  93 131 174 226 273 322 397
#     4  10  22  38  65  94 131 172 216 268 327 397
#     4  11  23  42  65  98 136 170 213 277 335 392
#     4  11  21  38  68  95 127 169 218 275 320 388
#     4  12  27  44  67  95 138 180 218 272 342 397
#     4  11  21  37  66  96 123 167 222 267 326 387
#     4  10  21  41  66  99 132 165 220 274 336 384
#
# _framework density 21.105698
#
# number of rings (size 3 to 8) (size 9 to 14) (size 15 to 20)
#    0.000    1.000    3.750    5.250    0.000    3.500 
#    0.000    3.750    0.000    0.000    0.000    0.000 
#    0.000    0.000    0.000    0.000    0.000    0.000 
#
# Total GULP energy -89269.452162 kJ/mol
# GULP energy per Si atom -5579.340760 kJ/mol
# Density = 2.105766 g / cm^3
# Si number density = 21.105698 Si / 1000 Ang^3
#
#
#
# Elastic Constant Matrix: (Units=GPa)
#
#
# Indices 1 2 3 4 5 6 
#
# 1 53.3558 38.4563 19.2637 -1.6498 -19.0670 3.8880
# 2 38.4563 214.8010 63.1829 -4.3862 -15.0380 15.1509
# 3 19.2637 63.1829 105.2844 12.2283 -17.7198 -3.7875
# 4 -1.6498 -4.3862 12.2283 43.1235 1.9237 -10.5821
# 5 -19.0670 -15.0380 -17.7198 1.9237 37.9158 -7.2712
# 6 3.8880 15.1509 -3.7875 -10.5821 -7.2712 38.1694
#
#
#
# Elastic Compliance Matrix: (Units=1/GPa)
#
#
# Indices 1 2 3 4 5 6 
#
# 1 0.025589 -0.003682 -0.000591 0.000537 0.011316 0.001101
# 2 -0.003682 0.006496 -0.003695 0.001002 -0.001549 -0.002587
# 3 -0.000591 -0.003695 0.013217 -0.003690 0.005138 0.002794
# 4 0.000537 0.001002 -0.003690 0.025918 -0.001195 0.006139
# 5 0.011316 -0.001549 0.005138 -0.001195 0.035126 0.006332
# 6 0.001101 -0.002587 0.002794 0.006139 0.006332 0.030300
#
#
# Mechanical properties :
#
#
# Convention : Reuss Voigt Hill
#
# Bulk Modulus (GPa) = 34.05124 68.36076 51.20600
# Shear Modulus (GPa) = 30.79379 40.67763 35.73571
#
# Velocity S-wave (km/s) = 3.82387 4.39490 4.11929
# Velocity P-wave (km/s) = 5.97199 7.62978 6.85121
#
# Compressibility (1/GPa) = 0.02936751
#
# Stress axis : x y z
#
# Youngs Moduli (GPa) = 39.07878 153.94093 75.65896
#
# Poissons Ratio (x) = 0.56682 0.04469
# Poissons Ratio (y) = 0.14389 0.27954
# Poissons Ratio (z) = 0.02308 0.56878
#
# Static dielectric constant tensor:
#      x y z
#    x 1.451130 -0.051430 0.121090 
#    y -0.051430 1.926110 0.075160 
#    z 0.121090 0.075160 1.759010 
# 
# From -- ./inp_files/514726.got.cif
#   From: 2010.05.17/outbox.cif.g08.bks.cpg/sg2_258_cif.got.tgz:514726.got - 2010.06.03 11:33:40.
