data_PCOD9014735
_publ_section_title
;
Structure prediction by ZEFSAII (Michael W. Deem and Ramdas Pophale) SiO2 
 PCOD9014735
Probable space group: P -1
;
_chemical_formula_sum "Si O2"
_cell_formula_units_Z 16
_cell_length_a 5.537977
_cell_length_b 23.023613
_cell_length_c 11.352242
_cell_angle_alpha 26.867095
_cell_angle_beta 102.601028
_cell_angle_gamma 96.784492
_cell_volume 628.712118
_symmetry_space_group_name_H-M "P -1"
_symmetry_group_IT_number 2
_symmetry_cell_setting 'triclinic'
loop_
_space_group_symop_operation_xyz
x,y,z
-x,-y,-z
loop_
_atom_site_type_symbol
_atom_site_label
_atom_site_fract_x
_atom_site_fract_y
_atom_site_fract_z
Si Si1 0.803334 0.434356 0.524068
Si Si2 0.599549 0.633834 0.796869
Si Si3 0.005622 0.766596 0.291739
Si Si4 0.027987 0.899746 0.519019
Si Si5 0.260266 0.110404 0.275508
Si Si6 0.553783 0.314027 0.925731
Si Si7 0.914093 0.282648 0.334713
Si Si8 0.500465 0.865209 0.173659
O O1 0.925727 0.357706 0.561998
O O2 0.697131 0.341093 0.774040
O O3 0.565405 0.551304 0.266688
O O4 0.000000 0.500000 0.500000
O O5 0.385861 0.688657 0.768878
O O6 0.566416 0.740960 0.494291
O O7 0.898882 0.625987 0.866345
O O8 0.500000 0.500000 0.000000
O O9 0.058888 0.719925 0.517277
O O10 0.217798 0.854055 0.126241
O O11 0.716267 0.842118 0.136724
O O12 0.996223 0.859318 0.455832
O O13 0.804399 0.869703 0.630647
O O14 0.064818 0.043363 0.302161
O O15 0.255814 0.791463 0.789893
O O16 0.500000 0.000000 0.500000
O O17 0.324251 0.242392 0.994828
O O18 0.500000 0.000000 0.000000
#
# Coordination Sequence:
#
# PCOD9014735 Si02
#       8
#     2   2   2   2   2   2   2   2
#     4  11  25  46  69  96 140 189 243 292 356 421
#     4  10  22  43  62  99 144 182 226 280 356 430
#     4  10  24  46  72 103 139 186 239 293 360 431
#     4  10  21  41  69 101 137 179 230 296 362 429
#     4   9  20  41  64  97 137 180 233 285 355 421
#     4  10  23  43  67 100 135 183 239 298 350 424
#     4  10  23  42  69 104 138 179 227 291 363 430
#     4  10  22  46  70 100 143 186 238 291 358 439
#
# _framework density 25.448851999999999
#
# number of rings (size 3 to 8) (size 9 to 14) (size 15 to 20)
#    0.000    2.000    0.000    1.500    7.000    2.000 
#   15.750   10.000    0.000    0.000    0.000    0.000 
#    0.000    0.000    0.000    0.000    0.000    0.000 
#
# Total GULP energy -89350.336301 kJ/mol
# GULP energy per Si atom -5584.396019 kJ/mol
# Density = 2.539093 g / cm^3
# Si number density = 25.448852 Si / 1000 Ang^3
#
#
#
# Elastic Constant Matrix: (Units=GPa)
#
#
# Indices 1 2 3 4 5 6 
#
# 1 188.5633 49.7354 31.1023 -11.2608 -27.5891 -41.5263
# 2 49.7354 169.4683 44.0427 -27.8941 -0.3526 -47.9644
# 3 31.1023 44.0427 94.8382 -18.6406 -4.6075 -4.8065
# 4 -11.2608 -27.8941 -18.6406 36.4689 7.2405 14.9778
# 5 -27.5891 -0.3526 -4.6075 7.2405 50.4024 -6.1298
# 6 -41.5263 -47.9644 -4.8065 14.9778 -6.1298 40.0660
#
#
#
# Elastic Compliance Matrix: (Units=1/GPa)
#
#
# Indices 1 2 3 4 5 6 
#
# 1 0.009346 0.001273 -0.003605 -0.005070 0.007199 0.013775
# 2 0.001273 0.010623 -0.004525 0.000165 0.002005 0.013739
# 3 -0.003605 -0.004525 0.014702 0.008028 -0.003136 -0.010870
# 4 -0.005070 0.000165 0.008028 0.040751 -0.010439 -0.020925
# 5 0.007199 0.002005 -0.003136 -0.010439 0.027141 0.017540
# 6 0.013775 0.013739 -0.010870 -0.020925 0.017540 0.064885
#
#
# Mechanical properties :
#
#
# Convention : Reuss Voigt Hill
#
# Bulk Modulus (GPa) = 47.71278 78.07009 62.89144
# Shear Modulus (GPa) = 26.57487 47.25340 36.91414
#
# Velocity S-wave (km/s) = 3.23499 4.31373 3.81270
# Velocity P-wave (km/s) = 5.72212 7.45352 6.64446
#
# Compressibility (1/GPa) = 0.02095875
#
# Stress axis : x y z
#
# Youngs Moduli (GPa) = 106.99552 94.13641 68.01584
#
# Poissons Ratio (x) = -0.11986 0.24519
# Poissons Ratio (y) = -0.13623 0.30775
# Poissons Ratio (z) = 0.38571 0.42594
#
# Static dielectric constant tensor:
#      x y z
#    x 2.545690 0.286300 0.317940 
#    y 0.286300 2.126550 0.157600 
#    z 0.317940 0.157600 2.279180 
# 
# From -- ./inp_files/370273.got.cif
#   From: 2010.05.17/outbox.cif.g08.bks.cpg/sg2_186_cif.got.tgz:370273.got - 2010.06.03 11:33:40.
