data_PCOD9014932
_publ_section_title
;
Structure prediction by ZEFSAII (Michael W. Deem and Ramdas Pophale) SiO2 
 PCOD9014932
Probable space group: P -1
;
_chemical_formula_sum "Si O2"
_cell_formula_units_Z 16
_cell_length_a 10.742139
_cell_length_b 11.373117
_cell_length_c 11.540526
_cell_angle_alpha 134.151871
_cell_angle_beta 131.693257
_cell_angle_gamma 60.191004
_cell_volume 753.885297
_symmetry_space_group_name_H-M "P -1"
_symmetry_group_IT_number 2
_symmetry_cell_setting 'triclinic'
loop_
_space_group_symop_operation_xyz
x,y,z
-x,-y,-z
loop_
_atom_site_type_symbol
_atom_site_label
_atom_site_fract_x
_atom_site_fract_y
_atom_site_fract_z
Si Si1 0.877880 0.159704 0.895314
Si Si2 0.067041 0.018492 0.687078
Si Si3 0.183129 0.452940 0.621559
Si Si4 0.329270 0.503466 0.970646
Si Si5 0.343481 0.273123 0.040705
Si Si6 0.329079 0.415237 0.356457
Si Si7 0.725274 0.295274 0.314315
Si Si8 0.210422 0.168158 0.265490
O O1 0.943948 0.102712 0.768443
O O2 0.791232 0.013175 0.808896
O O3 0.748187 0.317143 0.918791
O O4 0.038175 0.194785 0.101417
O O5 0.136333 0.847687 0.671843
O O6 0.230869 0.122628 0.849346
O O7 0.000000 0.000000 0.500000
O O8 0.200106 0.430117 0.751425
O O9 0.273083 0.615841 0.748473
O O10 0.233187 0.287778 0.470505
O O11 0.000000 0.500000 0.500000
O O12 0.500000 0.500000 0.000000
O O13 0.348612 0.388051 0.012690
O O14 0.255275 0.380938 0.163113
O O15 0.537729 0.234999 0.171658
O O16 0.500000 0.500000 0.500000
O O17 0.237150 0.551163 0.473801
O O18 0.344390 0.238323 0.307837
#
# Coordination Sequence:
#
# PCOD9014932 Si02
#       8
#     2   2   2   2   2   2   2   2
#     4  11  25  44  70  99 141 181 231 291 352 411
#     4  12  28  44  68 109 142 182 235 297 350 414
#     4  11  21  40  71  99 132 179 232 285 338 416
#     4  12  27  46  68 102 140 182 234 288 349 420
#     4  11  24  44  71  97 144 188 233 288 357 414
#     4   9  20  41  68 103 131 182 234 283 339 419
#     4  10  23  44  70  96 141 184 235 282 347 421
#     4  10  21  41  70 102 132 180 235 281 346 413
#
# _framework density 21.223386999999999
#
# number of rings (size 3 to 8) (size 9 to 14) (size 15 to 20)
#    0.000    1.250    3.750    1.125    7.000    0.500 
#    4.500    0.625    0.000    0.000    0.000    0.000 
#    0.000    0.000    0.000    0.000    0.000    0.000 
#
# Total GULP energy -89198.387378 kJ/mol
# GULP energy per Si atom -5574.899211 kJ/mol
# Density = 2.117508 g / cm^3
# Si number density = 21.223387 Si / 1000 Ang^3
#
#
#
# Elastic Constant Matrix: (Units=GPa)
#
#
# Indices 1 2 3 4 5 6 
#
# 1 93.6928 38.8762 34.9948 7.3561 -6.5258 14.0545
# 2 38.8762 94.0576 45.5009 3.5401 -16.4761 10.4682
# 3 34.9948 45.5009 106.1556 -4.7868 -6.5102 6.6956
# 4 7.3561 3.5401 -4.7868 32.1323 12.7809 2.9657
# 5 -6.5258 -16.4761 -6.5102 12.7809 45.7848 3.4973
# 6 14.0545 10.4682 6.6956 2.9657 3.4973 33.9732
#
#
#
# Elastic Compliance Matrix: (Units=1/GPa)
#
#
# Indices 1 2 3 4 5 6 
#
# 1 0.014279 -0.003589 -0.002974 -0.003591 0.001634 -0.004070
# 2 -0.003589 0.016195 -0.005404 -0.003835 0.005825 -0.002705
# 3 -0.002974 -0.005404 0.012775 0.003808 -0.001631 0.000213
# 4 -0.003591 -0.003835 0.003808 0.037662 -0.011852 -0.000151
# 5 0.001634 0.005825 -0.001631 -0.011852 0.027549 -0.003951
# 6 -0.004070 -0.002705 0.000213 -0.000151 -0.003951 0.032330
#
#
# Mechanical properties :
#
#
# Convention : Reuss Voigt Hill
#
# Bulk Modulus (GPa) = 51.76933 59.18330 55.47632
# Shear Modulus (GPa) = 29.21216 34.01367 31.61292
#
# Velocity S-wave (km/s) = 3.71403 4.00765 3.86363
# Velocity P-wave (km/s) = 6.54504 7.02577 6.78966
#
# Compressibility (1/GPa) = 0.01931646
#
# Stress axis : x y z
#
# Youngs Moduli (GPa) = 70.03068 61.74747 78.27874
#
# Poissons Ratio (x) = 0.22161 0.23280
# Poissons Ratio (y) = 0.25133 0.42298
# Poissons Ratio (z) = 0.20827 0.33365
#
# Static dielectric constant tensor:
#      x y z
#    x 1.892220 0.012820 -0.028510 
#    y 0.012820 1.755620 -0.003410 
#    z -0.028510 -0.003410 1.726040 
# 
# From -- ./inp_files/429131.got.cif
#   From: 2010.05.17/outbox.cif.g08.bks.cpg/sg2_215_cif.got.tgz:429131.got - 2010.06.03 11:33:40.
