data_PCOD9014776
_publ_section_title
;
Structure prediction by ZEFSAII (Michael W. Deem and Ramdas Pophale) SiO2 
 PCOD9014776
Probable space group: P -1
;
_chemical_formula_sum "Si O2"
_cell_formula_units_Z 14
_cell_length_a 11.876669
_cell_length_b 7.183469
_cell_length_c 9.991380
_cell_angle_alpha 91.847181
_cell_angle_beta 99.783337
_cell_angle_gamma 41.761493
_cell_volume 553.651564
_symmetry_space_group_name_H-M "P -1"
_symmetry_group_IT_number 2
_symmetry_cell_setting 'triclinic'
loop_
_space_group_symop_operation_xyz
x,y,z
-x,-y,-z
loop_
_atom_site_type_symbol
_atom_site_label
_atom_site_fract_x
_atom_site_fract_y
_atom_site_fract_z
Si Si1 0.866369 0.903055 0.499153
Si Si2 0.187209 0.366781 0.024431
Si Si3 0.454497 0.766358 0.175552
Si Si4 0.369416 0.498506 0.517468
Si Si5 0.716193 0.346015 0.989601
Si Si6 0.188580 0.396576 0.397050
Si Si7 0.156157 0.133162 0.802203
O O1 0.785573 0.853511 0.583320
O O2 0.778568 0.980896 0.337570
O O3 0.068004 0.603738 0.508520
O O4 0.817444 0.170952 0.532599
O O5 0.181238 0.595432 0.027210
O O6 0.235030 0.223441 0.883024
O O7 0.000000 0.500000 0.000000
O O8 0.326472 0.098567 0.143652
O O9 0.579907 0.616998 0.323754
O O10 0.559179 0.619353 0.053881
O O11 0.345810 0.704988 0.148128
O O12 0.500000 0.500000 0.500000
O O13 0.351285 0.331270 0.426638
O O14 0.805766 0.087996 0.100770
O O15 0.050071 0.597834 0.257389
#
# Coordination Sequence:
#
# PCOD9014776 Si02
#       7
#     2   2   2   2   2   2   2
#     4   9  20  40  61  88 118 159 212 240 291 364
#     4  11  25  39  63  95 119 155 202 260 313 349
#     4  10  23  42  59  93 120 163 207 241 304 366
#     4  12  25  38  61  94 128 162 196 250 312 357
#     4  10  21  41  69  85 121 163 205 254 291 363
#     4   9  21  38  63  89 119 162 203 246 292 360
#     4   9  20  38  65  90 114 159 208 247 296 356
#
# _framework density 25.286663999999998
#
# number of rings (size 3 to 8) (size 9 to 14) (size 15 to 20)
#    0.857    1.143    1.429    0.857    2.000    8.571 
#    0.000    0.000    0.000    0.000    0.000    0.000 
#    0.000    0.000    0.000    0.000    0.000    0.000 
#
# Total GULP energy -78242.379307 kJ/mol
# GULP energy per Si atom -5588.741379 kJ/mol
# Density = 2.522911 g / cm^3
# Si number density = 25.286664 Si / 1000 Ang^3
#
#
#
# Elastic Constant Matrix: (Units=GPa)
#
#
# Indices 1 2 3 4 5 6 
#
# 1 100.5091 20.4317 23.5443 -14.3064 7.0288 37.6573
# 2 20.4317 103.6083 24.6543 -29.8646 8.9726 15.7942
# 3 23.5443 24.6543 101.9044 -20.2243 18.1023 21.8756
# 4 -14.3064 -29.8646 -20.2243 37.1361 -2.2098 -1.6045
# 5 7.0288 8.9726 18.1023 -2.2098 30.0865 5.9220
# 6 37.6573 15.7942 21.8756 -1.6045 5.9220 56.2054
#
#
#
# Elastic Compliance Matrix: (Units=1/GPa)
#
#
# Indices 1 2 3 4 5 6 
#
# 1 0.014215 0.000209 -0.000137 0.005103 -0.001102 -0.009267
# 2 0.000209 0.013383 -0.000022 0.010533 -0.002600 -0.003317
# 3 -0.000137 -0.000022 0.013220 0.006556 -0.006615 -0.004164
# 4 0.005103 0.010533 0.006556 0.040387 -0.003861 -0.007371
# 5 -0.001102 -0.002600 -0.006615 -0.003861 0.037980 -0.000069
# 6 -0.009267 -0.003317 -0.004164 -0.007371 -0.000069 0.026350
#
#
# Mechanical properties :
#
#
# Convention : Reuss Voigt Hill
#
# Bulk Modulus (GPa) = 24.43923 49.25358 36.84641
# Shear Modulus (GPa) = 31.43214 40.51170 35.97192
#
# Velocity S-wave (km/s) = 3.52949 4.00696 3.77578
# Velocity P-wave (km/s) = 5.12792 6.39750 5.79757
#
# Compressibility (1/GPa) = 0.04091782
#
# Stress axis : x y z
#
# Youngs Moduli (GPa) = 70.35029 74.72370 75.64380
#
# Poissons Ratio (x) = -0.01558 0.01034
# Poissons Ratio (y) = -0.01467 0.00163
# Poissons Ratio (z) = 0.00962 0.00161
#
# Static dielectric constant tensor:
#      x y z
#    x 2.074740 -0.136090 -0.079590 
#    y -0.136090 2.060940 0.096450 
#    z -0.079590 0.096450 2.007670 
# 
# From -- ./inp_files/409201.got.cif
#   From: 2010.05.17/outbox.cif.g08.bks.cpg/sg2_205_cif.got.tgz:409201.got - 2010.06.03 11:33:40.
