data_PCOD9014400
_publ_section_title
;
Structure prediction by ZEFSAII (Michael W. Deem and Ramdas Pophale) SiO2 
 PCOD9014400
Probable space group: P -1
;
_chemical_formula_sum "Si O2"
_cell_formula_units_Z 16
_cell_length_a 7.992453
_cell_length_b 6.694174
_cell_length_c 18.028531
_cell_angle_alpha 108.789021
_cell_angle_beta 55.054606
_cell_angle_gamma 124.106048
_cell_volume 654.669383
_symmetry_space_group_name_H-M "P -1"
_symmetry_group_IT_number 2
_symmetry_cell_setting 'triclinic'
loop_
_space_group_symop_operation_xyz
x,y,z
-x,-y,-z
loop_
_atom_site_type_symbol
_atom_site_label
_atom_site_fract_x
_atom_site_fract_y
_atom_site_fract_z
Si Si1 0.311976 0.007470 0.350852
Si Si2 0.142408 0.784087 0.157315
Si Si3 0.512093 0.509104 0.598253
Si Si4 0.056665 0.990783 0.654311
Si Si5 0.058358 0.513678 0.572557
Si Si6 0.772084 0.235625 0.031725
Si Si7 0.374417 0.500560 0.797718
Si Si8 0.439193 0.134721 0.843402
O O1 0.500851 0.029589 0.245542
O O2 0.097986 0.048692 0.384101
O O3 0.165243 0.722551 0.368373
O O4 0.459514 0.226499 0.394728
O O5 0.317040 0.725835 0.154720
O O6 0.088898 0.971956 0.238287
O O7 0.878238 0.571708 0.183612
O O8 0.253012 0.857203 0.056675
O O9 0.286049 0.248044 0.618434
O O10 0.705711 0.501002 0.496011
O O11 0.530444 0.529025 0.688398
O O12 0.094044 0.762129 0.627738
O O13 0.000000 0.500000 0.500000
O O14 0.585337 0.298252 0.126179
O O15 0.758565 0.032584 0.067558
O O16 0.000000 0.500000 0.000000
O O17 0.369966 0.290407 0.825755
#
# Coordination Sequence:
#
# PCOD9014400 Si02
#       8
#     2   2   2   2   2   2   2   2
#     4  11  24  44  67  99 136 180 230 284 348 416
#     4   9  22  42  65  97 136 171 229 286 335 410
#     4  11  22  45  69  95 140 183 222 293 348 400
#     4  10  24  45  64  96 139 177 232 286 341 415
#     4  12  24  42  68  99 134 180 235 283 345 419
#     4  10  21  41  67  96 138 174 228 288 338 415
#     4  10  22  43  67  97 135 179 228 283 341 418
#     4  11  22  40  68  97 134 185 224 277 359 402
#
# _framework density 24.439816
#
# number of rings (size 3 to 8) (size 9 to 14) (size 15 to 20)
#    0.000    1.500    2.500    1.875    0.000    3.000 
#    6.750    5.000    0.000    0.000    0.000    0.000 
#    0.000    0.000    0.000    0.000    0.000    0.000 
#
# Total GULP energy -89161.688047 kJ/mol
# GULP energy per Si atom -5572.605503 kJ/mol
# Density = 2.438419 g / cm^3
# Si number density = 24.439816 Si / 1000 Ang^3
#
#
#
# Elastic Constant Matrix: (Units=GPa)
#
#
# Indices 1 2 3 4 5 6 
#
# 1 69.2903 40.3026 11.3280 -1.5903 1.7868 11.9614
# 2 40.3026 144.9235 57.8283 -9.7596 -9.8687 23.5712
# 3 11.3280 57.8283 131.9442 -0.7865 8.3665 18.6720
# 4 -1.5903 -9.7596 -0.7865 49.7909 7.8443 -3.7967
# 5 1.7868 -9.8687 8.3665 7.8443 36.4761 -4.0503
# 6 11.9614 23.5712 18.6720 -3.7967 -4.0503 30.1457
#
#
#
# Elastic Compliance Matrix: (Units=1/GPa)
#
#
# Indices 1 2 3 4 5 6 
#
# 1 0.018009 -0.005105 0.001527 -0.000266 -0.003061 -0.004545
# 2 -0.005105 0.010776 -0.004033 0.001084 0.003491 -0.003297
# 3 0.001527 -0.004033 0.010060 -0.000295 -0.003881 -0.004242
# 4 -0.000266 0.001084 -0.000295 0.021028 -0.003976 0.001555
# 5 -0.003061 0.003491 -0.003881 -0.003976 0.030757 0.004520
# 6 -0.004545 -0.003297 -0.004242 0.001555 0.004520 0.040984
#
#
# Mechanical properties :
#
#
# Convention : Reuss Voigt Hill
#
# Bulk Modulus (GPa) = 42.33102 62.78620 52.55861
# Shear Modulus (GPa) = 32.31853 39.06249 35.69051
#
# Velocity S-wave (km/s) = 3.64039 4.00223 3.82559
# Velocity P-wave (km/s) = 5.91845 6.86316 6.40824
#
# Compressibility (1/GPa) = 0.02362334
#
# Stress axis : x y z
#
# Youngs Moduli (GPa) = 55.52815 92.79900 99.40240
#
# Poissons Ratio (x) = 0.47370 -0.15176
# Poissons Ratio (y) = 0.28345 0.40089
# Poissons Ratio (z) = -0.08478 0.37426
#
# Static dielectric constant tensor:
#      x y z
#    x 2.083350 -0.069790 0.022940 
#    y -0.069790 1.825550 0.039830 
#    z 0.022940 0.039830 1.919980 
# 
# From -- ./inp_files/585771.got.cif
#   From: 2010.05.17/outbox.cif.g08.bks.cpg/sg2_293_cif.got.tgz:585771.got - 2010.06.03 11:33:40.
