data_PCOD9014616
_publ_section_title
;
Structure prediction by ZEFSAII (Michael W. Deem and Ramdas Pophale) SiO2 
 PCOD9014616
Probable space group: P -1
;
_chemical_formula_sum "Si O2"
_cell_formula_units_Z 16
_cell_length_a 18.610436
_cell_length_b 9.429502
_cell_length_c 11.593110
_cell_angle_alpha 130.206871
_cell_angle_beta 149.841773
_cell_angle_gamma 60.651266
_cell_volume 768.210241
_symmetry_space_group_name_H-M "P -1"
_symmetry_group_IT_number 2
_symmetry_cell_setting 'triclinic'
loop_
_space_group_symop_operation_xyz
x,y,z
-x,-y,-z
loop_
_atom_site_type_symbol
_atom_site_label
_atom_site_fract_x
_atom_site_fract_y
_atom_site_fract_z
Si Si1 0.098281 0.511029 0.469572
Si Si2 0.198493 0.141002 0.921141
Si Si3 0.632757 0.543670 0.291937
Si Si4 0.605704 0.552166 0.782331
Si Si5 0.358645 0.095349 0.346611
Si Si6 0.889564 0.195174 0.556998
Si Si7 0.200106 0.699649 0.950341
Si Si8 0.596571 0.207846 0.234584
O O1 0.221035 0.392286 0.543998
O O2 0.074931 0.618959 0.375604
O O3 0.169908 0.647157 0.745325
O O4 0.948703 0.392438 0.243055
O O5 0.048262 0.151031 0.784686
O O6 0.175778 0.966426 0.710389
O O7 0.252249 0.317770 0.006090
O O8 0.319819 0.130885 0.179399
O O9 0.625214 0.709214 0.459412
O O10 0.628350 0.335197 0.230578
O O11 0.500000 0.500000 0.000000
O O12 0.500000 0.500000 0.500000
O O13 0.505817 0.669658 0.777735
O O14 0.669460 0.396475 0.864702
O O15 0.500000 0.000000 0.500000
O O16 0.235819 0.924517 0.131687
O O17 0.768128 0.197019 0.489350
O O18 0.500000 0.000000 0.000000
#
# Coordination Sequence:
#
# PCOD9014616 Si02
#       8
#     2   2   2   2   2   2   2   2
#     4  10  21  42  68  95 128 173 217 270 323 388
#     4  11  22  41  66  97 129 171 218 262 334 387
#     4  11  25  44  65  94 133 171 218 269 331 388
#     4  12  24  41  62  99 132 168 217 272 321 387
#     4  12  25  43  67  96 131 175 218 271 325 389
#     4  10  21  41  68  95 132 170 211 272 330 385
#     4  11  23  42  69  95 130 173 226 262 322 392
#     4  11  23  41  66  98 125 168 217 270 323 389
#
# _framework density 20.827632000000001
#
# number of rings (size 3 to 8) (size 9 to 14) (size 15 to 20)
#    0.000    1.000    3.750    3.750    1.750    1.500 
#    4.500    1.875    0.000    0.000    0.000    0.000 
#    0.000    0.000    0.000    0.000    0.000    0.000 
#
# Total GULP energy -89159.486303 kJ/mol
# GULP energy per Si atom -5572.467894 kJ/mol
# Density = 2.078023 g / cm^3
# Si number density = 20.827632 Si / 1000 Ang^3
#
#
#
# Elastic Constant Matrix: (Units=GPa)
#
#
# Indices 1 2 3 4 5 6 
#
# 1 65.5211 21.5850 28.7044 -6.1361 32.8855 -6.9188
# 2 21.5850 80.9177 23.1512 3.8226 10.3646 3.5319
# 3 28.7044 23.1512 70.1556 -5.1761 17.3364 -2.9021
# 4 -6.1361 3.8226 -5.1761 41.1695 2.3005 10.9926
# 5 32.8855 10.3646 17.3364 2.3005 32.0901 -8.2740
# 6 -6.9188 3.5319 -2.9021 10.9926 -8.2740 26.8778
#
#
#
# Elastic Compliance Matrix: (Units=1/GPa)
#
#
# Indices 1 2 3 4 5 6 
#
# 1 0.036949 -0.004167 -0.004394 0.008716 -0.036082 -0.005088
# 2 -0.004167 0.014550 -0.003590 -0.001874 0.001057 -0.002281
# 3 -0.004394 -0.003590 0.018585 0.002615 -0.004882 -0.001225
# 4 0.008716 -0.001874 0.002615 0.030900 -0.015749 -0.014714
# 5 -0.036082 0.001057 -0.004882 -0.015749 0.076749 0.020113
# 6 -0.005088 -0.002281 -0.001225 -0.014714 0.020113 0.048273
#
#
# Mechanical properties :
#
#
# Convention : Reuss Voigt Hill
#
# Bulk Modulus (GPa) = 21.84288 40.38617 31.11453
# Shear Modulus (GPa) = 18.82760 29.57104 24.19932
#
# Velocity S-wave (km/s) = 3.00987 3.77211 3.41234
# Velocity P-wave (km/s) = 4.75283 6.19714 5.52240
#
# Compressibility (1/GPa) = 0.04578151
#
# Stress axis : x y z
#
# Youngs Moduli (GPa) = 27.06464 68.73010 53.80685
#
# Poissons Ratio (x) = 0.28641 0.23641
# Poissons Ratio (y) = 0.11278 0.19317
# Poissons Ratio (z) = 0.11891 0.24675
#
# Static dielectric constant tensor:
#      x y z
#    x 1.793660 -0.042710 0.054060 
#    y -0.042710 1.823610 -0.033650 
#    z 0.054060 -0.033650 1.778910 
# 
# From -- ./inp_files/262779.got.cif
#   From: 2010.05.17/outbox.cif.g08.bks.cpg/sg2_132_cif.got.tgz:262779.got - 2010.06.03 11:33:40.
