data_PCOD9014137
_publ_section_title
;
Structure prediction by ZEFSAII (Michael W. Deem and Ramdas Pophale) SiO2 
 PCOD9014137
Probable space group: P -1
;
_chemical_formula_sum "Si O2"
_cell_formula_units_Z 16
_cell_length_a 5.679327
_cell_length_b 12.395020
_cell_length_c 11.885370
_cell_angle_alpha 72.459518
_cell_angle_beta 116.995990
_cell_angle_gamma 100.972820
_cell_volume 709.433699
_symmetry_space_group_name_H-M "P -1"
_symmetry_group_IT_number 2
_symmetry_cell_setting 'triclinic'
loop_
_space_group_symop_operation_xyz
x,y,z
-x,-y,-z
loop_
_atom_site_type_symbol
_atom_site_label
_atom_site_fract_x
_atom_site_fract_y
_atom_site_fract_z
Si Si1 0.323824 0.831056 0.762049
Si Si2 0.120429 0.090227 0.083599
Si Si3 0.443770 0.628557 0.411702
Si Si4 0.562315 0.186314 0.458606
Si Si5 0.056189 0.686655 0.939345
Si Si6 0.098413 0.006443 0.361086
Si Si7 0.134287 0.424262 0.648345
Si Si8 0.423967 0.492525 0.116223
O O1 0.575177 0.868221 0.881078
O O2 0.404820 0.783229 0.674753
O O3 0.150522 0.738477 0.823646
O O4 0.174017 0.945807 0.671782
O O5 0.109838 0.034818 0.222452
O O6 0.970776 0.205055 0.022168
O O7 0.000000 0.000000 0.000000
O O8 0.500000 0.500000 0.500000
O O9 0.491499 0.713510 0.500077
O O10 0.658321 0.651521 0.350569
O O11 0.123984 0.630179 0.323942
O O12 0.320943 0.091327 0.440217
O O13 0.825254 0.121321 0.566358
O O14 0.780065 0.615533 0.881745
O O15 0.255064 0.602266 0.062394
O O16 0.322539 0.497834 0.751504
O O17 0.000000 0.500000 0.500000
O O18 0.500000 0.500000 0.000000
#
# Coordination Sequence:
#
# PCOD9014137 Si02
#       8
#     2   2   2   2   2   2   2   2
#     4  10  21  41  67 100 130 184 240 288 363 429
#     4  10  22  42  62  98 135 179 229 295 360 427
#     4  10  24  44  65 104 143 189 228 291 363 434
#     4  10  21  41  66  98 139 182 234 294 355 437
#     4  10  24  42  69 102 131 188 240 299 358 436
#     4   9  21  39  65  98 132 179 237 293 355 427
#     4  10  25  47  69 103 146 187 237 294 368 426
#     4  11  25  47  72 102 141 186 243 301 356 444
#
# _framework density 22.553201999999999
#
# number of rings (size 3 to 8) (size 9 to 14) (size 15 to 20)
#    0.000    2.000    0.000    1.125    5.250   11.000 
#   11.250    0.000    0.000    0.000    0.000    0.000 
#    0.000    0.000    0.000    0.000    0.000    0.000 
#
# Total GULP energy -89406.908093 kJ/mol
# GULP energy per Si atom -5587.931756 kJ/mol
# Density = 2.250187 g / cm^3
# Si number density = 22.553202 Si / 1000 Ang^3
#
#
#
# Elastic Constant Matrix: (Units=GPa)
#
#
# Indices 1 2 3 4 5 6 
#
# 1 149.8441 54.9289 39.8197 15.3279 -4.1063 3.5840
# 2 54.9289 155.8230 62.1931 21.7382 -1.6289 -19.5604
# 3 39.8197 62.1931 100.3696 21.3554 8.2852 6.6153
# 4 15.3279 21.7382 21.3554 43.3269 -1.7602 4.3670
# 5 -4.1063 -1.6289 8.2852 -1.7602 25.5607 -4.5862
# 6 3.5840 -19.5604 6.6153 4.3670 -4.5862 36.8493
#
#
#
# Elastic Compliance Matrix: (Units=1/GPa)
#
#
# Indices 1 2 3 4 5 6 
#
# 1 0.008089 -0.002240 -0.001694 -0.000703 0.001404 -0.001413
# 2 -0.002240 0.011091 -0.006320 -0.002311 0.003666 0.007970
# 3 -0.001694 -0.006320 0.016448 -0.003975 -0.007465 -0.006601
# 4 -0.000703 -0.002311 -0.003975 0.026878 0.002279 -0.003347
# 5 0.001404 0.003666 -0.007465 0.002279 0.043650 0.008312
# 6 -0.001413 0.007970 -0.006601 -0.003347 0.008312 0.034122
#
#
# Mechanical properties :
#
#
# Convention : Reuss Voigt Hill
#
# Bulk Modulus (GPa) = 66.13672 79.99113 73.06393
# Shear Modulus (GPa) = 30.15212 37.75370 33.95291
#
# Velocity S-wave (km/s) = 3.66038 4.09587 3.88423
# Velocity P-wave (km/s) = 6.87407 7.61006 7.25141
#
# Compressibility (1/GPa) = 0.01512019
#
# Stress axis : x y z
#
# Youngs Moduli (GPa) = 123.62207 90.16538 60.79627
#
# Poissons Ratio (x) = 0.20196 0.10301
# Poissons Ratio (y) = 0.27690 0.38422
# Poissons Ratio (z) = 0.20947 0.56982
#
# Static dielectric constant tensor:
#      x y z
#    x 1.927390 -0.006450 0.000210 
#    y -0.006450 1.821720 -0.044210 
#    z 0.000210 -0.044210 1.832040 
# 
# From -- ./inp_files/364395.got.cif
#   From: 2010.05.17/outbox.cif.g08.bks.cpg/sg2_183_cif.got.tgz:364395.got - 2010.06.03 11:33:40.
