data_PCOD9014344
_publ_section_title
;
Structure prediction by ZEFSAII (Michael W. Deem and Ramdas Pophale) SiO2 
 PCOD9014344
Probable space group: P -1
;
_chemical_formula_sum "Si O2"
_cell_formula_units_Z 14
_cell_length_a 22.655437
_cell_length_b 8.525017
_cell_length_c 13.795342
_cell_angle_alpha 54.871171
_cell_angle_beta 153.841995
_cell_angle_gamma 140.950522
_cell_volume 665.227585
_symmetry_space_group_name_H-M "P -1"
_symmetry_group_IT_number 2
_symmetry_cell_setting 'triclinic'
loop_
_space_group_symop_operation_xyz
x,y,z
-x,-y,-z
loop_
_atom_site_type_symbol
_atom_site_label
_atom_site_fract_x
_atom_site_fract_y
_atom_site_fract_z
Si Si1 0.766615 0.710855 0.152820
Si Si2 0.611668 0.919912 0.167998
Si Si3 0.755276 0.674630 0.722998
Si Si4 0.108284 0.779994 0.342433
Si Si5 0.116329 0.813319 0.712955
Si Si6 0.678004 0.694929 0.814187
Si Si7 0.069945 0.710921 0.109278
O O1 0.922154 0.720983 0.421198
O O2 0.805773 0.961005 0.168743
O O3 0.550989 0.412265 0.962118
O O4 0.780152 0.726851 0.050111
O O5 0.755970 0.054824 0.423667
O O6 0.733674 0.047123 0.203972
O O7 0.500000 0.000000 0.000000
O O8 0.702993 0.597725 0.787426
O O9 0.547652 0.501552 0.430531
O O10 0.870636 0.611446 0.880034
O O11 0.886042 0.994844 0.771439
O O12 0.938919 0.460216 0.239836
O O13 0.167192 0.736149 0.343210
O O14 0.778912 0.993145 0.823522
O O15 0.000000 0.500000 0.000000
#
# Coordination Sequence:
#
# PCOD9014344 Si02
#       7
#     2   2   2   2   2   2   2
#     4  11  24  44  68  95 136 171 215 270 329 381
#     4  12  25  42  65  99 131 174 223 264 316 392
#     4  10  23  41  69  96 123 169 220 265 320 387
#     4  11  22  45  65  97 128 173 222 263 319 382
#     4  11  26  43  65  99 132 175 215 269 329 378
#     4  10  21  41  67  95 125 169 216 264 321 383
#     4  11  25  43  64  99 134 166 212 270 329 388
#
# _framework density 21.04543
#
# number of rings (size 3 to 8) (size 9 to 14) (size 15 to 20)
#    0.000    1.143    2.857    3.429    4.000    0.571 
#    2.571    0.000    0.000    0.000    0.000    0.000 
#    0.000    0.000    0.000    0.000    0.000    0.000 
#
# Total GULP energy -78044.046092 kJ/mol
# GULP energy per Si atom -5574.574721 kJ/mol
# Density = 2.099753 g / cm^3
# Si number density = 21.045430 Si / 1000 Ang^3
#
#
#
# Elastic Constant Matrix: (Units=GPa)
#
#
# Indices 1 2 3 4 5 6 
#
# 1 115.0323 53.5274 46.3590 0.4348 -7.5329 -7.8767
# 2 53.5274 116.3548 49.0178 16.8442 -6.2810 18.7690
# 3 46.3590 49.0178 72.0807 10.4737 -10.9940 -7.4130
# 4 0.4348 16.8442 10.4737 35.3516 7.1881 -4.1784
# 5 -7.5329 -6.2810 -10.9940 7.1881 39.6187 1.2759
# 6 -7.8767 18.7690 -7.4130 -4.1784 1.2759 39.7302
#
#
#
# Elastic Compliance Matrix: (Units=1/GPa)
#
#
# Indices 1 2 3 4 5 6 
#
# 1 0.013708 -0.005589 -0.005332 0.004813 -0.000790 0.004895
# 2 -0.005589 0.017819 -0.008475 -0.007559 0.001167 -0.011939
# 3 -0.005332 -0.008475 0.025068 -0.003503 0.005006 0.007095
# 4 0.004813 -0.007559 -0.003503 0.035408 -0.007932 0.007850
# 5 -0.000790 0.001167 0.005006 -0.007932 0.028152 -0.001512
# 6 0.004895 -0.011939 0.007095 0.007850 -0.001512 0.033978
#
#
# Mechanical properties :
#
#
# Convention : Reuss Voigt Hill
#
# Bulk Modulus (GPa) = 56.16919 66.80847 61.48883
# Shear Modulus (GPa) = 25.14335 33.24435 29.19385
#
# Velocity S-wave (km/s) = 3.46022 3.97879 3.72853
# Velocity P-wave (km/s) = 6.53541 7.27472 6.91495
#
# Compressibility (1/GPa) = 0.01780335
#
# Stress axis : x y z
#
# Youngs Moduli (GPa) = 72.95024 56.12034 39.89132
#
# Poissons Ratio (x) = 0.31364 0.21271
# Poissons Ratio (y) = 0.40770 0.33807
# Poissons Ratio (z) = 0.38899 0.47560
#
# Static dielectric constant tensor:
#      x y z
#    x 1.755520 -0.011280 0.012110 
#    y -0.011280 1.768510 -0.021190 
#    z 0.012110 -0.021190 1.800570 
# 
# From -- ./inp_files/469924.got.cif
#   From: 2010.05.17/outbox.cif.g08.bks.cpg/sg2_235_cif.got.tgz:469924.got - 2010.06.03 11:33:40.
