data_PCOD9014968
_publ_section_title
;
Structure prediction by ZEFSAII (Michael W. Deem and Ramdas Pophale) SiO2 
 PCOD9014968
Probable space group: P -1
;
_chemical_formula_sum "Si O2"
_cell_formula_units_Z 16
_cell_length_a 14.874552
_cell_length_b 10.431368
_cell_length_c 14.256034
_cell_angle_alpha 68.858661
_cell_angle_beta 29.764617
_cell_angle_gamma 50.635885
_cell_volume 737.787323
_symmetry_space_group_name_H-M "P -1"
_symmetry_group_IT_number 2
_symmetry_cell_setting 'triclinic'
loop_
_space_group_symop_operation_xyz
x,y,z
-x,-y,-z
loop_
_atom_site_type_symbol
_atom_site_label
_atom_site_fract_x
_atom_site_fract_y
_atom_site_fract_z
Si Si1 0.585292 0.311480 0.153169
Si Si2 0.554027 0.925469 0.202627
Si Si3 0.159273 0.617585 0.971576
Si Si4 0.462455 0.321487 0.603655
Si Si5 0.329992 0.214348 0.060987
Si Si6 0.996006 0.871827 0.889945
Si Si7 0.706036 0.658961 0.743358
Si Si8 0.185886 0.440203 0.627103
O O1 0.645931 0.420915 0.121240
O O2 0.436263 0.386229 0.171095
O O3 0.408956 0.317512 0.382608
O O4 0.842372 0.093522 0.962126
O O5 0.484629 0.865772 0.368230
O O6 0.391263 0.144118 0.264209
O O7 0.563450 0.821421 0.130384
O O8 0.827224 0.845191 0.999209
O O9 0.294479 0.470928 0.800333
O O10 0.020972 0.814812 0.990906
O O11 0.965796 0.619774 0.198333
O O12 0.728502 0.255588 0.368773
O O13 0.311366 0.412892 0.619360
O O14 0.343914 0.313666 0.107410
O O15 0.032336 0.347497 0.275592
O O16 0.500000 0.000000 0.000000
O O17 0.000000 0.500000 0.500000
#
# Coordination Sequence:
#
# PCOD9014968 Si02
#       8
#     2   2   2   2   2   2   2   2
#     4  11  26  42  62  95 134 178 213 261 325 387
#     4  10  22  42  68  98 129 169 212 271 327 381
#     4  12  24  39  65  98 134 171 213 263 326 394
#     4  12  24  39  69 104 132 165 214 268 332 392
#     4  10  21  41  70  92 124 170 224 271 316 375
#     4  11  24  41  62  98 142 171 206 262 329 399
#     4  10  21  42  69  90 123 178 224 264 316 376
#     4  12  23  40  71  96 129 173 215 264 328 387
#
# _framework density 21.686468000000001
#
# number of rings (size 3 to 8) (size 9 to 14) (size 15 to 20)
#    0.000    1.000    5.000    1.875    1.750    2.500 
#    0.000    0.625    5.500    9.000    0.000    0.000 
#    0.000    0.000    0.000    0.000    0.000    0.000 
#
# Total GULP energy -89348.614741 kJ/mol
# GULP energy per Si atom -5584.288421 kJ/mol
# Density = 2.163711 g / cm^3
# Si number density = 21.686468 Si / 1000 Ang^3
#
#
#
# Elastic Constant Matrix: (Units=GPa)
#
#
# Indices 1 2 3 4 5 6 
#
# 1 187.1600 20.6867 37.7038 -0.5629 -9.5134 -8.0272
# 2 20.6867 50.5473 20.5240 1.2530 -14.4109 -23.5053
# 3 37.7038 20.5240 93.6749 -7.4421 -19.4498 -3.5974
# 4 -0.5629 1.2530 -7.4421 34.9772 -1.8639 -9.8215
# 5 -9.5134 -14.4109 -19.4498 -1.8639 31.8229 6.4820
# 6 -8.0272 -23.5053 -3.5974 -9.8215 6.4820 29.2477
#
#
#
# Elastic Compliance Matrix: (Units=1/GPa)
#
#
# Indices 1 2 3 4 5 6 
#
# 1 0.005935 -0.001638 -0.002112 -0.000307 -0.000278 0.000012
# 2 -0.001638 0.038620 -0.004330 0.006660 0.008551 0.030396
# 3 -0.002112 -0.004330 0.013959 0.002620 0.006693 -0.002946
# 4 -0.000307 0.006660 0.002620 0.033615 0.003201 0.016169
# 5 -0.000278 0.008551 0.006693 0.003201 0.039503 -0.000061
# 6 0.000012 0.030396 -0.002946 0.016169 -0.000061 0.063703
#
#
# Mechanical properties :
#
#
# Convention : Reuss Voigt Hill
#
# Bulk Modulus (GPa) = 23.61091 54.35676 38.98384
# Shear Modulus (GPa) = 22.16196 36.04073 29.10135
#
# Velocity S-wave (km/s) = 3.20023 4.08106 3.66719
# Velocity P-wave (km/s) = 4.95644 6.87939 5.99551
#
# Compressibility (1/GPa) = 0.04235330
#
# Stress axis : x y z
#
# Youngs Moduli (GPa) = 168.49572 25.89356 71.64059
#
# Poissons Ratio (x) = 0.04241 0.15128
# Poissons Ratio (y) = 0.27597 0.31023
# Poissons Ratio (z) = 0.35580 0.11213
#
# Static dielectric constant tensor:
#      x y z
#    x 1.817120 0.011920 0.008110 
#    y 0.011920 1.853910 0.021040 
#    z 0.008110 0.021040 1.748560 
# 
# From -- ./inp_files/332161.got.cif
#   From: 2010.05.17/outbox.cif.g08.bks.cpg/sg2_167_cif.got.tgz:332161.got - 2010.06.03 11:33:40.
