data_PCOD9014577
_publ_section_title
;
Structure prediction by ZEFSAII (Michael W. Deem and Ramdas Pophale) SiO2 
 PCOD9014577
Probable space group: P -1
;
_chemical_formula_sum "Si O2"
_cell_formula_units_Z 16
_cell_length_a 12.404872
_cell_length_b 8.107131
_cell_length_c 7.901457
_cell_angle_alpha 123.158788
_cell_angle_beta 94.453231
_cell_angle_gamma 92.878044
_cell_volume 659.123534
_symmetry_space_group_name_H-M "P -1"
_symmetry_group_IT_number 2
_symmetry_cell_setting 'triclinic'
loop_
_space_group_symop_operation_xyz
x,y,z
-x,-y,-z
loop_
_atom_site_type_symbol
_atom_site_label
_atom_site_fract_x
_atom_site_fract_y
_atom_site_fract_z
Si Si1 0.820277 0.035550 0.320022
Si Si2 0.663990 0.724924 0.962695
Si Si3 0.397890 0.258879 0.394975
Si Si4 0.977617 0.814018 0.764648
Si Si5 0.202984 0.006209 0.310869
Si Si6 0.323578 0.505990 0.837143
Si Si7 0.085416 0.591552 0.921876
Si Si8 0.383899 0.841484 0.783165
O O1 0.940234 0.128586 0.346552
O O2 0.804244 0.987189 0.485657
O O3 0.733942 0.183725 0.336395
O O4 0.782920 0.840202 0.090576
O O5 0.637063 0.563812 0.014444
O O6 0.596380 0.918314 0.065668
O O7 0.646454 0.645908 0.727882
O O8 0.369944 0.369078 0.623091
O O9 0.522501 0.236052 0.361192
O O10 0.326312 0.047453 0.289451
O O11 0.015249 0.632038 0.770362
O O12 0.858006 0.819659 0.682636
O O13 0.000000 0.000000 0.000000
O O14 0.142370 0.800178 0.121595
O O15 0.191667 0.486690 0.825484
O O16 0.365819 0.720106 0.886299
O O17 0.000000 0.500000 0.000000
#
# Coordination Sequence:
#
# PCOD9014577 Si02
#       8
#     2   2   2   2   2   2   2   2
#     4  10  21  44  68 102 136 187 238 295 352 428
#     4  10  24  43  73 100 144 190 241 291 358 427
#     4  12  24  45  76 106 143 199 237 294 364 428
#     4  10  21  41  68  92 136 182 234 295 356 418
#     4  11  24  42  74 100 138 193 240 289 370 430
#     4  12  25  46  70 109 147 184 243 305 357 429
#     4  11  26  45  70 105 144 185 241 306 364 434
#     4  10  24  47  73 104 151 187 245 299 353 427
#
# _framework density 24.274660000000001
#
# number of rings (size 3 to 8) (size 9 to 14) (size 15 to 20)
#    0.750    0.500    2.500    3.375    5.250    4.500 
#    0.000    1.250    0.000    0.000    0.000    0.000 
#    0.000    0.000    0.000    0.000    0.000    0.000 
#
# Total GULP energy -89440.115926 kJ/mol
# GULP energy per Si atom -5590.007245 kJ/mol
# Density = 2.421941 g / cm^3
# Si number density = 24.274660 Si / 1000 Ang^3
#
#
#
# Elastic Constant Matrix: (Units=GPa)
#
#
# Indices 1 2 3 4 5 6 
#
# 1 98.4037 38.1892 14.5154 7.5693 -38.7101 24.5457
# 2 38.1892 140.3117 16.1814 -30.1268 -19.0778 4.8134
# 3 14.5154 16.1814 58.8972 -16.3808 -16.7872 2.4544
# 4 7.5693 -30.1268 -16.3808 40.4634 9.5994 -3.3458
# 5 -38.7101 -19.0778 -16.7872 9.5994 35.6021 -4.8791
# 6 24.5457 4.8134 2.4544 -3.3458 -4.8791 28.1086
#
#
#
# Elastic Compliance Matrix: (Units=1/GPa)
#
#
# Indices 1 2 3 4 5 6 
#
# 1 0.039298 -0.009937 -0.002005 -0.027408 0.039905 -0.028776
# 2 -0.009937 0.011317 0.000622 0.012759 -0.006927 0.007001
# 3 -0.002005 0.000622 0.021262 0.008117 0.006242 0.001837
# 4 -0.027408 0.012759 0.008117 0.051567 -0.030030 0.021965
# 5 0.039905 -0.006927 0.006242 -0.030030 0.075422 -0.024689
# 6 -0.028776 0.007001 0.001837 0.021965 -0.024689 0.057674
#
#
# Mechanical properties :
#
#
# Convention : Reuss Voigt Hill
#
# Bulk Modulus (GPa) = 20.30900 48.37607 34.34254
# Shear Modulus (GPa) = 16.91517 36.08327 26.49922
#
# Velocity S-wave (km/s) = 2.64261 3.85964 3.30758
# Velocity P-wave (km/s) = 4.20662 6.31145 5.36330
#
# Compressibility (1/GPa) = 0.04923925
#
# Stress axis : x y z
#
# Youngs Moduli (GPa) = 25.44638 88.36064 47.03223
#
# Poissons Ratio (x) = 0.87800 0.09428
# Poissons Ratio (y) = 0.25285 -0.02926
# Poissons Ratio (z) = 0.05101 -0.05497
#
# Static dielectric constant tensor:
#      x y z
#    x 1.930640 -0.016290 0.031820 
#    y -0.016290 1.950320 0.077060 
#    z 0.031820 0.077060 1.958710 
# 
# From -- ./inp_files/241026.got.cif
#   From: 2010.05.17/outbox.cif.g08.bks.cpg/sg2_121_cif.got.tgz:241026.got - 2010.06.03 11:33:40.
