data_PCOD9014795
_publ_section_title
;
Structure prediction by ZEFSAII (Michael W. Deem and Ramdas Pophale) SiO2 
 PCOD9014795
Probable space group: P -1
;
_chemical_formula_sum "Si O2"
_cell_formula_units_Z 16
_cell_length_a 17.002529
_cell_length_b 18.889634
_cell_length_c 26.283597
_cell_angle_alpha 161.019045
_cell_angle_beta 16.539247
_cell_angle_gamma 154.888576
_cell_volume 781.561116
_symmetry_space_group_name_H-M "P -1"
_symmetry_group_IT_number 2
_symmetry_cell_setting 'triclinic'
loop_
_space_group_symop_operation_xyz
x,y,z
-x,-y,-z
loop_
_atom_site_type_symbol
_atom_site_label
_atom_site_fract_x
_atom_site_fract_y
_atom_site_fract_z
Si Si1 0.991092 0.943458 0.554875
Si Si2 0.173439 0.782426 0.583768
Si Si3 0.303785 0.507440 0.964334
Si Si4 0.991257 0.783642 0.974104
Si Si5 0.590157 0.990453 0.741392
Si Si6 0.864758 0.575300 0.550893
Si Si7 0.170600 0.517474 0.216067
Si Si8 0.782276 0.374749 0.016077
O O1 0.256161 0.048677 0.434020
O O2 0.073572 0.727429 0.386603
O O3 0.781277 0.909869 0.614952
O O4 0.854302 0.119458 0.796634
O O5 0.447096 0.666312 0.313204
O O6 0.088504 0.628510 0.578807
O O7 0.954334 0.774153 0.667535
O O8 0.199587 0.018331 0.752344
O O9 0.418040 0.745182 0.069990
O O10 0.184349 0.540631 0.004844
O O11 0.080792 0.415477 0.079051
O O12 0.933431 0.696082 0.894115
O O13 0.297822 0.877647 0.850070
O O14 0.050034 0.546544 0.366907
O O15 0.541757 0.590290 0.747038
O O16 0.500000 0.500000 0.000000
O O17 0.000000 0.500000 0.000000
#
# Coordination Sequence:
#
# PCOD9014795 Si02
#       8
#     2   2   2   2   2   2   2   2
#     4  10  23  45  65  93 142 176 215 290 334 386
#     4  10  21  41  69  91 132 178 232 272 324 404
#     4  10  21  43  65  99 132 170 228 286 327 392
#     4  12  24  39  72 102 127 184 230 270 336 413
#     4  10  22  43  69  95 130 177 226 277 337 394
#     4  10  23  43  66  96 133 181 220 281 343 394
#     4  12  28  43  65 104 147 173 220 283 342 407
#     4  10  23  40  66  95 133 176 223 281 335 399
#
# _framework density 20.471848000000001
#
# number of rings (size 3 to 8) (size 9 to 14) (size 15 to 20)
#    0.000    1.500    1.250    4.125    3.500    5.500 
#    0.000    0.000    0.000    0.000    0.000    0.000 
#    0.000    0.000    0.000    0.000    0.000    0.000 
#
# Total GULP energy -89393.725980 kJ/mol
# GULP energy per Si atom -5587.107874 kJ/mol
# Density = 2.042525 g / cm^3
# Si number density = 20.471848 Si / 1000 Ang^3
#
#
#
# Elastic Constant Matrix: (Units=GPa)
#
#
# Indices 1 2 3 4 5 6 
#
# 1 94.0736 65.4525 58.0212 -7.9921 18.4518 6.3150
# 2 65.4525 119.1407 60.3259 -10.2502 5.5266 -2.3190
# 3 58.0212 60.3259 127.5348 -7.2945 3.5195 5.8989
# 4 -7.9921 -10.2502 -7.2945 30.8965 -4.0767 7.7953
# 5 18.4518 5.5266 3.5195 -4.0767 30.1878 -6.7806
# 6 6.3150 -2.3190 5.8989 7.7953 -6.7806 32.7812
#
#
#
# Elastic Compliance Matrix: (Units=1/GPa)
#
#
# Indices 1 2 3 4 5 6 
#
# 1 0.024347 -0.009919 -0.005541 0.001807 -0.013905 -0.007701
# 2 -0.009919 0.015336 -0.002986 0.001386 0.004730 0.004182
# 3 -0.005541 -0.002986 0.011805 0.000936 0.002463 -0.000981
# 4 0.001807 0.001386 0.000936 0.035887 0.001435 -0.008656
# 5 -0.013905 0.004730 0.002463 0.001435 0.043172 0.011159
# 6 -0.007701 0.004182 -0.000981 -0.008656 0.011159 0.036828
#
#
# Mechanical properties :
#
#
# Convention : Reuss Voigt Hill
#
# Bulk Modulus (GPa) = 68.51635 78.70535 73.61085
# Shear Modulus (GPa) = 23.90817 29.23640 26.57228
#
# Velocity S-wave (km/s) = 3.42110 3.78316 3.60667
# Velocity P-wave (km/s) = 7.01045 7.59027 7.30611
#
# Compressibility (1/GPa) = 0.01459506
#
# Stress axis : x y z
#
# Youngs Moduli (GPa) = 41.07332 65.20634 84.70689
#
# Poissons Ratio (x) = 0.64678 0.46939
# Poissons Ratio (y) = 0.40741 0.25295
# Poissons Ratio (z) = 0.22760 0.19472
#
# Static dielectric constant tensor:
#      x y z
#    x 1.710670 0.007420 0.010370 
#    y 0.007420 1.743460 -0.001050 
#    z 0.010370 -0.001050 1.781250 
# 
# From -- ./inp_files/612199.got.cif
#   From: 2010.05.17/outbox.cif.g08.bks.cpg/sg2_307_cif.got.tgz:612199.got - 2010.06.03 11:33:40.
