data_PCOD9014515
_publ_section_title
;
Structure prediction by ZEFSAII (Michael W. Deem and Ramdas Pophale) SiO2 
 PCOD9014515
Probable space group: P -1
;
_chemical_formula_sum "Si O2"
_cell_formula_units_Z 16
_cell_length_a 12.207854
_cell_length_b 14.379260
_cell_length_c 9.399411
_cell_angle_alpha 49.736966
_cell_angle_beta 140.180056
_cell_angle_gamma 112.067316
_cell_volume 781.296862
_symmetry_space_group_name_H-M "P -1"
_symmetry_group_IT_number 2
_symmetry_cell_setting 'triclinic'
loop_
_space_group_symop_operation_xyz
x,y,z
-x,-y,-z
loop_
_atom_site_type_symbol
_atom_site_label
_atom_site_fract_x
_atom_site_fract_y
_atom_site_fract_z
Si Si1 0.914494 0.365531 0.957109
Si Si2 0.029875 0.614367 0.322770
Si Si3 0.541427 0.007947 0.864710
Si Si4 0.644150 0.745388 0.721785
Si Si5 0.607750 0.354701 0.229414
Si Si6 0.838888 0.107657 0.179122
Si Si7 0.710425 0.598930 0.649905
Si Si8 0.444504 0.763036 0.000288
O O1 0.912855 0.429073 0.738389
O O2 0.761361 0.450847 0.815630
O O3 0.895436 0.226138 0.052970
O O4 0.103358 0.362083 0.217794
O O5 0.191803 0.660869 0.503972
O O6 0.000000 0.500000 0.500000
O O7 0.839102 0.711998 0.017725
O O8 0.403756 0.120157 0.537210
O O9 0.537320 0.872845 0.933503
O O10 0.723952 0.049563 0.011274
O O11 0.500000 0.000000 0.000000
O O12 0.496122 0.728613 0.700625
O O13 0.646278 0.642617 0.700290
O O14 0.603035 0.313202 0.103063
O O15 0.500000 0.500000 0.000000
O O16 0.721841 0.164572 0.143485
O O17 0.000000 0.000000 0.500000
O O18 0.574876 0.672745 0.327741
#
# Coordination Sequence:
#
# PCOD9014515 Si02
#       8
#     2   2   2   2   2   2   2   2
#     4  10  23  38  69 103 135 177 238 290 352 408
#     4  11  24  43  65  97 143 185 222 280 351 415
#     4  10  21  44  67  96 134 174 231 289 344 399
#     4  11  23  44  73  96 140 190 225 289 346 413
#     4  12  26  45  69 103 145 184 228 280 358 425
#     4  11  23  40  69 105 136 179 231 296 346 408
#     4  10  21  41  68 103 135 174 235 295 349 407
#     4  11  25  42  69 102 138 179 232 286 350 413
#
# _framework density 20.478770999999998
#
# number of rings (size 3 to 8) (size 9 to 14) (size 15 to 20)
#    0.000    1.250    3.750    2.250    7.000    2.000 
#    2.250    0.625    0.000    0.000    0.000    0.000 
#    0.000    0.000    0.000    0.000    0.000    0.000 
#
# Total GULP energy -89432.716517 kJ/mol
# GULP energy per Si atom -5589.544782 kJ/mol
# Density = 2.043216 g / cm^3
# Si number density = 20.478771 Si / 1000 Ang^3
#
#
#
# Elastic Constant Matrix: (Units=GPa)
#
#
# Indices 1 2 3 4 5 6 
#
# 1 78.7856 25.2363 45.8589 10.2611 -1.2523 -1.0405
# 2 25.2363 92.6027 56.2579 21.0327 6.9147 1.8821
# 3 45.8589 56.2579 177.1386 22.0086 11.4288 2.6171
# 4 10.2611 21.0327 22.0086 36.7808 3.6016 -6.2003
# 5 -1.2523 6.9147 11.4288 3.6016 26.0361 -0.9539
# 6 -1.0405 1.8821 2.6171 -6.2003 -0.9539 32.2366
#
#
#
# Elastic Compliance Matrix: (Units=1/GPa)
#
#
# Indices 1 2 3 4 5 6 
#
# 1 0.015579 -0.002131 -0.003406 -0.001258 0.003012 0.000751
# 2 -0.002131 0.014944 -0.003286 -0.006125 -0.001852 -0.001907
# 3 -0.003406 -0.003286 0.007983 -0.001865 -0.002574 -0.001001
# 4 -0.001258 -0.006125 -0.001865 0.033509 -0.001999 0.006854
# 5 0.003012 -0.001852 -0.002574 -0.001999 0.040496 0.001228
# 6 0.000751 -0.001907 -0.001001 0.006854 0.001228 0.032592
#
#
# Mechanical properties :
#
#
# Convention : Reuss Voigt Hill
#
# Bulk Modulus (GPa) = 47.93532 67.02590 57.48061
# Shear Modulus (GPa) = 29.46345 33.75562 31.60954
#
# Velocity S-wave (km/s) = 3.79718 4.06436 3.93304
# Velocity P-wave (km/s) = 6.53321 7.40445 6.98243
#
# Compressibility (1/GPa) = 0.02086144
#
# Stress axis : x y z
#
# Youngs Moduli (GPa) = 64.18811 66.91673 125.26658
#
# Poissons Ratio (x) = 0.14261 0.42660
# Poissons Ratio (y) = 0.13679 0.41159
# Poissons Ratio (z) = 0.21859 0.21987
#
# Static dielectric constant tensor:
#      x y z
#    x 1.750980 0.021280 0.037430 
#    y 0.021280 1.742510 0.038870 
#    z 0.037430 0.038870 1.582640 
# 
# From -- ./inp_files/271961.got.cif
#   From: 2010.05.17/outbox.cif.g08.bks.cpg/sg2_136_cif.got.tgz:271961.got - 2010.06.03 11:33:40.
