data_PCOD9014736
_publ_section_title
;
Structure prediction by ZEFSAII (Michael W. Deem and Ramdas Pophale) SiO2 
 PCOD9014736
Probable space group: P -1
;
_chemical_formula_sum "Si O2"
_cell_formula_units_Z 14
_cell_length_a 6.721238
_cell_length_b 8.485781
_cell_length_c 14.739679
_cell_angle_alpha 131.366927
_cell_angle_beta 73.713003
_cell_angle_gamma 128.491769
_cell_volume 481.406717
_symmetry_space_group_name_H-M "P -1"
_symmetry_group_IT_number 2
_symmetry_cell_setting 'triclinic'
loop_
_space_group_symop_operation_xyz
x,y,z
-x,-y,-z
loop_
_atom_site_type_symbol
_atom_site_label
_atom_site_fract_x
_atom_site_fract_y
_atom_site_fract_z
Si Si1 0.819901 0.257401 0.497641
Si Si2 0.826243 0.453147 0.088101
Si Si3 0.025810 0.344677 0.675230
Si Si4 0.675926 0.736667 0.495451
Si Si5 0.702099 0.785381 0.981016
Si Si6 0.149088 0.057297 0.773963
Si Si7 0.646926 0.496881 0.699764
O O1 0.553314 0.261278 0.536738
O O2 0.722397 0.014993 0.346796
O O3 0.000000 0.500000 0.500000
O O4 0.039973 0.236912 0.521360
O O5 0.910106 0.446358 0.174922
O O6 0.533009 0.205328 0.010980
O O7 0.876140 0.732488 0.185231
O O8 0.000000 0.500000 0.000000
O O9 0.339590 0.416275 0.662927
O O10 0.846842 0.400989 0.654192
O O11 0.821145 0.042294 0.621796
O O12 0.500000 0.500000 0.500000
O O13 0.627033 0.555937 0.830225
O O14 0.701254 0.800471 0.096592
O O15 0.000000 0.000000 0.000000
O O16 0.865955 0.786080 0.735001
#
# Coordination Sequence:
#
# PCOD9014736 Si02
#       7
#     2   2   2   2   2   2   2
#     4  10  22  42  72 107 145 188 248 306 374 449
#     4  12  26  46  71 109 149 197 251 314 377 449
#     4  11  24  42  67 106 152 185 250 312 379 440
#     4  11  21  40  71 102 146 193 235 316 385 444
#     4  10  23  46  73 100 144 198 246 301 372 452
#     4  10  22  44  70 101 143 192 249 298 368 448
#     4  10  21  41  69 101 138 190 246 298 368 444
#
# _framework density 29.081437999999999
#
# number of rings (size 3 to 8) (size 9 to 14) (size 15 to 20)
#    0.000    1.429    1.429    4.714    2.000    1.714 
#    0.000    8.571    0.000    0.000    0.000    0.000 
#    0.000    0.000    0.000    0.000    0.000    0.000 
#
# Total GULP energy -78062.482055 kJ/mol
# GULP energy per Si atom -5575.891575 kJ/mol
# Density = 2.901525 g / cm^3
# Si number density = 29.081438 Si / 1000 Ang^3
#
#
#
# Elastic Constant Matrix: (Units=GPa)
#
#
# Indices 1 2 3 4 5 6 
#
# 1 207.7312 54.6572 108.8006 -25.0589 50.2544 9.4054
# 2 54.6572 110.5206 86.3437 -7.6719 19.9006 10.1548
# 3 108.8006 86.3437 286.4121 -50.7839 51.7849 9.3512
# 4 -25.0589 -7.6719 -50.7839 83.4185 -2.1270 -1.5443
# 5 50.2544 19.9006 51.7849 -2.1270 98.8475 -13.1894
# 6 9.4054 10.1548 9.3512 -1.5443 -13.1894 65.3242
#
#
#
# Elastic Compliance Matrix: (Units=1/GPa)
#
#
# Indices 1 2 3 4 5 6 
#
# 1 0.006742 -0.001616 -0.001432 0.000924 -0.002464 -0.000990
# 2 -0.001616 0.012500 -0.003331 -0.001392 -0.000153 -0.001297
# 3 -0.001432 -0.003331 0.005842 0.002771 -0.001653 -0.000381
# 4 0.000924 -0.001392 0.002771 0.013784 -0.001380 -0.000266
# 5 -0.002464 -0.000153 -0.001653 -0.001380 0.012655 0.003138
# 6 -0.000990 -0.001297 -0.000381 -0.000266 0.003138 0.016334
#
#
# Mechanical properties :
#
#
# Convention : Reuss Voigt Hill
#
# Bulk Modulus (GPa) = 81.13800 122.69633 101.91716
# Shear Modulus (GPa) = 59.01463 73.17552 66.09508
#
# Velocity S-wave (km/s) = 4.50965 5.02164 4.77252
# Velocity P-wave (km/s) = 7.42137 8.71233 8.09264
#
# Compressibility (1/GPa) = 0.01232468
#
# Stress axis : x y z
#
# Youngs Moduli (GPa) = 148.33236 80.00014 171.16406
#
# Poissons Ratio (x) = 0.12932 0.24512
# Poissons Ratio (y) = 0.23977 0.57016
# Poissons Ratio (z) = 0.21242 0.26649
#
# Static dielectric constant tensor:
#      x y z
#    x 2.709470 0.002310 0.071230 
#    y 0.002310 2.186910 -0.238860 
#    z 0.071230 -0.238860 2.614330 
# 
# From -- ./inp_files/55357.got.cif
#   From: 2010.05.17/outbox.cif.g08.bks.cpg/sg2_28_cif.got.tgz:55357.got - 2010.06.03 11:33:40.
