data_PCOD9014139
_publ_section_title
;
Structure prediction by ZEFSAII (Michael W. Deem and Ramdas Pophale) SiO2 
 PCOD9014139
Probable space group: P -1
;
_chemical_formula_sum "Si O2"
_cell_formula_units_Z 14
_cell_length_a 8.949643
_cell_length_b 9.675565
_cell_length_c 8.088610
_cell_angle_alpha 49.641674
_cell_angle_beta 109.030119
_cell_angle_gamma 114.967520
_cell_volume 482.434206
_symmetry_space_group_name_H-M "P -1"
_symmetry_group_IT_number 2
_symmetry_cell_setting 'triclinic'
loop_
_space_group_symop_operation_xyz
x,y,z
-x,-y,-z
loop_
_atom_site_type_symbol
_atom_site_label
_atom_site_fract_x
_atom_site_fract_y
_atom_site_fract_z
Si Si1 0.000000 0.000000 0.000000
Si Si2 0.341496 0.463498 0.185903
Si Si3 0.807917 0.023316 0.272961
Si Si4 0.332930 0.228357 0.055938
Si Si5 0.520974 0.245821 0.601084
Si Si6 0.132664 0.634902 0.180741
Si Si7 0.500000 0.000000 0.500000
Si Si8 0.052905 0.784211 0.503570
O O1 0.819814 0.834394 0.072721
O O2 0.078337 0.879236 0.260395
O O3 0.273247 0.313045 0.133493
O O4 0.403109 0.382612 0.435393
O O5 0.198941 0.559949 0.096478
O O6 0.509772 0.615274 0.077273
O O7 0.806937 0.120658 0.380158
O O8 0.616809 0.934000 0.228622
O O9 0.905549 0.867690 0.451676
O O10 0.900427 0.167786 0.046122
O O11 0.407957 0.063421 0.263000
O O12 0.700185 0.310762 0.693438
O O13 0.535603 0.209046 0.439195
O O14 0.996922 0.444415 0.341593
#
# Coordination Sequence:
#
# PCOD9014139 Si02
#       8
#     1   2   2   2   2   2   1   2
#     4  12  26  42  72  98 140 192 232 286 358 412
#     4  10  21  41  66  98 140 178 232 286 356 406
#     4  11  25  45  70 101 141 189 225 287 362 411
#     4  10  23  41  66  97 137 191 223 292 350 415
#     4  11  22  40  68 103 137 177 232 295 337 417
#     4  12  24  42  75 106 133 183 241 290 340 429
#     4  10  22  40  64  96 144 178 234 278 352 416
#     4  11  26  47  68  99 147 182 234 290 350 423
#
# _framework density 29.019500000000001
#
# number of rings (size 3 to 8) (size 9 to 14) (size 15 to 20)
#    0.000    1.143    1.429    4.714    6.000    0.000 
#    0.000    0.714    0.000    0.000    0.000    0.000 
#    0.000    0.000    0.000    0.000    0.000    0.000 
#
# Total GULP energy -78034.572660 kJ/mol
# GULP energy per Si atom -5573.898047 kJ/mol
# Density = 2.895345 g / cm^3
# Si number density = 29.019500 Si / 1000 Ang^3
#
#
#
# Elastic Constant Matrix: (Units=GPa)
#
#
# Indices 1 2 3 4 5 6 
#
# 1 62.7049 20.8715 2.6730 1.3047 3.6187 16.6517
# 2 20.8715 120.4887 39.4489 -2.8129 14.8778 22.7845
# 3 2.6730 39.4489 149.9209 -13.6821 2.0428 26.5692
# 4 1.3047 -2.8129 -13.6821 38.9614 -2.9727 -4.0846
# 5 3.6187 14.8778 2.0428 -2.9727 52.0537 1.8263
# 6 16.6517 22.7845 26.5692 -4.0846 1.8263 44.6887
#
#
#
# Elastic Compliance Matrix: (Units=1/GPa)
#
#
# Indices 1 2 3 4 5 6 
#
# 1 0.018471 -0.002371 0.001370 -0.001034 -0.000489 -0.006563
# 2 -0.002371 0.010294 -0.002134 -0.000444 -0.002613 -0.003030
# 3 0.001370 -0.002134 0.008128 0.002264 0.000468 -0.004067
# 4 -0.001034 -0.000444 0.002264 0.026757 0.001580 0.001647
# 5 -0.000489 -0.002613 0.000468 0.001580 0.020044 0.000561
# 6 -0.006563 -0.003030 -0.004067 0.001647 0.000561 0.028913
#
#
# Mechanical properties :
#
#
# Convention : Reuss Voigt Hill
#
# Bulk Modulus (GPa) = 32.65537 51.01125 41.83331
# Shear Modulus (GPa) = 38.73390 45.14883 41.94136
#
# Velocity S-wave (km/s) = 3.65739 3.94866 3.80581
# Velocity P-wave (km/s) = 5.39562 6.19722 5.81026
#
# Compressibility (1/GPa) = 0.03062283
#
# Stress axis : x y z
#
# Youngs Moduli (GPa) = 54.13895 97.14148 123.02564
#
# Poissons Ratio (x) = 0.23031 -0.16853
# Poissons Ratio (y) = 0.12836 0.26259
# Poissons Ratio (z) = -0.07416 0.20734
#
# Static dielectric constant tensor:
#      x y z
#    x 1.749640 -0.230340 0.346330 
#    y -0.230340 2.079220 0.088120 
#    z 0.346330 0.088120 1.895820 
# 
# From -- ./inp_files/261350.got.cif
#   From: 2010.05.17/outbox.cif.g08.bks.cpg/sg2_131_cif.got.tgz:261350.got - 2010.06.03 11:33:40.
