data_PCOD9014396
_publ_section_title
;
Structure prediction by ZEFSAII (Michael W. Deem and Ramdas Pophale) SiO2 
 PCOD9014396
Probable space group: P -1
;
_chemical_formula_sum "Si O2"
_cell_formula_units_Z 16
_cell_length_a 9.030392
_cell_length_b 23.325686
_cell_length_c 21.430323
_cell_angle_alpha 161.818346
_cell_angle_beta 143.028326
_cell_angle_gamma 30.268484
_cell_volume 703.236041
_symmetry_space_group_name_H-M "P -1"
_symmetry_group_IT_number 2
_symmetry_cell_setting 'triclinic'
loop_
_space_group_symop_operation_xyz
x,y,z
-x,-y,-z
loop_
_atom_site_type_symbol
_atom_site_label
_atom_site_fract_x
_atom_site_fract_y
_atom_site_fract_z
Si Si1 0.890159 0.077244 0.470333
Si Si2 0.487464 0.904614 0.831250
Si Si3 0.280456 0.464989 0.847795
Si Si4 0.368955 0.041779 0.275188
Si Si5 0.095055 0.899587 0.219006
Si Si6 0.432633 0.040787 0.608057
Si Si7 0.397429 0.275044 0.086817
Si Si8 0.703354 0.439484 0.444078
O O1 0.550395 0.156654 0.441410
O O2 0.000000 0.000000 0.500000
O O3 0.988799 0.926982 0.284131
O O4 0.076909 0.184989 0.630336
O O5 0.726410 0.643326 0.643152
O O6 0.182777 0.920636 0.729260
O O7 0.500000 0.000000 0.000000
O O8 0.482453 0.068383 0.947783
O O9 0.443359 0.220191 0.623361
O O10 0.958615 0.545102 0.849489
O O11 0.500000 0.500000 0.000000
O O12 0.182999 0.667938 0.978045
O O13 0.474634 0.931576 0.264199
O O14 0.023948 0.224039 0.343771
O O15 0.472655 0.844118 0.057738
O O16 0.376387 0.914930 0.328000
O O17 0.552618 0.387048 0.283923
O O18 0.500000 0.500000 0.500000
#
# Coordination Sequence:
#
# PCOD9014396 Si02
#       8
#     2   2   2   2   2   2   2   2
#     4  10  21  41  67  96 136 174 210 279 342 381
#     4  11  23  40  67  95 135 169 221 274 325 390
#     4  11  21  38  68  98 128 171 222 268 327 389
#     4  11  23  43  67  96 136 179 213 278 344 383
#     4  11  22  42  67  99 128 172 224 268 325 392
#     4  11  23  40  71  97 131 177 226 263 327 402
#     4  11  23  43  63  95 138 170 217 279 328 392
#     4  12  24  42  68  97 125 177 229 270 327 400
#
# _framework density 22.751963
#
# number of rings (size 3 to 8) (size 9 to 14) (size 15 to 20)
#    0.000    1.000    5.000    3.000    1.750    0.500 
#    0.000    1.250    2.750    5.250    0.000    0.000 
#    0.000    0.000    0.000    0.000    0.000    0.000 
#
# Total GULP energy -89156.288979 kJ/mol
# GULP energy per Si atom -5572.268061 kJ/mol
# Density = 2.270018 g / cm^3
# Si number density = 22.751963 Si / 1000 Ang^3
#
#
#
# Elastic Constant Matrix: (Units=GPa)
#
#
# Indices 1 2 3 4 5 6 
#
# 1 90.7042 19.7375 31.8868 -8.3446 -16.7607 -7.3134
# 2 19.7375 101.6251 33.2091 -22.0856 -26.9392 -21.4717
# 3 31.8868 33.2091 112.6818 -22.1482 -13.8271 9.8998
# 4 -8.3446 -22.0856 -22.1482 35.9784 4.8896 -2.5736
# 5 -16.7607 -26.9392 -13.8271 4.8896 35.3787 -3.6754
# 6 -7.3134 -21.4717 9.8998 -2.5736 -3.6754 48.6268
#
#
#
# Elastic Compliance Matrix: (Units=1/GPa)
#
#
# Indices 1 2 3 4 5 6 
#
# 1 0.013570 0.001236 -0.003552 0.001148 0.006221 0.003841
# 2 0.001236 0.018127 -0.003369 0.008311 0.012993 0.010298
# 3 -0.003552 -0.003369 0.012018 0.004280 -0.000588 -0.004287
# 4 0.001148 0.008311 0.004280 0.035601 0.004162 0.005170
# 5 0.006221 0.012993 -0.000588 0.004162 0.041355 0.010139
# 6 0.003841 0.010298 -0.004287 0.005170 0.010139 0.027602
#
#
# Mechanical properties :
#
#
# Convention : Reuss Voigt Hill
#
# Bulk Modulus (GPa) = 30.91776 52.74197 41.82987
# Shear Modulus (GPa) = 29.33819 38.67530 34.00675
#
# Velocity S-wave (km/s) = 3.59483 4.12742 3.87029
# Velocity P-wave (km/s) = 5.55418 6.77833 6.19656
#
# Compressibility (1/GPa) = 0.03234387
#
# Stress axis : x y z
#
# Youngs Moduli (GPa) = 73.69331 55.16584 83.20613
#
# Poissons Ratio (x) = -0.06816 0.29559
# Poissons Ratio (y) = -0.09105 0.28030
# Poissons Ratio (z) = 0.26179 0.18584
#
# Static dielectric constant tensor:
#      x y z
#    x 1.909880 -0.017650 0.022510 
#    y -0.017650 1.916530 0.011500 
#    z 0.022510 0.011500 1.859540 
# 
# From -- ./inp_files/591992.got.cif
#   From: 2010.05.17/outbox.cif.g08.bks.cpg/sg2_296_cif.got.tgz:591992.got - 2010.06.03 11:33:40.
