data_PCOD9014786
_publ_section_title
;
Structure prediction by ZEFSAII (Michael W. Deem and Ramdas Pophale) SiO2 
 PCOD9014786
Probable space group: P -1
;
_chemical_formula_sum "Si O2"
_cell_formula_units_Z 16
_cell_length_a 5.601037
_cell_length_b 30.070143
_cell_length_c 9.473481
_cell_angle_alpha 27.791322
_cell_angle_beta 61.649815
_cell_angle_gamma 71.545278
_cell_volume 633.526722
_symmetry_space_group_name_H-M "P -1"
_symmetry_group_IT_number 2
_symmetry_cell_setting 'triclinic'
loop_
_space_group_symop_operation_xyz
x,y,z
-x,-y,-z
loop_
_atom_site_type_symbol
_atom_site_label
_atom_site_fract_x
_atom_site_fract_y
_atom_site_fract_z
Si Si1 0.615605 0.338422 0.710305
Si Si2 0.474909 0.837143 0.938748
Si Si3 0.556649 0.107632 0.886250
Si Si4 0.890074 0.071654 0.434187
Si Si5 0.324283 0.294018 0.337374
Si Si6 0.692056 0.520596 0.024405
Si Si7 0.087529 0.227192 0.315242
Si Si8 0.878408 0.396784 0.747615
O O1 0.526751 0.438066 0.415223
O O2 0.871992 0.382139 0.622031
O O3 0.625515 0.281058 0.721936
O O4 0.405749 0.249804 0.108063
O O5 0.285034 0.872052 0.774516
O O6 0.819599 0.867019 0.747726
O O7 0.415484 0.884253 0.972870
O O8 0.425774 0.199762 0.625268
O O9 0.851201 0.125630 0.670107
O O10 0.342327 0.004891 0.195183
O O11 0.000000 0.000000 0.500000
O O12 0.081994 0.257078 0.396826
O O13 0.266654 0.364978 0.273460
O O14 0.557347 0.367515 0.971323
O O15 0.500000 0.500000 0.000000
O O16 0.000000 0.500000 0.000000
O O17 0.989072 0.308341 0.026679
O O18 0.000000 0.500000 0.500000
#
# Coordination Sequence:
#
# PCOD9014786 Si02
#       8
#     2   2   2   2   2   2   2   2
#     4  11  26  44  67 100 142 180 223 285 342 403
#     4  11  25  42  72 103 138 179 225 284 348 399
#     4  10  22  41  72  99 133 175 230 285 332 413
#     4  10  23  43  70 104 135 178 230 280 341 411
#     4  10  23  40  64  98 128 180 228 275 336 403
#     4  12  29  43  66 102 141 176 223 279 343 405
#     4  10  23  40  68  93 133 175 233 269 342 396
#     4  10  21  41  69  90 130 184 231 276 327 405
#
# _framework density 25.255445999999999
#
# number of rings (size 3 to 8) (size 9 to 14) (size 15 to 20)
#    0.000    1.500    0.000    3.750   15.750    2.000 
#    0.000    1.250    0.000    0.000    0.000    0.000 
#    0.000    0.000    0.000    0.000    0.000    0.000 
#
# Total GULP energy -89255.685446 kJ/mol
# GULP energy per Si atom -5578.480340 kJ/mol
# Density = 2.519796 g / cm^3
# Si number density = 25.255446 Si / 1000 Ang^3
#
#
#
# Elastic Constant Matrix: (Units=GPa)
#
#
# Indices 1 2 3 4 5 6 
#
# 1 144.3230 37.9184 46.9834 2.3704 -1.3796 32.8066
# 2 37.9184 69.8259 -3.8996 -8.6468 3.1912 24.9610
# 3 46.9834 -3.8996 98.4906 3.3005 -21.8535 8.3782
# 4 2.3704 -8.6468 3.3005 31.4620 -9.0929 -13.4169
# 5 -1.3796 3.1912 -21.8535 -9.0929 60.0910 -3.7984
# 6 32.8066 24.9610 8.3782 -13.4169 -3.7984 35.9060
#
#
#
# Elastic Compliance Matrix: (Units=1/GPa)
#
#
# Indices 1 2 3 4 5 6 
#
# 1 0.012091 -0.004086 -0.005585 -0.006466 -0.003125 -0.009650
# 2 -0.004086 0.020954 0.003620 0.000634 -0.000521 -0.011497
# 3 -0.005585 0.003620 0.013986 0.001597 0.005036 0.000453
# 4 -0.006466 0.000634 0.001597 0.044376 0.008541 0.022580
# 5 -0.003125 -0.000521 0.005036 0.008541 0.020187 0.007369
# 6 -0.009650 -0.011497 0.000453 0.022580 0.007369 0.053772
#
#
# Mechanical properties :
#
#
# Convention : Reuss Voigt Hill
#
# Bulk Modulus (GPa) = 28.62948 52.73823 40.68385
# Shear Modulus (GPa) = 26.43944 40.93429 33.68686
#
# Velocity S-wave (km/s) = 3.23906 4.03030 3.65615
# Velocity P-wave (km/s) = 5.03481 6.52572 5.82813
#
# Compressibility (1/GPa) = 0.03492903
#
# Stress axis : x y z
#
# Youngs Moduli (GPa) = 82.70908 47.72273 71.49820
#
# Poissons Ratio (x) = 0.19499 0.39933
# Poissons Ratio (y) = 0.33794 -0.25882
# Poissons Ratio (z) = 0.46195 -0.17275
#
# Static dielectric constant tensor:
#      x y z
#    x 2.086360 -0.057120 -0.146590 
#    y -0.057120 2.112980 0.087420 
#    z -0.146590 0.087420 2.115110 
# 
# From -- ./inp_files/143327.got.cif
#   From: 2010.05.17/outbox.cif.g08.bks.cpg/sg2_72_cif.got.tgz:143327.got - 2010.06.03 11:33:40.
