data_PCOD9014508
_publ_section_title
;
Structure prediction by ZEFSAII (Michael W. Deem and Ramdas Pophale) SiO2 
 PCOD9014508
Probable space group: P -1
;
_chemical_formula_sum "Si O2"
_cell_formula_units_Z 16
_cell_length_a 11.147880
_cell_length_b 6.610026
_cell_length_c 14.200007
_cell_angle_alpha 80.345305
_cell_angle_beta 56.726966
_cell_angle_gamma 112.183321
_cell_volume 708.783690
_symmetry_space_group_name_H-M "P -1"
_symmetry_group_IT_number 2
_symmetry_cell_setting 'triclinic'
loop_
_space_group_symop_operation_xyz
x,y,z
-x,-y,-z
loop_
_atom_site_type_symbol
_atom_site_label
_atom_site_fract_x
_atom_site_fract_y
_atom_site_fract_z
Si Si1 0.108223 0.048307 0.353690
Si Si2 0.234032 0.207794 0.703906
Si Si3 0.503996 0.279622 0.732124
Si Si4 0.073304 0.737051 0.687325
Si Si5 0.985936 0.672370 0.118528
Si Si6 0.822209 0.524606 0.455600
Si Si7 0.287432 0.725294 0.873798
Si Si8 0.501455 0.447099 0.113373
O O1 0.316222 0.203763 0.248641
O O2 0.061376 0.206137 0.296604
O O3 0.000000 0.000000 0.500000
O O4 0.013759 0.772194 0.371932
O O5 0.386063 0.309546 0.706212
O O6 0.056096 0.138372 0.837916
O O7 0.261019 0.407105 0.598680
O O8 0.200698 0.968496 0.682828
O O9 0.704334 0.464567 0.601947
O O10 0.470818 0.334976 0.846892
O O11 0.450498 0.001224 0.760575
O O12 0.991313 0.479324 0.798487
O O13 0.170334 0.704124 0.561980
O O14 0.811315 0.461186 0.155241
O O15 0.147531 0.772397 0.972849
O O16 0.348623 0.596726 0.926879
O O17 0.500000 0.500000 0.000000
#
# Coordination Sequence:
#
# PCOD9014508 Si02
#       8
#     2   2   2   2   2   2   2   2
#     4  11  24  45  71  99 137 190 235 278 341 413
#     4  10  21  41  68 102 141 173 223 286 355 414
#     4  12  24  42  67 105 138 181 224 290 346 404
#     4  10  22  41  70 101 131 178 226 284 344 406
#     4  10  21  43  65 102 134 174 224 283 350 417
#     4  10  24  41  70 102 139 180 228 286 342 415
#     4  11  25  40  70  97 133 180 230 277 348 414
#     4  12  28  48  69 100 143 185 234 286 339 413
#
# _framework density 22.573882999999999
#
# number of rings (size 3 to 8) (size 9 to 14) (size 15 to 20)
#    0.000    1.250    3.750    1.125    1.750    7.000 
#    0.000    0.000    0.000    0.000    0.000    0.000 
#    0.000    0.000    0.000    0.000    0.000    0.000 
#
# Total GULP energy -89424.054234 kJ/mol
# GULP energy per Si atom -5589.003390 kJ/mol
# Density = 2.252250 g / cm^3
# Si number density = 22.573883 Si / 1000 Ang^3
#
#
#
# Elastic Constant Matrix: (Units=GPa)
#
#
# Indices 1 2 3 4 5 6 
#
# 1 56.0043 24.4708 -2.8712 6.4889 4.7967 5.9635
# 2 24.4708 105.1987 28.2343 24.1288 -13.4907 6.7112
# 3 -2.8712 28.2343 52.5222 21.7466 0.6569 4.1322
# 4 6.4889 24.1288 21.7466 36.3131 -1.5818 0.7804
# 5 4.7967 -13.4907 0.6569 -1.5818 21.6404 8.6101
# 6 5.9635 6.7112 4.1322 0.7804 8.6101 28.1634
#
#
#
# Elastic Compliance Matrix: (Units=1/GPa)
#
#
# Indices 1 2 3 4 5 6 
#
# 1 0.022911 -0.007589 0.007058 -0.003690 -0.009918 -0.000944
# 2 -0.007589 0.016332 -0.007064 -0.004546 0.013881 -0.005366
# 3 0.007058 -0.007064 0.029425 -0.014477 -0.007328 -0.001487
# 4 -0.003690 -0.004546 -0.014477 0.039836 0.000214 0.002819
# 5 -0.009918 0.013881 -0.007328 0.000214 0.065297 -0.020101
# 6 -0.000944 -0.005366 -0.001487 0.002819 -0.020101 0.043271
#
#
# Mechanical properties :
#
#
# Convention : Reuss Voigt Hill
#
# Bulk Modulus (GPa) = 18.69878 34.82146 26.76012
# Shear Modulus (GPa) = 19.99289 28.14949 24.07119
#
# Velocity S-wave (km/s) = 2.97924 3.53511 3.26901
# Velocity P-wave (km/s) = 4.48730 5.66760 5.11163
#
# Compressibility (1/GPa) = 0.05347941
#
# Stress axis : x y z
#
# Youngs Moduli (GPa) = 43.64673 61.22912 33.98435
#
# Poissons Ratio (x) = 0.46468 -0.23987
# Poissons Ratio (y) = 0.33124 0.24006
# Poissons Ratio (z) = -0.30807 0.43251
#
# Static dielectric constant tensor:
#      x y z
#    x 1.821680 0.005620 0.015820 
#    y 0.005620 1.819530 0.012670 
#    z 0.015820 0.012670 1.884280 
# 
# From -- ./inp_files/510937.got.cif
#   From: 2010.05.17/outbox.cif.g08.bks.cpg/sg2_256_cif.got.tgz:510937.got - 2010.06.03 11:33:40.
