data_PCOD9014545
_publ_section_title
;
Structure prediction by ZEFSAII (Michael W. Deem and Ramdas Pophale) SiO2 
 PCOD9014545
Probable space group: P -1
;
_chemical_formula_sum "Si O2"
_cell_formula_units_Z 16
_cell_length_a 19.095478
_cell_length_b 18.567868
_cell_length_c 8.574069
_cell_angle_alpha 137.889002
_cell_angle_beta 46.489327
_cell_angle_gamma 157.775484
_cell_volume 771.039375
_symmetry_space_group_name_H-M "P -1"
_symmetry_group_IT_number 2
_symmetry_cell_setting 'triclinic'
loop_
_space_group_symop_operation_xyz
x,y,z
-x,-y,-z
loop_
_atom_site_type_symbol
_atom_site_label
_atom_site_fract_x
_atom_site_fract_y
_atom_site_fract_z
Si Si1 0.523366 0.574691 0.326272
Si Si2 0.791571 0.847090 0.065202
Si Si3 0.872313 0.513890 0.874934
Si Si4 0.240629 0.783549 0.647869
Si Si5 0.786861 0.316800 0.997697
Si Si6 0.661925 0.921904 0.211009
Si Si7 0.394687 0.555011 0.802222
Si Si8 0.479230 0.881947 0.654529
O O1 0.685307 0.762422 0.258437
O O2 0.442855 0.580427 0.588108
O O3 0.602748 0.552913 0.276981
O O4 0.349803 0.364239 0.154049
O O5 0.795897 0.962165 0.145161
O O6 0.000000 0.000000 0.000000
O O7 0.822023 0.390395 0.606343
O O8 0.776939 0.374853 0.949061
O O9 0.090464 0.698583 0.851402
O O10 0.794278 0.559359 0.058214
O O11 0.420702 0.922879 0.692570
O O12 0.259890 0.887411 0.646533
O O13 0.664688 0.093834 0.799777
O O14 0.688031 0.284957 0.237725
O O15 0.000000 0.500000 0.000000
O O16 0.510159 0.803770 0.385475
O O17 0.559985 0.781110 0.988990
#
# Coordination Sequence:
#
# PCOD9014545 Si02
#       8
#     2   2   2   2   2   2   2   2
#     4   9  22  46  65  94 124 157 214 263 316 373
#     4  10  23  45  67  91 126 163 203 262 321 377
#     4  11  22  38  64  92 131 171 207 258 311 368
#     4  11  22  40  62  95 129 169 217 251 302 383
#     4  11  23  40  55  86 127 165 207 248 305 363
#     4  11  22  40  65  91 120 169 211 250 322 370
#     4  10  21  41  68  89 123 165 207 269 312 361
#     4  11  22  40  62  83 128 166 204 262 296 371
#
# _framework density 20.751211000000001
#
# number of rings (size 3 to 8) (size 9 to 14) (size 15 to 20)
#    0.000    1.500    3.750    1.125    3.500    0.000 
#    4.500    1.875    0.000    0.000    0.000    0.000 
#    0.000    0.000    0.000    0.000    0.000    0.000 
#
# Total GULP energy -89266.157939 kJ/mol
# GULP energy per Si atom -5579.134871 kJ/mol
# Density = 2.070398 g / cm^3
# Si number density = 20.751211 Si / 1000 Ang^3
#
#
#
# Elastic Constant Matrix: (Units=GPa)
#
#
# Indices 1 2 3 4 5 6 
#
# 1 75.3672 36.9467 36.6283 -19.6638 -7.4056 25.2937
# 2 36.9467 83.7587 30.7232 -22.8027 -4.4390 19.3000
# 3 36.6283 30.7232 124.8926 -30.0178 0.7643 11.3039
# 4 -19.6638 -22.8027 -30.0178 26.6151 1.1562 1.3287
# 5 -7.4056 -4.4390 0.7643 1.1562 34.5268 -10.3308
# 6 25.2937 19.3000 11.3039 1.3287 -10.3308 31.7800
#
#
#
# Elastic Compliance Matrix: (Units=1/GPa)
#
#
# Indices 1 2 3 4 5 6 
#
# 1 0.025904 -0.001594 -0.001123 0.017582 -0.001321 -0.020414
# 2 -0.001594 0.019888 0.000981 0.017691 -0.002170 -0.012603
# 3 -0.001123 0.000981 0.011910 0.013814 -0.002428 -0.005305
# 4 0.017582 0.017691 0.013814 0.083415 -0.007720 -0.035648
# 5 -0.001321 -0.002170 -0.002428 -0.007720 0.032985 0.014278
# 6 -0.020414 -0.012603 -0.005305 -0.035648 0.014278 0.063387
#
#
# Mechanical properties :
#
#
# Convention : Reuss Voigt Hill
#
# Bulk Modulus (GPa) = 18.43999 54.73499 36.58749
# Shear Modulus (GPa) = 19.30219 30.56576 24.93398
#
# Velocity S-wave (km/s) = 3.05318 3.84208 3.47012
# Velocity P-wave (km/s) = 4.61895 6.79089 5.80736
#
# Compressibility (1/GPa) = 0.05422998
#
# Stress axis : x y z
#
# Youngs Moduli (GPa) = 38.60338 50.28243 83.96225
#
# Poissons Ratio (x) = 0.08015 0.09432
# Poissons Ratio (y) = 0.06153 -0.08239
# Poissons Ratio (z) = 0.04337 -0.04934
#
# Static dielectric constant tensor:
#      x y z
#    x 1.781970 -0.020060 0.016280 
#    y -0.020060 1.775630 0.005500 
#    z 0.016280 0.005500 1.783580 
# 
# From -- ./inp_files/312647.got.cif
#   From: 2010.05.17/outbox.cif.g08.bks.cpg/sg2_157_cif.got.tgz:312647.got - 2010.06.03 11:33:40.
