data_PCOD9014583
_publ_section_title
;
Structure prediction by ZEFSAII (Michael W. Deem and Ramdas Pophale) SiO2 
 PCOD9014583
Probable space group: P -1
;
_chemical_formula_sum "Si O2"
_cell_formula_units_Z 14
_cell_length_a 14.363213
_cell_length_b 7.588350
_cell_length_c 9.199030
_cell_angle_alpha 95.790978
_cell_angle_beta 134.919155
_cell_angle_gamma 62.153440
_cell_volume 584.286619
_symmetry_space_group_name_H-M "P -1"
_symmetry_group_IT_number 2
_symmetry_cell_setting 'triclinic'
loop_
_space_group_symop_operation_xyz
x,y,z
-x,-y,-z
loop_
_atom_site_type_symbol
_atom_site_label
_atom_site_fract_x
_atom_site_fract_y
_atom_site_fract_z
Si Si1 0.087107 0.821097 0.797967
Si Si2 0.667092 0.835710 0.747503
Si Si3 0.436409 0.797665 0.824659
Si Si4 0.193409 0.072373 0.821241
Si Si5 0.208779 0.413062 0.700545
Si Si6 0.802472 0.799427 0.593088
Si Si7 0.399089 0.509440 0.255192
O O1 0.059467 0.035623 0.719363
O O2 0.149528 0.635522 0.729839
O O3 0.941472 0.834325 0.715125
O O4 0.237760 0.734211 0.063049
O O5 0.790083 0.766587 0.745481
O O6 0.661270 0.643151 0.789098
O O7 0.500000 0.000000 0.500000
O O8 0.708418 0.933337 0.932930
O O9 0.307907 0.883727 0.817889
O O10 0.488643 0.586808 0.771693
O O11 0.355530 0.988755 0.632055
O O12 0.601239 0.739811 0.070545
O O13 0.141170 0.290916 0.700028
O O14 0.178962 0.392962 0.497655
O O15 0.500000 0.500000 0.500000
#
# Coordination Sequence:
#
# PCOD9014583 Si02
#       7
#     2   2   2   2   2   2   2
#     4  11  25  41  63  98 133 167 215 270 315 383
#     4  12  21  40  68  92 122 176 209 262 324 374
#     4  10  21  41  68  93 125 172 216 264 317 382
#     4  11  22  40  67  90 131 171 211 257 328 373
#     4  10  21  44  65  94 130 167 218 271 308 386
#     4  11  23  39  68  95 128 172 217 260 327 375
#     4  11  24  42  63  99 134 159 220 270 314 387
#
# _framework density 23.960844000000002
#
# number of rings (size 3 to 8) (size 9 to 14) (size 15 to 20)
#    0.000    1.143    4.286    3.857    0.000    6.857 
#    0.000    0.000    0.000    0.000    0.000    0.000 
#    0.000    0.000    0.000    0.000    0.000    0.000 
#
# Total GULP energy -78366.230204 kJ/mol
# GULP energy per Si atom -5597.587872 kJ/mol
# Density = 2.390631 g / cm^3
# Si number density = 23.960844 Si / 1000 Ang^3
#
#
#
# Elastic Constant Matrix: (Units=GPa)
#
#
# Indices 1 2 3 4 5 6 
#
# 1 125.0583 40.2101 26.0642 22.9467 -10.1339 -5.9156
# 2 40.2101 56.7753 16.8621 4.5429 4.2359 16.4887
# 3 26.0642 16.8621 125.1883 24.3292 -10.6617 -10.4063
# 4 22.9467 4.5429 24.3292 38.3262 -1.8855 -3.3049
# 5 -10.1339 4.2359 -10.6617 -1.8855 35.8005 8.0804
# 6 -5.9156 16.4887 -10.4063 -3.3049 8.0804 41.0648
#
#
#
# Elastic Compliance Matrix: (Units=1/GPa)
#
#
# Indices 1 2 3 4 5 6 
#
# 1 0.012969 -0.010635 0.000696 -0.006327 0.003655 0.005086
# 2 -0.010635 0.030337 -0.004170 0.004025 -0.004572 -0.013546
# 3 0.000696 -0.004170 0.010049 -0.005885 0.002621 0.003332
# 4 -0.006327 0.004025 -0.005885 0.032954 -0.002068 -0.000960
# 5 0.003655 -0.004572 0.002621 -0.002068 0.030907 -0.003221
# 6 0.005086 -0.013546 0.003332 -0.000960 -0.003221 0.031925
#
#
# Mechanical properties :
#
#
# Convention : Reuss Voigt Hill
#
# Bulk Modulus (GPa) = 39.78229 52.58829 46.18529
# Shear Modulus (GPa) = 26.91991 37.96399 32.44195
#
# Velocity S-wave (km/s) = 3.35550 3.98479 3.68361
# Velocity P-wave (km/s) = 5.62597 6.57014 6.11630
#
# Compressibility (1/GPa) = 0.02513681
#
# Stress axis : x y z
#
# Youngs Moduli (GPa) = 77.10986 32.96304 99.51711
#
# Poissons Ratio (x) = 0.35057 -0.06929
# Poissons Ratio (y) = 0.82008 0.41496
# Poissons Ratio (z) = -0.05369 0.13745
#
# Static dielectric constant tensor:
#      x y z
#    x 1.934920 -0.015250 0.009370 
#    y -0.015250 1.951310 -0.052560 
#    z 0.009370 -0.052560 1.935470 
# 
# From -- ./inp_files/234935.got.cif
#   From: 2010.05.17/outbox.cif.g08.bks.cpg/sg2_118_cif.got.tgz:234935.got - 2010.06.03 11:33:40.
