data_PCOD9014965
_publ_section_title
;
Structure prediction by ZEFSAII (Michael W. Deem and Ramdas Pophale) SiO2 
 PCOD9014965
Probable space group: P -1
;
_chemical_formula_sum "Si O2"
_cell_formula_units_Z 14
_cell_length_a 8.612297
_cell_length_b 9.215893
_cell_length_c 14.369032
_cell_angle_alpha 131.592534
_cell_angle_beta 139.338608
_cell_angle_gamma 64.881373
_cell_volume 548.400429
_symmetry_space_group_name_H-M "P -1"
_symmetry_group_IT_number 2
_symmetry_cell_setting 'triclinic'
loop_
_space_group_symop_operation_xyz
x,y,z
-x,-y,-z
loop_
_atom_site_type_symbol
_atom_site_label
_atom_site_fract_x
_atom_site_fract_y
_atom_site_fract_z
Si Si1 0.911037 0.541491 0.721493
Si Si2 0.267345 0.058791 0.688861
Si Si3 0.539004 0.657071 0.472026
Si Si4 0.431885 0.599821 0.901073
Si Si5 0.972947 0.872503 0.028004
Si Si6 0.441719 0.773544 0.787484
Si Si7 0.426394 0.796421 0.284047
O O1 0.777040 0.683761 0.655451
O O2 0.699964 0.365336 0.581173
O O3 0.163966 0.510857 0.779788
O O4 0.974134 0.655745 0.894187
O O5 0.431092 0.070758 0.675585
O O6 0.287557 0.892253 0.703564
O O7 0.393280 0.258290 0.888318
O O8 0.000000 0.000000 0.500000
O O9 0.551731 0.437996 0.345859
O O10 0.521134 0.786662 0.428051
O O11 0.370787 0.730222 0.842134
O O12 0.559791 0.424921 0.843027
O O13 0.171402 0.872786 0.197478
O O14 0.714455 0.885280 0.956482
O O15 0.000000 0.000000 0.000000
#
# Coordination Sequence:
#
# PCOD9014965 Si02
#       7
#     2   2   2   2   2   2   2
#     4  10  21  41  70  91 137 165 227 260 332 386
#     4  12  26  42  64 102 139 163 217 279 329 376
#     4   9  23  41  67 104 124 178 218 276 317 385
#     4  11  24  43  69  98 126 182 218 265 327 395
#     4  11  21  43  65  88 132 175 216 263 325 392
#     4  10  23  42  68  94 131 177 213 264 329 389
#     4  11  24  44  68  99 129 174 222 269 324 389
#
# _framework density 25.528790999999998
#
# number of rings (size 3 to 8) (size 9 to 14) (size 15 to 20)
#    0.000    1.429    2.857    0.857    4.000    6.286 
#    0.000    0.714    0.000    0.000    0.000    0.000 
#    0.000    0.000    0.000    0.000    0.000    0.000 
#
# Total GULP energy -78239.111570 kJ/mol
# GULP energy per Si atom -5588.507969 kJ/mol
# Density = 2.547069 g / cm^3
# Si number density = 25.528791 Si / 1000 Ang^3
#
#
#
# Elastic Constant Matrix: (Units=GPa)
#
#
# Indices 1 2 3 4 5 6 
#
# 1 83.8434 31.0486 52.8177 -13.5754 -6.9318 13.0792
# 2 31.0486 166.0207 74.6803 -43.4884 -6.2144 16.0166
# 3 52.8177 74.6803 187.5735 -34.9154 -4.6675 -2.7219
# 4 -13.5754 -43.4884 -34.9154 56.3401 -3.6387 -14.0191
# 5 -6.9318 -6.2144 -4.6675 -3.6387 37.1210 -12.7174
# 6 13.0792 16.0166 -2.7219 -14.0191 -12.7174 41.3418
#
#
#
# Elastic Compliance Matrix: (Units=1/GPa)
#
#
# Indices 1 2 3 4 5 6 
#
# 1 0.015608 -0.000637 -0.004321 -0.000633 0.000475 -0.005044
# 2 -0.000637 0.008623 -0.002361 0.004767 0.001029 -0.001362
# 3 -0.004321 -0.002361 0.008246 0.003489 0.001732 0.004540
# 4 -0.000633 0.004767 0.003489 0.026293 0.007003 0.009653
# 5 0.000475 0.001029 0.001732 0.007003 0.032158 0.011832
# 6 -0.005044 -0.001362 0.004540 0.009653 0.011832 0.033524
#
#
# Mechanical properties :
#
#
# Convention : Reuss Voigt Hill
#
# Bulk Modulus (GPa) = 56.05017 83.83677 69.94347
# Shear Modulus (GPa) = 34.47431 45.55331 40.01381
#
# Velocity S-wave (km/s) = 3.67878 4.22879 3.96333
# Velocity P-wave (km/s) = 6.32834 7.53358 6.95711
#
# Compressibility (1/GPa) = 0.01784116
#
# Stress axis : x y z
#
# Youngs Moduli (GPa) = 64.06829 115.97021 121.26905
#
# Poissons Ratio (x) = 0.07385 0.52397
# Poissons Ratio (y) = 0.04080 0.28627
# Poissons Ratio (z) = 0.27682 0.27376
#
# Static dielectric constant tensor:
#      x y z
#    x 1.996090 -0.007140 0.006040 
#    y -0.007140 2.120400 0.102220 
#    z 0.006040 0.102220 2.095640 
# 
# From -- ./inp_files/495536.got.cif
#   From: 2010.05.17/outbox.cif.g08.bks.cpg/sg2_248_cif.got.tgz:495536.got - 2010.06.03 11:33:40.
