data_PCOD9014071
_publ_section_title
;
Structure prediction by ZEFSAII (Michael W. Deem and Ramdas Pophale) SiO2 
 PCOD9014071
Probable space group: P -1
;
_chemical_formula_sum "Si O2"
_cell_formula_units_Z 16
_cell_length_a 25.217839
_cell_length_b 11.384016
_cell_length_c 5.487472
_cell_angle_alpha 68.367452
_cell_angle_beta 95.340719
_cell_angle_gamma 147.084864
_cell_volume 719.023632
_symmetry_space_group_name_H-M "P -1"
_symmetry_group_IT_number 2
_symmetry_cell_setting 'triclinic'
loop_
_space_group_symop_operation_xyz
x,y,z
-x,-y,-z
loop_
_atom_site_type_symbol
_atom_site_label
_atom_site_fract_x
_atom_site_fract_y
_atom_site_fract_z
Si Si1 0.734404 0.182230 0.519812
Si Si2 0.813203 0.224923 0.011805
Si Si3 0.372086 0.713798 0.142212
Si Si4 0.611993 0.151618 0.450218
Si Si5 0.915325 0.225718 0.788123
Si Si6 0.882486 0.726998 0.051317
Si Si7 0.796370 0.795072 0.746303
Si Si8 0.996652 0.777099 0.802026
O O1 0.749124 0.135472 0.810682
O O2 0.618169 0.014110 0.600674
O O3 0.815892 0.472663 0.334097
O O4 0.760594 0.157628 0.300711
O O5 0.848778 0.154057 0.035296
O O6 0.927574 0.533617 0.810921
O O7 0.333701 0.673228 0.422828
O O8 0.321009 0.476000 0.211898
O O9 0.339914 0.738506 0.886668
O O10 0.500000 0.000000 0.000000
O O11 0.500000 0.000000 0.500000
O O12 0.000000 0.500000 0.500000
O O13 0.828301 0.990828 0.740337
O O14 0.983701 0.251524 0.909018
O O15 0.822399 0.735392 0.991518
O O16 0.919781 0.739539 0.804222
O O17 0.000000 0.000000 0.000000
O O18 0.886602 0.958130 0.456427
#
# Coordination Sequence:
#
# PCOD9014071 Si02
#       8
#     2   2   2   2   2   2   2   2
#     4  11  23  39  63  92 130 167 212 267 328 390
#     4  11  24  40  60  87 132 182 223 259 306 375
#     4  10  23  41  64  98 132 158 205 270 338 397
#     4  10  21  41  66  96 130 157 203 265 337 407
#     4  12  24  43  58  86 133 187 237 262 303 376
#     4  11  21  36  54  91 134 164 207 258 337 386
#     4  12  24  37  64  90 132 172 217 268 325 393
#     4  11  24  37  60  85 131 183 213 271 312 387
#
# _framework density 22.252396000000001
#
# number of rings (size 3 to 8) (size 9 to 14) (size 15 to 20)
#    0.000    1.000    3.750    3.750    7.000    0.000 
#    0.000    0.000    0.000    0.000    0.000   21.000 
#    0.000    0.000    0.000    0.000    0.000    0.000 
#
# Total GULP energy -89086.476576 kJ/mol
# GULP energy per Si atom -5567.904786 kJ/mol
# Density = 2.220175 g / cm^3
# Si number density = 22.252396 Si / 1000 Ang^3
#
#
#
# Elastic Constant Matrix: (Units=GPa)
#
#
# Indices 1 2 3 4 5 6 
#
# 1 106.5704 45.1155 19.2786 5.7690 -13.2005 -7.6748
# 2 45.1155 116.3542 25.8182 15.9815 -18.1116 -16.7129
# 3 19.2786 25.8182 98.2785 23.8943 -5.2639 -0.8920
# 4 5.7690 15.9815 23.8943 39.1636 2.9163 -3.7050
# 5 -13.2005 -18.1116 -5.2639 2.9163 28.9442 6.9003
# 6 -7.6748 -16.7129 -0.8920 -3.7050 6.9003 37.3340
#
#
#
# Elastic Compliance Matrix: (Units=1/GPa)
#
#
# Indices 1 2 3 4 5 6 
#
# 1 0.011535 -0.003837 -0.001224 0.000443 0.002545 0.000198
# 2 -0.003837 0.012150 -0.001224 -0.003724 0.005222 0.003286
# 3 -0.001224 -0.001224 0.012615 -0.007325 0.002092 -0.001612
# 4 0.000443 -0.003724 -0.007325 0.032274 -0.007384 0.002816
# 5 0.002545 0.005222 0.002092 -0.007384 0.041407 -0.005475
# 6 0.000198 0.003286 -0.001612 0.002816 -0.005475 0.029550
#
#
# Mechanical properties :
#
#
# Convention : Reuss Voigt Hill
#
# Bulk Modulus (GPa) = 42.14213 55.73639 48.93926
# Shear Modulus (GPa) = 31.24748 36.48774 33.86761
#
# Velocity S-wave (km/s) = 3.75137 4.05374 3.90548
# Velocity P-wave (km/s) = 6.14354 6.85654 6.50981
#
# Compressibility (1/GPa) = 0.02372923
#
# Stress axis : x y z
#
# Youngs Moduli (GPa) = 86.69352 82.30212 79.26870
#
# Poissons Ratio (x) = 0.31581 0.09704
# Poissons Ratio (y) = 0.33266 0.09705
# Poissons Ratio (z) = 0.10613 0.10076
#
# Static dielectric constant tensor:
#      x y z
#    x 2.152870 0.194930 -0.228460 
#    y 0.194930 2.145840 -0.211330 
#    z -0.228460 -0.211330 2.123500 
# 
# From -- ./inp_files/126866.got.cif
#   From: 2010.05.17/outbox.cif.g08.bks.cpg/sg2_64_cif.got.tgz:126866.got - 2010.06.03 11:33:40.
