data_PCOD9014232
_publ_section_title
;
Structure prediction by ZEFSAII (Michael W. Deem and Ramdas Pophale) SiO2 
 PCOD9014232
Probable space group: P -1
;
_chemical_formula_sum "Si O2"
_cell_formula_units_Z 16
_cell_length_a 25.168731
_cell_length_b 6.822927
_cell_length_c 11.240034
_cell_angle_alpha 49.056487
_cell_angle_beta 148.027299
_cell_angle_gamma 120.637733
_cell_volume 766.833159
_symmetry_space_group_name_H-M "P -1"
_symmetry_group_IT_number 2
_symmetry_cell_setting 'triclinic'
loop_
_space_group_symop_operation_xyz
x,y,z
-x,-y,-z
loop_
_atom_site_type_symbol
_atom_site_label
_atom_site_fract_x
_atom_site_fract_y
_atom_site_fract_z
Si Si1 0.424398 0.339878 0.035241
Si Si2 0.408795 0.055994 0.549009
Si Si3 0.437933 0.819916 0.039762
Si Si4 0.742255 0.754715 0.411249
Si Si5 0.883817 0.830234 0.436044
Si Si6 0.322926 0.978075 0.158246
Si Si7 0.043454 0.609192 0.658375
Si Si8 0.746966 0.587160 0.750230
O O1 0.528642 0.232427 0.211747
O O2 0.430846 0.561045 0.055711
O O3 0.394843 0.088740 0.153616
O O4 0.334296 0.402214 0.746384
O O5 0.362141 0.067069 0.324464
O O6 0.494967 0.225308 0.695797
O O7 0.317931 0.153963 0.425732
O O8 0.500000 0.000000 0.000000
O O9 0.329107 0.972976 0.805461
O O10 0.835188 0.776583 0.491661
O O11 0.770702 0.625649 0.642074
O O12 0.963512 0.614032 0.612824
O O13 0.937454 0.091633 0.446514
O O14 0.789499 0.890381 0.141805
O O15 0.314285 0.668035 0.257792
O O16 0.000000 0.500000 0.500000
O O17 0.151300 0.466582 0.959510
#
# Coordination Sequence:
#
# PCOD9014232 Si02
#       8
#     2   2   2   2   2   2   2   2
#     4  10  24  39  60  84 122 168 207 248 302 348
#     4  11  22  36  60  84 123 159 208 250 295 351
#     4  11  23  39  57  88 126 165 205 246 298 354
#     4  10  23  40  61  89 124 162 201 248 296 366
#     4   9  21  42  62  90 119 157 201 245 307 363
#     4  10  22  39  59  88 118 159 207 253 297 357
#     4  10  21  41  67  88 120 154 196 253 307 362
#     4  11  23  38  61  92 120 157 204 248 305 358
#
# _framework density 20.865036
#
# number of rings (size 3 to 8) (size 9 to 14) (size 15 to 20)
#    0.000    1.750    1.250    1.875    1.750    8.500 
#    0.000    0.625    0.000    0.000    0.000    0.000 
#    0.000    0.000    0.000    0.000    0.000    0.000 
#
# Total GULP energy -89334.895646 kJ/mol
# GULP energy per Si atom -5583.430978 kJ/mol
# Density = 2.081755 g / cm^3
# Si number density = 20.865036 Si / 1000 Ang^3
#
#
#
# Elastic Constant Matrix: (Units=GPa)
#
#
# Indices 1 2 3 4 5 6 
#
# 1 133.9371 62.6556 37.4049 9.9080 12.3455 -6.8634
# 2 62.6556 123.0379 60.8663 21.6251 3.8724 -28.2347
# 3 37.4049 60.8663 67.9471 16.0309 -3.9605 -15.1112
# 4 9.9080 21.6251 16.0309 27.1618 -19.9138 -9.6375
# 5 12.3455 3.8724 -3.9605 -19.9138 41.1237 1.7455
# 6 -6.8634 -28.2347 -15.1112 -9.6375 1.7455 36.0263
#
#
#
# Elastic Compliance Matrix: (Units=1/GPa)
#
#
# Indices 1 2 3 4 5 6 
#
# 1 0.010581 -0.004236 -0.002080 -0.003716 -0.004652 -0.002945
# 2 -0.004236 0.019699 -0.011837 -0.009284 -0.006537 0.007500
# 3 -0.002080 -0.011837 0.027763 -0.004236 0.002331 0.000726
# 4 -0.003716 -0.009284 -0.004236 0.081356 0.040551 0.010038
# 5 -0.004652 -0.006537 0.002331 0.040551 0.046038 0.003585
# 6 -0.002945 0.007500 0.000726 0.010038 0.003585 0.035890
#
#
# Mechanical properties :
#
#
# Convention : Reuss Voigt Hill
#
# Bulk Modulus (GPa) = 46.00447 71.86396 58.93421
# Shear Modulus (GPa) = 18.87660 31.79538 25.33599
#
# Velocity S-wave (km/s) = 3.01109 3.90790 3.48843
# Velocity P-wave (km/s) = 5.84682 7.40806 6.67325
#
# Compressibility (1/GPa) = 0.02173702
#
# Stress axis : x y z
#
# Youngs Moduli (GPa) = 94.50584 50.76466 36.01960
#
# Poissons Ratio (x) = 0.21502 0.07493
# Poissons Ratio (y) = 0.40029 0.42636
# Poissons Ratio (z) = 0.19660 0.60090
#
# Static dielectric constant tensor:
#      x y z
#    x 1.778630 0.029030 -0.004830 
#    y 0.029030 1.747210 -0.014850 
#    z -0.004830 -0.014850 1.761090 
# 
# From -- ./inp_files/475978.got.cif
#   From: 2010.05.17/outbox.cif.g08.bks.cpg/sg2_238_cif.got.tgz:475978.got - 2010.06.03 11:33:40.
