data_PCOD9014204
_publ_section_title
;
Structure prediction by ZEFSAII (Michael W. Deem and Ramdas Pophale) SiO2 
 PCOD9014204
Probable space group: P -1
;
_chemical_formula_sum "Si O2"
_cell_formula_units_Z 15
_cell_length_a 5.650116
_cell_length_b 22.081188
_cell_length_c 20.950290
_cell_angle_alpha 12.815335
_cell_angle_beta 71.121742
_cell_angle_gamma 71.413932
_cell_volume 548.510842
_symmetry_space_group_name_H-M "P -1"
_symmetry_group_IT_number 2
_symmetry_cell_setting 'triclinic'
loop_
_space_group_symop_operation_xyz
x,y,z
-x,-y,-z
loop_
_atom_site_type_symbol
_atom_site_label
_atom_site_fract_x
_atom_site_fract_y
_atom_site_fract_z
Si Si1 0.115381 0.304592 0.158682
Si Si2 0.940298 0.642255 0.033811
Si Si3 0.471059 0.903241 0.846245
Si Si4 0.720507 0.291749 0.624548
Si Si5 0.805709 0.743553 0.248003
Si Si6 0.148278 0.391238 0.389631
Si Si7 0.594504 0.007293 0.386901
Si Si8 0.500000 0.500000 0.000000
O O1 0.430126 0.209084 0.240353
O O2 0.161553 0.425541 0.957368
O O3 0.000000 0.000000 0.500000
O O4 0.822835 0.459638 0.031638
O O5 0.087794 0.413715 0.296370
O O6 0.736653 0.759199 0.982019
O O7 0.129708 0.879028 0.755640
O O8 0.498447 0.972091 0.698117
O O9 0.373718 0.179386 0.602043
O O10 0.253034 0.684493 0.098868
O O11 0.708383 0.595084 0.344366
O O12 0.426684 0.225769 0.714157
O O13 0.898749 0.304490 0.535701
O O14 0.851178 0.054579 0.901844
O O15 0.000000 0.500000 0.500000
O O16 0.572879 0.711383 0.719443
#
# Coordination Sequence:
#
# PCOD9014204 Si02
#       8
#     2   2   2   2   2   2   2   1
#     4  11  25  44  68  96 126 168 220 282 355 421
#     4  10  25  49  69  95 136 181 226 289 356 422
#     4  10  25  44  71  96 138 181 231 287 350 410
#     4  10  22  39  68 104 144 183 233 284 335 394
#     4  10  21  41  67 103 147 189 226 280 337 398
#     4  11  24  46  69 104 138 183 237 289 336 414
#     4  10  25  46  64  95 129 167 221 288 352 424
#     4  12  26  42  70  94 130 164 224 292 350 434
#
# _framework density 27.346771
#
# number of rings (size 3 to 8) (size 9 to 14) (size 15 to 20)
#    0.000    1.600    0.000    2.400    7.467    7.467 
#    2.400    0.000    0.000    0.000    0.000    0.000 
#    0.000    0.000    0.000    0.000    0.000    0.000 
#
# Total GULP energy -83832.429098 kJ/mol
# GULP energy per Si atom -5588.828607 kJ/mol
# Density = 2.728453 g / cm^3
# Si number density = 27.346771 Si / 1000 Ang^3
#
#
#
# Elastic Constant Matrix: (Units=GPa)
#
#
# Indices 1 2 3 4 5 6 
#
# 1 127.7250 18.1133 43.1193 7.6913 2.2235 -37.8605
# 2 18.1133 95.9271 59.9795 8.1961 -11.5086 -38.0164
# 3 43.1193 59.9795 206.5439 -9.8682 -4.5141 -19.3555
# 4 7.6913 8.1961 -9.8682 53.7940 -14.1185 -6.4889
# 5 2.2235 -11.5086 -4.5141 -14.1185 37.5622 -8.4827
# 6 -37.8605 -38.0164 -19.3555 -6.4889 -8.4827 47.4873
#
#
#
# Elastic Compliance Matrix: (Units=1/GPa)
#
#
# Indices 1 2 3 4 5 6 
#
# 1 0.011776 0.004895 -0.002646 -0.000555 0.003148 0.012716
# 2 0.004895 0.022934 -0.005337 0.000459 0.011274 0.022165
# 3 -0.002646 -0.005337 0.006677 0.001773 -0.000815 -0.003564
# 4 -0.000555 0.000459 0.001773 0.022198 0.009963 0.005461
# 5 0.003148 0.011274 -0.000815 0.009963 0.037904 0.019335
# 6 0.012716 0.022165 -0.003564 0.005461 0.019335 0.051688
#
#
# Mechanical properties :
#
#
# Convention : Reuss Voigt Hill
#
# Bulk Modulus (GPa) = 28.39917 74.73556 51.56736
# Shear Modulus (GPa) = 29.22469 48.36763 38.79616
#
# Velocity S-wave (km/s) = 3.27260 4.21013 3.77062
# Velocity P-wave (km/s) = 4.96863 7.14295 6.15260
#
# Compressibility (1/GPa) = 0.03521230
#
# Stress axis : x y z
#
# Youngs Moduli (GPa) = 84.91625 43.60303 149.77606
#
# Poissons Ratio (x) = -0.21345 0.39633
# Poissons Ratio (y) = -0.41569 0.79929
# Poissons Ratio (z) = 0.22470 0.23269
#
# Static dielectric constant tensor:
#      x y z
#    x 0.925330 -1.503810 1.091890 
#    y -1.503810 0.557650 1.045030 
#    z 1.091890 1.045030 1.218900 
# 
# From -- ./inp_files/9778.got.cif
#   From: 2010.05.17/outbox.cif.g08.bks.cpg/sg2_5_cif.got.tgz:9778.got - 2010.06.03 11:33:40.
