data_PCOD9014151
_publ_section_title
;
Structure prediction by ZEFSAII (Michael W. Deem and Ramdas Pophale) SiO2 
 PCOD9014151
Probable space group: P -1
;
_chemical_formula_sum "Si O2"
_cell_formula_units_Z 14
_cell_length_a 10.112907
_cell_length_b 12.365993
_cell_length_c 18.159152
_cell_angle_alpha 25.284184
_cell_angle_beta 42.011786
_cell_angle_gamma 35.446795
_cell_volume 562.317782
_symmetry_space_group_name_H-M "P -1"
_symmetry_group_IT_number 2
_symmetry_cell_setting 'triclinic'
loop_
_space_group_symop_operation_xyz
x,y,z
-x,-y,-z
loop_
_atom_site_type_symbol
_atom_site_label
_atom_site_fract_x
_atom_site_fract_y
_atom_site_fract_z
Si Si1 0.707100 0.807361 0.925347
Si Si2 0.045343 0.586962 0.800353
Si Si3 0.340630 0.743560 0.764190
Si Si4 0.532023 0.549655 0.370781
Si Si5 0.821700 0.358903 0.794725
Si Si6 0.065242 0.617981 0.474128
Si Si7 0.139764 0.763091 0.982825
O O1 0.867273 0.824703 0.784545
O O2 0.497184 0.127817 0.821157
O O3 0.830026 0.691390 0.023911
O O4 0.666612 0.545731 0.078488
O O5 0.226848 0.650266 0.646140
O O6 0.910622 0.495263 0.856030
O O7 0.591535 0.654883 0.687361
O O8 0.313570 0.764243 0.851073
O O9 0.122669 0.042743 0.645087
O O10 0.500000 0.500000 0.500000
O O11 0.320046 0.560556 0.408054
O O12 0.024526 0.432712 0.667687
O O13 0.782286 0.264609 0.948826
O O14 0.908821 0.078847 0.878986
O O15 0.000000 0.500000 0.500000
#
# Coordination Sequence:
#
# PCOD9014151 Si02
#       7
#     2   2   2   2   2   2   2
#     4  10  23  42  71  99 123 171 230 272 321 401
#     4  10  21  42  69  95 129 169 221 277 324 384
#     4  11  23  44  69  94 130 175 225 268 329 390
#     4  12  26  45  68  98 136 176 218 278 341 388
#     4  11  23  40  65  95 135 178 210 266 339 387
#     4  12  26  44  63  97 138 173 221 268 326 404
#     4  10  21  41  66  99 132 164 222 276 319 398
#
# _framework density 24.896955999999999
#
# number of rings (size 3 to 8) (size 9 to 14) (size 15 to 20)
#    0.000    1.143    1.429    5.571    2.000    1.714 
#    7.714    0.000    0.000    0.000    0.000    0.000 
#    0.000    0.000    0.000    0.000    0.000    0.000 
#
# Total GULP energy -78265.562269 kJ/mol
# GULP energy per Si atom -5590.397305 kJ/mol
# Density = 2.484029 g / cm^3
# Si number density = 24.896956 Si / 1000 Ang^3
#
#
#
# Elastic Constant Matrix: (Units=GPa)
#
#
# Indices 1 2 3 4 5 6 
#
# 1 68.6897 31.8849 8.1731 0.6480 -12.9261 9.7069
# 2 31.8849 138.6007 9.8750 15.5993 -14.3504 -6.0150
# 3 8.1731 9.8750 52.7410 3.0838 -13.9571 -0.3042
# 4 0.6480 15.5993 3.0838 45.1291 -1.0826 -3.5878
# 5 -12.9261 -14.3504 -13.9571 -1.0826 31.9508 6.7010
# 6 9.7069 -6.0150 -0.3042 -3.5878 6.7010 36.4123
#
#
#
# Elastic Compliance Matrix: (Units=1/GPa)
#
#
# Indices 1 2 3 4 5 6 
#
# 1 0.018731 -0.003927 -0.000365 0.000737 0.007123 -0.006883
# 2 -0.003927 0.008709 -0.000415 -0.002734 0.001649 0.001909
# 3 -0.000365 -0.000415 0.021653 -0.001236 0.009428 -0.001647
# 4 0.000737 -0.002734 -0.001236 0.023298 -0.001065 0.001833
# 5 0.007123 0.001649 0.009428 -0.001065 0.040929 -0.009185
# 6 -0.006883 0.001909 -0.001647 0.001833 -0.009185 0.031471
#
#
# Mechanical properties :
#
#
# Convention : Reuss Voigt Hill
#
# Bulk Modulus (GPa) = 25.20280 39.98860 32.59570
# Shear Modulus (GPa) = 29.86307 36.70499 33.28403
#
# Velocity S-wave (km/s) = 3.46709 3.84380 3.66029
# Velocity P-wave (km/s) = 5.11590 5.98299 5.56636
#
# Compressibility (1/GPa) = 0.03967813
#
# Stress axis : x y z
#
# Youngs Moduli (GPa) = 53.38799 114.82023 46.18386
#
# Poissons Ratio (x) = 0.45092 0.01686
# Poissons Ratio (y) = 0.20966 0.01916
# Poissons Ratio (z) = 0.01949 0.04765
#
# Static dielectric constant tensor:
#      x y z
#    x 1.990820 -0.048410 0.019000 
#    y -0.048410 1.994480 0.018750 
#    z 0.019000 0.018750 1.988320 
# 
# From -- ./inp_files/357090.got.cif
#   From: 2010.05.17/outbox.cif.g08.bks.cpg/sg2_179_cif.got.tgz:357090.got - 2010.06.03 11:33:40.
