data_PCOD9014852
_publ_section_title
;
Structure prediction by ZEFSAII (Michael W. Deem and Ramdas Pophale) SiO2 
 PCOD9014852
Probable space group: P -1
;
_chemical_formula_sum "Si O2"
_cell_formula_units_Z 14
_cell_length_a 19.033346
_cell_length_b 5.821398
_cell_length_c 16.207302
_cell_angle_alpha 98.384202
_cell_angle_beta 20.443346
_cell_angle_gamma 92.653474
_cell_volume 598.950456
_symmetry_space_group_name_H-M "P -1"
_symmetry_group_IT_number 2
_symmetry_cell_setting 'triclinic'
loop_
_space_group_symop_operation_xyz
x,y,z
-x,-y,-z
loop_
_atom_site_type_symbol
_atom_site_label
_atom_site_fract_x
_atom_site_fract_y
_atom_site_fract_z
Si Si1 0.420116 0.265954 0.055151
Si Si2 0.816386 0.369270 0.199098
Si Si3 0.599665 0.208579 0.282042
Si Si4 0.689183 0.937939 0.623570
Si Si5 0.014321 0.205473 0.559875
Si Si6 0.406357 0.617300 0.880028
Si Si7 0.346560 0.872501 0.500129
O O1 0.175919 0.334917 0.347468
O O2 0.500000 0.500000 0.000000
O O3 0.510052 0.172142 0.861866
O O4 0.500000 0.000000 0.000000
O O5 0.773052 0.244962 0.155855
O O6 0.603739 0.572574 0.464740
O O7 0.826739 0.186288 0.253926
O O8 0.000000 0.500000 0.000000
O O9 0.662890 0.215720 0.116872
O O10 0.506713 0.979372 0.382507
O O11 0.744454 0.958205 0.468340
O O12 0.875391 0.906303 0.481656
O O13 0.584259 0.716344 0.733542
O O14 0.000000 0.000000 0.500000
O O15 0.787266 0.357805 0.844912
O O16 0.512534 0.364932 0.709556
#
# Coordination Sequence:
#
# PCOD9014852 Si02
#       7
#     2   2   2   2   2   2   2
#     4  10  23  44  68  95 137 184 231 301 356 412
#     4  10  21  41  69  96 132 174 218 271 338 416
#     4   9  21  42  63  97 134 169 220 274 335 408
#     4  10  23  42  65  94 138 173 230 288 352 403
#     4  11  23  44  72  97 133 186 238 287 347 420
#     4  10  22  43  66  98 134 179 228 282 343 410
#     4  10  22  41  69  95 137 179 214 287 343 404
#
# _framework density 23.374222
#
# number of rings (size 3 to 8) (size 9 to 14) (size 15 to 20)
#    0.000    2.000    1.429    0.429    4.000    4.000 
#   10.286   10.714    0.000    0.000    0.000    0.000 
#    0.000    0.000    0.000    0.000    0.000    0.000 
#
# Total GULP energy -78219.043475 kJ/mol
# GULP energy per Si atom -5587.074534 kJ/mol
# Density = 2.332102 g / cm^3
# Si number density = 23.374222 Si / 1000 Ang^3
#
#
#
# Elastic Constant Matrix: (Units=GPa)
#
#
# Indices 1 2 3 4 5 6 
#
# 1 135.3558 41.4087 53.2851 -29.1535 -3.4537 21.8147
# 2 41.4087 125.8434 42.0509 -22.5026 -4.7353 31.5619
# 3 53.2851 42.0509 134.5570 -22.3441 3.8054 0.7028
# 4 -29.1535 -22.5026 -22.3441 53.0821 -3.1751 0.5904
# 5 -3.4537 -4.7353 3.8054 -3.1751 32.4896 -2.1237
# 6 21.8147 31.5619 0.7028 0.5904 -2.1237 42.9224
#
#
#
# Elastic Compliance Matrix: (Units=1/GPa)
#
#
# Indices 1 2 3 4 5 6 
#
# 1 0.010637 -0.000193 -0.003428 0.004471 0.001602 -0.005190
# 2 -0.000193 0.011941 -0.003017 0.003895 0.001892 -0.008593
# 3 -0.003428 -0.003017 0.009903 0.000868 -0.001637 0.003705
# 4 0.004471 0.003895 0.000868 0.023543 0.002894 -0.005331
# 5 0.001602 0.001892 -0.001637 0.002894 0.031657 -0.000652
# 6 -0.005190 -0.008593 0.003705 -0.005331 -0.000652 0.032234
#
#
# Mechanical properties :
#
#
# Convention : Reuss Voigt Hill
#
# Bulk Modulus (GPa) = 52.07069 74.36061 63.21565
# Shear Modulus (GPa) = 35.81874 42.96628 39.39251
#
# Velocity S-wave (km/s) = 3.91884 4.29206 4.10969
# Velocity P-wave (km/s) = 6.54230 7.51296 7.04437
#
# Compressibility (1/GPa) = 0.01920466
#
# Stress axis : x y z
#
# Youngs Moduli (GPa) = 94.01523 83.74646 100.97912
#
# Poissons Ratio (x) = 0.01619 0.34611
# Poissons Ratio (y) = 0.01818 0.30466
# Poissons Ratio (z) = 0.32224 0.25266
#
# Static dielectric constant tensor:
#      x y z
#    x 1.967300 -0.094870 0.008940 
#    y -0.094870 1.922850 -0.000100 
#    z 0.008940 -0.000100 1.879800 
# 
# From -- ./inp_files/576818.got.cif
#   From: 2010.05.17/outbox.cif.g08.bks.cpg/sg2_289_cif.got.tgz:576818.got - 2010.06.03 11:33:40.
