data_PCOD9014945
_publ_section_title
;
Structure prediction by ZEFSAII (Michael W. Deem and Ramdas Pophale) SiO2 
 PCOD9014945
Probable space group: P -1
;
_chemical_formula_sum "Si O2"
_cell_formula_units_Z 13
_cell_length_a 10.849279
_cell_length_b 9.160947
_cell_length_c 7.007297
_cell_angle_alpha 127.930971
_cell_angle_beta 106.226617
_cell_angle_gamma 100.883713
_cell_volume 463.821791
_symmetry_space_group_name_H-M "P -1"
_symmetry_group_IT_number 2
_symmetry_cell_setting 'triclinic'
loop_
_space_group_symop_operation_xyz
x,y,z
-x,-y,-z
loop_
_atom_site_type_symbol
_atom_site_label
_atom_site_fract_x
_atom_site_fract_y
_atom_site_fract_z
Si Si1 0.887978 0.307051 0.924998
Si Si2 0.399006 0.314746 0.568424
Si Si3 0.202477 0.385488 0.811820
Si Si4 0.719654 0.106574 0.359159
Si Si5 0.284886 0.452768 0.287845
Si Si6 0.500000 0.000000 0.500000
Si Si7 0.947746 0.147449 0.204519
O O1 0.756050 0.365713 0.952789
O O2 0.944971 0.286846 0.136703
O O3 0.826688 0.123895 0.596958
O O4 0.000000 0.500000 0.000000
O O5 0.337955 0.371666 0.774288
O O6 0.292854 0.334409 0.381538
O O7 0.559690 0.468159 0.684153
O O8 0.408435 0.104540 0.441974
O O9 0.065806 0.275297 0.522926
O O10 0.173730 0.312147 0.960649
O O11 0.732713 0.339409 0.511542
O O12 0.564118 0.976419 0.288627
O O13 0.789663 0.056779 0.166695
O O14 0.000000 0.000000 0.000000
#
# Coordination Sequence:
#
# PCOD9014945 Si02
#       7
#     2   2   2   2   2   1   2
#     4  11  24  44  74 106 142 191 245 306 355 427
#     4  10  21  41  70 104 139 177 244 288 371 421
#     4  11  23  40  74 101 141 183 244 296 353 429
#     4  10  23  47  71 104 147 184 251 292 366 432
#     4   9  21  42  74 103 131 191 240 305 338 429
#     4  10  24  46  72 102 148 192 222 310 364 438
#     4  12  28  44  71 109 151 197 236 298 373 436
#
# _framework density 28.028005
#
# number of rings (size 3 to 8) (size 9 to 14) (size 15 to 20)
#    0.000    1.538    1.538    1.846    6.462    1.846 
#    0.000    1.538    0.000    0.000    0.000    0.000 
#    0.000    0.000    0.000    0.000    0.000    0.000 
#
# Total GULP energy -72496.604600 kJ/mol
# GULP energy per Si atom -5576.661892 kJ/mol
# Density = 2.796421 g / cm^3
# Si number density = 28.028005 Si / 1000 Ang^3
#
#
#
# Elastic Constant Matrix: (Units=GPa)
#
#
# Indices 1 2 3 4 5 6 
#
# 1 165.6028 59.0359 32.2220 -14.7679 -51.6764 3.8658
# 2 59.0359 155.2134 60.0057 -46.4120 -15.4207 -24.6124
# 3 32.2220 60.0057 128.0252 -37.8181 -30.9163 -22.0377
# 4 -14.7679 -46.4120 -37.8181 44.8798 -7.9936 3.0652
# 5 -51.6764 -15.4207 -30.9163 -7.9936 62.2415 -14.6491
# 6 3.8658 -24.6124 -22.0377 3.0652 -14.6491 73.4947
#
#
#
# Elastic Compliance Matrix: (Units=1/GPa)
#
#
# Indices 1 2 3 4 5 6 
#
# 1 0.009722 -0.002046 0.002526 0.004859 0.009750 0.001301
# 2 -0.002046 0.011888 0.000327 0.012310 0.004044 0.004480
# 3 0.002526 0.000327 0.016981 0.017580 0.014575 0.007240
# 4 0.004859 0.012310 0.017580 0.055189 0.025720 0.011963
# 5 0.009750 0.004044 0.014575 0.025720 0.038486 0.011810
# 6 0.001301 0.004480 0.007240 0.011963 0.011810 0.019064
#
#
# Mechanical properties :
#
#
# Convention : Reuss Voigt Hill
#
# Bulk Modulus (GPa) = 24.87272 83.48540 54.17906
# Shear Modulus (GPa) = 30.65287 55.96171 43.30729
#
# Velocity S-wave (km/s) = 3.31063 4.47322 3.93510
# Velocity P-wave (km/s) = 4.84842 7.51869 6.32605
#
# Compressibility (1/GPa) = 0.04020470
#
# Stress axis : x y z
#
# Youngs Moduli (GPa) = 102.86059 84.12065 58.88999
#
# Poissons Ratio (x) = 0.17214 -0.14876
# Poissons Ratio (y) = 0.21049 -0.01928
# Poissons Ratio (z) = -0.25984 -0.02754
#
# Static dielectric constant tensor:
#      x y z
#    x 2.362600 0.068290 0.089780 
#    y 0.068290 2.258810 0.052050 
#    z 0.089780 0.052050 2.114140 
# 
# From -- ./inp_files/61303.got.cif
#   From: 2010.05.17/outbox.cif.g08.bks.cpg/sg2_31_cif.got.tgz:61303.got - 2010.06.03 11:33:40.
