data_PCOD9014777
_publ_section_title
;
Structure prediction by ZEFSAII (Michael W. Deem and Ramdas Pophale) SiO2 
 PCOD9014777
Probable space group: P -1
;
_chemical_formula_sum "Si O2"
_cell_formula_units_Z 14
_cell_length_a 9.878812
_cell_length_b 9.933772
_cell_length_c 19.291142
_cell_angle_alpha 113.567123
_cell_angle_beta 23.010822
_cell_angle_gamma 109.812708
_cell_volume 676.068716
_symmetry_space_group_name_H-M "P -1"
_symmetry_group_IT_number 2
_symmetry_cell_setting 'triclinic'
loop_
_space_group_symop_operation_xyz
x,y,z
-x,-y,-z
loop_
_atom_site_type_symbol
_atom_site_label
_atom_site_fract_x
_atom_site_fract_y
_atom_site_fract_z
Si Si1 0.825799 0.928552 0.246417
Si Si2 0.143693 0.239184 0.185879
Si Si3 0.097109 0.505253 0.171099
Si Si4 0.084782 0.393266 0.874452
Si Si5 0.912087 0.352778 0.471367
Si Si6 0.932132 0.183850 0.753990
Si Si7 0.084510 0.949325 0.526726
O O1 0.023412 0.773374 0.094126
O O2 0.483583 0.954930 0.366065
O O3 0.787422 0.878287 0.334565
O O4 0.008162 0.079763 0.200645
O O5 0.979186 0.360333 0.233245
O O6 0.064600 0.306648 0.313886
O O7 0.559531 0.216639 0.973440
O O8 0.944507 0.664735 0.303519
O O9 0.060954 0.525952 0.109928
O O10 0.500000 0.500000 0.000000
O O11 0.496559 0.368460 0.663543
O O12 0.000000 0.500000 0.000000
O O13 0.010200 0.214642 0.446675
O O14 0.000000 0.500000 0.500000
O O15 0.876608 0.063923 0.698605
O O16 0.000000 0.000000 0.500000
#
# Coordination Sequence:
#
# PCOD9014777 Si02
#       7
#     2   2   2   2   2   2   2
#     4  10  22  41  67  91 123 165 216 257 305 384
#     4  11  23  40  67  98 124 162 224 264 308 376
#     4   9  22  38  65  94 123 164 214 259 305 377
#     4  10  24  43  66  91 131 172 204 256 332 378
#     4  11  27  40  62  97 133 163 210 271 321 371
#     4  10  21  41  69  87 125 174 209 254 319 382
#     4  11  25  42  63  94 130 167 210 263 325 373
#
# _framework density 20.707954000000001
#
# number of rings (size 3 to 8) (size 9 to 14) (size 15 to 20)
#    0.000    1.714    1.429    0.857   12.000    5.143 
#    0.000    1.429    0.000    0.000    0.000    0.000 
#    0.000    0.000    0.000    0.000    0.000    0.000 
#
# Total GULP energy -78030.801707 kJ/mol
# GULP energy per Si atom -5573.628693 kJ/mol
# Density = 2.066082 g / cm^3
# Si number density = 20.707954 Si / 1000 Ang^3
#
#
#
# Elastic Constant Matrix: (Units=GPa)
#
#
# Indices 1 2 3 4 5 6 
#
# 1 162.1534 89.8133 62.6607 22.7258 9.2774 -15.1654
# 2 89.8133 199.6696 38.0210 42.0467 16.0766 -1.0806
# 3 62.6607 38.0210 106.6289 22.6649 17.7103 -0.4896
# 4 22.7258 42.0467 22.6649 28.4745 10.1944 -1.2387
# 5 9.2774 16.0766 17.7103 10.1944 34.5877 12.1729
# 6 -15.1654 -1.0806 -0.4896 -1.2387 12.1729 44.1191
#
#
#
# Elastic Compliance Matrix: (Units=1/GPa)
#
#
# Indices 1 2 3 4 5 6 
#
# 1 0.010474 -0.004134 -0.005064 0.001971 -0.000119 0.003531
# 2 -0.004134 0.008913 0.001635 -0.011213 -0.000043 -0.001487
# 3 -0.005064 0.001635 0.014189 -0.008265 -0.003993 -0.000674
# 4 0.001971 -0.011213 -0.008265 0.060744 -0.010742 0.004980
# 5 -0.000119 -0.000043 -0.003993 -0.010742 0.038001 -0.010873
# 6 0.003531 -0.001487 -0.000674 0.004980 -0.010873 0.026975
#
#
# Mechanical properties :
#
#
# Convention : Reuss Voigt Hill
#
# Bulk Modulus (GPa) = 54.20349 94.38244 74.29296
# Shear Modulus (GPa) = 27.68976 39.96672 33.82824
#
# Velocity S-wave (km/s) = 3.66068 4.39796 4.04615
# Velocity P-wave (km/s) = 6.64074 8.45377 7.60150
#
# Compressibility (1/GPa) = 0.01844900
#
# Stress axis : x y z
#
# Youngs Moduli (GPa) = 95.47229 112.19747 70.47938
#
# Poissons Ratio (x) = 0.46377 0.35693
# Poissons Ratio (y) = 0.39464 -0.11520
# Poissons Ratio (z) = 0.48351 -0.18339
#
# Static dielectric constant tensor:
#      x y z
#    x 1.736780 0.011590 -0.001220 
#    y 0.011590 1.845450 0.023830 
#    z -0.001220 0.023830 1.813790 
# 
# From -- ./inp_files/302742.got.cif
#   From: 2010.05.17/outbox.cif.g08.bks.cpg/sg2_152_cif.got.tgz:302742.got - 2010.06.03 11:33:40.
