data_PCOD9014799
_publ_section_title
;
Structure prediction by ZEFSAII (Michael W. Deem and Ramdas Pophale) SiO2 
 PCOD9014799
Probable space group: P -1
;
_chemical_formula_sum "Si O2"
_cell_formula_units_Z 14
_cell_length_a 18.233048
_cell_length_b 7.008518
_cell_length_c 9.556445
_cell_angle_alpha 125.954621
_cell_angle_beta 41.295297
_cell_angle_gamma 125.005433
_cell_volume 631.977643
_symmetry_space_group_name_H-M "P -1"
_symmetry_group_IT_number 2
_symmetry_cell_setting 'triclinic'
loop_
_space_group_symop_operation_xyz
x,y,z
-x,-y,-z
loop_
_atom_site_type_symbol
_atom_site_label
_atom_site_fract_x
_atom_site_fract_y
_atom_site_fract_z
Si Si1 0.396803 0.008121 0.046987
Si Si2 0.969698 0.216340 0.308416
Si Si3 0.133018 0.335882 0.348966
Si Si4 0.254883 0.393167 0.479154
Si Si5 0.515725 0.223967 0.681168
Si Si6 0.337347 0.446125 0.899071
Si Si7 0.829600 0.724560 0.161538
O O1 0.314526 0.166264 0.295856
O O2 0.336526 0.723791 0.988709
O O3 0.500000 0.000000 0.000000
O O4 0.448977 0.131640 0.880049
O O5 0.896621 0.407409 0.526456
O O6 0.030145 0.152042 0.335391
O O7 0.890183 0.989943 0.246585
O O8 0.076364 0.336271 0.104241
O O9 0.157481 0.327986 0.473263
O O10 0.250668 0.339814 0.103171
O O11 0.354694 0.634013 0.406128
O O12 0.204164 0.433055 0.719481
O O13 0.458977 0.414614 0.762311
O O14 0.500000 0.000000 0.500000
O O15 0.284951 0.293229 0.771910
#
# Coordination Sequence:
#
# PCOD9014799 Si02
#       7
#     2   2   2   2   2   2   2
#     4  12  24  42  66  92 137 176 215 261 310 384
#     4   9  21  44  65  91 126 172 214 276 326 377
#     4  10  21  41  69  92 127 170 219 268 324 381
#     4  12  24  41  65 101 128 173 219 263 322 388
#     4  12  27  42  63 100 137 171 215 265 318 392
#     4  11  23  44  65  96 136 175 212 260 326 388
#     4  10  23  40  65  94 127 171 212 265 334 379
#
# _framework density 22.152681999999999
#
# number of rings (size 3 to 8) (size 9 to 14) (size 15 to 20)
#    0.000    1.143    2.857    3.000    4.000    2.286 
#    0.000    0.000    0.000    0.000    0.000    0.000 
#    0.000    0.000    0.000    0.000    0.000    0.000 
#
# Total GULP energy -78243.460757 kJ/mol
# GULP energy per Si atom -5588.818625 kJ/mol
# Density = 2.210226 g / cm^3
# Si number density = 22.152682 Si / 1000 Ang^3
#
#
#
# Elastic Constant Matrix: (Units=GPa)
#
#
# Indices 1 2 3 4 5 6 
#
# 1 148.9618 20.4392 31.2926 -4.5982 22.8942 4.2437
# 2 20.4392 70.2788 5.3538 -0.0703 1.4287 10.5924
# 3 31.2926 5.3538 57.0714 -4.6873 17.1625 0.1639
# 4 -4.5982 -0.0703 -4.6873 37.7101 -6.2324 7.9450
# 5 22.8942 1.4287 17.1625 -6.2324 32.4600 2.3500
# 6 4.2437 10.5924 0.1639 7.9450 2.3500 26.8691
#
#
#
# Elastic Compliance Matrix: (Units=1/GPa)
#
#
# Indices 1 2 3 4 5 6 
#
# 1 0.008285 -0.002073 -0.003117 -0.000038 -0.004104 -0.000102
# 2 -0.002073 0.015831 -0.000794 0.001359 0.001915 -0.006478
# 3 -0.003117 -0.000794 0.022202 0.000524 -0.009503 0.001346
# 4 -0.000038 0.001359 0.000524 0.029661 0.006097 -0.009837
# 5 -0.004104 0.001915 -0.009503 0.006097 0.040201 -0.005368
# 6 -0.000102 -0.006478 0.001346 -0.009837 -0.005368 0.043157
#
#
# Mechanical properties :
#
#
# Convention : Reuss Voigt Hill
#
# Bulk Modulus (GPa) = 29.11204 43.38702 36.24953
# Shear Modulus (GPa) = 27.35883 34.02294 30.69089
#
# Velocity S-wave (km/s) = 3.51809 3.92323 3.72617
# Velocity P-wave (km/s) = 5.44726 6.33642 5.90859
#
# Compressibility (1/GPa) = 0.03435005
#
# Stress axis : x y z
#
# Youngs Moduli (GPa) = 120.70228 63.16595 45.04070
#
# Poissons Ratio (x) = 0.13096 0.14038
# Poissons Ratio (y) = 0.25025 0.03577
# Poissons Ratio (z) = 0.37620 0.05016
#
# Static dielectric constant tensor:
#      x y z
#    x 1.817640 0.026960 0.009820 
#    y 0.026960 1.826140 -0.012270 
#    z 0.009820 -0.012270 1.806930 
# 
# From -- ./inp_files/38408.got.cif
#   From: 2010.05.17/outbox.cif.g08.bks.cpg/sg2_20_cif.got.tgz:38408.got - 2010.06.03 11:33:40.
