data_PCOD9014711
_publ_section_title
;
Structure prediction by ZEFSAII (Michael W. Deem and Ramdas Pophale) SiO2 
 PCOD9014711
Probable space group: P -1
;
_chemical_formula_sum "Si O2"
_cell_formula_units_Z 16
_cell_length_a 11.554221
_cell_length_b 16.171787
_cell_length_c 12.035761
_cell_angle_alpha 138.587911
_cell_angle_beta 51.015138
_cell_angle_gamma 151.020076
_cell_volume 718.187463
_symmetry_space_group_name_H-M "P -1"
_symmetry_group_IT_number 2
_symmetry_cell_setting 'triclinic'
loop_
_space_group_symop_operation_xyz
x,y,z
-x,-y,-z
loop_
_atom_site_type_symbol
_atom_site_label
_atom_site_fract_x
_atom_site_fract_y
_atom_site_fract_z
Si Si1 0.474930 0.231386 0.228143
Si Si2 0.007973 0.863565 0.825580
Si Si3 0.108955 0.200403 0.691378
Si Si4 0.600897 0.469884 0.574117
Si Si5 0.678668 0.241131 0.301354
Si Si6 0.515464 0.970476 0.334500
Si Si7 0.945114 0.182377 0.015560
Si Si8 0.991675 0.613384 0.196814
O O1 0.443040 0.336600 0.424468
O O2 0.466417 0.118107 0.214970
O O3 0.745019 0.429754 0.226210
O O4 0.297706 0.062971 0.073753
O O5 0.818911 0.708746 0.686445
O O6 0.275079 0.995169 0.766286
O O7 0.922048 0.742862 0.871673
O O8 0.000000 0.000000 0.000000
O O9 0.395952 0.374354 0.686461
O O10 0.049535 0.195328 0.851205
O O11 0.028365 0.266889 0.733525
O O12 0.000000 0.000000 0.500000
O O13 0.729433 0.420666 0.472606
O O14 0.602227 0.127847 0.347857
O O15 0.867636 0.276750 0.160470
O O16 0.239839 0.764825 0.264405
O O17 0.500000 0.000000 0.500000
O O18 0.000000 0.500000 0.000000
#
# Coordination Sequence:
#
# PCOD9014711 Si02
#       8
#     2   2   2   2   2   2   2   2
#     4  10  21  41  69 100 132 178 228 281 343 397
#     4  11  27  46  64  99 144 182 226 280 353 410
#     4  12  25  45  72 108 139 177 234 294 346 405
#     4  10  24  43  69 100 136 181 226 281 348 412
#     4   9  21  44  68  96 137 174 236 268 351 406
#     4  11  24  45  69  98 134 182 224 281 338 410
#     4  11  22  42  72  97 138 188 222 284 345 414
#     4  12  25  41  69 105 134 173 238 288 331 405
#
# _framework density 22.278303999999999
#
# number of rings (size 3 to 8) (size 9 to 14) (size 15 to 20)
#    0.750    0.500    1.250    4.875    3.500    6.000 
#    2.250    0.000    0.000    0.000    0.000    0.000 
#    0.000    0.000    0.000    0.000    0.000    0.000 
#
# Total GULP energy -89122.639549 kJ/mol
# GULP energy per Si atom -5570.164972 kJ/mol
# Density = 2.222760 g / cm^3
# Si number density = 22.278304 Si / 1000 Ang^3
#
#
#
# Elastic Constant Matrix: (Units=GPa)
#
#
# Indices 1 2 3 4 5 6 
#
# 1 79.6948 22.5004 52.7625 2.2392 -8.1825 3.6584
# 2 22.5004 105.7960 48.7390 -20.1674 -9.1222 16.8449
# 3 52.7625 48.7390 149.2278 -16.1294 -8.4424 11.6189
# 4 2.2392 -20.1674 -16.1294 49.5558 -1.9785 3.9632
# 5 -8.1825 -9.1222 -8.4424 -1.9785 43.2664 -1.4109
# 6 3.6584 16.8449 11.6189 3.9632 -1.4109 22.6384
#
#
#
# Elastic Compliance Matrix: (Units=1/GPa)
#
#
# Indices 1 2 3 4 5 6 
#
# 1 0.017162 -0.001830 -0.005951 -0.003582 0.001612 0.002370
# 2 -0.001830 0.013723 -0.002352 0.005750 0.002039 -0.009588
# 3 -0.005951 -0.002352 0.010136 0.002864 0.000391 -0.002968
# 4 -0.003582 0.005750 0.002864 0.024436 0.001907 -0.009329
# 5 0.001612 0.002039 0.000391 0.001907 0.023984 -0.000817
# 6 0.002370 -0.009588 -0.002968 -0.009329 -0.000817 0.054030
#
#
# Mechanical properties :
#
#
# Convention : Reuss Voigt Hill
#
# Bulk Modulus (GPa) = 48.17758 64.74692 56.46225
# Shear Modulus (GPa) = 29.29916 37.13988 33.21952
#
# Velocity S-wave (km/s) = 3.63042 4.08743 3.86569
# Velocity P-wave (km/s) = 6.26463 7.16952 6.73229
#
# Compressibility (1/GPa) = 0.02075654
#
# Stress axis : x y z
#
# Youngs Moduli (GPa) = 58.26985 72.86869 98.65827
#
# Poissons Ratio (x) = 0.13332 0.58709
# Poissons Ratio (y) = 0.10661 0.23203
# Poissons Ratio (z) = 0.34675 0.17138
#
# Static dielectric constant tensor:
#      x y z
#    x 1.870180 -0.029390 -0.062780 
#    y -0.029390 1.823820 0.138930 
#    z -0.062780 0.138930 1.482770 
# 
# From -- ./inp_files/436949.got.cif
#   From: 2010.05.17/outbox.cif.g08.bks.cpg/sg2_219_cif.got.tgz:436949.got - 2010.06.03 11:33:40.
