data_PCOD9014879
_publ_section_title
;
Structure prediction by ZEFSAII (Michael W. Deem and Ramdas Pophale) SiO2 
 PCOD9014879
Probable space group: P -1
;
_chemical_formula_sum "Si O2"
_cell_formula_units_Z 14
_cell_length_a 9.645720
_cell_length_b 5.183590
_cell_length_c 12.201593
_cell_angle_alpha 106.488207
_cell_angle_beta 97.801963
_cell_angle_gamma 105.954232
_cell_volume 547.125593
_symmetry_space_group_name_H-M "P -1"
_symmetry_group_IT_number 2
_symmetry_cell_setting 'triclinic'
loop_
_space_group_symop_operation_xyz
x,y,z
-x,-y,-z
loop_
_atom_site_type_symbol
_atom_site_label
_atom_site_fract_x
_atom_site_fract_y
_atom_site_fract_z
Si Si1 0.903999 0.164395 0.455370
Si Si2 0.371849 0.771216 0.024441
Si Si3 0.719870 0.461547 0.233616
Si Si4 0.247391 0.757453 0.341524
Si Si5 0.092003 0.809736 0.098750
Si Si6 0.014331 0.764815 0.758814
Si Si7 0.458206 0.138716 0.734843
O O1 0.000000 0.500000 0.500000
O O2 0.776240 0.133857 0.527052
O O3 0.905446 0.066342 0.318521
O O4 0.000000 0.000000 0.500000
O O5 0.243648 0.901313 0.056987
O O6 0.437749 0.691934 0.132598
O O7 0.310481 0.530576 0.898768
O O8 0.500000 0.000000 0.000000
O O9 0.885439 0.440688 0.244449
O O10 0.647522 0.689805 0.298117
O O11 0.630225 0.170990 0.258375
O O12 0.157481 0.811687 0.230858
O O13 0.418637 0.861344 0.340888
O O14 0.157355 0.419533 0.302265
O O15 0.994719 0.018156 0.121876
O O16 0.000000 0.500000 0.000000
#
# Coordination Sequence:
#
# PCOD9014879 Si02
#       7
#     2   2   2   2   2   2   2
#     4  10  21  41  69  98 127 172 219 274 327 386
#     4   9  21  40  62  87 127 177 222 254 322 389
#     4  11  24  41  62  93 137 172 213 271 332 388
#     4  10  23  42  69  96 128 173 229 269 321 396
#     4  11  23  39  64  99 132 169 216 276 329 387
#     4  11  25  41  68  96 137 169 223 275 336 382
#     4  10  24  41  65  92 131 176 220 265 323 396
#
# _framework density 25.588274999999999
#
# number of rings (size 3 to 8) (size 9 to 14) (size 15 to 20)
#    0.000    1.714    1.429    1.286   10.000    2.286 
#    0.000    1.429    0.000    0.000    0.000    0.000 
#    0.000    0.000    0.000    0.000    0.000    0.000 
#
# Total GULP energy -78082.097248 kJ/mol
# GULP energy per Si atom -5577.292661 kJ/mol
# Density = 2.553004 g / cm^3
# Si number density = 25.588275 Si / 1000 Ang^3
#
#
#
# Elastic Constant Matrix: (Units=GPa)
#
#
# Indices 1 2 3 4 5 6 
#
# 1 204.7666 79.7878 53.9480 -3.0009 -54.2682 5.0353
# 2 79.7878 109.9366 33.0053 6.2850 -19.6324 -17.7867
# 3 53.9480 33.0053 136.1607 10.8695 -51.1345 -3.5240
# 4 -3.0009 6.2850 10.8695 38.0430 1.8987 -6.5654
# 5 -54.2682 -19.6324 -51.1345 1.8987 54.3671 -8.4069
# 6 5.0353 -17.7867 -3.5240 -6.5654 -8.4069 47.7171
#
#
#
# Elastic Compliance Matrix: (Units=1/GPa)
#
#
# Indices 1 2 3 4 5 6 
#
# 1 0.008852 -0.005625 0.000286 0.000916 0.006780 -0.001689
# 2 -0.005625 0.014417 -0.001263 -0.001473 -0.000686 0.005551
# 3 0.000286 -0.001263 0.012323 -0.003534 0.011854 0.002011
# 4 0.000916 -0.001473 -0.003534 0.028194 -0.003564 0.002345
# 5 0.006780 -0.000686 0.011854 -0.003564 0.037107 0.005951
# 6 -0.001689 0.005551 0.002011 0.002345 0.005951 0.024724
#
#
# Mechanical properties :
#
#
# Convention : Reuss Voigt Hill
#
# Bulk Modulus (GPa) = 44.66594 87.14957 65.90775
# Shear Modulus (GPa) = 34.17992 46.96695 40.57343
#
# Velocity S-wave (km/s) = 3.65878 4.28891 3.98631
# Velocity P-wave (km/s) = 5.94495 7.65889 6.85569
#
# Compressibility (1/GPa) = 0.02238842
#
# Stress axis : x y z
#
# Youngs Moduli (GPa) = 112.96799 69.36059 81.14883
#
# Poissons Ratio (x) = 0.39016 -0.02318
# Poissons Ratio (y) = 0.63546 0.10246
# Poissons Ratio (z) = -0.03227 0.08757
#
# Static dielectric constant tensor:
#      x y z
#    x 2.112810 -0.095980 0.274840 
#    y -0.095980 2.250710 -0.198890 
#    z 0.274840 -0.198890 2.592860 
# 
# From -- ./inp_files/119360.got.cif
#   From: 2010.05.17/outbox.cif.g08.bks.cpg/sg2_60_cif.got.tgz:119360.got - 2010.06.03 11:33:40.
