data_PCOD9014866
_publ_section_title
;
Structure prediction by ZEFSAII (Michael W. Deem and Ramdas Pophale) SiO2 
 PCOD9014866
Probable space group: P -1
;
_chemical_formula_sum "Si O2"
_cell_formula_units_Z 12
_cell_length_a 8.188355
_cell_length_b 10.991508
_cell_length_c 9.930812
_cell_angle_alpha 65.889075
_cell_angle_beta 101.148706
_cell_angle_gamma 141.599901
_cell_volume 493.911791
_symmetry_space_group_name_H-M "P -1"
_symmetry_group_IT_number 2
_symmetry_cell_setting 'triclinic'
loop_
_space_group_symop_operation_xyz
x,y,z
-x,-y,-z
loop_
_atom_site_type_symbol
_atom_site_label
_atom_site_fract_x
_atom_site_fract_y
_atom_site_fract_z
Si Si1 0.017560 0.641847 0.844568
Si Si2 0.095227 0.550884 0.642774
Si Si3 0.196800 0.224928 0.120213
Si Si4 0.674991 0.571735 0.218172
Si Si5 0.684835 0.974802 0.454315
Si Si6 0.804581 0.786008 0.397448
O O1 0.925421 0.523158 0.739581
O O2 0.869576 0.667069 0.887867
O O3 0.278242 0.891328 0.719096
O O4 0.000000 0.500000 0.000000
O O5 0.095094 0.394454 0.749479
O O6 0.402794 0.801770 0.566756
O O7 0.000000 0.500000 0.500000
O O8 0.438397 0.343443 0.206619
O O9 0.263989 0.277425 0.950910
O O10 0.973976 0.977661 0.227773
O O11 0.616339 0.585423 0.353756
O O12 0.686404 0.830450 0.448551
O O13 0.962860 0.146485 0.511030
#
# Coordination Sequence:
#
# PCOD9014866 Si02
#       6
#     2   2   2   2   2   2
#     4  11  23  44  67  92 140 180 216 278 341 398
#     4  12  25  42  66 102 137 179 225 273 342 402
#     4  10  22  42  65  99 133 173 227 276 330 402
#     4  11  22  39  69  97 133 176 224 277 334 397
#     4  10  23  43  65 100 134 177 225 280 331 401
#     4  10  21  41  69  97 132 169 231 280 331 391
#
# _framework density 24.295839000000001
#
# number of rings (size 3 to 8) (size 9 to 14) (size 15 to 20)
#    0.000    1.333    3.333    2.000    2.333    0.667 
#    0.000    2.500    0.000    0.000    0.000    0.000 
#    0.000    0.000    0.000    0.000    0.000    0.000 
#
# Total GULP energy -66885.585472 kJ/mol
# GULP energy per Si atom -5573.798789 kJ/mol
# Density = 2.424054 g / cm^3
# Si number density = 24.295839 Si / 1000 Ang^3
#
#
#
# Elastic Constant Matrix: (Units=GPa)
#
#
# Indices 1 2 3 4 5 6 
#
# 1 34.9163 -0.3437 33.6003 13.9767 -0.1405 -0.8714
# 2 -0.3437 47.6637 39.4418 9.0350 11.0964 -11.9611
# 3 33.6003 39.4418 176.1820 11.2317 -2.2552 -20.9265
# 4 13.9767 9.0350 11.2317 60.9760 -19.8746 -4.4084
# 5 -0.1405 11.0964 -2.2552 -19.8746 48.1745 -2.7803
# 6 -0.8714 -11.9611 -20.9265 -4.4084 -2.7803 24.1315
#
#
#
# Elastic Compliance Matrix: (Units=1/GPa)
#
#
# Indices 1 2 3 4 5 6 
#
# 1 0.045054 0.013219 -0.011433 -0.013618 -0.009373 -0.005304
# 2 0.013219 0.035020 -0.009079 -0.010039 -0.012207 0.006722
# 3 -0.011433 -0.009079 0.010323 0.003896 0.004452 0.005264
# 4 -0.013618 -0.010039 0.003896 0.024781 0.012905 0.003925
# 5 -0.009373 -0.012207 0.004452 0.012905 0.029260 0.003201
# 6 -0.005304 0.006722 0.005264 0.003925 0.003201 0.050230
#
#
# Mechanical properties :
#
#
# Convention : Reuss Voigt Hill
#
# Bulk Modulus (GPa) = 13.19097 44.90653 29.04875
# Shear Modulus (GPa) = 21.31976 39.06066 30.19021
#
# Velocity S-wave (km/s) = 2.96549 4.01398 3.52889
# Velocity P-wave (km/s) = 4.14326 6.32503 5.34662
#
# Compressibility (1/GPa) = 0.07580945
#
# Stress axis : x y z
#
# Youngs Moduli (GPa) = 22.19572 28.55517 96.87393
#
# Poissons Ratio (x) = -0.37746 1.10760
# Poissons Ratio (y) = -0.29340 0.87949
# Poissons Ratio (z) = 0.25377 0.25924
#
# Static dielectric constant tensor:
#      x y z
#    x 1.975620 0.012470 0.038520 
#    y 0.012470 2.046490 -0.008130 
#    z 0.038520 -0.008130 1.951140 
# 
# From -- ./inp_files/38855.got.cif
#   From: 2010.05.17/outbox.cif.g08.bks.cpg/sg2_20_cif.got.tgz:38855.got - 2010.06.03 11:33:40.
