data_PCOD9014824
_publ_section_title
;
Structure prediction by ZEFSAII (Michael W. Deem and Ramdas Pophale) SiO2 
 PCOD9014824
Probable space group: P -1
;
_chemical_formula_sum "Si O2"
_cell_formula_units_Z 16
_cell_length_a 5.316825
_cell_length_b 8.773860
_cell_length_c 20.227746
_cell_angle_alpha 128.361988
_cell_angle_beta 74.270257
_cell_angle_gamma 94.584522
_cell_volume 707.285122
_symmetry_space_group_name_H-M "P -1"
_symmetry_group_IT_number 2
_symmetry_cell_setting 'triclinic'
loop_
_space_group_symop_operation_xyz
x,y,z
-x,-y,-z
loop_
_atom_site_type_symbol
_atom_site_label
_atom_site_fract_x
_atom_site_fract_y
_atom_site_fract_z
Si Si1 0.010766 0.798764 0.598401
Si Si2 0.723583 0.812268 0.004923
Si Si3 0.585609 0.378035 0.733161
Si Si4 0.575113 0.214846 0.552720
Si Si5 0.649360 0.808994 0.860490
Si Si6 0.738472 0.581950 0.468632
Si Si7 0.025515 0.228976 0.767214
Si Si8 0.153066 0.808187 0.084077
O O1 0.222951 0.776853 0.518660
O O2 0.036744 0.601538 0.587993
O O3 0.761774 0.776873 0.563330
O O4 0.038179 0.996028 0.688034
O O5 0.960437 0.768800 0.027178
O O6 0.456130 0.727241 0.024859
O O7 0.623745 0.046352 0.072951
O O8 0.771435 0.760864 0.911438
O O9 0.680265 0.266635 0.629622
O O10 0.586579 0.607688 0.780482
O O11 0.789072 0.320481 0.762014
O O12 0.299099 0.313346 0.753671
O O13 0.324413 0.363116 0.587319
O O14 0.500000 0.000000 0.500000
O O15 0.828029 0.955449 0.850986
O O16 0.500000 0.500000 0.500000
O O17 0.951096 0.261185 0.857943
#
# Coordination Sequence:
#
# PCOD9014824 Si02
#       8
#     2   2   2   2   2   2   2   2
#     4  10  22  41  64  85 128 171 216 271 315 389
#     4   9  20  41  74  96 124 169 218 263 327 381
#     4  12  28  42  64  99 134 170 220 274 321 386
#     4  11  22  41  63  90 125 177 213 263 327 377
#     4   9  23  41  73  96 131 162 224 267 317 391
#     4   9  21  38  62  91 114 158 227 265 318 377
#     4  12  27  44  61  96 140 173 211 269 334 375
#     4  10  21  41  69  94 126 175 211 258 324 395
#
# _framework density 22.621714999999998
#
# number of rings (size 3 to 8) (size 9 to 14) (size 15 to 20)
#    0.750    1.000    1.250    1.875    5.250    5.000 
#    0.000    3.750    0.000    0.000    0.000    0.000 
#    0.000    0.000    0.000    0.000    0.000    0.000 
#
# Total GULP energy -89276.312542 kJ/mol
# GULP energy per Si atom -5579.769534 kJ/mol
# Density = 2.257023 g / cm^3
# Si number density = 22.621715 Si / 1000 Ang^3
#
#
#
# Elastic Constant Matrix: (Units=GPa)
#
#
# Indices 1 2 3 4 5 6 
#
# 1 109.0619 30.1366 6.3389 -3.4571 25.9740 9.8006
# 2 30.1366 87.2332 21.9023 -8.2658 8.7173 -2.8940
# 3 6.3389 21.9023 53.5789 4.9674 14.0680 0.2370
# 4 -3.4571 -8.2658 4.9674 40.6368 0.9439 2.6769
# 5 25.9740 8.7173 14.0680 0.9439 23.1281 -6.8385
# 6 9.8006 -2.8940 0.2370 2.6769 -6.8385 25.2840
#
#
#
# Elastic Compliance Matrix: (Units=1/GPa)
#
#
# Indices 1 2 3 4 5 6 
#
# 1 0.018308 -0.005843 0.007394 0.001116 -0.027448 -0.015377
# 2 -0.005843 0.015173 -0.007667 0.002989 0.007060 0.005666
# 3 0.007394 -0.007667 0.027921 -0.003059 -0.025391 -0.010549
# 4 0.001116 0.002989 -0.003059 0.025978 -0.002620 -0.003521
# 5 -0.027448 0.007060 -0.025391 -0.002620 0.098356 0.038565
# 6 -0.015377 0.005666 -0.010549 -0.003521 0.038565 0.057062
#
#
# Mechanical properties :
#
#
# Convention : Reuss Voigt Hill
#
# Bulk Modulus (GPa) = 20.33782 40.73664 30.53723
# Shear Modulus (GPa) = 18.42166 30.57618 24.49892
#
# Velocity S-wave (km/s) = 2.85675 3.68044 3.29444
# Velocity P-wave (km/s) = 4.45997 6.00897 5.29146
#
# Compressibility (1/GPa) = 0.04916947
#
# Stress axis : x y z
#
# Youngs Moduli (GPa) = 54.62079 65.90731 35.81583
#
# Poissons Ratio (x) = 0.38509 -0.26482
# Poissons Ratio (y) = 0.31914 0.27460
# Poissons Ratio (z) = -0.40386 0.50532
#
# Static dielectric constant tensor:
#      x y z
#    x 1.869370 -0.051420 -0.025520 
#    y -0.051420 1.840970 0.036320 
#    z -0.025520 0.036320 1.819720 
# 
# From -- ./inp_files/582065.got.cif
#   From: 2010.05.17/outbox.cif.g08.bks.cpg/sg2_292_cif.got.tgz:582065.got - 2010.06.03 11:33:40.
