data_PCOD9014181
_publ_section_title
;
Structure prediction by ZEFSAII (Michael W. Deem and Ramdas Pophale) SiO2 
 PCOD9014181
Probable space group: P -1
;
_chemical_formula_sum "Si O2"
_cell_formula_units_Z 16
_cell_length_a 10.822164
_cell_length_b 8.675169
_cell_length_c 8.436093
_cell_angle_alpha 91.013377
_cell_angle_beta 116.644063
_cell_angle_gamma 89.357474
_cell_volume 707.795145
_symmetry_space_group_name_H-M "P -1"
_symmetry_group_IT_number 2
_symmetry_cell_setting 'triclinic'
loop_
_space_group_symop_operation_xyz
x,y,z
-x,-y,-z
loop_
_atom_site_type_symbol
_atom_site_label
_atom_site_fract_x
_atom_site_fract_y
_atom_site_fract_z
Si Si1 0.850757 0.476378 0.502569
Si Si2 0.768382 0.052351 0.729274
Si Si3 0.344374 0.220408 0.135904
Si Si4 0.161084 0.507858 0.132177
Si Si5 0.868884 0.219148 0.069582
Si Si6 0.650968 0.206507 0.374787
Si Si7 0.240759 0.052974 0.782144
Si Si8 0.114260 0.200889 0.442125
O O1 0.843326 0.444193 0.685975
O O2 0.765154 0.331142 0.384573
O O3 0.789945 0.650651 0.466091
O O4 0.000000 0.500000 0.500000
O O5 0.676612 0.168090 0.573806
O O6 0.678363 0.939145 0.784374
O O7 0.836184 0.938783 0.639877
O O8 0.885297 0.136179 0.904857
O O9 0.238541 0.347413 0.144363
O O10 0.500119 0.271885 0.255553
O O11 0.312399 0.180674 0.934036
O O12 0.215438 0.631882 0.036136
O O13 0.000000 0.500000 0.000000
O O14 0.993533 0.264855 0.258543
O O15 0.801936 0.083962 0.129048
O O16 0.665209 0.041845 0.289655
O O17 0.109350 0.125500 0.613260
#
# Coordination Sequence:
#
# PCOD9014181 Si02
#       8
#     2   2   2   2   2   2   2   2
#     4  12  26  44  69 101 146 181 228 288 353 414
#     4  10  21  41  67 101 134 179 232 296 340 409
#     4  11  24  46  71 100 141 186 236 289 343 419
#     4  12  25  45  69 102 143 183 233 287 353 412
#     4  11  21  41  67 101 137 184 229 287 345 412
#     4  11  24  45  70 103 140 187 234 283 354 419
#     4  10  25  42  68 102 138 182 236 289 346 408
#     4  11  22  41  64  99 138 185 229 281 348 413
#
# _framework density 22.605411
#
# number of rings (size 3 to 8) (size 9 to 14) (size 15 to 20)
#    0.000    1.000    3.750    2.250    1.750    2.500 
#    0.000    3.750    0.000    0.000    0.000    0.000 
#    0.000    0.000    0.000    0.000    0.000    0.000 
#
# Total GULP energy -89098.637854 kJ/mol
# GULP energy per Si atom -5568.664866 kJ/mol
# Density = 2.255396 g / cm^3
# Si number density = 22.605411 Si / 1000 Ang^3
#
#
#
# Elastic Constant Matrix: (Units=GPa)
#
#
# Indices 1 2 3 4 5 6 
#
# 1 64.3310 34.7474 58.9960 3.2091 3.5542 -0.1754
# 2 34.7474 99.2252 58.4550 1.3507 5.4261 5.6273
# 3 58.9960 58.4550 153.3614 -0.6632 -6.7215 -3.8770
# 4 3.2091 1.3507 -0.6632 43.9429 4.5732 -14.7330
# 5 3.5542 5.4261 -6.7215 4.5732 22.4346 0.3132
# 6 -0.1754 5.6273 -3.8770 -14.7330 0.3132 30.2744
#
#
#
# Elastic Compliance Matrix: (Units=1/GPa)
#
#
# Indices 1 2 3 4 5 6 
#
# 1 0.026035 -0.003423 -0.008994 -0.001732 -0.005622 -0.001150
# 2 -0.003423 0.014322 -0.004416 -0.001098 -0.003969 -0.003741
# 3 -0.008994 -0.004416 0.011995 0.001345 0.005772 0.002900
# 4 -0.001732 -0.001098 0.001345 0.028199 -0.005003 0.014141
# 5 -0.005622 -0.003969 0.005772 -0.005003 0.049195 -0.001499
# 6 -0.001150 -0.003741 0.002900 0.014141 -0.001499 0.040988
#
#
# Mechanical properties :
#
#
# Convention : Reuss Voigt Hill
#
# Bulk Modulus (GPa) = 53.50831 69.03494 61.27163
# Shear Modulus (GPa) = 23.73853 30.31166 27.02510
#
# Velocity S-wave (km/s) = 3.24408 3.66581 3.46137
# Velocity P-wave (km/s) = 6.14443 6.96584 6.56799
#
# Compressibility (1/GPa) = 0.01868869
#
# Stress axis : x y z
#
# Youngs Moduli (GPa) = 38.40979 69.82253 83.36506
#
# Poissons Ratio (x) = 0.23897 0.74976
# Poissons Ratio (y) = 0.13146 0.36811
# Poissons Ratio (z) = 0.34545 0.30831
#
# Static dielectric constant tensor:
#      x y z
#    x 1.885440 0.032470 -0.000870 
#    y 0.032470 1.924060 0.021000 
#    z -0.000870 0.021000 1.897190 
# 
# From -- ./inp_files/244190.got.cif
#   From: 2010.05.17/outbox.cif.g08.bks.cpg/sg2_123_cif.got.tgz:244190.got - 2010.06.03 11:33:40.
