data_PCOD9014334
_publ_section_title
;
Structure prediction by ZEFSAII (Michael W. Deem and Ramdas Pophale) SiO2 
 PCOD9014334
Probable space group: P -1
;
_chemical_formula_sum "Si O2"
_cell_formula_units_Z 12
_cell_length_a 8.130858
_cell_length_b 11.623938
_cell_length_c 6.242592
_cell_angle_alpha 122.271537
_cell_angle_beta 80.755902
_cell_angle_gamma 84.954257
_cell_volume 481.599024
_symmetry_space_group_name_H-M "P -1"
_symmetry_group_IT_number 2
_symmetry_cell_setting 'triclinic'
loop_
_space_group_symop_operation_xyz
x,y,z
-x,-y,-z
loop_
_atom_site_type_symbol
_atom_site_label
_atom_site_fract_x
_atom_site_fract_y
_atom_site_fract_z
Si Si1 0.789039 0.442425 0.853734
Si Si2 0.107583 0.273422 0.773564
Si Si3 0.402998 0.869794 0.886409
Si Si4 0.524080 0.847130 0.433466
Si Si5 0.966607 0.058538 0.816027
Si Si6 0.500631 0.613296 0.860561
O O1 0.674604 0.429324 0.076168
O O2 0.945160 0.311019 0.686990
O O3 0.865376 0.579728 0.998271
O O4 0.654015 0.480889 0.726768
O O5 0.284248 0.194711 0.553194
O O6 0.064321 0.184707 0.894974
O O7 0.364922 0.858637 0.634321
O O8 0.238077 0.895516 0.090984
O O9 0.503698 0.712482 0.757826
O O10 0.500000 0.000000 0.000000
O O11 0.521327 0.725804 0.148951
O O12 0.500000 0.000000 0.500000
O O13 0.000000 0.000000 0.500000
O O14 0.000000 0.000000 0.000000
#
# Coordination Sequence:
#
# PCOD9014334 Si02
#       6
#     2   2   2   2   2   2
#     4   9  20  41  69  89 136 191 232 290 342 426
#     4  10  21  43  69  98 139 182 239 290 351 423
#     4  12  24  40  68 102 138 179 232 294 365 428
#     4  11  22  39  67  98 135 178 229 293 363 421
#     4  12  28  46  75 109 145 186 234 301 364 423
#     4  10  21  41  67  94 135 180 233 288 352 426
#
# _framework density 24.916996999999999
#
# number of rings (size 3 to 8) (size 9 to 14) (size 15 to 20)
#    0.000    1.333    3.333    2.000    4.667    0.000 
#    0.000    8.333    7.333    0.000    0.000    0.000 
#    0.000    0.000    0.000    0.000    0.000    0.000 
#
# Total GULP energy -66835.405147 kJ/mol
# GULP energy per Si atom -5569.617096 kJ/mol
# Density = 2.486028 g / cm^3
# Si number density = 24.916997 Si / 1000 Ang^3
#
#
#
# Elastic Constant Matrix: (Units=GPa)
#
#
# Indices 1 2 3 4 5 6 
#
# 1 101.6660 46.6192 32.8262 -1.3509 -24.9327 -2.6950
# 2 46.6192 188.5944 38.5600 -25.5435 -8.1102 12.3579
# 3 32.8262 38.5600 102.1639 -13.7547 -15.0117 -5.7083
# 4 -1.3509 -25.5435 -13.7547 35.1085 7.2231 -8.4804
# 5 -24.9327 -8.1102 -15.0117 7.2231 38.9623 4.6518
# 6 -2.6950 12.3579 -5.7083 -8.4804 4.6518 51.2912
#
#
#
# Elastic Compliance Matrix: (Units=1/GPa)
#
#
# Indices 1 2 3 4 5 6 
#
# 1 0.014132 -0.003179 -0.002774 -0.004619 0.008206 -0.000308
# 2 -0.003179 0.006966 -0.001323 0.004539 -0.001806 -0.001078
# 3 -0.002774 -0.001323 0.012043 0.003791 0.001649 0.001990
# 4 -0.004619 0.004539 0.003791 0.036121 -0.007936 0.005778
# 5 0.008206 -0.001806 0.001649 -0.007936 0.033037 -0.003259
# 6 -0.000308 -0.001078 0.001990 0.005778 -0.003259 0.021212
#
#
# Mechanical properties :
#
#
# Convention : Reuss Voigt Hill
#
# Bulk Modulus (GPa) = 53.79184 69.82611 61.80898
# Shear Modulus (GPa) = 34.65971 43.36699 39.01335
#
# Velocity S-wave (km/s) = 3.73367 4.17641 3.96123
# Velocity P-wave (km/s) = 6.34211 7.16525 6.76621
#
# Compressibility (1/GPa) = 0.01859018
#
# Stress axis : x y z
#
# Youngs Moduli (GPa) = 70.75927 143.54844 83.03834
#
# Poissons Ratio (x) = 0.45629 0.23038
# Poissons Ratio (y) = 0.22492 0.10982
# Poissons Ratio (z) = 0.19632 0.18985
#
# Static dielectric constant tensor:
#      x y z
#    x 2.130670 -0.064580 0.075070 
#    y -0.064580 2.056240 -0.000980 
#    z 0.075070 -0.000980 2.005250 
# 
# From -- ./inp_files/25431.got.cif
#   From: 2010.05.17/outbox.cif.g08.bks.cpg/sg2_13_cif.got.tgz:25431.got - 2010.06.03 11:33:40.
