data_PCOD9014175
_publ_section_title
;
Structure prediction by ZEFSAII (Michael W. Deem and Ramdas Pophale) SiO2 
 PCOD9014175
Probable space group: P -1
;
_chemical_formula_sum "Si O2"
_cell_formula_units_Z 14
_cell_length_a 15.582500
_cell_length_b 5.044729
_cell_length_c 8.163336
_cell_angle_alpha 89.246171
_cell_angle_beta 66.911366
_cell_angle_gamma 66.739841
_cell_volume 534.655545
_symmetry_space_group_name_H-M "P -1"
_symmetry_group_IT_number 2
_symmetry_cell_setting 'triclinic'
loop_
_space_group_symop_operation_xyz
x,y,z
-x,-y,-z
loop_
_atom_site_type_symbol
_atom_site_label
_atom_site_fract_x
_atom_site_fract_y
_atom_site_fract_z
Si Si1 0.928599 0.262664 0.886364
Si Si2 0.311968 0.900539 0.258927
Si Si3 0.394942 0.279299 0.028436
Si Si4 0.379973 0.075085 0.545877
Si Si5 0.878783 0.213786 0.583240
Si Si6 0.071665 0.585641 0.774834
Si Si7 0.391768 0.556590 0.673076
O O1 0.600459 0.592997 0.155859
O O2 0.860922 0.356508 0.774363
O O3 0.024460 0.350812 0.798506
O O4 0.025163 0.090293 0.140464
O O5 0.371212 0.558978 0.162519
O O6 0.196201 0.943280 0.375679
O O7 0.359841 0.973684 0.385675
O O8 0.319997 0.119788 0.115323
O O9 0.500000 0.000000 0.000000
O O10 0.125238 0.581361 0.907761
O O11 0.334369 0.420943 0.598812
O O12 0.500000 0.000000 0.500000
O O13 0.340493 0.906596 0.707197
O O14 0.868155 0.414614 0.433714
O O15 0.000000 0.000000 0.500000
O O16 0.500000 0.500000 0.500000
#
# Coordination Sequence:
#
# PCOD9014175 Si02
#       7
#     2   2   2   2   2   2   2
#     4   9  18  35  63  94 132 170 241 281 351 413
#     4  12  27  45  72 110 144 189 255 289 371 449
#     4  12  26  47  72 106 144 190 234 314 364 436
#     4  10  21  41  67 100 141 182 234 297 351 439
#     4  10  23  45  73 102 147 194 240 302 362 421
#     4   9  18  35  62  97 124 184 224 290 350 412
#     4  10  21  42  70 101 137 188 231 288 375 435
#
# _framework density 26.185085999999998
#
# number of rings (size 3 to 8) (size 9 to 14) (size 15 to 20)
#    0.000    1.714    0.000    4.286    0.000    9.143 
#    5.143    0.000    3.143    0.000    0.000    0.000 
#    0.000    0.000    0.000    0.000    0.000    0.000 
#
# Total GULP energy -78276.801389 kJ/mol
# GULP energy per Si atom -5591.200099 kJ/mol
# Density = 2.612549 g / cm^3
# Si number density = 26.185086 Si / 1000 Ang^3
#
#
#
# Elastic Constant Matrix: (Units=GPa)
#
#
# Indices 1 2 3 4 5 6 
#
# 1 138.2446 55.2296 85.8942 6.3762 11.1832 25.7796
# 2 55.2296 152.5112 52.6501 -6.3476 -11.6433 44.7549
# 3 85.8942 52.6501 155.1044 -48.7596 23.5095 13.6394
# 4 6.3762 -6.3476 -48.7596 54.1211 1.7156 -9.1164
# 5 11.1832 -11.6433 23.5095 1.7156 56.8120 2.8546
# 6 25.7796 44.7549 13.6394 -9.1164 2.8546 53.0944
#
#
#
# Elastic Compliance Matrix: (Units=1/GPa)
#
#
# Indices 1 2 3 4 5 6 
#
# 1 0.020134 0.001291 -0.017721 -0.020022 0.004742 -0.010004
# 2 0.001291 0.011490 -0.006680 -0.006691 0.005572 -0.010045
# 3 -0.017721 -0.006680 0.028312 0.029284 -0.011113 0.012588
# 4 -0.020022 -0.006691 0.029284 0.049677 -0.011903 0.017008
# 5 0.004742 0.005572 -0.011113 -0.011903 0.023142 -0.007432
# 6 -0.010004 -0.010045 0.012588 0.017008 -0.007432 0.032245
#
#
# Mechanical properties :
#
#
# Convention : Reuss Voigt Hill
#
# Bulk Modulus (GPa) = 72.90967 92.60089 82.75528
# Shear Modulus (GPa) = 23.17053 49.61125 36.39089
#
# Velocity S-wave (km/s) = 2.97791 4.35747 3.73199
# Velocity P-wave (km/s) = 6.30304 7.79471 7.08822
#
# Compressibility (1/GPa) = 0.01371560
#
# Stress axis : x y z
#
# Youngs Moduli (GPa) = 49.66796 87.03313 35.32070
#
# Poissons Ratio (x) = -0.11237 0.62592
# Poissons Ratio (y) = -0.06413 0.23594
# Poissons Ratio (z) = 0.88017 0.58138
#
# Static dielectric constant tensor:
#      x y z
#    x 2.065520 -0.149170 -0.051560 
#    y -0.149170 2.409460 0.131960 
#    z -0.051560 0.131960 2.233670 
# 
# From -- ./inp_files/288779.got.cif
#   From: 2010.05.17/outbox.cif.g08.bks.cpg/sg2_145_cif.got.tgz:288779.got - 2010.06.03 11:33:40.
