data_PCOD9014287
_publ_section_title
;
Structure prediction by ZEFSAII (Michael W. Deem and Ramdas Pophale) SiO2 
 PCOD9014287
Probable space group: P -1
;
_chemical_formula_sum "Si O2"
_cell_formula_units_Z 16
_cell_length_a 17.552311
_cell_length_b 7.441364
_cell_length_c 8.720285
_cell_angle_alpha 54.524844
_cell_angle_beta 131.190674
_cell_angle_gamma 100.637529
_cell_volume 660.720962
_symmetry_space_group_name_H-M "P -1"
_symmetry_group_IT_number 2
_symmetry_cell_setting 'triclinic'
loop_
_space_group_symop_operation_xyz
x,y,z
-x,-y,-z
loop_
_atom_site_type_symbol
_atom_site_label
_atom_site_fract_x
_atom_site_fract_y
_atom_site_fract_z
Si Si1 0.807781 0.963679 0.887157
Si Si2 0.563414 0.779352 0.090160
Si Si3 0.741803 0.995499 0.119552
Si Si4 0.123399 0.589108 0.182740
Si Si5 0.337417 0.482122 0.371640
Si Si6 0.423989 0.013418 0.536537
Si Si7 0.939146 0.968061 0.591504
Si Si8 0.973621 0.350994 0.671664
O O1 0.831614 0.204133 0.805639
O O2 0.693387 0.988195 0.658283
O O3 0.804834 0.897675 0.095158
O O4 0.910770 0.785566 0.033790
O O5 0.602355 0.558762 0.363509
O O6 0.663465 0.850155 0.125022
O O7 0.483666 0.800447 0.833605
O O8 0.500000 0.000000 0.000000
O O9 0.820638 0.991649 0.366817
O O10 0.680723 0.268277 0.855937
O O11 0.220864 0.452430 0.269348
O O12 0.098328 0.506728 0.356703
O O13 0.014887 0.723437 0.881433
O O14 0.403917 0.266196 0.463262
O O15 0.500000 0.000000 0.500000
O O16 0.934885 0.160991 0.621024
O O17 0.000000 0.000000 0.500000
O O18 0.000000 0.500000 0.500000
#
# Coordination Sequence:
#
# PCOD9014287 Si02
#       8
#     2   2   2   2   2   2   2   2
#     4  10  21  41  67  92 134 177 215 278 337 384
#     4  10  24  43  65  94 132 170 225 282 332 382
#     4  11  22  44  69  96 137 178 218 274 332 402
#     4  10  23  44  65  98 140 174 222 270 333 420
#     4  10  24  43  71  96 131 176 230 266 340 411
#     4  11  23  43  71  98 132 173 226 287 341 381
#     4  11  20  41  67  97 135 178 213 266 340 399
#     4  11  25  39  65  99 140 172 218 274 334 404
#
# _framework density 24.215973000000002
#
# number of rings (size 3 to 8) (size 9 to 14) (size 15 to 20)
#    0.000    1.500    5.000    1.500    3.500    6.000 
#    0.000    4.375    2.750    0.000    0.000    0.000 
#    0.000    0.000    0.000    0.000    0.000    0.000 
#
# Total GULP energy -89476.925183 kJ/mol
# GULP energy per Si atom -5592.307824 kJ/mol
# Density = 2.416086 g / cm^3
# Si number density = 24.215973 Si / 1000 Ang^3
#
#
#
# Elastic Constant Matrix: (Units=GPa)
#
#
# Indices 1 2 3 4 5 6 
#
# 1 99.2995 23.0508 19.0250 -1.7837 -8.3554 -20.9333
# 2 23.0508 68.8661 38.9770 6.0578 1.8479 -5.7850
# 3 19.0250 38.9770 174.3170 21.0845 1.9001 8.4910
# 4 -1.7837 6.0578 21.0845 48.3089 5.2606 9.0635
# 5 -8.3554 1.8479 1.9001 5.2606 41.7859 -2.1929
# 6 -20.9333 -5.7850 8.4910 9.0635 -2.1929 41.6780
#
#
#
# Elastic Compliance Matrix: (Units=1/GPa)
#
#
# Indices 1 2 3 4 5 6 
#
# 1 0.012575 -0.003195 -0.000970 -0.000223 0.003057 0.006280
# 2 -0.003195 0.017898 -0.003607 -0.001008 -0.001046 0.001778
# 3 -0.000970 -0.003607 0.007019 -0.002266 -0.000170 -0.001934
# 4 -0.000223 -0.001008 -0.002266 0.023073 -0.003062 -0.004969
# 5 0.003057 -0.001046 -0.000170 -0.003062 0.025162 0.003415
# 6 0.006280 0.001778 -0.001934 -0.004969 0.003415 0.029049
#
#
# Mechanical properties :
#
#
# Convention : Reuss Voigt Hill
#
# Bulk Modulus (GPa) = 45.56139 56.06535 50.81337
# Shear Modulus (GPa) = 36.32807 43.78322 40.05564
#
# Velocity S-wave (km/s) = 3.87740 4.25671 4.07148
# Velocity P-wave (km/s) = 6.23708 6.88200 6.56746
#
# Compressibility (1/GPa) = 0.02194841
#
# Stress axis : x y z
#
# Youngs Moduli (GPa) = 79.52188 55.87314 142.46837
#
# Poissons Ratio (x) = 0.17851 0.13824
# Poissons Ratio (y) = 0.25406 0.51381
# Poissons Ratio (z) = 0.07716 0.20151
#
# Static dielectric constant tensor:
#      x y z
#    x 1.860700 0.080280 -0.074900 
#    y 0.080280 1.903790 0.034190 
#    z -0.074900 0.034190 1.932500 
# 
# From -- ./inp_files/327344.got.cif
#   From: 2010.05.17/outbox.cif.g08.bks.cpg/sg2_164_cif.got.tgz:327344.got - 2010.06.03 11:33:40.
