data_PCOD9014277
_publ_section_title
;
Structure prediction by ZEFSAII (Michael W. Deem and Ramdas Pophale) SiO2 
 PCOD9014277
Probable space group: P -1
;
_chemical_formula_sum "Si O2"
_cell_formula_units_Z 16
_cell_length_a 9.015912
_cell_length_b 7.740978
_cell_length_c 11.174351
_cell_angle_alpha 117.123992
_cell_angle_beta 103.457100
_cell_angle_gamma 87.234892
_cell_volume 673.543429
_symmetry_space_group_name_H-M "P -1"
_symmetry_group_IT_number 2
_symmetry_cell_setting 'triclinic'
loop_
_space_group_symop_operation_xyz
x,y,z
-x,-y,-z
loop_
_atom_site_type_symbol
_atom_site_label
_atom_site_fract_x
_atom_site_fract_y
_atom_site_fract_z
Si Si1 0.409951 0.479495 0.603866
Si Si2 0.878270 0.510472 0.722125
Si Si3 0.165874 0.778379 0.582729
Si Si4 0.890682 0.250954 0.838616
Si Si5 0.180483 0.181931 0.380074
Si Si6 0.172246 0.749699 0.895288
Si Si7 0.207085 0.112776 0.855126
Si Si8 0.509915 0.625084 0.918901
O O1 0.500000 0.500000 0.500000
O O2 0.277406 0.633605 0.622886
O O3 0.315464 0.271384 0.517184
O O4 0.507484 0.515980 0.754724
O O5 0.839781 0.312915 0.578567
O O6 0.837619 0.444795 0.827812
O O7 0.804462 0.690909 0.700436
O O8 0.057712 0.577067 0.769300
O O9 0.987046 0.775513 0.586107
O O10 0.235272 0.992144 0.700613
O O11 0.071252 0.248385 0.845731
O O12 0.815884 0.046221 0.711751
O O13 0.867708 0.243931 0.971991
O O14 0.350669 0.726156 0.914206
O O15 0.139715 0.945336 0.880523
O O16 0.350074 0.220197 0.979887
O O17 0.500000 0.500000 0.000000
#
# Coordination Sequence:
#
# PCOD9014277 Si02
#       8
#     2   2   2   2   2   2   2   2
#     4  11  24  40  67  94 128 177 218 269 332 392
#     4  11  21  39  67  96 132 164 221 271 326 380
#     4  10  21  41  67  92 124 174 216 267 327 394
#     4  11  25  39  67 104 128 170 217 279 323 390
#     4  10  22  42  66  94 130 172 216 267 333 391
#     4  12  23  43  67  93 135 173 218 270 328 394
#     4  11  24  41  68  94 130 177 218 261 337 396
#     4  12  27  44  65  97 135 177 224 273 327 398
#
# _framework density 23.754964999999999
#
# number of rings (size 3 to 8) (size 9 to 14) (size 15 to 20)
#    0.000    1.000    3.750    4.125    1.750    6.000 
#    0.000    0.000    0.000    5.250    0.000    0.000 
#    0.000    0.000    0.000    0.000    0.000    0.000 
#
# Total GULP energy -89412.003741 kJ/mol
# GULP energy per Si atom -5588.250234 kJ/mol
# Density = 2.370090 g / cm^3
# Si number density = 23.754965 Si / 1000 Ang^3
#
#
#
# Elastic Constant Matrix: (Units=GPa)
#
#
# Indices 1 2 3 4 5 6 
#
# 1 64.1835 14.4313 40.9936 17.0757 27.0648 0.6156
# 2 14.4313 100.5553 49.6313 -11.6805 1.8360 13.0089
# 3 40.9936 49.6313 173.9539 33.5840 32.5940 26.1806
# 4 17.0757 -11.6805 33.5840 37.0589 12.0650 -2.5085
# 5 27.0648 1.8360 32.5940 12.0650 43.4847 0.7233
# 6 0.6156 13.0089 26.1806 -2.5085 0.7233 17.9207
#
#
#
# Elastic Compliance Matrix: (Units=1/GPa)
#
#
# Indices 1 2 3 4 5 6 
#
# 1 0.024250 -0.003670 -0.001772 -0.006599 -0.011845 0.003975
# 2 -0.003670 0.014584 -0.005815 0.010498 0.003124 -0.000623
# 3 -0.001772 -0.005815 0.014058 -0.013272 -0.005208 -0.017904
# 4 -0.006599 0.010498 -0.013272 0.046479 0.000409 0.018485
# 5 -0.011845 0.003124 -0.005208 0.000409 0.033954 0.004435
# 6 0.003975 -0.000623 -0.017904 0.018485 0.004435 0.084681
#
#
# Mechanical properties :
#
#
# Convention : Reuss Voigt Hill
#
# Bulk Modulus (GPa) = 32.91847 60.97834 46.94841
# Shear Modulus (GPa) = 19.94843 35.26863 27.60853
#
# Velocity S-wave (km/s) = 2.90100 3.85734 3.41284
# Velocity P-wave (km/s) = 5.01086 6.75013 5.94445
#
# Compressibility (1/GPa) = 0.03037808
#
# Stress axis : x y z
#
# Youngs Moduli (GPa) = 41.23786 68.56623 71.13286
#
# Poissons Ratio (x) = 0.25163 0.12608
# Poissons Ratio (y) = 0.15134 0.41362
# Poissons Ratio (z) = 0.07309 0.39870
#
# Static dielectric constant tensor:
#      x y z
#    x 1.950320 -0.012010 0.009460 
#    y -0.012010 1.904920 -0.040410 
#    z 0.009460 -0.040410 2.024730 
# 
# From -- ./inp_files/380082.got.cif
#   From: 2010.05.17/outbox.cif.g08.bks.cpg/sg2_191_cif.got.tgz:380082.got - 2010.06.03 11:33:40.
