data_PCOD9014757
_publ_section_title
;
Structure prediction by ZEFSAII (Michael W. Deem and Ramdas Pophale) SiO2 
 PCOD9014757
Probable space group: P -1
;
_chemical_formula_sum "Si O2"
_cell_formula_units_Z 14
_cell_length_a 5.187037
_cell_length_b 11.276531
_cell_length_c 10.743301
_cell_angle_alpha 71.125661
_cell_angle_beta 91.462447
_cell_angle_gamma 103.202332
_cell_volume 578.092345
_symmetry_space_group_name_H-M "P -1"
_symmetry_group_IT_number 2
_symmetry_cell_setting 'triclinic'
loop_
_space_group_symop_operation_xyz
x,y,z
-x,-y,-z
loop_
_atom_site_type_symbol
_atom_site_label
_atom_site_fract_x
_atom_site_fract_y
_atom_site_fract_z
Si Si1 0.854235 0.854752 0.693664
Si Si2 0.779797 0.949619 0.914270
Si Si3 0.190463 0.867382 0.468059
Si Si4 0.371395 0.789129 0.145073
Si Si5 0.560020 0.584373 0.709844
Si Si6 0.615003 0.728155 0.416728
Si Si7 0.006155 0.457891 0.868607
O O1 0.912783 0.891811 0.822962
O O2 0.627351 0.726945 0.721917
O O3 0.097356 0.835405 0.619577
O O4 0.770434 0.980624 0.597820
O O5 0.674181 0.078002 0.839580
O O6 0.556195 0.840593 0.012395
O O7 0.000000 0.000000 0.000000
O O8 0.442239 0.819425 0.444972
O O9 0.927651 0.793796 0.411702
O O10 0.514348 0.719513 0.276123
O O11 0.553011 0.608156 0.553025
O O12 0.885474 0.308586 0.881219
O O13 0.808338 0.528253 0.769807
O O14 0.295586 0.503793 0.797298
O O15 0.000000 0.500000 0.000000
#
# Coordination Sequence:
#
# PCOD9014757 Si02
#       7
#     2   2   2   2   2   2   2
#     4  10  21  41  69 103 143 179 237 289 350 420
#     4  11  24  45  69 108 136 190 232 295 364 415
#     4  10  22  39  70 107 144 184 221 299 361 411
#     4  11  27  44  73 101 148 184 237 299 350 422
#     4  11  26  44  73 103 138 189 237 284 345 422
#     4  11  23  46  69 111 143 181 238 290 362 414
#     4  12  28  49  71 101 140 193 238 284 344 422
#
# _framework density 24.217586000000001
#
# number of rings (size 3 to 8) (size 9 to 14) (size 15 to 20)
#    0.000    1.143    1.429    3.857    4.000    7.429 
#   10.286    0.000    0.000    0.000    0.000    0.000 
#    0.000    0.000    0.000    0.000    0.000    0.000 
#
# Total GULP energy -78383.163123 kJ/mol
# GULP energy per Si atom -5598.797366 kJ/mol
# Density = 2.416247 g / cm^3
# Si number density = 24.217586 Si / 1000 Ang^3
#
#
#
# Elastic Constant Matrix: (Units=GPa)
#
#
# Indices 1 2 3 4 5 6 
#
# 1 36.2947 -9.4615 -2.2527 2.2185 9.3349 -3.9589
# 2 -9.4615 102.9216 41.0812 9.8487 0.5726 31.8819
# 3 -2.2527 41.0812 117.5315 5.3755 16.4342 12.5281
# 4 2.2185 9.8487 5.3755 40.1468 13.0495 1.8293
# 5 9.3349 0.5726 16.4342 13.0495 39.4592 -9.7266
# 6 -3.9589 31.8819 12.5281 1.8293 -9.7266 39.7864
#
#
#
# Elastic Compliance Matrix: (Units=1/GPa)
#
#
# Indices 1 2 3 4 5 6 
#
# 1 0.030249 0.002977 0.000818 0.000156 -0.007984 -0.001592
# 2 0.002977 0.015083 -0.003788 -0.002483 -0.001179 -0.010771
# 3 0.000818 -0.003788 0.010725 0.001291 -0.005439 -0.001649
# 4 0.000156 -0.002483 0.001291 0.028914 -0.010678 -0.002341
# 5 -0.007984 -0.001179 -0.005439 -0.010678 0.035782 0.011102
# 6 -0.001592 -0.010771 -0.001649 -0.002341 0.011102 0.036948
#
#
# Mechanical properties :
#
#
# Convention : Reuss Voigt Hill
#
# Bulk Modulus (GPa) = 17.83441 35.05353 26.44397
# Shear Modulus (GPa) = 28.34832 39.03720 33.69276
#
# Velocity S-wave (km/s) = 3.42507 4.01925 3.73400
# Velocity P-wave (km/s) = 4.79809 6.00375 5.43446
#
# Compressibility (1/GPa) = 0.05607139
#
# Stress axis : x y z
#
# Youngs Moduli (GPa) = 33.05853 66.30154 93.23615
#
# Poissons Ratio (x) = -0.19737 -0.07629
# Poissons Ratio (y) = -0.09841 0.35320
# Poissons Ratio (z) = -0.02705 0.25116
#
# Static dielectric constant tensor:
#      x y z
#    x 1.911930 -0.023330 0.032780 
#    y -0.023330 2.001210 -0.021620 
#    z 0.032780 -0.021620 1.990280 
# 
# From -- ./inp_files/368622.got.cif
#   From: 2010.05.17/outbox.cif.g08.bks.cpg/sg2_185_cif.got.tgz:368622.got - 2010.06.03 11:33:40.
