data_PCOD9014585
_publ_section_title
;
Structure prediction by ZEFSAII (Michael W. Deem and Ramdas Pophale) SiO2 
 PCOD9014585
Probable space group: P -1
;
_chemical_formula_sum "Si O2"
_cell_formula_units_Z 16
_cell_length_a 14.973760
_cell_length_b 9.059898
_cell_length_c 14.973058
_cell_angle_alpha 80.703327
_cell_angle_beta 151.335871
_cell_angle_gamma 118.598706
_cell_volume 675.420096
_symmetry_space_group_name_H-M "P -1"
_symmetry_group_IT_number 2
_symmetry_cell_setting 'triclinic'
loop_
_space_group_symop_operation_xyz
x,y,z
-x,-y,-z
loop_
_atom_site_type_symbol
_atom_site_label
_atom_site_fract_x
_atom_site_fract_y
_atom_site_fract_z
Si Si1 0.707081 0.774724 0.402925
Si Si2 0.935689 0.686079 0.846656
Si Si3 0.565250 0.758559 0.469877
Si Si4 0.651618 0.408690 0.061335
Si Si5 0.563494 0.701822 0.760307
Si Si6 0.043821 0.527268 0.257228
Si Si7 0.921869 0.163493 0.859507
Si Si8 0.709915 0.801507 0.077414
O O1 0.584703 0.795272 0.377669
O O2 0.583420 0.748521 0.202175
O O3 0.609819 0.548064 0.350979
O O4 0.020224 0.977544 0.667645
O O5 0.760036 0.727559 0.660147
O O6 0.723117 0.451879 0.728941
O O7 0.047344 0.668105 0.860257
O O8 0.133093 0.835066 0.085655
O O9 0.687993 0.957235 0.618373
O O10 0.538338 0.298739 0.068445
O O11 0.724297 0.627340 0.107588
O O12 0.897510 0.462553 0.229206
O O13 0.356386 0.688808 0.531436
O O14 0.817762 0.794605 0.918234
O O15 0.666075 0.818348 0.934164
O O16 0.991493 0.642387 0.139941
#
# Coordination Sequence:
#
# PCOD9014585 Si02
#       8
#     2   2   2   2   2   2   2   2
#     4  11  18  40  66  92 124 170 211 261 317 382
#     4  11  23  40  63  95 132 170 213 270 318 378
#     4  11  21  40  68  92 127 176 216 256 329 379
#     4  10  22  40  65  98 127 166 214 267 320 384
#     4  11  22  40  67  92 134 167 212 265 320 382
#     4  12  23  42  66  97 134 172 213 268 324 375
#     4  12  23  44  65  94 129 178 216 262 319 385
#     4  10  21  41  68  93 126 170 214 262 326 380
#
# _framework density 23.688960999999999
#
# number of rings (size 3 to 8) (size 9 to 14) (size 15 to 20)
#    0.000    1.000    6.250    1.875    0.000    1.000 
#    0.000    9.375    0.000    0.000    0.000    0.000 
#    0.000    0.000    0.000    0.000    0.000    0.000 
#
# Total GULP energy -89662.969059 kJ/mol
# GULP energy per Si atom -5603.935566 kJ/mol
# Density = 2.363504 g / cm^3
# Si number density = 23.688961 Si / 1000 Ang^3
#
#
#
# Elastic Constant Matrix: (Units=GPa)
#
#
# Indices 1 2 3 4 5 6 
#
# 1 129.3287 19.9191 20.4337 0.4745 -1.3535 -5.9688
# 2 19.9191 38.1768 32.6156 15.4969 2.6832 -10.4933
# 3 20.4337 32.6156 112.5069 15.4591 -0.5515 -11.2151
# 4 0.4745 15.4969 15.4591 37.3231 -8.8221 -5.6505
# 5 -1.3535 2.6832 -0.5515 -8.8221 31.7386 3.1054
# 6 -5.9688 -10.4933 -11.2151 -5.6505 3.1054 28.2593
#
#
#
# Elastic Compliance Matrix: (Units=1/GPa)
#
#
# Indices 1 2 3 4 5 6 
#
# 1 0.008623 -0.005353 -0.000364 0.002635 0.001542 0.000046
# 2 -0.005353 0.047365 -0.009503 -0.016435 -0.009993 0.010497
# 3 -0.000364 -0.009503 0.011895 -0.000670 0.000720 0.000902
# 4 0.002635 -0.016435 -0.000670 0.036651 0.011655 0.000236
# 5 0.001542 -0.009993 0.000720 0.011655 0.036134 -0.004739
# 6 0.000046 0.010497 0.000902 0.000236 -0.004739 0.040220
#
#
# Mechanical properties :
#
#
# Convention : Reuss Voigt Hill
#
# Bulk Modulus (GPa) = 26.70836 47.32772 37.01804
# Shear Modulus (GPa) = 22.34040 33.26712 27.80376
#
# Velocity S-wave (km/s) = 3.07428 3.75150 3.42965
# Velocity P-wave (km/s) = 4.88883 6.22794 5.59857
#
# Compressibility (1/GPa) = 0.03744147
#
# Stress axis : x y z
#
# Youngs Moduli (GPa) = 115.97019 21.11272 84.06997
#
# Poissons Ratio (x) = 0.11303 0.03061
# Poissons Ratio (y) = 0.62084 0.79892
# Poissons Ratio (z) = 0.04222 0.20063
#
# Static dielectric constant tensor:
#      x y z
#    x 1.898790 -0.014200 0.008230 
#    y -0.014200 1.936540 0.012170 
#    z 0.008230 0.012170 1.884000 
# 
# From -- ./inp_files/507102.got.cif
#   From: 2010.05.17/outbox.cif.g08.bks.cpg/sg2_254_cif.got.tgz:507102.got - 2010.06.03 11:33:40.
