data_PCOD9014379
_publ_section_title
;
Structure prediction by ZEFSAII (Michael W. Deem and Ramdas Pophale) SiO2 
 PCOD9014379
Probable space group: P -1
;
_chemical_formula_sum "Si O2"
_cell_formula_units_Z 16
_cell_length_a 11.639225
_cell_length_b 13.877810
_cell_length_c 5.800786
_cell_angle_alpha 112.849860
_cell_angle_beta 89.861126
_cell_angle_gamma 131.229921
_cell_volume 604.375799
_symmetry_space_group_name_H-M "P -1"
_symmetry_group_IT_number 2
_symmetry_cell_setting 'triclinic'
loop_
_space_group_symop_operation_xyz
x,y,z
-x,-y,-z
loop_
_atom_site_type_symbol
_atom_site_label
_atom_site_fract_x
_atom_site_fract_y
_atom_site_fract_z
Si Si1 0.124221 0.353324 0.424893
Si Si2 0.156833 0.582797 0.915791
Si Si3 0.235758 0.850783 0.291464
Si Si4 0.564434 0.118926 0.302240
Si Si5 0.868738 0.007219 0.033389
Si Si6 0.857459 0.996104 0.516604
Si Si7 0.637978 0.380730 0.653067
Si Si8 0.578293 0.579170 0.321898
O O1 0.968136 0.180698 0.208984
O O2 0.226537 0.449816 0.282846
O O3 0.243154 0.357034 0.588253
O O4 0.104056 0.455633 0.627839
O O5 0.201195 0.733491 0.004712
O O6 0.302761 0.629475 0.115976
O O7 0.000000 0.500000 0.000000
O O8 0.282352 0.827976 0.511465
O O9 0.099727 0.850977 0.334168
O O10 0.407068 0.019128 0.381411
O O11 0.614926 0.268627 0.374199
O O12 0.500000 0.000000 0.000000
O O13 0.772263 0.930369 0.203430
O O14 0.789140 0.947196 0.729928
O O15 0.000000 0.000000 0.000000
O O16 0.000000 0.000000 0.500000
O O17 0.467975 0.330042 0.613964
O O18 0.500000 0.500000 0.500000
O O19 0.500000 0.500000 0.000000
#
# Coordination Sequence:
#
# PCOD9014379 Si02
#       8
#     2   2   2   2   2   2   2   2
#     4  11  23  40  68  94 134 173 223 283 336 406
#     4  11  23  40  65  93 135 175 228 273 343 399
#     4  10  23  41  66  98 130 179 226 285 333 405
#     4  10  22  43  66  93 135 175 230 278 339 398
#     4  10  24  42  67  97 139 177 219 271 337 407
#     4  10  23  45  67  98 136 176 225 275 337 402
#     4  10  23  41  64  99 127 176 226 278 341 400
#     4  10  21  41  67  96 128 169 219 276 334 393
#
# _framework density 26.473595
#
# number of rings (size 3 to 8) (size 9 to 14) (size 15 to 20)
#    0.000    1.750    1.250    1.500    5.250    2.500 
#    2.250    1.250    0.000    0.000    0.000    0.000 
#    0.000    0.000    0.000    0.000    0.000    0.000 
#
# Total GULP energy -89208.212366 kJ/mol
# GULP energy per Si atom -5575.513273 kJ/mol
# Density = 2.641334 g / cm^3
# Si number density = 26.473595 Si / 1000 Ang^3
#
#
#
# Elastic Constant Matrix: (Units=GPa)
#
#
# Indices 1 2 3 4 5 6 
#
# 1 146.8146 36.0796 44.4339 18.8214 -19.0394 -37.6163
# 2 36.0796 104.9997 57.4828 19.0775 5.7934 -2.1805
# 3 44.4339 57.4828 187.1173 -18.2310 -19.1348 2.1612
# 4 18.8214 19.0775 -18.2310 53.3703 -14.1783 -2.2474
# 5 -19.0394 5.7934 -19.1348 -14.1783 35.2632 6.5027
# 6 -37.6163 -2.1805 2.1612 -2.2474 6.5027 42.2019
#
#
#
# Elastic Compliance Matrix: (Units=1/GPa)
#
#
# Indices 1 2 3 4 5 6 
#
# 1 0.011008 -0.001984 -0.002175 -0.002943 0.002186 0.009327
# 2 -0.001984 0.016636 -0.006929 -0.010780 -0.012032 0.000726
# 3 -0.002175 -0.006929 0.009903 0.009036 0.009674 -0.003814
# 4 -0.002943 -0.010780 0.009036 0.031459 0.018626 -0.004837
# 5 0.002186 -0.012032 0.009674 0.018626 0.045202 -0.005142
# 6 0.009327 0.000726 -0.003814 -0.004837 -0.005142 0.032777
#
#
# Mechanical properties :
#
#
# Convention : Reuss Voigt Hill
#
# Bulk Modulus (GPa) = 65.05695 79.43602 72.24648
# Shear Modulus (GPa) = 28.68890 46.22943 37.45916
#
# Velocity S-wave (km/s) = 3.29550 4.18335 3.76568
# Velocity P-wave (km/s) = 6.25364 7.30785 6.80121
#
# Compressibility (1/GPa) = 0.01537115
#
# Stress axis : x y z
#
# Youngs Moduli (GPa) = 90.84623 60.11005 100.97947
#
# Poissons Ratio (x) = 0.11924 0.21967
# Poissons Ratio (y) = 0.18021 0.69965
# Poissons Ratio (z) = 0.19763 0.41648
#
# Static dielectric constant tensor:
#      x y z
#    x 2.114070 -0.111800 -0.013130 
#    y -0.111800 2.511180 -0.027110 
#    z -0.013130 -0.027110 2.004800 
# 
# From -- ./inp_files/78625.got.cif
#   From: 2010.05.17/outbox.cif.g08.bks.cpg/sg2_40_cif.got.tgz:78625.got - 2010.06.03 11:33:40.
