data_PCOD9014537
_publ_section_title
;
Structure prediction by ZEFSAII (Michael W. Deem and Ramdas Pophale) SiO2 
 PCOD9014537
Probable space group: P -1
;
_chemical_formula_sum "Si O2"
_cell_formula_units_Z 12
_cell_length_a 12.190135
_cell_length_b 5.214584
_cell_length_c 8.985680
_cell_angle_alpha 85.186328
_cell_angle_beta 124.154270
_cell_angle_gamma 90.769871
_cell_volume 470.614537
_symmetry_space_group_name_H-M "P -1"
_symmetry_group_IT_number 2
_symmetry_cell_setting 'triclinic'
loop_
_space_group_symop_operation_xyz
x,y,z
-x,-y,-z
loop_
_atom_site_type_symbol
_atom_site_label
_atom_site_fract_x
_atom_site_fract_y
_atom_site_fract_z
Si Si1 0.589947 0.538872 0.359089
Si Si2 0.638753 0.169601 0.662914
Si Si3 0.068460 0.734179 0.121946
Si Si4 0.591854 0.802418 0.890477
Si Si5 0.928960 0.248750 0.514653
Si Si6 0.307989 0.044661 0.746071
O O1 0.633058 0.269054 0.483835
O O2 0.503003 0.712071 0.398303
O O3 0.473469 0.473288 0.156633
O O4 0.710425 0.706415 0.387825
O O5 0.777408 0.283734 0.810561
O O6 0.642972 0.894966 0.763949
O O7 0.064240 0.746201 0.299664
O O8 0.000000 0.500000 0.000000
O O9 0.000000 0.000000 0.000000
O O10 0.461344 0.970757 0.832264
O O11 0.699442 0.850681 0.096236
O O12 0.781295 0.194090 0.343178
O O13 0.000000 0.500000 0.500000
O O14 0.000000 0.000000 0.500000
#
# Coordination Sequence:
#
# PCOD9014537 Si02
#       6
#     2   2   2   2   2   2
#     4  10  21  41  71 107 141 190 236 320 384 449
#     4  10  24  40  70 104 145 182 250 304 383 440
#     4  12  30  51  78 110 153 205 262 316 375 451
#     4  10  21  41  68 107 140 188 236 318 380 452
#     4  12  30  52  77 108 151 208 259 314 376 454
#     4  10  24  41  69 102 145 188 250 302 383 452
#
# _framework density 25.498577000000001
#
# number of rings (size 3 to 8) (size 9 to 14) (size 15 to 20)
#    0.000    1.333    0.000    3.000   14.000    1.333 
#    0.000    0.000    0.000    0.000    0.000    0.000 
#    0.000    0.000    0.000    0.000    0.000    0.000 
#
# Total GULP energy -66924.974527 kJ/mol
# GULP energy per Si atom -5577.081211 kJ/mol
# Density = 2.544054 g / cm^3
# Si number density = 25.498577 Si / 1000 Ang^3
#
#
#
# Elastic Constant Matrix: (Units=GPa)
#
#
# Indices 1 2 3 4 5 6 
#
# 1 76.2226 41.6141 37.8972 1.1697 0.3559 25.2752
# 2 41.6141 191.0954 73.8693 23.3933 -4.5872 39.0802
# 3 37.8972 73.8693 158.4003 23.1525 -12.4239 30.1969
# 4 1.1697 23.3933 23.1525 46.4432 7.1913 6.6642
# 5 0.3559 -4.5872 -12.4239 7.1913 36.9477 11.3204
# 6 25.2752 39.0802 30.1969 6.6642 11.3204 45.4387
#
#
#
# Elastic Compliance Matrix: (Units=1/GPa)
#
#
# Indices 1 2 3 4 5 6 
#
# 1 0.017598 -0.001744 -0.002348 0.002561 0.000544 -0.007239
# 2 -0.001744 0.007585 -0.001666 -0.002642 0.002334 -0.004640
# 3 -0.002348 -0.001666 0.009431 -0.003982 0.005050 -0.004202
# 4 0.002561 -0.002642 -0.003982 0.025674 -0.007151 0.001510
# 5 0.000544 0.002334 0.005050 -0.007151 0.034487 -0.013209
# 6 -0.007239 -0.004640 -0.004202 0.001510 -0.013209 0.035887
#
#
# Mechanical properties :
#
#
# Convention : Reuss Voigt Hill
#
# Bulk Modulus (GPa) = 43.29686 81.38660 62.34173
# Shear Modulus (GPa) = 33.36019 43.92177 38.64098
#
# Velocity S-wave (km/s) = 3.62099 4.15483 3.89706
# Velocity P-wave (km/s) = 5.87359 7.41648 6.68966
#
# Compressibility (1/GPa) = 0.02309636
#
# Stress axis : x y z
#
# Youngs Moduli (GPa) = 56.82454 131.83287 106.03064
#
# Poissons Ratio (x) = 0.22998 0.24901
# Poissons Ratio (y) = 0.09913 0.17667
# Poissons Ratio (z) = 0.13345 0.21966
#
# Static dielectric constant tensor:
#      x y z
#    x 2.181520 -0.029910 0.041500 
#    y -0.029910 2.084600 -0.042650 
#    z 0.041500 -0.042650 2.154500 
# 
# From -- ./inp_files/229677.got.cif
#   From: 2010.05.17/outbox.cif.g08.bks.cpg/sg2_115_cif.got.tgz:229677.got - 2010.06.03 11:33:40.
