data_PCOD9014682
_publ_section_title
;
Structure prediction by ZEFSAII (Michael W. Deem and Ramdas Pophale) SiO2 
 PCOD9014682
Probable space group: P -1
;
_chemical_formula_sum "Si O2"
_cell_formula_units_Z 16
_cell_length_a 8.151847
_cell_length_b 13.365513
_cell_length_c 11.238861
_cell_angle_alpha 145.977048
_cell_angle_beta 93.670592
_cell_angle_gamma 76.380526
_cell_volume 646.227056
_symmetry_space_group_name_H-M "P -1"
_symmetry_group_IT_number 2
_symmetry_cell_setting 'triclinic'
loop_
_space_group_symop_operation_xyz
x,y,z
-x,-y,-z
loop_
_atom_site_type_symbol
_atom_site_label
_atom_site_fract_x
_atom_site_fract_y
_atom_site_fract_z
Si Si1 0.664439 0.019275 0.095304
Si Si2 0.542341 0.080734 0.732692
Si Si3 0.603216 0.504343 0.886644
Si Si4 0.078187 0.426008 0.561758
Si Si5 0.163439 0.998828 0.151737
Si Si6 0.733797 0.088201 0.517008
Si Si7 0.927158 0.785591 0.047920
Si Si8 0.528772 0.579666 0.449807
O O1 0.609633 0.212837 0.353297
O O2 0.753750 0.852121 0.024275
O O3 0.500000 0.000000 0.000000
O O4 0.803268 0.028994 0.013570
O O5 0.698846 0.067202 0.633716
O O6 0.644902 0.052168 0.831765
O O7 0.453121 0.922066 0.549665
O O8 0.389891 0.282183 0.900974
O O9 0.747460 0.294934 0.692457
O O10 0.504716 0.515235 0.766672
O O11 0.500000 0.500000 0.000000
O O12 0.065342 0.220606 0.384095
O O13 0.279342 0.407860 0.537579
O O14 0.000000 0.500000 0.500000
O O15 0.001014 0.562730 0.805523
O O16 0.065824 0.865724 0.069441
O O17 0.878506 0.908925 0.287965
O O18 0.500000 0.500000 0.500000
#
# Coordination Sequence:
#
# PCOD9014682 Si02
#       8
#     2   2   2   2   2   2   2   2
#     4  12  22  42  66  92 126 170 220 275 325 389
#     4  10  22  42  68  97 128 172 225 277 326 389
#     4  10  21  41  68  98 132 171 222 280 334 391
#     4  12  26  43  63  95 138 181 212 273 349 401
#     4  12  25  42  64  95 137 171 214 277 340 400
#     4  10  22  42  68  95 130 174 224 273 325 400
#     4  12  25  42  64  94 136 170 214 267 338 402
#     4  12  24  40  69 101 131 171 235 282 329 403
#
# _framework density 24.759098999999999
#
# number of rings (size 3 to 8) (size 9 to 14) (size 15 to 20)
#    0.000    0.750    3.750    4.125    1.750    2.500 
#    0.000    0.625    0.000    0.000    0.000    0.000 
#    0.000    0.000    0.000    0.000    0.000    0.000 
#
# Total GULP energy -89438.238083 kJ/mol
# GULP energy per Si atom -5589.889880 kJ/mol
# Density = 2.470275 g / cm^3
# Si number density = 24.759099 Si / 1000 Ang^3
#
#
#
# Elastic Constant Matrix: (Units=GPa)
#
#
# Indices 1 2 3 4 5 6 
#
# 1 55.9799 -1.1761 5.8413 -0.8175 -4.5371 3.7799
# 2 -1.1761 93.7530 29.9884 -9.8384 -6.2798 17.7696
# 3 5.8413 29.9884 172.3641 11.8924 -29.0176 10.9509
# 4 -0.8175 -9.8384 11.8924 52.1130 3.2271 -4.9970
# 5 -4.5371 -6.2798 -29.0176 3.2271 36.8571 -3.7986
# 6 3.7799 17.7696 10.9509 -4.9970 -3.7986 24.3978
#
#
#
# Elastic Compliance Matrix: (Units=1/GPa)
#
#
# Indices 1 2 3 4 5 6 
#
# 1 0.018283 0.001062 -0.000301 0.000139 0.001858 -0.003154
# 2 0.001062 0.013118 -0.001972 0.002150 -0.000244 -0.008431
# 3 -0.000301 -0.001972 0.007347 -0.002535 0.005480 -0.001481
# 4 0.000139 0.002150 -0.002535 0.020684 -0.003082 0.003307
# 5 0.001858 -0.000244 0.005480 -0.003082 0.032088 0.001795
# 6 -0.003154 -0.008431 -0.001481 0.003307 0.001795 0.049238
#
#
# Mechanical properties :
#
#
# Convention : Reuss Voigt Hill
#
# Bulk Modulus (GPa) = 27.52868 43.48936 35.50902
# Shear Modulus (GPa) = 32.19856 41.83647 37.01751
#
# Velocity S-wave (km/s) = 3.61012 4.11511 3.87086
# Velocity P-wave (km/s) = 5.34042 6.33892 5.86097
#
# Compressibility (1/GPa) = 0.03632576
#
# Stress axis : x y z
#
# Youngs Moduli (GPa) = 54.69632 76.23291 136.11890
#
# Poissons Ratio (x) = -0.08098 0.04096
# Poissons Ratio (y) = -0.05810 0.26843
# Poissons Ratio (z) = 0.01646 0.15033
#
# Static dielectric constant tensor:
#      x y z
#    x 1.948470 0.011780 -0.040840 
#    y 0.011780 1.977540 -0.027650 
#    z -0.040840 -0.027650 2.014060 
# 
# From -- ./inp_files/187370.got.cif
#   From: 2010.05.17/outbox.cif.g08.bks.cpg/sg2_94_cif.got.tgz:187370.got - 2010.06.03 11:33:40.
