data_PCOD9014006
_publ_section_title
;
Structure prediction by ZEFSAII (Michael W. Deem and Ramdas Pophale) SiO2 
 PCOD9014006
Probable space group: P -1
;
_chemical_formula_sum "Si O2"
_cell_formula_units_Z 14
_cell_length_a 8.990823
_cell_length_b 16.244306
_cell_length_c 8.244891
_cell_angle_alpha 147.241470
_cell_angle_beta 111.986578
_cell_angle_gamma 63.322385
_cell_volume 582.198082
_symmetry_space_group_name_H-M "P -1"
_symmetry_group_IT_number 2
_symmetry_cell_setting 'triclinic'
loop_
_space_group_symop_operation_xyz
x,y,z
-x,-y,-z
loop_
_atom_site_type_symbol
_atom_site_label
_atom_site_fract_x
_atom_site_fract_y
_atom_site_fract_z
Si Si1 0.159341 0.750713 0.804288
Si Si2 0.578073 0.818846 0.294235
Si Si3 0.961297 0.691051 0.306643
Si Si4 0.602937 0.141791 0.130596
Si Si5 0.677424 0.607588 0.670529
Si Si6 0.951387 0.784536 0.097259
Si Si7 0.656542 0.068075 0.375644
O O1 0.271347 0.859866 0.966672
O O2 0.278568 0.576153 0.591950
O O3 0.043806 0.737155 0.579543
O O4 0.066468 0.795195 0.009924
O O5 0.763343 0.776290 0.374255
O O6 0.440154 0.791301 0.316765
O O7 0.500000 0.000000 0.500000
O O8 0.607281 0.700279 0.959647
O O9 0.018709 0.737901 0.228927
O O10 0.000000 0.500000 0.000000
O O11 0.468789 0.312196 0.379432
O O12 0.702840 0.105153 0.276710
O O13 0.487686 0.023759 0.862712
O O14 0.846564 0.660034 0.795233
O O15 0.812521 0.950614 0.328030
#
# Coordination Sequence:
#
# PCOD9014006 Si02
#       7
#     2   2   2   2   2   2   2
#     4  12  24  41  64 100 139 165 215 288 326 380
#     4  11  19  40  69  88 127 173 222 265 309 405
#     4  11  23  40  65 104 132 172 220 263 334 395
#     4  10  23  40  64  93 130 173 224 269 325 397
#     4  10  21  41  66  94 124 176 224 257 337 390
#     4  10  22  41  67  93 131 175 215 269 325 394
#     4  10  22  44  65  94 122 183 229 254 333 400
#
# _framework density 24.046797000000002
#
# number of rings (size 3 to 8) (size 9 to 14) (size 15 to 20)
#    0.000    1.429    7.143    0.857    6.000    0.571 
#    2.571    1.429    0.000    0.000    0.000    0.000 
#    0.000    0.000    0.000    0.000    0.000    0.000 
#
# Total GULP energy -78281.010005 kJ/mol
# GULP energy per Si atom -5591.500715 kJ/mol
# Density = 2.399207 g / cm^3
# Si number density = 24.046797 Si / 1000 Ang^3
#
#
#
# Elastic Constant Matrix: (Units=GPa)
#
#
# Indices 1 2 3 4 5 6 
#
# 1 126.7142 44.8774 55.2582 -7.5473 -10.9321 25.7456
# 2 44.8774 141.8742 36.3321 -9.3663 -1.3457 4.9091
# 3 55.2582 36.3321 84.0198 4.1381 -13.5841 -3.4561
# 4 -7.5473 -9.3663 4.1381 28.9060 -3.7566 -13.1063
# 5 -10.9321 -1.3457 -13.5841 -3.7566 40.8060 -11.8152
# 6 25.7456 4.9091 -3.4561 -13.1063 -11.8152 54.0378
#
#
#
# Elastic Compliance Matrix: (Units=1/GPa)
#
#
# Indices 1 2 3 4 5 6 
#
# 1 0.013727 -0.001802 -0.008783 0.000929 -0.001242 -0.006984
# 2 -0.001802 0.008475 -0.002716 0.002762 -0.000730 0.000425
# 3 -0.008783 -0.002716 0.020193 -0.002372 0.005927 0.006443
# 4 0.000929 0.002762 -0.002372 0.041771 0.006496 0.010706
# 5 -0.001242 -0.000730 0.005927 0.006496 0.029334 0.009026
# 6 -0.006984 0.000425 0.006443 0.010706 0.009026 0.026777
#
#
# Mechanical properties :
#
#
# Convention : Reuss Voigt Hill
#
# Bulk Modulus (GPa) = 63.31911 69.50488 66.41199
# Shear Modulus (GPa) = 29.04565 39.15933 34.10249
#
# Velocity S-wave (km/s) = 3.47923 4.03980 3.76995
# Velocity P-wave (km/s) = 6.52141 7.12227 6.82845
#
# Compressibility (1/GPa) = 0.01579302
#
# Stress axis : x y z
#
# Youngs Moduli (GPa) = 72.84758 117.99737 49.52190
#
# Poissons Ratio (x) = 0.21260 0.43495
# Poissons Ratio (y) = 0.13125 0.13452
# Poissons Ratio (z) = 0.63982 0.32052
#
# Static dielectric constant tensor:
#      x y z
#    x 2.001460 0.018720 0.046660 
#    y 0.018720 1.991010 -0.055460 
#    z 0.046660 -0.055460 1.953560 
# 
# From -- ./inp_files/209444.got.cif
#   From: 2010.05.17/outbox.cif.g08.bks.cpg/sg2_105_cif.got.tgz:209444.got - 2010.06.03 11:33:40.
