data_PCOD9014637
_publ_section_title
;
Structure prediction by ZEFSAII (Michael W. Deem and Ramdas Pophale) SiO2 
 PCOD9014637
Probable space group: P -1
;
_chemical_formula_sum "Si O2"
_cell_formula_units_Z 12
_cell_length_a 9.874072
_cell_length_b 7.279954
_cell_length_c 10.277216
_cell_angle_alpha 114.057673
_cell_angle_beta 138.354408
_cell_angle_gamma 65.767957
_cell_volume 441.407828
_symmetry_space_group_name_H-M "P -1"
_symmetry_group_IT_number 2
_symmetry_cell_setting 'triclinic'
loop_
_space_group_symop_operation_xyz
x,y,z
-x,-y,-z
loop_
_atom_site_type_symbol
_atom_site_label
_atom_site_fract_x
_atom_site_fract_y
_atom_site_fract_z
Si Si1 0.155862 0.522828 0.499139
Si Si2 0.586720 0.763008 0.589671
Si Si3 0.117052 0.117222 0.722746
Si Si4 0.450214 0.383881 0.058276
Si Si5 0.862618 0.935338 0.996869
Si Si6 0.224358 0.606065 0.193182
O O1 0.267460 0.309392 0.451885
O O2 0.340790 0.637901 0.712758
O O3 0.000000 0.500000 0.500000
O O4 0.032141 0.660782 0.337672
O O5 0.351019 0.784283 0.383624
O O6 0.659092 0.575044 0.685839
O O7 0.642984 0.941437 0.772414
O O8 0.136511 0.987467 0.833861
O O9 0.340627 0.190167 0.892057
O O10 0.000000 0.000000 0.500000
O O11 0.290826 0.540819 0.076094
O O12 0.500000 0.500000 0.000000
O O13 0.984842 0.704717 0.048296
O O14 0.000000 0.000000 0.000000
#
# Coordination Sequence:
#
# PCOD9014637 Si02
#       6
#     2   2   2   2   2   2
#     4  11  23  41  72 100 129 173 228 282 337 400
#     4  10  21  41  70  94 124 166 229 281 324 387
#     4  12  27  44  63 100 146 174 218 282 344 399
#     4  11  23  41  71 101 127 174 229 275 334 402
#     4  12  26  41  67  97 136 181 219 270 341 403
#     4  10  21  41  68  96 123 165 229 281 319 391
#
# _framework density 27.185742999999999
#
# number of rings (size 3 to 8) (size 9 to 14) (size 15 to 20)
#    0.000    1.000    5.000    1.500    2.333    1.333 
#    0.000    0.000    0.000    0.000    0.000    0.000 
#    0.000    0.000    0.000    0.000    0.000    0.000 
#
# Total GULP energy -67022.378283 kJ/mol
# GULP energy per Si atom -5585.198190 kJ/mol
# Density = 2.712387 g / cm^3
# Si number density = 27.185743 Si / 1000 Ang^3
#
#
#
# Elastic Constant Matrix: (Units=GPa)
#
#
# Indices 1 2 3 4 5 6 
#
# 1 105.5908 -5.5063 57.9481 6.6312 -17.6061 22.8208
# 2 -5.5063 51.6856 23.7464 -15.1958 -8.9077 12.1424
# 3 57.9481 23.7464 267.6014 18.6353 18.0250 26.8808
# 4 6.6312 -15.1958 18.6353 45.4711 0.8812 -5.2299
# 5 -17.6061 -8.9077 18.0250 0.8812 58.1102 -10.9714
# 6 22.8208 12.1424 26.8808 -5.2299 -10.9714 49.6075
#
#
#
# Elastic Compliance Matrix: (Units=1/GPa)
#
#
# Indices 1 2 3 4 5 6 
#
# 1 0.013241 0.004899 -0.003220 0.000423 0.004922 -0.004412
# 2 0.004899 0.026410 -0.004002 0.009144 0.005824 -0.004297
# 3 -0.003220 -0.004002 0.005408 -0.003198 -0.003517 -0.001585
# 4 0.000423 0.009144 -0.003198 0.026554 0.002625 0.002680
# 5 0.004922 0.005824 -0.003517 0.002625 0.021246 0.003192
# 6 -0.004412 -0.004297 -0.001585 0.002680 0.003192 0.025087
#
#
# Mechanical properties :
#
#
# Convention : Reuss Voigt Hill
#
# Bulk Modulus (GPa) = 24.74400 64.13936 44.44168
# Shear Modulus (GPa) = 36.74762 53.88374 45.31568
#
# Velocity S-wave (km/s) = 3.68057 4.45686 4.08719
# Velocity P-wave (km/s) = 5.21380 7.08019 6.21743
#
# Compressibility (1/GPa) = 0.04041383
#
# Stress axis : x y z
#
# Youngs Moduli (GPa) = 75.52476 37.86433 184.90915
#
# Poissons Ratio (x) = -0.18550 0.59535
# Poissons Ratio (y) = -0.37000 0.73998
# Poissons Ratio (z) = 0.24317 0.15153
#
# Static dielectric constant tensor:
#      x y z
#    x 2.317940 -0.005640 -0.115940 
#    y -0.005640 2.361630 0.237030 
#    z -0.115940 0.237030 2.239220 
# 
# From -- ./inp_files/152581.got.cif
#   From: 2010.05.17/outbox.cif.g08.bks.cpg/sg2_77_cif.got.tgz:152581.got - 2010.06.03 11:33:40.
