data_PCOD9014934
_publ_section_title
;
Structure prediction by ZEFSAII (Michael W. Deem and Ramdas Pophale) SiO2 
 PCOD9014934
Probable space group: P -1
;
_chemical_formula_sum "Si O2"
_cell_formula_units_Z 12
_cell_length_a 5.349370
_cell_length_b 12.330012
_cell_length_c 7.837757
_cell_angle_alpha 85.946451
_cell_angle_beta 62.480562
_cell_angle_gamma 101.656402
_cell_volume 440.933111
_symmetry_space_group_name_H-M "P -1"
_symmetry_group_IT_number 2
_symmetry_cell_setting 'triclinic'
loop_
_space_group_symop_operation_xyz
x,y,z
-x,-y,-z
loop_
_atom_site_type_symbol
_atom_site_label
_atom_site_fract_x
_atom_site_fract_y
_atom_site_fract_z
Si Si1 0.209113 0.622689 0.393397
Si Si2 0.269111 0.390136 0.929791
Si Si3 0.859740 0.007882 0.229791
Si Si4 0.545697 0.864466 0.817162
Si Si5 0.302839 0.632804 0.730144
Si Si6 0.024584 0.794924 0.237189
O O1 0.405094 0.622067 0.163321
O O2 0.397448 0.642193 0.503846
O O3 0.059019 0.721399 0.396634
O O4 0.000000 0.500000 0.500000
O O5 0.312800 0.513732 0.820208
O O6 0.109256 0.290328 0.864010
O O7 0.046151 0.375115 0.156748
O O8 0.115130 0.091552 0.248205
O O9 0.578391 0.053432 0.278364
O O10 0.837677 0.883390 0.320379
O O11 0.000000 0.000000 0.000000
O O12 0.465081 0.740896 0.773734
O O13 0.348650 0.858106 0.053691
#
# Coordination Sequence:
#
# PCOD9014934 Si02
#       6
#     2   2   2   2   2   2
#     4  12  25  41  67 105 138 185 229 288 354 419
#     4  10  23  44  66  96 140 183 235 281 355 415
#     4  10  21  41  70 102 136 184 240 284 344 420
#     4  10  23  41  69 103 137 186 232 288 351 413
#     4  10  23  45  65 102 141 181 232 291 349 413
#     4  10  22  39  66  99 133 183 233 282 349 414
#
# _framework density 27.215014
#
# number of rings (size 3 to 8) (size 9 to 14) (size 15 to 20)
#    0.000    1.667    1.667    2.500    9.333    2.000 
#    0.000    1.667    0.000    0.000    0.000    0.000 
#    0.000    0.000    0.000    0.000    0.000    0.000 
#
# Total GULP energy -67300.974656 kJ/mol
# GULP energy per Si atom -5608.414555 kJ/mol
# Density = 2.715307 g / cm^3
# Si number density = 27.215014 Si / 1000 Ang^3
#
#
#
# Elastic Constant Matrix: (Units=GPa)
#
#
# Indices 1 2 3 4 5 6 
#
# 1 115.1547 55.6650 20.4521 -6.6852 2.8130 -4.7587
# 2 55.6650 174.5014 19.6866 -16.6677 14.2964 -1.3027
# 3 20.4521 19.6866 90.9090 -0.4474 -6.4503 -13.1622
# 4 -6.6852 -16.6677 -0.4474 42.8802 -12.5752 10.2731
# 5 2.8130 14.2964 -6.4503 -12.5752 36.0183 -1.7189
# 6 -4.7587 -1.3027 -13.1622 10.2731 -1.7189 63.1220
#
#
#
# Elastic Compliance Matrix: (Units=1/GPa)
#
#
# Indices 1 2 3 4 5 6 
#
# 1 0.010528 -0.003160 -0.001612 0.000404 0.000300 0.000335
# 2 -0.003160 0.007211 -0.001096 0.001812 -0.002211 -0.000673
# 3 -0.001612 -0.001096 0.012158 -0.000353 0.002736 0.002523
# 4 0.000404 0.001812 -0.000353 0.027638 0.008632 -0.004269
# 5 0.000300 -0.002211 0.002736 0.008632 0.032122 0.000017
# 6 0.000335 -0.000673 0.002523 -0.004269 0.000017 0.017075
#
#
# Mechanical properties :
#
#
# Convention : Reuss Voigt Hill
#
# Bulk Modulus (GPa) = 55.06628 63.57475 59.32051
# Shear Modulus (GPa) = 40.15311 47.38817 43.77064
#
# Velocity S-wave (km/s) = 3.84526 4.17736 4.01475
# Velocity P-wave (km/s) = 6.32396 6.83213 6.58295
#
# Compressibility (1/GPa) = 0.01815993
#
# Stress axis : x y z
#
# Youngs Moduli (GPa) = 94.98684 138.66766 82.25183
#
# Poissons Ratio (x) = 0.43818 0.13263
# Poissons Ratio (y) = 0.30015 0.09017
# Poissons Ratio (z) = 0.15316 0.15201
#
# Static dielectric constant tensor:
#      x y z
#    x 2.183160 0.007730 -0.060620 
#    y 0.007730 2.093510 -0.033630 
#    z -0.060620 -0.033630 2.108750 
# 
# From -- ./inp_files/59972.got.cif
#   From: 2010.05.17/outbox.cif.g08.bks.cpg/sg2_30_cif.got.tgz:59972.got - 2010.06.03 11:33:40.
