data_PCOD9014943
_publ_section_title
;
Structure prediction by ZEFSAII (Michael W. Deem and Ramdas Pophale) SiO2 
 PCOD9014943
Probable space group: P -1
;
_chemical_formula_sum "Si O2"
_cell_formula_units_Z 14
_cell_length_a 8.553574
_cell_length_b 13.868711
_cell_length_c 6.673706
_cell_angle_alpha 88.411383
_cell_angle_beta 96.912066
_cell_angle_gamma 55.301246
_cell_volume 641.648862
_symmetry_space_group_name_H-M "P -1"
_symmetry_group_IT_number 2
_symmetry_cell_setting 'triclinic'
loop_
_space_group_symop_operation_xyz
x,y,z
-x,-y,-z
loop_
_atom_site_type_symbol
_atom_site_label
_atom_site_fract_x
_atom_site_fract_y
_atom_site_fract_z
Si Si1 0.555274 0.464100 0.739289
Si Si2 0.949443 0.913711 0.913157
Si Si3 0.771177 0.797644 0.086358
Si Si4 0.928716 0.463375 0.799372
Si Si5 0.639342 0.307113 0.084553
Si Si6 0.546907 0.074426 0.642064
Si Si7 0.348098 0.281855 0.300753
O O1 0.500000 0.500000 0.500000
O O2 0.756126 0.448518 0.812245
O O3 0.387276 0.579249 0.824594
O O4 0.580990 0.348605 0.841830
O O5 0.145183 0.804681 0.854436
O O6 0.770700 0.991589 0.733321
O O7 0.883539 0.858512 0.072573
O O8 0.000000 0.000000 0.000000
O O9 0.576485 0.883636 0.174386
O O10 0.895722 0.669401 0.221292
O O11 0.737182 0.770381 0.856301
O O12 0.818617 0.586689 0.652768
O O13 0.000000 0.500000 0.000000
O O14 0.488540 0.291943 0.173443
O O15 0.474388 0.191668 0.499315
O O16 0.500000 0.000000 0.500000
#
# Coordination Sequence:
#
# PCOD9014943 Si02
#       7
#     2   2   2   2   2   2   2
#     4  10  21  41  70 104 136 171 218 278 344 396
#     4  12  26  44  71  97 134 185 223 275 339 392
#     4  11  23  47  69  94 138 176 224 282 336 395
#     4   9  20  41  71  98 129 171 218 271 343 396
#     4  10  23  43  68  99 142 172 218 285 335 396
#     4  12  27  44  68  97 136 184 231 270 325 405
#     4  10  23  45  71 101 132 178 224 274 342 398
#
# _framework density 21.818787
#
# number of rings (size 3 to 8) (size 9 to 14) (size 15 to 20)
#    0.000    1.429    2.857    1.286    2.000    6.857 
#    0.000    0.000    0.000    0.000    0.000    0.000 
#    0.000    0.000    0.000    0.000    0.000    0.000 
#
# Total GULP energy -78157.551346 kJ/mol
# GULP energy per Si atom -5582.682239 kJ/mol
# Density = 2.176913 g / cm^3
# Si number density = 21.818787 Si / 1000 Ang^3
#
#
#
# Elastic Constant Matrix: (Units=GPa)
#
#
# Indices 1 2 3 4 5 6 
#
# 1 92.4591 39.0647 27.6325 -11.2691 15.6951 1.0798
# 2 39.0647 165.3498 42.6123 -26.5482 16.0988 -21.5200
# 3 27.6325 42.6123 72.3124 -24.8772 4.0223 2.6230
# 4 -11.2691 -26.5482 -24.8772 39.8608 2.0328 -3.4550
# 5 15.6951 16.0988 4.0223 2.0328 24.7790 -8.8951
# 6 1.0798 -21.5200 2.6230 -3.4550 -8.8951 42.5449
#
#
#
# Elastic Compliance Matrix: (Units=1/GPa)
#
#
# Indices 1 2 3 4 5 6 
#
# 1 0.014178 -0.001886 -0.003488 0.000757 -0.008242 -0.002761
# 2 -0.001886 0.008759 -0.003115 0.003878 -0.002723 0.004416
# 3 -0.003488 -0.003115 0.020378 0.009506 -0.000608 -0.002099
# 4 0.000757 0.003878 0.009506 0.034385 -0.006350 0.002821
# 5 -0.008242 -0.002723 -0.000608 -0.006350 0.051219 0.009062
# 6 -0.002761 0.004416 -0.002099 0.002821 0.009062 0.028061
#
#
# Mechanical properties :
#
#
# Convention : Reuss Voigt Hill
#
# Bulk Modulus (GPa) = 37.97020 60.97117 49.47068
# Shear Modulus (GPa) = 27.36174 36.15774 31.75974
#
# Velocity S-wave (km/s) = 3.54509 4.07527 3.81939
# Velocity P-wave (km/s) = 5.84784 7.08158 6.49407
#
# Compressibility (1/GPa) = 0.02633645
#
# Stress axis : x y z
#
# Youngs Moduli (GPa) = 70.52972 114.17277 49.07366
#
# Poissons Ratio (x) = 0.21537 0.17115
# Poissons Ratio (y) = 0.13304 0.15288
# Poissons Ratio (z) = 0.24597 0.35567
#
# Static dielectric constant tensor:
#      x y z
#    x 1.794920 0.059720 -0.027490 
#    y 0.059720 1.854540 -0.043970 
#    z -0.027490 -0.043970 1.893410 
# 
# From -- ./inp_files/38708.got.cif
#   From: 2010.05.17/outbox.cif.g08.bks.cpg/sg2_20_cif.got.tgz:38708.got - 2010.06.03 11:33:40.
