data_PCOD9014737
_publ_section_title
;
Structure prediction by ZEFSAII (Michael W. Deem and Ramdas Pophale) SiO2 
 PCOD9014737
Probable space group: P -1
;
_chemical_formula_sum "Si O2"
_cell_formula_units_Z 14
_cell_length_a 13.968491
_cell_length_b 10.997441
_cell_length_c 10.956342
_cell_angle_alpha 145.657126
_cell_angle_beta 42.658890
_cell_angle_gamma 122.584758
_cell_volume 632.952676
_symmetry_space_group_name_H-M "P -1"
_symmetry_group_IT_number 2
_symmetry_cell_setting 'triclinic'
loop_
_space_group_symop_operation_xyz
x,y,z
-x,-y,-z
loop_
_atom_site_type_symbol
_atom_site_label
_atom_site_fract_x
_atom_site_fract_y
_atom_site_fract_z
Si Si1 0.883185 0.199322 0.222561
Si Si2 0.343093 0.630162 0.222747
Si Si3 0.401677 0.823371 0.080440
Si Si4 0.690491 0.754227 0.631710
Si Si5 0.836841 0.386828 0.012448
Si Si6 0.915334 0.465468 0.746973
Si Si7 0.091425 0.004357 0.226674
O O1 0.744917 0.257754 0.486273
O O2 0.965371 0.406360 0.309468
O O3 0.849130 0.124019 0.056799
O O4 0.000000 0.000000 0.000000
O O5 0.367217 0.798563 0.233072
O O6 0.235556 0.482309 0.139310
O O7 0.500000 0.500000 0.000000
O O8 0.293111 0.708388 0.007463
O O9 0.379148 0.073134 0.263449
O O10 0.561808 0.707733 0.798828
O O11 0.793004 0.872436 0.716191
O O12 0.776939 0.547784 0.310069
O O13 0.899193 0.506075 0.940716
O O14 0.942045 0.177170 0.796472
O O15 0.963953 0.201433 0.474092
#
# Coordination Sequence:
#
# PCOD9014737 Si02
#       7
#     2   2   2   2   2   2   2
#     4  12  27  46  72  98 140 189 231 278 342 408
#     4  11  26  47  72  98 140 183 235 282 333 410
#     4   9  22  42  65  99 142 176 224 285 346 405
#     4  10  21  41  69 101 139 176 221 289 349 400
#     4  10  22  40  72 103 131 177 227 286 349 409
#     4  11  25  46  71 100 140 178 227 291 344 400
#     4  11  24  41  70 102 138 173 231 278 345 405
#
# _framework density 22.118556000000002
#
# number of rings (size 3 to 8) (size 9 to 14) (size 15 to 20)
#    0.000    1.429    1.429    2.143    6.000    3.429 
#    5.143    1.429    0.000    0.000    0.000    0.000 
#    0.000    0.000    0.000    0.000    0.000    0.000 
#
# Total GULP energy -78324.869641 kJ/mol
# GULP energy per Si atom -5594.633546 kJ/mol
# Density = 2.206821 g / cm^3
# Si number density = 22.118556 Si / 1000 Ang^3
#
#
#
# Elastic Constant Matrix: (Units=GPa)
#
#
# Indices 1 2 3 4 5 6 
#
# 1 104.4861 39.6025 63.6333 -8.4836 -3.1000 -8.5209
# 2 39.6025 86.8393 50.1459 -27.1229 -1.2664 -5.9612
# 3 63.6333 50.1459 147.3028 -25.0531 2.4037 -6.6003
# 4 -8.4836 -27.1229 -25.0531 36.9407 -2.3000 0.7927
# 5 -3.1000 -1.2664 2.4037 -2.3000 33.4532 -7.1452
# 6 -8.5209 -5.9612 -6.6003 0.7927 -7.1452 26.0234
#
#
#
# Elastic Compliance Matrix: (Units=1/GPa)
#
#
# Indices 1 2 3 4 5 6 
#
# 1 0.014445 -0.004398 -0.005215 -0.003392 0.001963 0.003042
# 2 -0.004398 0.018572 -0.002475 0.011006 0.001727 0.002326
# 3 -0.005215 -0.002475 0.010600 0.004108 -0.001056 -0.000001
# 4 -0.003392 0.011006 0.004108 0.037289 0.002817 0.002090
# 5 0.001963 0.001727 -0.001056 0.002817 0.032459 0.009597
# 6 0.003042 0.002326 -0.000001 0.002090 0.009597 0.042527
#
#
# Mechanical properties :
#
#
# Convention : Reuss Voigt Hill
#
# Bulk Modulus (GPa) = 51.43717 71.71017 61.57367
# Shear Modulus (GPa) = 26.80265 31.63323 29.21794
#
# Velocity S-wave (km/s) = 3.48483 3.78586 3.63846
# Velocity P-wave (km/s) = 6.28472 7.18342 6.74905
#
# Compressibility (1/GPa) = 0.01944119
#
# Stress axis : x y z
#
# Youngs Moduli (GPa) = 69.22974 53.84314 94.33733
#
# Poissons Ratio (x) = 0.23678 0.49201
# Poissons Ratio (y) = 0.30444 0.23349
# Poissons Ratio (z) = 0.36107 0.13326
#
# Static dielectric constant tensor:
#      x y z
#    x 1.844950 -0.031800 -0.023750 
#    y -0.031800 1.814070 -0.001910 
#    z -0.023750 -0.001910 1.807130 
# 
# From -- ./inp_files/451967.got.cif
#   From: 2010.05.17/outbox.cif.g08.bks.cpg/sg2_226_cif.got.tgz:451967.got - 2010.06.03 11:33:40.
