data_PCOD9014625
_publ_section_title
;
Structure prediction by ZEFSAII (Michael W. Deem and Ramdas Pophale) SiO2 
 PCOD9014625
Probable space group: P -1
;
_chemical_formula_sum "Si O2"
_cell_formula_units_Z 15
_cell_length_a 15.858305
_cell_length_b 11.646119
_cell_length_c 11.169424
_cell_angle_alpha 62.239345
_cell_angle_beta 46.710509
_cell_angle_gamma 24.986778
_cell_volume 546.897080
_symmetry_space_group_name_H-M "P -1"
_symmetry_group_IT_number 2
_symmetry_cell_setting 'triclinic'
loop_
_space_group_symop_operation_xyz
x,y,z
-x,-y,-z
loop_
_atom_site_type_symbol
_atom_site_label
_atom_site_fract_x
_atom_site_fract_y
_atom_site_fract_z
Si Si1 0.051304 0.009782 0.660404
Si Si2 0.778785 0.615645 0.297578
Si Si3 0.248913 0.793874 0.945283
Si Si4 0.000000 0.500000 0.500000
Si Si5 0.567780 0.562457 0.547183
Si Si6 0.383047 0.243373 0.073255
Si Si7 0.769381 0.936788 0.681575
Si Si8 0.789370 0.878333 0.077823
O O1 0.310795 0.785356 0.603352
O O2 0.143228 0.778117 0.629491
O O3 0.068599 0.100619 0.499422
O O4 0.779203 0.269166 0.881241
O O5 0.568428 0.715396 0.484525
O O6 0.699135 0.847752 0.262661
O O7 0.024112 0.339398 0.288435
O O8 0.910553 0.458117 0.113319
O O9 0.526688 0.522148 0.727569
O O10 0.201808 0.991550 0.933543
O O11 0.000000 0.000000 0.000000
O O12 0.091137 0.507865 0.293681
O O13 0.220729 0.169514 0.389661
O O14 0.565874 0.097229 0.081598
O O15 0.500000 0.000000 0.000000
O O16 0.466069 0.266011 0.880281
#
# Coordination Sequence:
#
# PCOD9014625 Si02
#       8
#     2   2   2   1   2   2   2   2
#     4  10  22  43  63  89 131 175 216 269 315 388
#     4  10  22  40  66  99 126 171 214 270 334 386
#     4  10  22  41  64  98 127 169 221 267 319 387
#     4  10  22  40  62  92 134 166 214 262 328 390
#     4  10  22  39  65  93 123 173 224 257 328 386
#     4   9  21  41  62  95 133 172 212 263 328 389
#     4  10  23  40  63  95 130 169 211 269 324 387
#     4  10  21  41  68  95 135 167 217 275 323 387
#
# _framework density 27.427462999999999
#
# number of rings (size 3 to 8) (size 9 to 14) (size 15 to 20)
#    0.000    2.133    1.333    0.000    5.600    4.267 
#    0.000    0.667    0.000    0.000    0.000    0.000 
#    0.000    0.000    0.000    0.000    0.000    0.000 
#
# Total GULP energy -83636.624497 kJ/mol
# GULP energy per Si atom -5575.774966 kJ/mol
# Density = 2.736504 g / cm^3
# Si number density = 27.427463 Si / 1000 Ang^3
#
#
#
# Elastic Constant Matrix: (Units=GPa)
#
#
# Indices 1 2 3 4 5 6 
#
# 1 130.6623 39.1515 38.4947 -3.7397 -4.9774 17.8946
# 2 39.1515 70.5725 38.1439 -18.9122 3.8238 17.0420
# 3 38.4947 38.1439 243.2956 -24.7096 6.1807 10.9523
# 4 -3.7397 -18.9122 -24.7096 47.4333 10.2403 -8.2054
# 5 -4.9774 3.8238 6.1807 10.2403 35.8340 -6.6232
# 6 17.8946 17.0420 10.9523 -8.2054 -6.6232 37.6713
#
#
#
# Elastic Compliance Matrix: (Units=1/GPa)
#
#
# Indices 1 2 3 4 5 6 
#
# 1 0.009833 -0.005277 -0.000973 -0.002746 0.002482 -0.002162
# 2 -0.005277 0.021791 -0.001343 0.007820 -0.006236 -0.006354
# 3 -0.000973 -0.001343 0.004734 0.002149 -0.001439 -0.000092
# 4 -0.002746 0.007820 0.002149 0.027330 -0.009121 0.001491
# 5 0.002482 -0.006236 -0.001439 -0.009121 0.032853 0.005850
# 6 -0.002162 -0.006354 -0.000092 0.001491 0.005850 0.031827
#
#
# Mechanical properties :
#
#
# Convention : Reuss Voigt Hill
#
# Bulk Modulus (GPa) = 47.23279 75.12341 61.17810
# Shear Modulus (GPa) = 33.19802 46.10374 39.65088
#
# Velocity S-wave (km/s) = 3.48285 4.10437 3.80631
# Velocity P-wave (km/s) = 5.78204 7.06473 6.45532
#
# Compressibility (1/GPa) = 0.02117173
#
# Stress axis : x y z
#
# Youngs Moduli (GPa) = 101.69414 45.89023 211.25515
#
# Poissons Ratio (x) = 0.24218 0.20556
# Poissons Ratio (y) = 0.53668 0.28367
# Poissons Ratio (z) = 0.09895 0.06162
#
# Static dielectric constant tensor:
#      x y z
#    x 2.073280 -0.042530 -0.103850 
#    y -0.042530 2.164900 -0.110190 
#    z -0.103850 -0.110190 2.151020 
# 
# From -- ./inp_files/464452.got.cif
#   From: 2010.05.17/outbox.cif.g08.bks.cpg/sg2_233_cif.got.tgz:464452.got - 2010.06.03 11:33:40.
