data_PCOD9014977
_publ_section_title
;
Structure prediction by ZEFSAII (Michael W. Deem and Ramdas Pophale) SiO2 
 PCOD9014977
Probable space group: P -1
;
_chemical_formula_sum "Si O2"
_cell_formula_units_Z 15
_cell_length_a 14.338159
_cell_length_b 11.072915
_cell_length_c 7.721817
_cell_angle_alpha 106.872570
_cell_angle_beta 96.646517
_cell_angle_gamma 32.089316
_cell_volume 602.468827
_symmetry_space_group_name_H-M "P -1"
_symmetry_group_IT_number 2
_symmetry_cell_setting 'triclinic'
loop_
_space_group_symop_operation_xyz
x,y,z
-x,-y,-z
loop_
_atom_site_type_symbol
_atom_site_label
_atom_site_fract_x
_atom_site_fract_y
_atom_site_fract_z
Si Si1 0.670184 0.330633 0.845558
Si Si2 0.667785 0.644532 0.528815
Si Si3 0.256757 0.189644 0.264943
Si Si4 0.056173 0.903472 0.672351
Si Si5 0.473310 0.244539 0.080191
Si Si6 0.000000 0.500000 0.000000
Si Si7 0.306469 0.941773 0.444124
Si Si8 0.848943 0.924549 0.165780
O O1 0.664481 0.486940 0.885796
O O2 0.637794 0.268562 0.656904
O O3 0.500000 0.500000 0.000000
O O4 0.881582 0.062429 0.812373
O O5 0.747806 0.691804 0.546984
O O6 0.804135 0.372038 0.417951
O O7 0.602704 0.724344 0.747882
O O8 0.486761 0.816759 0.458966
O O9 0.212260 0.112880 0.329506
O O10 0.130538 0.362719 0.145008
O O11 0.459715 0.929165 0.122011
O O12 0.127261 0.954190 0.781173
O O13 0.000000 0.000000 0.500000
O O14 0.660689 0.103415 0.107449
O O15 0.993862 0.351337 0.972844
O O16 0.185203 0.083223 0.646980
#
# Coordination Sequence:
#
# PCOD9014977 Si02
#       8
#     2   2   2   2   2   1   2   2
#     4  12  24  43  69 102 142 185 229 295 359 407
#     4  11  23  42  69 105 136 187 243 284 340 426
#     4  11  23  42  68 101 144 187 232 286 358 416
#     4  12  22  40  71 100 134 184 237 289 332 425
#     4  10  21  41  70  92 141 186 227 290 343 425
#     4  10  24  42  68 100 144 184 228 292 346 426
#     4  11  23  42  70 101 142 183 231 296 353 409
#     4  10  22  43  66 104 131 184 236 281 357 405
#
# _framework density 24.897556999999999
#
# number of rings (size 3 to 8) (size 9 to 14) (size 15 to 20)
#    0.000    1.067    4.000    2.400    0.000    2.667 
#    0.000    2.667    0.000    0.000    0.000    0.000 
#    0.000    0.000    0.000    0.000    0.000    0.000 
#
# Total GULP energy -83558.169992 kJ/mol
# GULP energy per Si atom -5570.544666 kJ/mol
# Density = 2.484089 g / cm^3
# Si number density = 24.897557 Si / 1000 Ang^3
#
#
#
# Elastic Constant Matrix: (Units=GPa)
#
#
# Indices 1 2 3 4 5 6 
#
# 1 108.2421 41.9617 30.3268 25.4268 31.2456 12.9677
# 2 41.9617 87.4449 41.0009 14.2185 10.3525 23.7499
# 3 30.3268 41.0009 48.9619 9.1116 13.5192 -2.5621
# 4 25.4268 14.2185 9.1116 27.6687 15.1715 5.3397
# 5 31.2456 10.3525 13.5192 15.1715 48.7123 15.5802
# 6 12.9677 23.7499 -2.5621 5.3397 15.5802 34.6586
#
#
#
# Elastic Compliance Matrix: (Units=1/GPa)
#
#
# Indices 1 2 3 4 5 6 
#
# 1 0.015036 -0.004341 -0.002553 -0.007682 -0.005946 0.001017
# 2 -0.004341 0.037541 -0.033864 -0.007081 0.017017 -0.033163
# 3 -0.002553 -0.033864 0.056948 0.005030 -0.020278 0.036712
# 4 -0.007682 -0.007081 0.005030 0.051032 -0.012769 0.005976
# 5 -0.005946 0.017017 -0.020278 -0.012769 0.038774 -0.026398
# 6 0.001017 -0.033163 0.036712 0.005976 -0.026398 0.064857
#
#
# Mechanical properties :
#
#
# Convention : Reuss Voigt Hill
#
# Bulk Modulus (GPa) = 35.70503 52.35862 44.03183
# Shear Modulus (GPa) = 14.08284 30.96522 22.52403
#
# Velocity S-wave (km/s) = 2.38088 3.53045 3.01103
# Velocity P-wave (km/s) = 4.68295 6.13954 5.46004
#
# Compressibility (1/GPa) = 0.02800726
#
# Stress axis : x y z
#
# Youngs Moduli (GPa) = 66.50726 26.63768 17.55988
#
# Poissons Ratio (x) = 0.11564 0.04484
# Poissons Ratio (y) = 0.28871 0.59465
# Poissons Ratio (z) = 0.16983 0.90206
#
# Static dielectric constant tensor:
#      x y z
#    x 2.118670 -0.059500 -0.003300 
#    y -0.059500 2.080050 0.054910 
#    z -0.003300 0.054910 2.039970 
# 
# From -- ./inp_files/308075.got.cif
#   From: 2010.05.17/outbox.cif.g08.bks.cpg/sg2_155_cif.got.tgz:308075.got - 2010.06.03 11:33:40.
