data_PCOD9014958
_publ_section_title
;
Structure prediction by ZEFSAII (Michael W. Deem and Ramdas Pophale) SiO2 
 PCOD9014958
Probable space group: P -1
;
_chemical_formula_sum "Si O2"
_cell_formula_units_Z 16
_cell_length_a 14.952039
_cell_length_b 8.312104
_cell_length_c 12.108354
_cell_angle_alpha 73.582292
_cell_angle_beta 151.407385
_cell_angle_gamma 116.374748
_cell_volume 624.647988
_symmetry_space_group_name_H-M "P -1"
_symmetry_group_IT_number 2
_symmetry_cell_setting 'triclinic'
loop_
_space_group_symop_operation_xyz
x,y,z
-x,-y,-z
loop_
_atom_site_type_symbol
_atom_site_label
_atom_site_fract_x
_atom_site_fract_y
_atom_site_fract_z
Si Si1 0.400564 0.428262 0.286760
Si Si2 0.735433 0.147666 0.476522
Si Si3 0.064749 0.335940 0.630837
Si Si4 0.571966 0.749181 0.995366
Si Si5 0.619413 0.773911 0.296231
Si Si6 0.691567 0.268063 0.630493
Si Si7 0.920754 0.151473 0.286688
Si Si8 0.898906 0.415654 0.046038
O O1 0.500000 0.500000 0.500000
O O2 0.501603 0.585295 0.272756
O O3 0.464511 0.261100 0.370274
O O4 0.176245 0.421317 0.060934
O O5 0.965925 0.247704 0.657188
O O6 0.717809 0.138450 0.590826
O O7 0.626738 0.947645 0.340440
O O8 0.623355 0.274797 0.285264
O O9 0.949076 0.181415 0.442031
O O10 0.000000 0.500000 0.500000
O O11 0.305182 0.378079 0.867908
O O12 0.534449 0.766761 0.081378
O O13 0.748205 0.950597 0.112600
O O14 0.857230 0.809791 0.529809
O O15 0.765592 0.267565 0.836339
O O16 0.859692 0.478041 0.740520
O O17 0.865090 0.308393 0.143945
#
# Coordination Sequence:
#
# PCOD9014958 Si02
#       8
#     2   2   2   2   2   2   2   2
#     4  10  22  41  67  93 119 167 215 254 309 376
#     4  12  24  40  64  95 131 161 213 260 312 366
#     4  11  24  39  61  97 131 161 209 263 309 368
#     4  11  24  42  62  93 129 172 208 247 316 385
#     4  11  21  42  66  91 130 166 210 257 306 383
#     4  10  23  42  62  96 122 162 214 264 303 377
#     4  11  20  42  67  90 126 173 209 251 314 382
#     4  10  21  41  70  85 124 167 210 254 324 361
#
# _framework density 25.614426000000002
#
# number of rings (size 3 to 8) (size 9 to 14) (size 15 to 20)
#    0.000    1.250    3.750    2.625    3.500    2.500 
#    0.000    6.250    0.000    0.000    0.000    0.000 
#    0.000    0.000    0.000    0.000    0.000    0.000 
#
# Total GULP energy -89582.736391 kJ/mol
# GULP energy per Si atom -5598.921024 kJ/mol
# Density = 2.555613 g / cm^3
# Si number density = 25.614426 Si / 1000 Ang^3
#
#
#
# Elastic Constant Matrix: (Units=GPa)
#
#
# Indices 1 2 3 4 5 6 
#
# 1 112.0515 1.3943 36.7974 4.7783 -8.9644 -18.9095
# 2 1.3943 47.6347 11.3353 1.0977 -1.1427 -14.6072
# 3 36.7974 11.3353 89.1876 -12.7051 -7.8955 -15.8721
# 4 4.7783 1.0977 -12.7051 32.7027 -5.1120 -0.1398
# 5 -8.9644 -1.1427 -7.8955 -5.1120 40.1354 -6.2523
# 6 -18.9095 -14.6072 -15.8721 -0.1398 -6.2523 46.7288
#
#
#
# Elastic Compliance Matrix: (Units=1/GPa)
#
#
# Indices 1 2 3 4 5 6 
#
# 1 0.011337 0.002073 -0.004520 -0.003166 0.001914 0.003947
# 2 0.002073 0.023990 -0.002673 -0.001868 0.001572 0.007635
# 3 -0.004520 -0.002673 0.015268 0.007210 0.003301 0.002984
# 4 -0.003166 -0.001868 0.007210 0.034740 0.005300 0.001397
# 5 0.001914 0.001572 0.003301 0.005300 0.027663 0.006104
# 6 0.003947 0.007635 0.002984 0.001397 0.006104 0.027219
#
#
# Mechanical properties :
#
#
# Convention : Reuss Voigt Hill
#
# Bulk Modulus (GPa) = 24.77969 38.65865 31.71917
# Shear Modulus (GPa) = 30.50484 37.20315 33.85400
#
# Velocity S-wave (km/s) = 3.45472 3.81521 3.63943
# Velocity P-wave (km/s) = 5.06049 5.87648 5.48369
#
# Compressibility (1/GPa) = 0.04035563
#
# Stress axis : x y z
#
# Youngs Moduli (GPa) = 88.20421 41.68322 65.49857
#
# Poissons Ratio (x) = -0.08641 0.29607
# Poissons Ratio (y) = -0.18285 0.17505
# Poissons Ratio (z) = 0.39871 0.11140
#
# Static dielectric constant tensor:
#      x y z
#    x 2.047580 -0.039050 0.055820 
#    y -0.039050 2.034070 -0.034750 
#    z 0.055820 -0.034750 2.021530 
# 
# From -- ./inp_files/206554.got.cif
#   From: 2010.05.17/outbox.cif.g08.bks.cpg/sg2_104_cif.got.tgz:206554.got - 2010.06.03 11:33:40.
