data_PCOD9014053
_publ_section_title
;
Structure prediction by ZEFSAII (Michael W. Deem and Ramdas Pophale) SiO2 
 PCOD9014053
Probable space group: P -1
;
_chemical_formula_sum "Si O2"
_cell_formula_units_Z 16
_cell_length_a 12.399733
_cell_length_b 11.942170
_cell_length_c 12.068560
_cell_angle_alpha 87.796437
_cell_angle_beta 61.681719
_cell_angle_gamma 140.575226
_cell_volume 688.962555
_symmetry_space_group_name_H-M "P -1"
_symmetry_group_IT_number 2
_symmetry_cell_setting 'triclinic'
loop_
_space_group_symop_operation_xyz
x,y,z
-x,-y,-z
loop_
_atom_site_type_symbol
_atom_site_label
_atom_site_fract_x
_atom_site_fract_y
_atom_site_fract_z
Si Si1 0.905984 0.118866 0.024024
Si Si2 0.978744 0.112937 0.540521
Si Si3 0.162531 0.328044 0.117267
Si Si4 0.328299 0.992105 0.480532
Si Si5 0.769839 0.876560 0.881059
Si Si6 0.302611 0.592019 0.374178
Si Si7 0.026555 0.508857 0.331626
Si Si8 0.024453 0.459341 0.872185
O O1 0.149162 0.317853 0.990323
O O2 0.620877 0.868045 0.241740
O O3 0.920818 0.249651 0.950953
O O4 0.877248 0.006098 0.943069
O O5 0.241491 0.412145 0.382593
O O6 0.000000 0.000000 0.500000
O O7 0.747454 0.987545 0.584955
O O8 0.919072 0.063624 0.701652
O O9 0.161190 0.197879 0.158848
O O10 0.439848 0.610927 0.023280
O O11 0.889169 0.158192 0.310618
O O12 0.652514 0.272346 0.333664
O O13 0.244222 0.794397 0.505525
O O14 0.073290 0.452644 0.576106
O O15 0.253920 0.633649 0.291164
O O16 0.124716 0.601718 0.154451
O O17 0.000000 0.500000 0.000000
#
# Coordination Sequence:
#
# PCOD9014053 Si02
#       8
#     2   2   2   2   2   2   2   2
#     4  12  25  43  66 103 138 180 235 285 340 411
#     4  11  22  42  68 100 137 185 230 282 347 415
#     4  11  24  44  69  98 140 183 228 286 343 407
#     4  11  22  42  69  99 137 187 228 281 353 409
#     4  11  24  43  69  99 137 183 230 282 344 406
#     4  10  23  41  67  97 136 176 230 287 343 407
#     4  10  21  41  66  95 131 181 228 284 348 406
#     4  12  25  41  66 101 142 181 231 287 345 409
#
# _framework density 23.223324000000002
#
# number of rings (size 3 to 8) (size 9 to 14) (size 15 to 20)
#    0.000    1.000    1.250    6.000    1.750    1.500 
#    2.250    1.250    0.000    0.000    0.000    0.000 
#    0.000    0.000    0.000    0.000    0.000    0.000 
#
# Total GULP energy -89466.980304 kJ/mol
# GULP energy per Si atom -5591.686269 kJ/mol
# Density = 2.317047 g / cm^3
# Si number density = 23.223324 Si / 1000 Ang^3
#
#
#
# Elastic Constant Matrix: (Units=GPa)
#
#
# Indices 1 2 3 4 5 6 
#
# 1 77.2458 19.5789 10.1648 6.6668 27.2811 -10.8777
# 2 19.5789 90.5955 17.8545 10.5269 -0.3742 -4.4598
# 3 10.1648 17.8545 44.7820 9.8067 5.7680 5.8358
# 4 6.6668 10.5269 9.8067 46.5838 7.6763 14.4228
# 5 27.2811 -0.3742 5.7680 7.6763 36.9470 9.5909
# 6 -10.8777 -4.4598 5.8358 14.4228 9.5909 47.2670
#
#
#
# Elastic Compliance Matrix: (Units=1/GPa)
#
#
# Indices 1 2 3 4 5 6 
#
# 1 0.021919 -0.003774 -0.001969 -0.001733 -0.017917 0.009096
# 2 -0.003774 0.013064 -0.004442 -0.002381 0.003886 0.000850
# 3 -0.001969 -0.004442 0.025748 -0.003042 -0.001233 -0.002873
# 4 -0.001733 -0.002381 -0.003042 0.025543 -0.001571 -0.007723
# 5 -0.017917 0.003886 -0.001233 -0.001571 0.043982 -0.012049
# 6 0.009096 0.000850 -0.002873 -0.007723 -0.012049 0.028486
#
#
# Mechanical properties :
#
#
# Convention : Reuss Voigt Hill
#
# Bulk Modulus (GPa) = 24.77595 34.20217 29.48906
# Shear Modulus (GPa) = 25.96535 37.16124 31.56329
#
# Velocity S-wave (km/s) = 3.34739 4.00455 3.69062
# Velocity P-wave (km/s) = 5.06278 6.01177 5.55757
#
# Compressibility (1/GPa) = 0.04036171
#
# Stress axis : x y z
#
# Youngs Moduli (GPa) = 45.62150 76.54868 38.83859
#
# Poissons Ratio (x) = 0.28889 0.07646
# Poissons Ratio (y) = 0.17217 0.17252
# Poissons Ratio (z) = 0.08982 0.34002
#
# Static dielectric constant tensor:
#      x y z
#    x 1.874190 -0.004380 -0.006460 
#    y -0.004380 1.967470 0.041150 
#    z -0.006460 0.041150 1.864670 
# 
# From -- ./inp_files/428139.got.cif
#   From: 2010.05.17/outbox.cif.g08.bks.cpg/sg2_215_cif.got.tgz:428139.got - 2010.06.03 11:33:40.
