data_PCOD9014250
_publ_section_title
;
Structure prediction by ZEFSAII (Michael W. Deem and Ramdas Pophale) SiO2 
 PCOD9014250
Probable space group: P -1
;
_chemical_formula_sum "Si O2"
_cell_formula_units_Z 14
_cell_length_a 5.375123
_cell_length_b 22.314887
_cell_length_c 14.359274
_cell_angle_alpha 159.735955
_cell_angle_beta 87.792740
_cell_angle_gamma 83.058289
_cell_volume 531.226633
_symmetry_space_group_name_H-M "P -1"
_symmetry_group_IT_number 2
_symmetry_cell_setting 'triclinic'
loop_
_space_group_symop_operation_xyz
x,y,z
-x,-y,-z
loop_
_atom_site_type_symbol
_atom_site_label
_atom_site_fract_x
_atom_site_fract_y
_atom_site_fract_z
Si Si1 0.157736 0.124759 0.296134
Si Si2 0.319061 0.516831 0.116319
Si Si3 0.379881 0.482323 0.706463
Si Si4 0.823206 0.883062 0.937389
Si Si5 0.437522 0.324555 0.281848
Si Si6 0.191111 0.238615 0.820292
Si Si7 0.627186 0.127771 0.803064
O O1 0.491589 0.027410 0.162371
O O2 0.121702 0.162405 0.239501
O O3 0.006105 0.988186 0.119906
O O4 0.997677 0.315189 0.639676
O O5 0.347348 0.309615 0.846371
O O6 0.500000 0.500000 0.000000
O O7 0.440729 0.583838 0.300465
O O8 0.500638 0.331778 0.401822
O O9 0.357287 0.686071 0.967630
O O10 0.060175 0.558359 0.849551
O O11 0.852085 0.696655 0.726908
O O12 0.500000 0.500000 0.500000
O O13 0.581599 0.166369 0.968391
O O14 0.354523 0.143279 0.774211
O O15 0.132425 0.079141 0.534349
#
# Coordination Sequence:
#
# PCOD9014250 Si02
#       7
#     2   2   2   2   2   2   2
#     4  10  24  44  70  98 139 185 237 286 354 416
#     4  11  26  41  64  98 131 180 232 285 345 415
#     4  10  22  41  65  93 131 173 226 281 350 410
#     4  10  23  44  71 100 137 186 228 294 354 419
#     4  10  22  42  67 102 136 173 230 288 351 414
#     4  10  21  41  67  89 134 176 222 280 342 418
#     4   9  21  41  62  97 128 173 223 279 344 413
#
# _framework density 26.354099000000001
#
# number of rings (size 3 to 8) (size 9 to 14) (size 15 to 20)
#    0.000    2.000    0.000    1.286   10.000    2.286 
#    7.714    0.000    0.000    0.000    0.000    0.000 
#    0.000    0.000    0.000    0.000    0.000    0.000 
#
# Total GULP energy -78182.305278 kJ/mol
# GULP energy per Si atom -5584.450377 kJ/mol
# Density = 2.629412 g / cm^3
# Si number density = 26.354099 Si / 1000 Ang^3
#
#
#
# Elastic Constant Matrix: (Units=GPa)
#
#
# Indices 1 2 3 4 5 6 
#
# 1 97.8132 53.5434 48.0439 -2.4352 -3.3768 14.6582
# 2 53.5434 163.6660 59.3197 -25.8723 8.5264 30.4341
# 3 48.0439 59.3197 172.7602 -20.2884 1.9448 8.7405
# 4 -2.4352 -25.8723 -20.2884 48.1759 9.2051 11.8338
# 5 -3.3768 8.5264 1.9448 9.2051 45.6863 6.9113
# 6 14.6582 30.4341 8.7405 11.8338 6.9113 40.1029
#
#
#
# Elastic Compliance Matrix: (Units=1/GPa)
#
#
# Indices 1 2 3 4 5 6 
#
# 1 0.013945 -0.003900 -0.002840 -0.002806 0.002618 -0.001141
# 2 -0.003900 0.010680 -0.001260 0.007496 -0.002500 -0.008186
# 3 -0.002840 -0.001260 0.007317 0.002453 -0.000751 -0.000195
# 4 -0.002806 0.007496 0.002453 0.029984 -0.005778 -0.013050
# 5 0.002618 -0.002500 -0.000751 -0.005778 0.023944 -0.001317
# 6 -0.001141 -0.008186 -0.000195 -0.013050 -0.001317 0.035686
#
#
# Mechanical properties :
#
#
# Convention : Reuss Voigt Hill
#
# Bulk Modulus (GPa) = 62.72795 84.00593 73.36694
# Shear Modulus (GPa) = 34.99663 45.01517 40.00590
#
# Velocity S-wave (km/s) = 3.64804 4.13739 3.90040
# Velocity P-wave (km/s) = 6.44965 7.40061 6.94143
#
# Compressibility (1/GPa) = 0.01594186
#
# Stress axis : x y z
#
# Youngs Moduli (GPa) = 71.70906 93.63133 136.66602
#
# Poissons Ratio (x) = 0.36521 0.38814
# Poissons Ratio (y) = 0.27970 0.17217
# Poissons Ratio (z) = 0.20366 0.11796
#
# Static dielectric constant tensor:
#      x y z
#    x 2.214650 -0.001160 -0.061700 
#    y -0.001160 2.148660 0.185830 
#    z -0.061700 0.185830 2.158970 
# 
# From -- ./inp_files/485993.got.cif
#   From: 2010.05.17/outbox.cif.g08.bks.cpg/sg2_243_cif.got.tgz:485993.got - 2010.06.03 11:33:40.
