data_PCOD9014246
_publ_section_title
;
Structure prediction by ZEFSAII (Michael W. Deem and Ramdas Pophale) SiO2 
 PCOD9014246
Probable space group: P -1
;
_chemical_formula_sum "Si O2"
_cell_formula_units_Z 14
_cell_length_a 7.570725
_cell_length_b 7.938258
_cell_length_c 15.357893
_cell_angle_alpha 124.224540
_cell_angle_beta 49.277137
_cell_angle_gamma 120.497091
_cell_volume 563.641306
_symmetry_space_group_name_H-M "P -1"
_symmetry_group_IT_number 2
_symmetry_cell_setting 'triclinic'
loop_
_space_group_symop_operation_xyz
x,y,z
-x,-y,-z
loop_
_atom_site_type_symbol
_atom_site_label
_atom_site_fract_x
_atom_site_fract_y
_atom_site_fract_z
Si Si1 0.268634 0.580292 0.632867
Si Si2 0.251236 0.920390 0.601554
Si Si3 0.762525 0.896771 0.990648
Si Si4 0.391544 0.550960 0.929515
Si Si5 0.022141 0.201541 0.859331
Si Si6 0.516576 0.243949 0.225894
Si Si7 0.061673 0.213891 0.487693
O O1 0.500000 0.500000 0.500000
O O2 0.270359 0.797165 0.647688
O O3 0.267111 0.617874 0.746496
O O4 0.062638 0.398862 0.608803
O O5 0.113927 0.768082 0.528705
O O6 0.500000 0.000000 0.500000
O O7 0.131486 0.113956 0.714943
O O8 0.568437 0.020509 0.123278
O O9 0.617308 0.657151 0.950832
O O10 0.855839 0.996684 0.896890
O O11 0.000000 0.000000 0.000000
O O12 0.490102 0.636751 0.827206
O O13 0.244260 0.313527 0.884355
O O14 0.164211 0.652711 0.054078
O O15 0.301795 0.221927 0.356570
O O16 0.000000 0.000000 0.500000
#
# Coordination Sequence:
#
# PCOD9014246 Si02
#       7
#     2   2   2   2   2   2   2
#     4  10  23  42  62  93 130 176 225 276 346 402
#     4  12  24  41  66  99 139 175 228 285 340 417
#     4  11  22  41  65  98 135 171 224 287 348 406
#     4  10  22  42  70 100 129 186 227 283 344 417
#     4  10  23  42  68  99 135 177 239 273 346 413
#     4  10  21  41  67  89 130 174 224 282 339 408
#     4  11  24  41  66  97 134 180 230 280 345 417
#
# _framework density 24.838491999999999
#
# number of rings (size 3 to 8) (size 9 to 14) (size 15 to 20)
#    0.000    1.429    0.000    6.429    6.000    0.571 
#    7.714    0.000    0.000    0.000    0.000    0.000 
#    0.000    0.000    0.000    0.000    0.000    0.000 
#
# Total GULP energy -78163.812169 kJ/mol
# GULP energy per Si atom -5583.129441 kJ/mol
# Density = 2.478196 g / cm^3
# Si number density = 24.838492 Si / 1000 Ang^3
#
#
#
# Elastic Constant Matrix: (Units=GPa)
#
#
# Indices 1 2 3 4 5 6 
#
# 1 77.2232 15.2296 4.7373 6.7739 16.4844 35.8593
# 2 15.2296 134.2772 28.2104 -2.8898 7.0672 27.5360
# 3 4.7373 28.2104 108.7725 2.8348 0.2582 14.4592
# 4 6.7739 -2.8898 2.8348 32.0988 11.5041 11.0619
# 5 16.4844 7.0672 0.2582 11.5041 29.3066 14.0009
# 6 35.8593 27.5360 14.4592 11.0619 14.0009 46.6541
#
#
#
# Elastic Compliance Matrix: (Units=1/GPa)
#
#
# Indices 1 2 3 4 5 6 
#
# 1 0.021146 0.001114 0.000879 0.003186 -0.005663 -0.016239
# 2 0.001114 0.009054 -0.001667 0.003244 -0.001151 -0.006107
# 3 0.000879 -0.001667 0.010015 -0.000719 0.001582 -0.003100
# 4 0.003186 0.003244 -0.000719 0.038842 -0.013351 -0.009344
# 5 -0.005663 -0.001151 0.001582 -0.013351 0.045679 -0.006001
# 6 -0.016239 -0.006107 -0.003100 -0.009344 -0.006001 0.042498
#
#
# Mechanical properties :
#
#
# Convention : Reuss Voigt Hill
#
# Bulk Modulus (GPa) = 24.46958 46.29195 35.38077
# Shear Modulus (GPa) = 27.74648 39.75161 33.74904
#
# Velocity S-wave (km/s) = 3.34589 4.00484 3.69011
# Velocity P-wave (km/s) = 4.97991 6.32951 5.69483
#
# Compressibility (1/GPa) = 0.04086707
#
# Stress axis : x y z
#
# Youngs Moduli (GPa) = 47.29013 110.44983 99.85454
#
# Poissons Ratio (x) = -0.12300 -0.08780
# Poissons Ratio (y) = -0.05266 0.16642
# Poissons Ratio (z) = -0.04158 0.18408
#
# Static dielectric constant tensor:
#      x y z
#    x 2.099350 0.017120 0.043950 
#    y 0.017120 1.920300 0.016060 
#    z 0.043950 0.016060 1.900960 
# 
# From -- ./inp_files/493577.got.cif
#   From: 2010.05.17/outbox.cif.g08.bks.cpg/sg2_247_cif.got.tgz:493577.got - 2010.06.03 11:33:40.
