data_PCOD9014343
_publ_section_title
;
Structure prediction by ZEFSAII (Michael W. Deem and Ramdas Pophale) SiO2 
 PCOD9014343
Probable space group: P -1
;
_chemical_formula_sum "Si O2"
_cell_formula_units_Z 14
_cell_length_a 6.164401
_cell_length_b 9.929104
_cell_length_c 13.554261
_cell_angle_alpha 92.040689
_cell_angle_beta 118.408345
_cell_angle_gamma 65.154869
_cell_volume 647.996860
_symmetry_space_group_name_H-M "P -1"
_symmetry_group_IT_number 2
_symmetry_cell_setting 'triclinic'
loop_
_space_group_symop_operation_xyz
x,y,z
-x,-y,-z
loop_
_atom_site_type_symbol
_atom_site_label
_atom_site_fract_x
_atom_site_fract_y
_atom_site_fract_z
Si Si1 0.840332 0.568493 0.261648
Si Si2 0.310649 0.081455 0.321696
Si Si3 0.393151 0.133981 0.122581
Si Si4 0.130803 0.183545 0.859723
Si Si5 0.543750 0.255713 0.645507
Si Si6 0.706602 0.314767 0.260565
Si Si7 0.517940 0.670258 0.584200
O O1 0.792375 0.695731 0.174225
O O2 0.722162 0.647444 0.342908
O O3 0.696395 0.460567 0.207809
O O4 0.165423 0.454332 0.335540
O O5 0.279333 0.095581 0.196647
O O6 0.554980 0.092968 0.625226
O O7 0.490493 0.166846 0.391227
O O8 0.009685 0.175682 0.306830
O O9 0.483436 0.263364 0.172351
O O10 0.665830 0.982395 0.143976
O O11 0.184113 0.180728 0.987395
O O12 0.816633 0.226569 0.765530
O O13 0.558377 0.327844 0.546026
O O14 0.660399 0.350788 0.368129
#
# Coordination Sequence:
#
# PCOD9014343 Si02
#       7
#     2   2   2   2   2   2   2
#     4  11  24  42  63  97 130 166 208 258 321 373
#     4  10  21  41  67  95 125 167 213 259 315 373
#     4  10  22  44  64  94 129 162 213 265 308 376
#     4  11  24  39  67  97 126 164 212 263 314 372
#     4  12  23  40  66  99 126 168 212 259 315 374
#     4  10  22  44  65  90 132 170 205 258 319 370
#     4  10  24  42  64  93 134 167 208 259 312 381
#
# _framework density 21.605043999999999
#
# number of rings (size 3 to 8) (size 9 to 14) (size 15 to 20)
#    0.000    1.429    2.857    1.714    0.000    7.429 
#    0.000   10.000    0.000    0.000    0.000    0.000 
#    0.000    0.000    0.000    0.000    0.000    0.000 
#
# Total GULP energy -78334.741949 kJ/mol
# GULP energy per Si atom -5595.338711 kJ/mol
# Density = 2.155587 g / cm^3
# Si number density = 21.605044 Si / 1000 Ang^3
#
#
#
# Elastic Constant Matrix: (Units=GPa)
#
#
# Indices 1 2 3 4 5 6 
#
# 1 59.0689 12.8875 7.2614 3.2249 -20.0367 0.8135
# 2 12.8875 84.9604 14.5028 8.0601 -10.6373 11.7591
# 3 7.2614 14.5028 83.5934 -0.7440 -22.5379 5.8530
# 4 3.2249 8.0601 -0.7440 19.6695 -3.6986 -13.5129
# 5 -20.0367 -10.6373 -22.5379 -3.6986 28.7657 5.3792
# 6 0.8135 11.7591 5.8530 -13.5129 5.3792 41.0663
#
#
#
# Elastic Compliance Matrix: (Units=1/GPa)
#
#
# Indices 1 2 3 4 5 6 
#
# 1 0.023391 -0.000969 0.003561 -0.002456 0.019159 -0.004011
# 2 -0.000969 0.014744 -0.000848 -0.010726 0.004261 -0.008169
# 3 0.003561 -0.000848 0.016350 0.000581 0.015806 -0.004037
# 4 -0.002456 -0.010726 0.000581 0.074511 -0.000815 0.027662
# 5 0.019159 0.004261 0.015806 -0.000815 0.064310 -0.012544
# 6 -0.004011 -0.008169 -0.004037 0.027662 -0.012544 0.038090
#
#
# Mechanical properties :
#
#
# Convention : Reuss Voigt Hill
#
# Bulk Modulus (GPa) = 17.24983 32.99180 25.12082
# Shear Modulus (GPa) = 20.22384 30.76502 25.49443
#
# Velocity S-wave (km/s) = 3.06285 3.77765 3.43887
# Velocity P-wave (km/s) = 4.52875 5.85927 5.23644
#
# Compressibility (1/GPa) = 0.05797157
#
# Stress axis : x y z
#
# Youngs Moduli (GPa) = 42.75086 67.82562 61.16209
#
# Poissons Ratio (x) = 0.06573 -0.21778
# Poissons Ratio (y) = 0.04143 0.05189
# Poissons Ratio (z) = -0.15222 0.05754
#
# Static dielectric constant tensor:
#      x y z
#    x 1.762780 0.034210 0.000690 
#    y 0.034210 1.784540 0.029630 
#    z 0.000690 0.029630 1.764100 
# 
# From -- ./inp_files/363237.got.cif
#   From: 2010.05.17/outbox.cif.g08.bks.cpg/sg2_182_cif.got.tgz:363237.got - 2010.06.03 11:33:40.
