data_PCOD9014424
_publ_section_title
;
Structure prediction by ZEFSAII (Michael W. Deem and Ramdas Pophale) SiO2 
 PCOD9014424
Probable space group: P -1
;
_chemical_formula_sum "Si O2"
_cell_formula_units_Z 16
_cell_length_a 13.643785
_cell_length_b 6.173006
_cell_length_c 10.709665
_cell_angle_alpha 115.706469
_cell_angle_beta 122.808757
_cell_angle_gamma 79.921727
_cell_volume 680.935810
_symmetry_space_group_name_H-M "P -1"
_symmetry_group_IT_number 2
_symmetry_cell_setting 'triclinic'
loop_
_space_group_symop_operation_xyz
x,y,z
-x,-y,-z
loop_
_atom_site_type_symbol
_atom_site_label
_atom_site_fract_x
_atom_site_fract_y
_atom_site_fract_z
Si Si1 0.100099 0.881111 0.612974
Si Si2 0.491296 0.698589 0.724590
Si Si3 0.265499 0.194566 0.103623
Si Si4 0.595390 0.212017 0.577924
Si Si5 0.276741 0.518831 0.670920
Si Si6 0.956225 0.199834 0.176370
Si Si7 0.806076 0.597486 0.135815
Si Si8 0.220032 0.127004 0.327699
O O1 0.183198 0.680797 0.579389
O O2 0.036468 0.769771 0.662705
O O3 0.182337 0.117477 0.761890
O O4 0.000000 0.000000 0.500000
O O5 0.605793 0.885300 0.861891
O O6 0.547974 0.451906 0.662913
O O7 0.413312 0.769889 0.572708
O O8 0.406231 0.640886 0.766708
O O9 0.269319 0.262791 0.270195
O O10 0.245052 0.398736 0.037915
O O11 0.157487 0.987516 0.971997
O O12 0.500000 0.000000 0.500000
O O13 0.719118 0.122363 0.683468
O O14 0.251481 0.502231 0.798380
O O15 0.257838 0.271729 0.516596
O O16 0.924182 0.458413 0.168682
O O17 0.080271 0.105604 0.205632
#
# Coordination Sequence:
#
# PCOD9014424 Si02
#       8
#     2   2   2   2   2   2   2   2
#     4  10  21  41  67  97 135 174 223 281 326 390
#     4  11  24  42  66 101 135 174 224 271 336 402
#     4  11  25  45  65  99 139 181 217 271 333 403
#     4  11  22  43  65 100 140 168 218 289 335 380
#     4  11  24  41  70 104 129 173 229 274 336 388
#     4  10  24  44  64 100 137 178 223 266 337 400
#     4  10  24  46  63  94 142 178 220 271 331 395
#     4  12  23  43  74 101 131 173 225 281 335 393
#
# _framework density 23.497076
#
# number of rings (size 3 to 8) (size 9 to 14) (size 15 to 20)
#    0.000    1.250    2.500    2.625    5.250    3.000 
#    4.500    5.625    0.000    0.000    0.000    0.000 
#    0.000    0.000    0.000    0.000    0.000    0.000 
#
# Total GULP energy -89245.572114 kJ/mol
# GULP energy per Si atom -5577.848257 kJ/mol
# Density = 2.344360 g / cm^3
# Si number density = 23.497076 Si / 1000 Ang^3
#
#
#
# Elastic Constant Matrix: (Units=GPa)
#
#
# Indices 1 2 3 4 5 6 
#
# 1 137.3637 34.0385 32.6078 -12.5889 12.3250 -2.4875
# 2 34.0385 88.1324 37.4363 -19.4067 -12.6029 -11.3412
# 3 32.6078 37.4363 74.6601 -23.2131 1.2508 -3.3900
# 4 -12.5889 -19.4067 -23.2131 51.2769 10.2186 4.0914
# 5 12.3250 -12.6029 1.2508 10.2186 28.2514 2.4579
# 6 -2.4875 -11.3412 -3.3900 4.0914 2.4579 28.0112
#
#
#
# Elastic Compliance Matrix: (Units=1/GPa)
#
#
# Indices 1 2 3 4 5 6 
#
# 1 0.009195 -0.003379 -0.001819 0.001366 -0.005893 -0.000454
# 2 -0.003379 0.017784 -0.007238 0.000391 0.009137 0.005165
# 3 -0.001819 -0.007238 0.020087 0.007161 -0.005811 -0.001197
# 4 0.001366 0.000391 0.007161 0.025304 -0.009743 -0.001695
# 5 -0.005893 0.009137 -0.005811 -0.009743 0.045836 -0.000126
# 6 -0.000454 0.005165 -0.001197 -0.001695 -0.000126 0.037865
#
#
# Mechanical properties :
#
#
# Convention : Reuss Voigt Hill
#
# Bulk Modulus (GPa) = 45.05788 56.48014 50.76901
# Shear Modulus (GPa) = 26.54777 34.57947 30.56362
#
# Velocity S-wave (km/s) = 3.36495 3.84037 3.61049
# Velocity P-wave (km/s) = 5.85788 6.61467 6.24774
#
# Compressibility (1/GPa) = 0.02219368
#
# Stress axis : x y z
#
# Youngs Moduli (GPa) = 108.75913 56.23156 49.78267
#
# Poissons Ratio (x) = 0.19000 0.09054
# Poissons Ratio (y) = 0.36749 0.36034
# Poissons Ratio (z) = 0.19781 0.40702
#
# Static dielectric constant tensor:
#      x y z
#    x 1.923980 0.015930 0.044930 
#    y 0.015930 1.966310 0.184950 
#    z 0.044930 0.184950 2.350510 
# 
# From -- ./inp_files/410902.got.cif
#   From: 2010.05.17/outbox.cif.g08.bks.cpg/sg2_206_cif.got.tgz:410902.got - 2010.06.03 11:33:40.
