data_PCOD9014610
_publ_section_title
;
Structure prediction by ZEFSAII (Michael W. Deem and Ramdas Pophale) SiO2 
 PCOD9014610
Probable space group: P -1
;
_chemical_formula_sum "Si O2"
_cell_formula_units_Z 16
_cell_length_a 10.279681
_cell_length_b 19.178236
_cell_length_c 11.602752
_cell_angle_alpha 29.707165
_cell_angle_beta 127.080116
_cell_angle_gamma 140.701658
_cell_volume 700.285679
_symmetry_space_group_name_H-M "P -1"
_symmetry_group_IT_number 2
_symmetry_cell_setting 'triclinic'
loop_
_space_group_symop_operation_xyz
x,y,z
-x,-y,-z
loop_
_atom_site_type_symbol
_atom_site_label
_atom_site_fract_x
_atom_site_fract_y
_atom_site_fract_z
Si Si1 0.988522 0.269406 0.294323
Si Si2 0.265852 0.416283 0.014957
Si Si3 0.807451 0.579714 0.563638
Si Si4 0.573070 0.181366 0.099900
Si Si5 0.981419 0.516430 0.334477
Si Si6 0.184474 0.153549 0.962923
Si Si7 0.004035 0.053129 0.259846
Si Si8 0.353565 0.948857 0.885892
O O1 0.773181 0.240905 0.199873
O O2 0.167394 0.409679 0.094391
O O3 0.090571 0.328679 0.390253
O O4 0.947289 0.084053 0.511945
O O5 0.134102 0.210721 0.195933
O O6 0.500000 0.500000 0.000000
O O7 0.232121 0.527974 0.751379
O O8 0.723622 0.662899 0.322688
O O9 0.985542 0.606133 0.542375
O O10 0.650971 0.364553 0.811896
O O11 0.537010 0.034804 0.199518
O O12 0.356103 0.123204 0.120699
O O13 0.000000 0.500000 0.500000
O O14 0.158428 0.731307 0.093336
O O15 0.080420 0.141183 0.046303
O O16 0.000000 0.000000 0.000000
O O17 0.761282 0.964259 0.281063
O O18 0.500000 0.000000 0.000000
#
# Coordination Sequence:
#
# PCOD9014610 Si02
#       8
#     2   2   2   2   2   2   2   2
#     4  12  24  46  69 100 140 181 226 275 352 417
#     4  11  25  44  68 101 135 176 231 279 340 405
#     4  11  23  44  73  96 136 180 226 282 342 404
#     4  11  25  43  69  99 136 180 226 281 340 406
#     4  10  22  44  66  97 133 170 223 282 327 397
#     4  12  25  46  65 104 137 174 233 282 340 397
#     4  11  24  45  69  98 143 178 226 286 333 412
#     4  10  21  41  68  95 128 178 226 268 335 396
#
# _framework density 22.847819999999999
#
# number of rings (size 3 to 8) (size 9 to 14) (size 15 to 20)
#    0.000    1.000    5.000    3.375    1.750    1.500 
#    4.500    0.000    0.000    0.000    0.000    0.000 
#    0.000    0.000    0.000    0.000    0.000    0.000 
#
# Total GULP energy -89351.760545 kJ/mol
# GULP energy per Si atom -5584.485034 kJ/mol
# Density = 2.279582 g / cm^3
# Si number density = 22.847820 Si / 1000 Ang^3
#
#
#
# Elastic Constant Matrix: (Units=GPa)
#
#
# Indices 1 2 3 4 5 6 
#
# 1 147.4546 66.2909 29.8031 26.7850 28.8013 1.2104
# 2 66.2909 65.0821 -0.8553 27.0225 3.1944 -1.9784
# 3 29.8031 -0.8553 81.4500 23.2748 17.6913 2.2509
# 4 26.7850 27.0225 23.2748 38.1875 1.9177 3.9058
# 5 28.8013 3.1944 17.6913 1.9177 38.7559 16.8193
# 6 1.2104 -1.9784 2.2509 3.9058 16.8193 52.5919
#
#
#
# Elastic Compliance Matrix: (Units=1/GPa)
#
#
# Indices 1 2 3 4 5 6 
#
# 1 0.018157 -0.020566 -0.006496 0.006091 -0.009918 0.001806
# 2 -0.020566 0.048885 0.015592 -0.030147 0.004579 0.002420
# 3 -0.006496 0.015592 0.021911 -0.019839 -0.007002 0.003511
# 4 0.006091 -0.030147 -0.019839 0.055679 0.007244 -0.006877
# 5 -0.009918 0.004579 -0.007002 0.007244 0.041294 -0.013044
# 6 0.001806 0.002420 0.003511 -0.006877 -0.013044 0.023596
#
#
# Mechanical properties :
#
#
# Convention : Reuss Voigt Hill
#
# Bulk Modulus (GPa) = 15.14868 53.82934 34.48901
# Shear Modulus (GPa) = 19.64900 39.15692 29.40296
#
# Velocity S-wave (km/s) = 2.93575 4.14432 3.59124
# Velocity P-wave (km/s) = 4.25865 6.81994 5.68541
#
# Compressibility (1/GPa) = 0.06601237
#
# Stress axis : x y z
#
# Youngs Moduli (GPa) = 55.07613 20.45625 45.63917
#
# Poissons Ratio (x) = 0.42071 0.29646
# Poissons Ratio (y) = 1.13272 -0.71161
# Poissons Ratio (z) = 0.35776 -0.31896
#
# Static dielectric constant tensor:
#      x y z
#    x 1.620680 -0.315820 -0.147080 
#    y -0.315820 1.444680 -0.115750 
#    z -0.147080 -0.115750 1.896900 
# 
# From -- ./inp_files/402693.got.cif
#   From: 2010.05.17/outbox.cif.g08.bks.cpg/sg2_202_cif.got.tgz:402693.got - 2010.06.03 11:33:40.
