data_PCOD9014273
_publ_section_title
;
Structure prediction by ZEFSAII (Michael W. Deem and Ramdas Pophale) SiO2 
 PCOD9014273
Probable space group: P -1
;
_chemical_formula_sum "Si O2"
_cell_formula_units_Z 14
_cell_length_a 19.601667
_cell_length_b 10.922578
_cell_length_c 9.228753
_cell_angle_alpha 69.470392
_cell_angle_beta 42.844140
_cell_angle_gamma 36.339194
_cell_volume 639.660045
_symmetry_space_group_name_H-M "P -1"
_symmetry_group_IT_number 2
_symmetry_cell_setting 'triclinic'
loop_
_space_group_symop_operation_xyz
x,y,z
-x,-y,-z
loop_
_atom_site_type_symbol
_atom_site_label
_atom_site_fract_x
_atom_site_fract_y
_atom_site_fract_z
Si Si1 0.125127 0.852783 0.214576
Si Si2 0.118960 0.505794 0.076952
Si Si3 0.673618 0.658394 0.902186
Si Si4 0.146280 0.665276 0.700230
Si Si5 0.531110 0.500180 0.784365
Si Si6 0.259692 0.001934 0.342818
Si Si7 0.010857 0.341984 0.308810
O O1 0.214920 0.607973 0.163120
O O2 0.313549 0.735932 0.962103
O O3 0.000000 0.000000 0.500000
O O4 0.986780 0.054850 0.216594
O O5 0.296434 0.318353 0.994036
O O6 0.096469 0.383723 0.105286
O O7 0.142795 0.585491 0.882618
O O8 0.920113 0.757831 0.373134
O O9 0.808157 0.590736 0.611756
O O10 0.450822 0.880785 0.109479
O O11 0.361541 0.482614 0.407357
O O12 0.055125 0.679624 0.707484
O O13 0.660164 0.231575 0.642500
O O14 0.500000 0.500000 0.000000
O O15 0.167653 0.109879 0.278940
#
# Coordination Sequence:
#
# PCOD9014273 Si02
#       7
#     2   2   2   2   2   2   2
#     4  11  20  38  65  95 116 153 204 257 312 365
#     4  11  26  39  59  91 129 173 201 247 312 365
#     4  10  21  41  67  92 120 155 213 261 303 366
#     4  12  23  40  61  92 133 157 203 259 309 365
#     4  11  21  36  65  96 117 153 204 257 313 361
#     4  10  22  41  66  92 121 159 210 260 306 363
#     4  11  22  41  63  88 121 172 217 248 291 362
#
# _framework density 21.886624999999999
#
# number of rings (size 3 to 8) (size 9 to 14) (size 15 to 20)
#    0.000    1.143    2.857    5.571    0.000    5.714 
#    0.000    2.857    0.000    6.000    0.000    0.000 
#    0.000    0.000    0.000    0.000    0.000    0.000 
#
# Total GULP energy -78257.594198 kJ/mol
# GULP energy per Si atom -5589.828157 kJ/mol
# Density = 2.183681 g / cm^3
# Si number density = 21.886625 Si / 1000 Ang^3
#
#
#
# Elastic Constant Matrix: (Units=GPa)
#
#
# Indices 1 2 3 4 5 6 
#
# 1 85.0454 17.3741 44.1750 10.6576 -37.9698 -2.1626
# 2 17.3741 65.8724 39.3350 -2.7295 -9.6149 2.1070
# 3 44.1750 39.3350 91.8672 -6.7470 -41.1393 -5.6726
# 4 10.6576 -2.7295 -6.7470 32.4787 -4.8681 -5.9901
# 5 -37.9698 -9.6149 -41.1393 -4.8681 43.2829 5.9666
# 6 -2.1626 2.1070 -5.6726 -5.9901 5.9666 33.2354
#
#
#
# Elastic Compliance Matrix: (Units=1/GPa)
#
#
# Indices 1 2 3 4 5 6 
#
# 1 0.021096 -0.001385 -0.003778 -0.006209 0.014305 -0.002872
# 2 -0.001385 0.021963 -0.012806 -0.002086 -0.008393 -0.002537
# 3 -0.003778 -0.012806 0.029045 0.010136 0.022121 0.003379
# 4 -0.006209 -0.002086 0.010136 0.037069 0.006943 0.006893
# 5 0.014305 -0.008393 0.022121 0.006943 0.056088 -0.003579
# 6 -0.002872 -0.002537 0.003379 0.006893 -0.003579 0.032524
#
#
# Mechanical properties :
#
#
# Convention : Reuss Voigt Hill
#
# Bulk Modulus (GPa) = 27.65251 49.39482 38.52366
# Shear Modulus (GPa) = 20.34350 31.25946 25.80148
#
# Velocity S-wave (km/s) = 3.05207 3.78331 3.43719
# Velocity P-wave (km/s) = 5.00820 6.45772 5.77859
#
# Compressibility (1/GPa) = 0.03616309
#
# Stress axis : x y z
#
# Youngs Moduli (GPa) = 47.40320 45.53099 34.42976
#
# Poissons Ratio (x) = 0.06308 0.13009
# Poissons Ratio (y) = 0.06567 0.44092
# Poissons Ratio (z) = 0.17911 0.58309
#
# Static dielectric constant tensor:
#      x y z
#    x 1.983760 0.007670 0.019270 
#    y 0.007670 1.845420 0.021260 
#    z 0.019270 0.021260 1.813780 
# 
# From -- ./inp_files/346019.got.cif
#   From: 2010.05.17/outbox.cif.g08.bks.cpg/sg2_174_cif.got.tgz:346019.got - 2010.06.03 11:33:40.
