data_PCOD9014119
_publ_section_title
;
Structure prediction by ZEFSAII (Michael W. Deem and Ramdas Pophale) SiO2 
 PCOD9014119
Probable space group: P -1
;
_chemical_formula_sum "Si O2"
_cell_formula_units_Z 14
_cell_length_a 14.407447
_cell_length_b 11.395480
_cell_length_c 9.331188
_cell_angle_alpha 53.739009
_cell_angle_beta 125.782910
_cell_angle_gamma 150.964400
_cell_volume 590.544431
_symmetry_space_group_name_H-M "P -1"
_symmetry_group_IT_number 2
_symmetry_cell_setting 'triclinic'
loop_
_space_group_symop_operation_xyz
x,y,z
-x,-y,-z
loop_
_atom_site_type_symbol
_atom_site_label
_atom_site_fract_x
_atom_site_fract_y
_atom_site_fract_z
Si Si1 0.904804 0.615886 0.826724
Si Si2 0.981701 0.617384 0.222471
Si Si3 0.596623 0.301728 0.261482
Si Si4 0.065799 0.054523 0.255491
Si Si5 0.728844 0.829351 0.916335
Si Si6 0.873261 0.193729 0.381009
Si Si7 0.449274 0.846397 0.349717
O O1 0.880750 0.764582 0.715552
O O2 0.721557 0.358977 0.766978
O O3 0.086974 0.767753 0.780356
O O4 0.933239 0.587638 0.032527
O O5 0.807540 0.509694 0.232004
O O6 0.985134 0.447336 0.367669
O O7 0.170032 0.906719 0.214700
O O8 0.484553 0.337760 0.111384
O O9 0.597806 0.273695 0.452593
O O10 0.485012 0.053061 0.263915
O O11 0.227281 0.209990 0.162933
O O12 0.053636 0.885414 0.438693
O O13 0.865037 0.897995 0.111191
O O14 0.649910 0.988208 0.367798
#
# Coordination Sequence:
#
# PCOD9014119 Si02
#       7
#     2   2   2   2   2   2   2
#     4  11  24  42  60  96 132 170 205 254 316 385
#     4  10  24  40  70  97 120 164 219 259 320 363
#     4  10  21  41  66  98 122 162 212 270 311 367
#     4  10  23  41  63  94 127 172 210 248 321 378
#     4  10  21  44  65  90 132 163 209 266 309 374
#     4  11  22  42  65  94 127 163 211 262 313 372
#     4  10  23  39  66  97 127 159 214 264 318 366
#
# _framework density 23.706938999999998
#
# number of rings (size 3 to 8) (size 9 to 14) (size 15 to 20)
#    0.000    1.714    1.429    1.714    2.000    6.857 
#    0.000    9.286    0.000    0.000    0.000    0.000 
#    0.000    0.000    0.000    0.000    0.000    0.000 
#
# Total GULP energy -78475.645068 kJ/mol
# GULP energy per Si atom -5605.403219 kJ/mol
# Density = 2.365298 g / cm^3
# Si number density = 23.706939 Si / 1000 Ang^3
#
#
#
# Elastic Constant Matrix: (Units=GPa)
#
#
# Indices 1 2 3 4 5 6 
#
# 1 172.3197 48.4116 49.4459 0.0873 -3.0228 25.1880
# 2 48.4116 52.4453 26.0301 5.7481 -11.0945 -6.9642
# 3 49.4459 26.0301 80.9503 -3.3080 -4.8699 10.6295
# 4 0.0873 5.7481 -3.3080 30.7247 -14.8608 -0.1117
# 5 -3.0228 -11.0945 -4.8699 -14.8608 59.9819 -7.3341
# 6 25.1880 -6.9642 10.6295 -0.1117 -7.3341 50.4181
#
#
#
# Elastic Compliance Matrix: (Units=1/GPa)
#
#
# Indices 1 2 3 4 5 6 
#
# 1 0.009942 -0.009264 -0.002406 0.000439 -0.002037 -0.006035
# 2 -0.009264 0.034132 -0.006671 -0.004301 0.005653 0.011562
# 3 -0.002406 -0.006671 0.016536 0.003218 0.000401 -0.003140
# 4 0.000439 -0.004301 0.003218 0.037995 0.008887 -0.000115
# 5 -0.002037 0.005653 0.000401 0.008887 0.020424 0.004705
# 6 -0.006035 0.011562 -0.003140 -0.000115 0.004705 0.025792
#
#
# Mechanical properties :
#
#
# Convention : Reuss Voigt Hill
#
# Bulk Modulus (GPa) = 41.79076 61.49894 51.64485
# Shear Modulus (GPa) = 26.38806 40.34677 33.36741
#
# Velocity S-wave (km/s) = 3.33993 4.12988 3.75573
# Velocity P-wave (km/s) = 5.70437 6.98132 6.37490
#
# Compressibility (1/GPa) = 0.02392873
#
# Stress axis : x y z
#
# Youngs Moduli (GPa) = 100.58051 29.29803 60.47366
#
# Poissons Ratio (x) = 0.27140 0.14552
# Poissons Ratio (y) = 0.93173 0.40341
# Poissons Ratio (z) = 0.24204 0.19544
#
# Static dielectric constant tensor:
#      x y z
#    x 1.878890 0.001730 0.021240 
#    y 0.001730 1.944570 -0.079330 
#    z 0.021240 -0.079330 1.915660 
# 
# From -- ./inp_files/204141.got.cif
#   From: 2010.05.17/outbox.cif.g08.bks.cpg/sg2_103_cif.got.tgz:204141.got - 2010.06.03 11:33:40.
