data_PCOD9014817
_publ_section_title
;
Structure prediction by ZEFSAII (Michael W. Deem and Ramdas Pophale) SiO2 
 PCOD9014817
Probable space group: P -1
;
_chemical_formula_sum "Si O2"
_cell_formula_units_Z 14
_cell_length_a 15.585819
_cell_length_b 5.455104
_cell_length_c 18.919106
_cell_angle_alpha 63.189088
_cell_angle_beta 155.767702
_cell_angle_gamma 121.813455
_cell_volume 558.990897
_symmetry_space_group_name_H-M "P -1"
_symmetry_group_IT_number 2
_symmetry_cell_setting 'triclinic'
loop_
_space_group_symop_operation_xyz
x,y,z
-x,-y,-z
loop_
_atom_site_type_symbol
_atom_site_label
_atom_site_fract_x
_atom_site_fract_y
_atom_site_fract_z
Si Si1 0.822995 0.665063 0.852323
Si Si2 0.605716 0.678460 0.830191
Si Si3 0.858364 0.583977 0.567968
Si Si4 0.820969 0.393517 0.316938
Si Si5 0.400981 0.127939 0.602996
Si Si6 0.735903 0.081232 0.629963
Si Si7 0.440847 0.199534 0.870582
O O1 0.783491 0.753939 0.891099
O O2 0.581259 0.439615 0.683664
O O3 0.868854 0.919281 0.796484
O O4 0.000000 0.500000 0.000000
O O5 0.366113 0.533605 0.631569
O O6 0.623230 0.442526 0.930282
O O7 0.550825 0.963754 0.777358
O O8 0.824356 0.885832 0.524365
O O9 0.848041 0.419605 0.655987
O O10 0.050337 0.550679 0.668380
O O11 0.668596 0.591199 0.195540
O O12 0.000000 0.500000 0.500000
O O13 0.699015 0.045767 0.258993
O O14 0.317520 0.022824 0.476369
O O15 0.500000 0.000000 0.500000
O O16 0.500000 0.000000 0.000000
#
# Coordination Sequence:
#
# PCOD9014817 Si02
#       7
#     2   2   2   2   2   2   2
#     4  11  24  40  63 101 137 179 233 289 363 436
#     4  10  23  42  68  97 137 187 232 297 370 431
#     4  10  23  39  70 106 132 178 248 303 351 419
#     4  12  27  47  80 112 141 192 261 308 356 446
#     4  10  21  41  69  93 141 182 236 293 367 422
#     4  11  20  40  65  98 130 183 235 288 357 426
#     4  12  29  50  74 109 156 195 239 308 391 440
#
# _framework density 25.04513
#
# number of rings (size 3 to 8) (size 9 to 14) (size 15 to 20)
#    0.000    1.143    5.714    1.286    8.000    1.714 
#    2.571    0.000    0.000    0.000    0.000    0.000 
#    0.000    0.000    0.000    0.000    0.000    0.000 
#
# Total GULP energy -78086.888741 kJ/mol
# GULP energy per Si atom -5577.634910 kJ/mol
# Density = 2.498813 g / cm^3
# Si number density = 25.045130 Si / 1000 Ang^3
#
#
#
# Elastic Constant Matrix: (Units=GPa)
#
#
# Indices 1 2 3 4 5 6 
#
# 1 165.8237 53.7642 40.4367 -35.7733 11.0942 -5.1589
# 2 53.7642 118.2415 44.9917 -34.2656 -8.8250 6.7816
# 3 40.4367 44.9917 90.4526 -30.3698 -8.6815 2.0852
# 4 -35.7733 -34.2656 -30.3698 52.9076 -0.7896 -11.9527
# 5 11.0942 -8.8250 -8.6815 -0.7896 41.9207 -17.3263
# 6 -5.1589 6.7816 2.0852 -11.9527 -17.3263 50.6847
#
#
#
# Elastic Compliance Matrix: (Units=1/GPa)
#
#
# Indices 1 2 3 4 5 6 
#
# 1 0.008089 -0.002378 -0.001612 0.003223 -0.002447 0.001131
# 2 -0.002378 0.012296 -0.003256 0.004587 0.002740 0.000265
# 3 -0.001612 -0.003256 0.015969 0.006626 0.004262 0.002634
# 4 0.003223 0.004587 0.006626 0.029824 0.005500 0.008355
# 5 -0.002447 0.002740 0.004262 0.005500 0.030597 0.010966
# 6 0.001131 0.000265 0.002634 0.008355 0.010966 0.025420
#
#
# Mechanical properties :
#
#
# Convention : Reuss Voigt Hill
#
# Bulk Modulus (GPa) = 45.74260 72.54478 59.14369
# Shear Modulus (GPa) = 34.72832 44.79096 39.75964
#
# Velocity S-wave (km/s) = 3.72779 4.23355 3.98869
# Velocity P-wave (km/s) = 6.06896 7.27501 6.69918
#
# Compressibility (1/GPa) = 0.02186146
#
# Stress axis : x y z
#
# Youngs Moduli (GPa) = 123.62758 81.32596 62.62194
#
# Poissons Ratio (x) = 0.19340 0.10095
# Poissons Ratio (y) = 0.29400 0.20390
# Poissons Ratio (z) = 0.19929 0.26480
#
# Static dielectric constant tensor:
#      x y z
#    x 2.043530 -0.026220 0.022790 
#    y -0.026220 2.544190 -0.073020 
#    z 0.022790 -0.073020 2.025110 
# 
# From -- ./inp_files/571509.got.cif
#   From: 2010.05.17/outbox.cif.g08.bks.cpg/sg2_286_cif.got.tgz:571509.got - 2010.06.03 11:33:40.
