data_PCOD9014260
_publ_section_title
;
Structure prediction by ZEFSAII (Michael W. Deem and Ramdas Pophale) SiO2 
 PCOD9014260
Probable space group: P -1
;
_chemical_formula_sum "Si O2"
_cell_formula_units_Z 15
_cell_length_a 20.991197
_cell_length_b 12.012697
_cell_length_c 12.601225
_cell_angle_alpha 40.173479
_cell_angle_beta 150.242460
_cell_angle_gamma 150.186961
_cell_volume 783.334226
_symmetry_space_group_name_H-M "P -1"
_symmetry_group_IT_number 2
_symmetry_cell_setting 'triclinic'
loop_
_space_group_symop_operation_xyz
x,y,z
-x,-y,-z
loop_
_atom_site_type_symbol
_atom_site_label
_atom_site_fract_x
_atom_site_fract_y
_atom_site_fract_z
Si Si1 0.175804 0.224277 0.053624
Si Si2 0.504300 0.714683 0.543218
Si Si3 0.398546 0.678388 0.175207
Si Si4 0.640748 0.689376 0.216593
Si Si5 0.500000 0.000000 0.500000
Si Si6 0.718386 0.033110 0.234322
Si Si7 0.951574 0.620232 0.415182
Si Si8 0.341506 0.572433 0.729755
O O1 0.303795 0.180947 0.244780
O O2 0.270511 0.427282 0.127633
O O3 0.135115 0.309427 0.832933
O O4 0.000000 0.000000 0.000000
O O5 0.456340 0.683315 0.373483
O O6 0.398824 0.477582 0.624163
O O7 0.482011 0.876871 0.450946
O O8 0.557918 0.829130 0.217456
O O9 0.315716 0.796782 0.967363
O O10 0.719931 0.647770 0.265278
O O11 0.736530 0.930928 0.230983
O O12 0.469034 0.616505 0.972051
O O13 0.558224 0.223608 0.355782
O O14 0.881646 0.166598 0.445157
O O15 0.813355 0.458811 0.421387
O O16 0.000000 0.500000 0.500000
#
# Coordination Sequence:
#
# PCOD9014260 Si02
#       8
#     2   2   2   2   1   2   2   2
#     4  12  25  40  64  98 133 169 210 272 325 380
#     4  11  22  40  63  95 126 165 220 263 317 381
#     4  11  23  40  63  96 129 169 220 265 320 388
#     4  10  21  41  67  91 122 171 218 263 314 387
#     4  10  24  38  70  92 122 176 208 270 312 386
#     4  11  23  39  66  93 130 174 212 267 326 382
#     4  12  25  42  63  97 136 171 211 269 330 379
#     4  10  22  43  66  94 130 166 225 262 322 389
#
# _framework density 19.148914000000001
#
# number of rings (size 3 to 8) (size 9 to 14) (size 15 to 20)
#    0.000    1.067    4.000    2.000    7.467    0.533 
#    0.000    0.000    0.000    3.200    0.000    0.000 
#    0.000    0.000    0.000    0.000    0.000    0.000 
#
# Total GULP energy -83538.723311 kJ/mol
# GULP energy per Si atom -5569.248221 kJ/mol
# Density = 1.910533 g / cm^3
# Si number density = 19.148914 Si / 1000 Ang^3
#
#
#
# Elastic Constant Matrix: (Units=GPa)
#
#
# Indices 1 2 3 4 5 6 
#
# 1 65.5054 24.5546 29.2395 8.6513 -2.9651 -25.7402
# 2 24.5546 72.2205 19.0957 6.4978 -4.3352 -23.9726
# 3 29.2395 19.0957 88.2372 12.8215 -17.2982 -5.3945
# 4 8.6513 6.4978 12.8215 25.9976 0.4366 -6.1063
# 5 -2.9651 -4.3352 -17.2982 0.4366 27.7249 -1.6104
# 6 -25.7402 -23.9726 -5.3945 -6.1063 -1.6104 41.1518
#
#
#
# Elastic Compliance Matrix: (Units=1/GPa)
#
#
# Indices 1 2 3 4 5 6 
#
# 1 0.024266 -0.002157 -0.006879 -0.001114 -0.001273 0.012805
# 2 -0.002157 0.018332 -0.002261 -0.000664 0.001759 0.009003
# 3 -0.006879 -0.002261 0.016576 -0.006423 0.009119 -0.004043
# 4 -0.001114 -0.000664 -0.006423 0.043261 -0.004662 0.004311
# 5 -0.001273 0.001759 0.009119 -0.004662 0.042109 0.002380
# 6 0.012805 0.009003 -0.004043 0.004311 0.002380 0.037757
#
#
# Mechanical properties :
#
#
# Convention : Reuss Voigt Hill
#
# Bulk Modulus (GPa) = 27.33771 41.30473 34.32122
# Shear Modulus (GPa) = 23.03217 29.17977 26.10597
#
# Velocity S-wave (km/s) = 3.47189 3.90787 3.69631
# Velocity P-wave (km/s) = 5.51175 6.47912 6.01492
#
# Compressibility (1/GPa) = 0.03657951
#
# Stress axis : x y z
#
# Youngs Moduli (GPa) = 41.20930 54.55078 60.32888
#
# Poissons Ratio (x) = 0.11768 0.41501
# Poissons Ratio (y) = 0.08890 0.13638
# Poissons Ratio (z) = 0.28348 0.12332
#
# Static dielectric constant tensor:
#      x y z
#    x 1.731010 0.008610 0.006330 
#    y 0.008610 1.658360 -0.013400 
#    z 0.006330 -0.013400 1.645640 
# 
# From -- ./inp_files/168553.got.cif
#   From: 2010.05.17/outbox.cif.g08.bks.cpg/sg2_85_cif.got.tgz:168553.got - 2010.06.03 11:33:40.
