data_PCOD9014803
_publ_section_title
;
Structure prediction by ZEFSAII (Michael W. Deem and Ramdas Pophale) SiO2 
 PCOD9014803
Probable space group: P -1
;
_chemical_formula_sum "Si O2"
_cell_formula_units_Z 13
_cell_length_a 12.240799
_cell_length_b 18.979885
_cell_length_c 9.873707
_cell_angle_alpha 38.794767
_cell_angle_beta 36.103928
_cell_angle_gamma 25.578271
_cell_volume 571.920911
_symmetry_space_group_name_H-M "P -1"
_symmetry_group_IT_number 2
_symmetry_cell_setting 'triclinic'
loop_
_space_group_symop_operation_xyz
x,y,z
-x,-y,-z
loop_
_atom_site_type_symbol
_atom_site_label
_atom_site_fract_x
_atom_site_fract_y
_atom_site_fract_z
Si Si1 0.100451 0.610299 0.995489
Si Si2 0.096828 0.612060 0.473190
Si Si3 0.497575 0.107907 0.437298
Si Si4 0.000000 0.500000 0.000000
Si Si5 0.312998 0.739801 0.669916
Si Si6 0.502937 0.891864 0.255598
Si Si7 0.311890 0.740296 0.985129
O O1 0.142151 0.726945 0.773290
O O2 0.373872 0.443148 0.044179
O O3 0.071654 0.561688 0.954374
O O4 0.821566 0.712320 0.202232
O O5 0.372522 0.443501 0.379989
O O6 0.821166 0.712601 0.515785
O O7 0.139470 0.728233 0.262347
O O8 0.063048 0.565783 0.718930
O O9 0.576828 0.043955 0.607225
O O10 0.674123 0.136094 0.169923
O O11 0.500000 0.000000 0.500000
O O12 0.326589 0.863511 0.426421
O O13 0.223371 0.774493 0.865049
O O14 0.500000 0.000000 0.000000
#
# Coordination Sequence:
#
# PCOD9014803 Si02
#       7
#     2   2   2   1   2   2   2
#     4  11  22  41  63  94 126 161 212 259 320 374
#     4  11  22  41  63  94 126 161 212 259 320 374
#     4  11  24  41  64  91 131 171 213 260 317 380
#     4  12  24  38  66  96 134 164 204 266 322 376
#     4  10  21  41  69  93 119 162 214 268 318 374
#     4  11  24  41  64  91 131 171 213 260 317 380
#     4  10  21  41  69  93 119 162 214 268 318 374
#
# _framework density 22.730416999999999
#
# number of rings (size 3 to 8) (size 9 to 14) (size 15 to 20)
#    0.000    1.231    3.077    3.692    2.154    6.154 
#    2.769    0.000    0.000    0.000    0.000    0.000 
#    0.000    0.000    0.000    0.000    0.000    0.000 
#
# Total GULP energy -72390.772239 kJ/mol
# GULP energy per Si atom -5568.520941 kJ/mol
# Density = 2.267868 g / cm^3
# Si number density = 22.730417 Si / 1000 Ang^3
#
#
#
# Elastic Constant Matrix: (Units=GPa)
#
#
# Indices 1 2 3 4 5 6 
#
# 1 151.0618 19.0557 96.0851 -9.4916 -35.9664 41.7927
# 2 19.0557 34.1325 18.3128 -9.0758 -13.8675 2.0434
# 3 96.0851 18.3128 222.1876 -27.5225 -38.0124 27.2674
# 4 -9.4916 -9.0758 -27.5225 23.9681 9.3300 -18.1408
# 5 -35.9664 -13.8675 -38.0124 9.3300 54.0037 -5.3160
# 6 41.7927 2.0434 27.2674 -18.1408 -5.3160 29.5988
#
#
#
# Elastic Compliance Matrix: (Units=1/GPa)
#
#
# Indices 1 2 3 4 5 6 
#
# 1 0.051706 -0.033535 -0.014453 -0.108111 0.022558 -0.119586
# 2 -0.033535 0.058512 0.008440 0.088568 -0.007969 0.088387
# 3 -0.014453 0.008440 0.009866 0.033102 -0.003236 0.030442
# 4 -0.108111 0.088568 0.033102 0.319517 -0.051369 0.302644
# 5 0.022558 -0.007969 -0.003236 -0.051369 0.032784 -0.053915
# 6 -0.119586 0.088387 0.030442 0.302644 -0.053915 0.344296
#
#
# Mechanical properties :
#
#
# Convention : Reuss Voigt Hill
#
# Bulk Modulus (GPa) = 24.39704 74.92102 49.65903
# Shear Modulus (GPa) = 5.49790 39.77599 22.63694
#
# Velocity S-wave (km/s) = 1.55692 4.18772 3.15919
# Velocity P-wave (km/s) = 3.74012 7.51099 5.93310
#
# Compressibility (1/GPa) = 0.04098857
#
# Stress axis : x y z
#
# Youngs Moduli (GPa) = 19.34029 17.09037 101.35803
#
# Poissons Ratio (x) = 0.57313 1.46491
# Poissons Ratio (y) = 0.64858 -0.85548
# Poissons Ratio (z) = 0.27952 -0.14425
#
# Static dielectric constant tensor:
#      x y z
#    x 1.805460 -0.000150 -0.053720 
#    y -0.000150 1.924650 -0.049920 
#    z -0.053720 -0.049920 1.843410 
# 
# From -- ./inp_files/173750.got.cif
#   From: 2010.05.17/outbox.cif.g08.bks.cpg/sg2_87_cif.got.tgz:173750.got - 2010.06.03 11:33:40.
