data_PCOD9014772
_publ_section_title
;
Structure prediction by ZEFSAII (Michael W. Deem and Ramdas Pophale) SiO2 
 PCOD9014772
Probable space group: P -1
;
_chemical_formula_sum "Si O2"
_cell_formula_units_Z 15
_cell_length_a 11.291764
_cell_length_b 8.549085
_cell_length_c 11.852550
_cell_angle_alpha 41.354742
_cell_angle_beta 121.514817
_cell_angle_gamma 126.343626
_cell_volume 602.370252
_symmetry_space_group_name_H-M "P -1"
_symmetry_group_IT_number 2
_symmetry_cell_setting 'triclinic'
loop_
_space_group_symop_operation_xyz
x,y,z
-x,-y,-z
loop_
_atom_site_type_symbol
_atom_site_label
_atom_site_fract_x
_atom_site_fract_y
_atom_site_fract_z
Si Si1 0.610798 0.087596 0.615723
Si Si2 0.337537 0.879255 0.752838
Si Si3 0.395148 0.711400 0.093611
Si Si4 0.951631 0.413749 0.351657
Si Si5 0.100819 0.435657 0.179959
Si Si6 0.384295 0.401951 0.597458
Si Si7 0.000000 0.000000 0.000000
Si Si8 0.097788 0.988440 0.278322
O O1 0.685412 0.389408 0.518069
O O2 0.749720 0.999142 0.714385
O O3 0.500000 0.000000 0.500000
O O4 0.501449 0.977861 0.726876
O O5 0.222643 0.743574 0.672471
O O6 0.302888 0.109786 0.675521
O O7 0.329769 0.675024 0.956000
O O8 0.261078 0.656482 0.143533
O O9 0.507416 0.573531 0.254865
O O10 0.500000 0.000000 0.000000
O O11 0.982809 0.273328 0.553176
O O12 0.030181 0.366577 0.303775
O O13 0.981222 0.712442 0.197296
O O14 0.139865 0.198979 0.282322
O O15 0.000000 0.500000 0.000000
O O16 0.500000 0.500000 0.500000
O O17 0.008336 0.087125 0.087718
#
# Coordination Sequence:
#
# PCOD9014772 Si02
#       8
#     2   2   2   2   2   2   1   2
#     4  11  22  44  73 109 154 186 245 320 374 451
#     4  10  21  44  71 110 142 195 255 302 386 452
#     4  10  21  41  69 111 142 185 252 309 374 434
#     4  12  26  51  77 107 150 205 258 312 387 462
#     4  12  24  49  79 105 155 203 255 313 370 470
#     4   9  21  40  67 106 144 190 242 307 367 447
#     4  12  28  52  70 108 152 194 258 318 384 464
#     4  12  27  52  76 110 153 203 255 316 392 455
#
# _framework density 24.901627999999999
#
# number of rings (size 3 to 8) (size 9 to 14) (size 15 to 20)
#    0.000    1.067    4.000    1.600    1.867    3.200 
#   12.000    2.000    0.000    0.000    0.000    0.000 
#    0.000    0.000    0.000    0.000    0.000    0.000 
#
# Total GULP energy -83574.174527 kJ/mol
# GULP energy per Si atom -5571.611635 kJ/mol
# Density = 2.484495 g / cm^3
# Si number density = 24.901628 Si / 1000 Ang^3
#
#
#
# Elastic Constant Matrix: (Units=GPa)
#
#
# Indices 1 2 3 4 5 6 
#
# 1 115.3558 15.5024 20.3856 -26.8580 -13.6598 -7.2331
# 2 15.5024 76.0982 23.1453 -11.8973 -3.6809 -5.4924
# 3 20.3856 23.1453 154.2308 7.0890 -26.0191 -4.9424
# 4 -26.8580 -11.8973 7.0890 39.3273 -10.4959 -4.0797
# 5 -13.6598 -3.6809 -26.0191 -10.4959 36.3222 -9.2293
# 6 -7.2331 -5.4924 -4.9424 -4.0797 -9.2293 44.1931
#
#
#
# Elastic Compliance Matrix: (Units=1/GPa)
#
#
# Indices 1 2 3 4 5 6 
#
# 1 0.012958 0.000234 -0.000573 0.012029 0.009267 0.005132
# 2 0.000234 0.014981 -0.002029 0.006040 0.002603 0.002774
# 3 -0.000573 -0.002029 0.007859 -0.000824 0.005371 0.001579
# 4 0.012029 0.006040 -0.000824 0.041866 0.019318 0.010527
# 5 0.009267 0.002603 0.005371 0.019318 0.044125 0.013439
# 6 0.005132 0.002774 0.001579 0.010527 0.013439 0.027768
#
#
# Mechanical properties :
#
#
# Convention : Reuss Voigt Hill
#
# Bulk Modulus (GPa) = 32.19369 51.52793 41.86081
# Shear Modulus (GPa) = 30.36804 43.07861 36.72332
#
# Velocity S-wave (km/s) = 3.49595 4.16378 3.84440
# Velocity P-wave (km/s) = 5.40851 6.62221 6.04589
#
# Compressibility (1/GPa) = 0.03106198
#
# Stress axis : x y z
#
# Youngs Moduli (GPa) = 77.16947 66.75233 127.24951
#
# Poissons Ratio (x) = -0.01560 0.07292
# Poissons Ratio (y) = -0.01804 0.25814
# Poissons Ratio (z) = 0.04422 0.13541
#
# Static dielectric constant tensor:
#      x y z
#    x 1.953070 0.057890 0.055000 
#    y 0.057890 2.065890 0.025030 
#    z 0.055000 0.025030 2.079260 
# 
# From -- ./inp_files/418778.got.cif
#   From: 2010.05.17/outbox.cif.g08.bks.cpg/sg2_210_cif.got.tgz:418778.got - 2010.06.03 11:33:40.
