data_PCOD9014563
_publ_section_title
;
Structure prediction by ZEFSAII (Michael W. Deem and Ramdas Pophale) SiO2 
 PCOD9014563
Probable space group: P -1
;
_chemical_formula_sum "Si O2"
_cell_formula_units_Z 14
_cell_length_a 10.870256
_cell_length_b 9.955664
_cell_length_c 11.817047
_cell_angle_alpha 97.454144
_cell_angle_beta 112.196856
_cell_angle_gamma 140.345841
_cell_volume 530.703408
_symmetry_space_group_name_H-M "P -1"
_symmetry_group_IT_number 2
_symmetry_cell_setting 'triclinic'
loop_
_space_group_symop_operation_xyz
x,y,z
-x,-y,-z
loop_
_atom_site_type_symbol
_atom_site_label
_atom_site_fract_x
_atom_site_fract_y
_atom_site_fract_z
Si Si1 0.417939 0.161043 0.775789
Si Si2 0.799487 0.283587 0.014619
Si Si3 0.945844 0.034596 0.206435
Si Si4 0.135049 0.925727 0.295865
Si Si5 0.744574 0.934798 0.890101
Si Si6 0.874333 0.730608 0.410363
Si Si7 0.285567 0.607943 0.338687
O O1 0.542289 0.157831 0.900117
O O2 0.612469 0.347593 0.748380
O O3 0.340068 0.215098 0.838684
O O4 0.102504 0.848048 0.573321
O O5 0.677267 0.020380 0.931159
O O6 0.000000 0.500000 0.000000
O O7 0.039745 0.499583 0.222362
O O8 0.160203 0.111911 0.329715
O O9 0.118346 0.330992 0.304554
O O10 0.865074 0.954449 0.037281
O O11 0.066283 0.848475 0.131224
O O12 0.423916 0.108138 0.455167
O O13 0.895115 0.693212 0.284928
O O14 0.458956 0.597608 0.707394
O O15 0.000000 0.000000 0.500000
#
# Coordination Sequence:
#
# PCOD9014563 Si02
#       7
#     2   2   2   2   2   2   2
#     4  10  21  41  68  91 129 168 216 263 312 381
#     4   9  21  46  67  92 127 171 219 261 314 378
#     4  11  22  38  63  98 127 171 208 263 324 378
#     4  11  23  40  64  95 135 165 209 269 319 386
#     4  11  26  40  62  99 133 168 213 262 320 382
#     4  11  24  42  64  99 129 170 213 259 328 380
#     4   9  21  37  66  91 120 171 212 257 316 371
#
# _framework density 26.380085000000001
#
# number of rings (size 3 to 8) (size 9 to 14) (size 15 to 20)
#    0.000    1.714    1.429    1.714    4.000    6.857 
#    2.571    9.286    0.000    0.000    0.000    0.000 
#    0.000    0.000    0.000    0.000    0.000    0.000 
#
# Total GULP energy -78142.716978 kJ/mol
# GULP energy per Si atom -5581.622641 kJ/mol
# Density = 2.632004 g / cm^3
# Si number density = 26.380085 Si / 1000 Ang^3
#
#
#
# Elastic Constant Matrix: (Units=GPa)
#
#
# Indices 1 2 3 4 5 6 
#
# 1 56.6356 24.5824 28.5543 -6.5700 -1.1928 3.7432
# 2 24.5824 99.1379 30.6870 -10.2443 -14.8779 20.8625
# 3 28.5543 30.6870 116.2331 -23.7676 3.4315 -2.2884
# 4 -6.5700 -10.2443 -23.7676 48.9432 -2.2142 -13.7015
# 5 -1.1928 -14.8779 3.4315 -2.2142 37.3548 -11.2855
# 6 3.7432 20.8625 -2.2884 -13.7015 -11.2855 53.0875
#
#
#
# Elastic Compliance Matrix: (Units=1/GPa)
#
#
# Indices 1 2 3 4 5 6 
#
# 1 0.021552 -0.004089 -0.004225 -0.000116 -0.000638 -0.000260
# 2 -0.004089 0.013479 -0.002778 -0.000078 0.004203 -0.004255
# 3 -0.004225 -0.002778 0.011539 0.005250 -0.001080 0.003012
# 4 -0.000116 -0.000078 0.005250 0.025181 0.003226 0.007450
# 5 -0.000638 0.004203 -0.001080 0.003226 0.030420 0.005646
# 6 -0.000260 -0.004255 0.003012 0.007450 0.005646 0.023780
#
#
# Mechanical properties :
#
#
# Convention : Reuss Voigt Hill
#
# Bulk Modulus (GPa) = 41.00669 48.85045 44.92857
# Shear Modulus (GPa) = 31.99705 40.42263 36.20984
#
# Velocity S-wave (km/s) = 3.48648 3.91873 3.70891
# Velocity P-wave (km/s) = 5.63788 6.24767 5.95059
#
# Compressibility (1/GPa) = 0.02438627
#
# Stress axis : x y z
#
# Youngs Moduli (GPa) = 46.39914 74.19010 86.66017
#
# Poissons Ratio (x) = 0.30338 0.36614
# Poissons Ratio (y) = 0.18974 0.24072
# Poissons Ratio (z) = 0.19604 0.20608
#
# Static dielectric constant tensor:
#      x y z
#    x 2.135910 0.056720 -0.042860 
#    y 0.056720 2.054770 -0.043160 
#    z -0.042860 -0.043160 2.097670 
# 
# From -- ./inp_files/426219.got.cif
#   From: 2010.05.17/outbox.cif.g08.bks.cpg/sg2_214_cif.got.tgz:426219.got - 2010.06.03 11:33:40.
