data_PCOD9014885
_publ_section_title
;
Structure prediction by ZEFSAII (Michael W. Deem and Ramdas Pophale) SiO2 
 PCOD9014885
Probable space group: P -1
;
_chemical_formula_sum "Si O2"
_cell_formula_units_Z 16
_cell_length_a 5.457459
_cell_length_b 18.014014
_cell_length_c 9.893653
_cell_angle_alpha 120.526569
_cell_angle_beta 70.291139
_cell_angle_gamma 123.249394
_cell_volume 698.342288
_symmetry_space_group_name_H-M "P -1"
_symmetry_group_IT_number 2
_symmetry_cell_setting 'triclinic'
loop_
_space_group_symop_operation_xyz
x,y,z
-x,-y,-z
loop_
_atom_site_type_symbol
_atom_site_label
_atom_site_fract_x
_atom_site_fract_y
_atom_site_fract_z
Si Si1 0.818975 0.849827 0.809212
Si Si2 0.523485 0.779862 0.514862
Si Si3 0.432894 0.036759 0.906252
Si Si4 0.333025 0.022001 0.432398
Si Si5 0.757584 0.642357 0.301831
Si Si6 0.298844 0.424993 0.154009
Si Si7 0.166954 0.611074 0.020653
Si Si8 0.886546 0.660167 0.605791
O O1 0.692576 0.833484 0.667756
O O2 0.867673 0.757277 0.745357
O O3 0.606475 0.868291 0.968415
O O4 0.119791 0.949233 0.840805
O O5 0.482665 0.862175 0.520990
O O6 0.696630 0.731913 0.362466
O O7 0.223539 0.692205 0.541307
O O8 0.658425 0.040136 0.755348
O O9 0.500000 0.000000 0.000000
O O10 0.500000 0.000000 0.500000
O O11 0.000000 0.000000 0.500000
O O12 0.507901 0.540255 0.194512
O O13 0.743718 0.630582 0.456513
O O14 0.072979 0.664293 0.202563
O O15 0.499756 0.370630 0.040114
O O16 0.226229 0.412318 0.315243
O O17 0.004509 0.386416 0.082347
O O18 0.000000 0.500000 0.000000
#
# Coordination Sequence:
#
# PCOD9014885 Si02
#       8
#     2   2   2   2   2   2   2   2
#     4  10  21  41  69  98 130 179 231 273 347 409
#     4  11  24  44  69  99 143 181 225 288 356 405
#     4  11  21  42  76  91 130 182 230 274 352 414
#     4  12  27  47  69 102 138 175 228 286 342 416
#     4  10  24  42  72  97 139 191 225 276 356 409
#     4  11  25  44  71 107 136 183 240 287 331 408
#     4  10  23  46  68  93 141 184 229 281 348 407
#     4  11  24  41  71  97 143 174 237 291 331 408
#
# _framework density 22.911401999999999
#
# number of rings (size 3 to 8) (size 9 to 14) (size 15 to 20)
#    0.000    1.250    2.500    2.625   12.250    0.500 
#    4.500    0.000    0.000    0.000    0.000    0.000 
#    0.000    0.000    0.000    0.000    0.000    0.000 
#
# Total GULP energy -89460.888980 kJ/mol
# GULP energy per Si atom -5591.305561 kJ/mol
# Density = 2.285925 g / cm^3
# Si number density = 22.911402 Si / 1000 Ang^3
#
#
#
# Elastic Constant Matrix: (Units=GPa)
#
#
# Indices 1 2 3 4 5 6 
#
# 1 123.1425 11.6063 47.1164 0.2952 -9.8280 -13.9207
# 2 11.6063 19.4560 11.0004 2.0566 8.2792 -2.1824
# 3 47.1164 11.0004 126.8928 5.8466 -29.4644 -12.0571
# 4 0.2952 2.0566 5.8466 36.9684 -6.7657 -1.0688
# 5 -9.8280 8.2792 -29.4644 -6.7657 43.9312 -5.2435
# 6 -13.9207 -2.1824 -12.0571 -1.0688 -5.2435 27.3484
#
#
#
# Elastic Compliance Matrix: (Units=1/GPa)
#
#
# Indices 1 2 3 4 5 6 
#
# 1 0.010217 -0.005360 -0.002442 0.001151 0.002336 0.004189
# 2 -0.005360 0.069525 -0.009495 -0.006592 -0.022391 -0.005917
# 3 -0.002442 -0.009495 0.012523 0.000631 0.010400 0.005539
# 4 0.001151 -0.006592 0.000631 0.028605 0.006654 0.002732
# 5 0.002336 -0.022391 0.010400 0.006654 0.036856 0.011314
# 6 0.004189 -0.005917 0.005539 0.002732 0.011314 0.042943
#
#
# Mechanical properties :
#
#
# Convention : Reuss Voigt Hill
#
# Bulk Modulus (GPa) = 17.33941 45.43752 31.38847
# Shear Modulus (GPa) = 19.64741 34.96748 27.30744
#
# Velocity S-wave (km/s) = 2.93155 3.91090 3.45609
# Velocity P-wave (km/s) = 4.36384 6.34574 5.44571
#
# Compressibility (1/GPa) = 0.05767208
#
# Stress axis : x y z
#
# Youngs Moduli (GPa) = 97.87252 14.38323 79.85578
#
# Poissons Ratio (x) = 0.07710 0.19499
# Poissons Ratio (y) = 0.52461 0.75820
# Poissons Ratio (z) = 0.23898 0.13656
#
# Static dielectric constant tensor:
#      x y z
#    x 1.966610 0.049240 -0.012680 
#    y 0.049240 1.860130 0.046830 
#    z -0.012680 0.046830 1.922770 
# 
# From -- ./inp_files/139345.got.cif
#   From: 2010.05.17/outbox.cif.g08.bks.cpg/sg2_70_cif.got.tgz:139345.got - 2010.06.03 11:33:40.
