data_PCOD9014345
_publ_section_title
;
Structure prediction by ZEFSAII (Michael W. Deem and Ramdas Pophale) SiO2 
 PCOD9014345
Probable space group: P -1
;
_chemical_formula_sum "Si O2"
_cell_formula_units_Z 14
_cell_length_a 9.934465
_cell_length_b 9.116533
_cell_length_c 17.993827
_cell_angle_alpha 112.698413
_cell_angle_beta 46.225653
_cell_angle_gamma 75.520734
_cell_volume 684.595783
_symmetry_space_group_name_H-M "P -1"
_symmetry_group_IT_number 2
_symmetry_cell_setting 'triclinic'
loop_
_space_group_symop_operation_xyz
x,y,z
-x,-y,-z
loop_
_atom_site_type_symbol
_atom_site_label
_atom_site_fract_x
_atom_site_fract_y
_atom_site_fract_z
Si Si1 0.692512 0.205671 0.562424
Si Si2 0.831681 0.846098 0.340742
Si Si3 0.925897 0.235348 0.074566
Si Si4 0.288742 0.970102 0.330946
Si Si5 0.227024 0.610754 0.003041
Si Si6 0.612284 0.669991 0.894216
Si Si7 0.497084 0.013332 0.126332
O O1 0.399021 0.501724 0.722247
O O2 0.642324 0.095840 0.620578
O O3 0.806981 0.045781 0.413796
O O4 0.948925 0.145669 0.485753
O O5 0.985529 0.730849 0.179950
O O6 0.066574 0.606045 0.258635
O O7 0.500000 0.000000 0.500000
O O8 0.924193 0.289802 0.000113
O O9 0.000000 0.000000 0.000000
O O10 0.165189 0.168485 0.018803
O O11 0.347284 0.080120 0.276466
O O12 0.508365 0.691703 0.158301
O O13 0.387452 0.672358 0.969834
O O14 0.630235 0.756945 0.828045
O O15 0.493609 0.865252 0.042771
#
# Coordination Sequence:
#
# PCOD9014345 Si02
#       7
#     2   2   2   2   2   2   2
#     4  10  23  39  65  94 131 166 219 267 319 376
#     4  12  24  40  65 101 129 164 222 275 311 387
#     4  11  24  45  65  96 133 174 211 272 328 386
#     4  10  21  41  67  95 125 175 218 262 314 394
#     4  11  22  43  73  88 132 182 214 256 334 388
#     4  11  22  42  66  98 129 174 212 267 323 392
#     4  11  23  39  68  97 131 170 219 261 326 386
#
# _framework density 20.450021
#
# number of rings (size 3 to 8) (size 9 to 14) (size 15 to 20)
#    0.000    1.143    4.286    2.143    2.000    1.143 
#    2.571    2.143    0.000    0.000    0.000    0.000 
#    0.000    0.000    0.000    0.000    0.000    0.000 
#
# Total GULP energy -78210.160897 kJ/mol
# GULP energy per Si atom -5586.440064 kJ/mol
# Density = 2.040348 g / cm^3
# Si number density = 20.450021 Si / 1000 Ang^3
#
#
#
# Elastic Constant Matrix: (Units=GPa)
#
#
# Indices 1 2 3 4 5 6 
#
# 1 47.4316 -2.9700 0.7051 8.6410 -1.8304 -10.5808
# 2 -2.9700 87.0967 28.8011 1.5182 -8.1862 -24.1489
# 3 0.7051 28.8011 94.6476 3.9194 -6.4760 -17.3577
# 4 8.6410 1.5182 3.9194 26.3401 -3.7509 -6.0584
# 5 -1.8304 -8.1862 -6.4760 -3.7509 24.0945 4.0312
# 6 -10.5808 -24.1489 -17.3577 -6.0584 4.0312 23.5928
#
#
#
# Elastic Compliance Matrix: (Units=1/GPa)
#
#
# Indices 1 2 3 4 5 6 
#
# 1 0.026062 0.005140 0.001550 -0.005164 0.000550 0.016670
# 2 0.005140 0.017876 -0.001815 0.002452 0.003118 0.019364
# 3 0.001550 -0.001815 0.012657 -0.000269 0.001554 0.007815
# 4 -0.005164 0.002452 -0.000269 0.042623 0.005326 0.010031
# 5 0.000550 0.003118 0.001554 0.005326 0.044117 -0.001589
# 6 0.016670 0.019364 0.007815 0.010031 -0.001589 0.078280
#
#
# Mechanical properties :
#
#
# Convention : Reuss Voigt Hill
#
# Bulk Modulus (GPa) = 15.07251 31.36093 23.21672
# Shear Modulus (GPa) = 21.36931 28.31479 24.84205
#
# Velocity S-wave (km/s) = 3.23608 3.72504 3.48913
# Velocity P-wave (km/s) = 4.62054 5.81979 5.25449
#
# Compressibility (1/GPa) = 0.06634595
#
# Stress axis : x y z
#
# Youngs Moduli (GPa) = 38.36942 55.94019 79.00818
#
# Poissons Ratio (x) = -0.28751 -0.12250
# Poissons Ratio (y) = -0.19721 0.14339
# Poissons Ratio (z) = -0.05949 0.10153
#
# Static dielectric constant tensor:
#      x y z
#    x 1.738770 -0.005470 0.018590 
#    y -0.005470 1.785620 0.009010 
#    z 0.018590 0.009010 1.716810 
# 
# From -- ./inp_files/155617.got.cif
#   From: 2010.05.17/outbox.cif.g08.bks.cpg/sg2_78_cif.got.tgz:155617.got - 2010.06.03 11:33:40.
