data_PCOD9014427
_publ_section_title
;
Structure prediction by ZEFSAII (Michael W. Deem and Ramdas Pophale) SiO2 
 PCOD9014427
Probable space group: P -1
;
_chemical_formula_sum "Si O2"
_cell_formula_units_Z 12
_cell_length_a 8.834342
_cell_length_b 7.813144
_cell_length_c 18.688573
_cell_angle_alpha 144.919300
_cell_angle_beta 41.147956
_cell_angle_gamma 129.599096
_cell_volume 487.064749
_symmetry_space_group_name_H-M "P -1"
_symmetry_group_IT_number 2
_symmetry_cell_setting 'triclinic'
loop_
_space_group_symop_operation_xyz
x,y,z
-x,-y,-z
loop_
_atom_site_type_symbol
_atom_site_label
_atom_site_fract_x
_atom_site_fract_y
_atom_site_fract_z
Si Si1 0.249337 0.145989 0.446566
Si Si2 0.373919 0.802248 0.146946
Si Si3 0.929674 0.205976 0.876744
Si Si4 0.568361 0.784471 0.854833
Si Si5 0.520258 0.898496 0.389756
Si Si6 0.121134 0.699292 0.589652
O O1 0.217152 0.465980 0.532570
O O2 0.351605 0.935812 0.278193
O O3 0.385449 0.122096 0.463160
O O4 0.000000 0.000000 0.500000
O O5 0.135404 0.730915 0.163139
O O6 0.500603 0.064973 0.144925
O O7 0.500000 0.500000 0.000000
O O8 0.193865 0.066865 0.724795
O O9 0.653708 0.154547 0.990271
O O10 0.000000 0.500000 0.000000
O O11 0.531058 0.428819 0.739274
O O12 0.863901 0.803284 0.753437
O O13 0.643231 0.170000 0.500318
O O14 0.000000 0.500000 0.500000
#
# Coordination Sequence:
#
# PCOD9014427 Si02
#       6
#     2   2   2   2   2   2
#     4  12  25  44  71 104 144 185 238 300 352 425
#     4  10  23  42  72 102 143 187 234 291 355 423
#     4  10  22  40  69  98 141 181 232 284 358 409
#     4  10  21  41  67  97 136 180 232 282 348 417
#     4  12  25  41  70  99 134 188 238 291 357 416
#     4  12  23  45  68  99 142 182 238 294 357 420
#
# _framework density 24.63738
#
# number of rings (size 3 to 8) (size 9 to 14) (size 15 to 20)
#    1.000    0.000    1.667    6.500    2.333    0.000 
#    0.000    0.000    0.000    4.000    0.000    0.000 
#    0.000    0.000    0.000    0.000    0.000    0.000 
#
# Total GULP energy -66886.523480 kJ/mol
# GULP energy per Si atom -5573.876957 kJ/mol
# Density = 2.458130 g / cm^3
# Si number density = 24.637380 Si / 1000 Ang^3
#
#
#
# Elastic Constant Matrix: (Units=GPa)
#
#
# Indices 1 2 3 4 5 6 
#
# 1 200.1125 98.3131 79.3172 18.1727 -5.1766 -1.6165
# 2 98.3131 226.0890 52.4491 14.4989 0.7920 47.6459
# 3 79.3172 52.4491 247.0179 -10.8293 -3.1490 -1.8002
# 4 18.1727 14.4989 -10.8293 58.9863 -6.4028 8.0443
# 5 -5.1766 0.7920 -3.1490 -6.4028 58.1482 9.6598
# 6 -1.6165 47.6459 -1.8002 8.0443 9.6598 80.9115
#
#
#
# Elastic Compliance Matrix: (Units=1/GPa)
#
#
# Indices 1 2 3 4 5 6 
#
# 1 0.007477 -0.003152 -0.001810 -0.002157 0.000011 0.002178
# 2 -0.003152 0.006770 -0.000460 -0.000194 0.000257 -0.004071
# 3 -0.001810 -0.000460 0.004800 0.001558 0.000251 0.000157
# 4 -0.002157 -0.000194 0.001558 0.018470 0.002261 -0.002000
# 5 0.000011 0.000257 0.000251 0.002261 0.017873 -0.002504
# 6 0.002178 -0.004071 0.000157 -0.002000 -0.002504 0.015301
#
#
# Mechanical properties :
#
#
# Convention : Reuss Voigt Hill
#
# Bulk Modulus (GPa) = 121.92331 125.93091 123.92711
# Shear Modulus (GPa) = 59.33268 69.15185 64.24226
#
# Velocity S-wave (km/s) = 4.91270 5.30366 5.11192
# Velocity P-wave (km/s) = 9.04290 9.41965 9.23320
#
# Compressibility (1/GPa) = 0.00820188
#
# Stress axis : x y z
#
# Youngs Moduli (GPa) = 133.74220 147.70920 208.33937
#
# Poissons Ratio (x) = 0.46561 0.37712
# Poissons Ratio (y) = 0.42159 0.09588
# Poissons Ratio (z) = 0.24209 0.06798
#
# Static dielectric constant tensor:
#      x y z
#    x 1.889110 0.135990 -0.058850 
#    y 0.135990 2.017470 0.028590 
#    z -0.058850 0.028590 1.995160 
# 
# From -- ./inp_files/588262.got.cif
#   From: 2010.05.17/outbox.cif.g08.bks.cpg/sg2_295_cif.got.tgz:588262.got - 2010.06.03 11:33:40.
