data_PCOD9014443
_publ_section_title
;
Structure prediction by ZEFSAII (Michael W. Deem and Ramdas Pophale) SiO2 
 PCOD9014443
Probable space group: P -1
;
_chemical_formula_sum "Si O2"
_cell_formula_units_Z 13
_cell_length_a 14.092632
_cell_length_b 8.262990
_cell_length_c 7.976233
_cell_angle_alpha 95.884691
_cell_angle_beta 137.166505
_cell_angle_gamma 109.184935
_cell_volume 503.879987
_symmetry_space_group_name_H-M "P -1"
_symmetry_group_IT_number 2
_symmetry_cell_setting 'triclinic'
loop_
_space_group_symop_operation_xyz
x,y,z
-x,-y,-z
loop_
_atom_site_type_symbol
_atom_site_label
_atom_site_fract_x
_atom_site_fract_y
_atom_site_fract_z
Si Si1 0.808569 0.985723 0.934928
Si Si2 0.061272 0.907595 0.256557
Si Si3 0.843324 0.364447 0.657336
Si Si4 0.925393 0.617248 0.482821
Si Si5 0.533970 0.938939 0.858036
Si Si6 0.500000 0.000000 0.500000
Si Si7 0.666606 0.694171 0.146534
O O1 0.901449 0.094326 0.890573
O O2 0.613146 0.906974 0.645767
O O3 0.912406 0.156196 0.230679
O O4 0.868155 0.841608 0.019265
O O5 0.109103 0.770860 0.388485
O O6 0.199826 0.133572 0.527798
O O7 0.829315 0.495410 0.518347
O O8 0.659206 0.215637 0.497585
O O9 0.000000 0.500000 0.000000
O O10 0.783155 0.631660 0.210053
O O11 0.000000 0.500000 0.500000
O O12 0.598864 0.113446 0.823737
O O13 0.610195 0.812579 0.975862
O O14 0.500000 0.000000 0.000000
O O15 0.500000 0.500000 0.000000
#
# Coordination Sequence:
#
# PCOD9014443 Si02
#       7
#     2   2   2   2   2   1   2
#     4  10  22  40  64  98 137 181 227 295 349 415
#     4  10  21  41  67  98 133 187 234 285 359 416
#     4  12  22  43  68 101 139 184 232 285 366 420
#     4  11  25  40  66 101 142 179 234 292 347 428
#     4  12  25  44  73 104 139 192 235 301 359 420
#     4  12  24  42  68 104 138 176 246 286 348 432
#     4  11  23  42  70 102 137 189 239 287 356 429
#
# _framework density 25.799793999999999
#
# number of rings (size 3 to 8) (size 9 to 14) (size 15 to 20)
#    0.000    0.923    6.154    0.000    2.154    2.462 
#    0.000    3.077    0.000    7.385    0.000    0.000 
#    0.000    0.000    0.000    0.000    0.000    0.000 
#
# Total GULP energy -72387.682269 kJ/mol
# GULP energy per Si atom -5568.283251 kJ/mol
# Density = 2.574107 g / cm^3
# Si number density = 25.799794 Si / 1000 Ang^3
#
#
#
# Elastic Constant Matrix: (Units=GPa)
#
#
# Indices 1 2 3 4 5 6 
#
# 1 90.0588 47.3721 48.0040 -27.9625 18.9951 -38.7661
# 2 47.3721 148.3151 52.1630 -45.5114 19.4637 -21.1670
# 3 48.0040 52.1630 123.7746 -38.7913 28.6122 -23.3752
# 4 -27.9625 -45.5114 -38.7913 62.1236 -11.0914 9.1137
# 5 18.9951 19.4637 28.6122 -11.0914 65.8401 -20.5069
# 6 -38.7661 -21.1670 -23.3752 9.1137 -20.5069 47.2055
#
#
#
# Elastic Compliance Matrix: (Units=1/GPa)
#
#
# Indices 1 2 3 4 5 6 
#
# 1 0.021543 -0.002566 -0.003690 0.003605 0.001295 0.014580
# 2 -0.002566 0.009676 -0.001326 0.004946 -0.000599 0.000360
# 3 -0.003690 -0.001326 0.012196 0.004407 -0.003023 0.000251
# 4 0.003605 0.004946 0.004407 0.023747 0.000518 0.003001
# 5 0.001295 -0.000599 -0.003023 0.000518 0.018669 0.007309
# 6 0.014580 0.000360 0.000251 0.003001 0.007309 0.036039
#
#
# Mechanical properties :
#
#
# Convention : Reuss Voigt Hill
#
# Bulk Modulus (GPa) = 35.39668 73.02518 54.21093
# Shear Modulus (GPa) = 34.14132 49.34114 41.74123
#
# Velocity S-wave (km/s) = 3.64169 4.37792 4.02666
# Velocity P-wave (km/s) = 5.60643 7.34308 6.53272
#
# Compressibility (1/GPa) = 0.02825124
#
# Stress axis : x y z
#
# Youngs Moduli (GPa) = 46.41974 103.34861 81.99146
#
# Poissons Ratio (x) = 0.26519 0.30251
# Poissons Ratio (y) = 0.11911 0.10874
# Poissons Ratio (z) = 0.17127 0.13707
#
# Static dielectric constant tensor:
#      x y z
#    x 2.283420 -0.166550 0.004460 
#    y -0.166550 1.897900 0.024010 
#    z 0.004460 0.024010 2.007920 
# 
# From -- ./inp_files/293128.got.cif
#   From: 2010.05.17/outbox.cif.g08.bks.cpg/sg2_147_cif.got.tgz:293128.got - 2010.06.03 11:33:40.
