data_PCOD9014851
_publ_section_title
;
Structure prediction by ZEFSAII (Michael W. Deem and Ramdas Pophale) SiO2 
 PCOD9014851
Probable space group: P -1
;
_chemical_formula_sum "Si O2"
_cell_formula_units_Z 16
_cell_length_a 9.212754
_cell_length_b 11.551085
_cell_length_c 8.486583
_cell_angle_alpha 110.485454
_cell_angle_beta 114.796368
_cell_angle_gamma 63.499088
_cell_volume 718.822910
_symmetry_space_group_name_H-M "P -1"
_symmetry_group_IT_number 2
_symmetry_cell_setting 'triclinic'
loop_
_space_group_symop_operation_xyz
x,y,z
-x,-y,-z
loop_
_atom_site_type_symbol
_atom_site_label
_atom_site_fract_x
_atom_site_fract_y
_atom_site_fract_z
Si Si1 0.260373 0.607897 0.407913
Si Si2 0.497821 0.122098 0.952575
Si Si3 0.154768 0.861587 0.968660
Si Si4 0.983516 0.771027 0.559490
Si Si5 0.351501 0.024224 0.573346
Si Si6 0.732799 0.633076 0.487915
Si Si7 0.498291 0.758577 0.687499
Si Si8 0.590629 0.390636 0.853264
O O1 0.231690 0.500542 0.460292
O O2 0.413905 0.650602 0.564227
O O3 0.315561 0.568740 0.234330
O O4 0.089114 0.732716 0.426686
O O5 0.376776 0.131123 0.756233
O O6 0.690526 0.089484 0.975747
O O7 0.455337 0.242030 0.110337
O O8 0.500000 0.000000 0.000000
O O9 0.103798 0.785832 0.763149
O O10 0.256932 0.740629 0.076792
O O11 0.000000 0.000000 0.000000
O O12 0.833640 0.912564 0.552290
O O13 0.887989 0.666281 0.500127
O O14 0.500000 0.000000 0.500000
O O15 0.369852 0.896225 0.624947
O O16 0.661621 0.739573 0.645342
O O17 0.570688 0.643787 0.307625
O O18 0.500000 0.500000 0.000000
#
# Coordination Sequence:
#
# PCOD9014851 Si02
#       8
#     2   2   2   2   2   2   2   2
#     4  11  25  45  71 104 136 182 237 296 350 405
#     4  10  23  42  65  98 135 181 234 274 345 428
#     4  12  27  43  70 107 149 177 232 300 358 409
#     4  12  25  45  69 102 149 179 223 299 363 410
#     4  11  22  41  68 100 135 185 230 275 352 432
#     4  11  24  46  74  96 138 184 241 277 351 425
#     4  10  21  41  69  96 131 180 232 282 335 421
#     4  11  26  48  74 103 135 192 245 286 344 432
#
# _framework density 22.258610999999998
#
# number of rings (size 3 to 8) (size 9 to 14) (size 15 to 20)
#    0.000    1.000    2.500    4.125    8.750    2.500 
#    0.000    1.250    0.000    0.000    0.000    0.000 
#    0.000    0.000    0.000    0.000    0.000    0.000 
#
# Total GULP energy -89201.808157 kJ/mol
# GULP energy per Si atom -5575.113010 kJ/mol
# Density = 2.220795 g / cm^3
# Si number density = 22.258611 Si / 1000 Ang^3
#
#
#
# Elastic Constant Matrix: (Units=GPa)
#
#
# Indices 1 2 3 4 5 6 
#
# 1 86.8759 25.9780 3.8916 -2.4502 -8.5615 -9.8956
# 2 25.9780 111.1640 24.8032 -11.7639 -10.2518 2.6121
# 3 3.8916 24.8032 76.6789 -3.6614 -8.9872 -7.7430
# 4 -2.4502 -11.7639 -3.6614 32.0090 -8.1205 -0.7127
# 5 -8.5615 -10.2518 -8.9872 -8.1205 33.3872 8.6945
# 6 -9.8956 2.6121 -7.7430 -0.7127 8.6945 41.9085
#
#
#
# Elastic Compliance Matrix: (Units=1/GPa)
#
#
# Indices 1 2 3 4 5 6 
#
# 1 0.012936 -0.003055 0.000892 0.000535 0.001965 0.003011
# 2 -0.003055 0.011269 -0.003127 0.004404 0.003602 -0.002674
# 3 0.000892 -0.003127 0.014670 0.001387 0.002893 0.002539
# 4 0.000535 0.004404 0.001387 0.035810 0.010979 -0.001561
# 5 0.001965 0.003602 0.002893 0.010979 0.036746 -0.006663
# 6 0.003011 -0.002674 0.002539 -0.001561 -0.006663 0.026564
#
#
# Mechanical properties :
#
#
# Convention : Reuss Voigt Hill
#
# Bulk Modulus (GPa) = 35.34507 42.67383 39.00945
# Shear Modulus (GPa) = 31.64430 36.13067 33.88749
#
# Velocity S-wave (km/s) = 3.77459 4.03329 3.90608
# Velocity P-wave (km/s) = 5.90851 6.39558 6.15686
#
# Compressibility (1/GPa) = 0.02829249
#
# Stress axis : x y z
#
# Youngs Moduli (GPa) = 77.30416 88.74269 68.16846
#
# Poissons Ratio (x) = 0.27109 -0.06077
# Poissons Ratio (y) = 0.23615 0.21319
# Poissons Ratio (z) = -0.06892 0.27754
#
# Static dielectric constant tensor:
#      x y z
#    x 1.823330 -0.020710 -0.067890 
#    y -0.020710 1.962440 -0.000750 
#    z -0.067890 -0.000750 1.862450 
# 
# From -- ./inp_files/189541.got.cif
#   From: 2010.05.17/outbox.cif.g08.bks.cpg/sg2_95_cif.got.tgz:189541.got - 2010.06.03 11:33:40.
