data_PCOD9014000
_publ_section_title
;
Structure prediction by ZEFSAII (Michael W. Deem and Ramdas Pophale) SiO2 
 PCOD9014000
Probable space group: P -1
;
_chemical_formula_sum "Si O2"
_cell_formula_units_Z 16
_cell_length_a 13.356837
_cell_length_b 10.962151
_cell_length_c 18.878115
_cell_angle_alpha 144.045119
_cell_angle_beta 29.798061
_cell_angle_gamma 149.080060
_cell_volume 682.553792
_symmetry_space_group_name_H-M "P -1"
_symmetry_group_IT_number 2
_symmetry_cell_setting 'triclinic'
loop_
_space_group_symop_operation_xyz
x,y,z
-x,-y,-z
loop_
_atom_site_type_symbol
_atom_site_label
_atom_site_fract_x
_atom_site_fract_y
_atom_site_fract_z
Si Si1 0.077078 0.280901 0.665974
Si Si2 0.231681 0.801959 0.047067
Si Si3 0.879746 0.541266 0.525654
Si Si4 0.772031 0.626602 0.092388
Si Si5 0.754169 0.075568 0.632901
Si Si6 0.154621 0.881454 0.719163
Si Si7 0.287437 0.243417 0.156106
Si Si8 0.773711 0.179978 0.192032
O O1 0.959940 0.243730 0.797099
O O2 0.861715 0.147692 0.679170
O O3 0.217137 0.564701 0.693219
O O4 0.231589 0.159151 0.507216
O O5 0.213674 0.961159 0.071158
O O6 0.218561 0.543992 0.931901
O O7 0.500000 0.000000 0.000000
O O8 0.738654 0.273348 0.450310
O O9 0.764666 0.680573 0.698327
O O10 0.000000 0.500000 0.500000
O O11 0.067941 0.716251 0.433446
O O12 0.568708 0.438831 0.072953
O O13 0.725270 0.835452 0.243975
O O14 0.014627 0.765736 0.964401
O O15 0.491372 0.023983 0.764864
O O16 0.172917 0.876577 0.789674
O O17 0.883156 0.745974 0.792278
#
# Coordination Sequence:
#
# PCOD9014000 Si02
#       8
#     2   2   2   2   2   2   2   2
#     4  10  21  41  66  94 121 171 207 259 325 360
#     4   9  19  40  67  92 125 163 212 261 308 372
#     4  10  22  42  65  93 125 168 210 259 320 372
#     4  10  24  41  63  93 129 169 210 260 313 377
#     4  11  22  41  68  91 128 161 214 265 309 377
#     4  11  24  41  62  94 127 171 208 253 324 371
#     4  10  22  44  66  90 128 166 216 261 309 380
#     4  11  24  40  62  97 128 161 213 260 313 380
#
# _framework density 23.441376000000002
#
# number of rings (size 3 to 8) (size 9 to 14) (size 15 to 20)
#    0.000    1.750    2.500    0.750    3.500    4.500 
#    2.250    3.750    0.000    0.000    0.000    0.000 
#    0.000    0.000    0.000    0.000    0.000    0.000 
#
# Total GULP energy -89391.352847 kJ/mol
# GULP energy per Si atom -5586.959553 kJ/mol
# Density = 2.338802 g / cm^3
# Si number density = 23.441376 Si / 1000 Ang^3
#
#
#
# Elastic Constant Matrix: (Units=GPa)
#
#
# Indices 1 2 3 4 5 6 
#
# 1 111.0374 23.6947 40.8119 -13.1375 -9.5989 0.4832
# 2 23.6947 120.0199 55.0074 23.3534 -5.3021 -6.0885
# 3 40.8119 55.0074 79.8704 -9.2640 -8.9220 5.4293
# 4 -13.1375 23.3534 -9.2640 39.8230 4.7829 -11.8485
# 5 -9.5989 -5.3021 -8.9220 4.7829 22.4398 3.4262
# 6 0.4832 -6.0885 5.4293 -11.8485 3.4262 33.4561
#
#
#
# Elastic Compliance Matrix: (Units=1/GPa)
#
#
# Indices 1 2 3 4 5 6 
#
# 1 0.011495 -0.000298 -0.005211 0.002965 0.001917 0.001479
# 2 -0.000298 0.016927 -0.012884 -0.013083 0.001478 0.000391
# 3 -0.005211 -0.012884 0.025848 0.010553 0.003221 -0.003056
# 4 0.002965 -0.013083 0.010553 0.040440 -0.007926 0.010997
# 5 0.001917 0.001478 0.003221 -0.007926 0.049956 -0.008204
# 6 0.001479 0.000391 -0.003056 0.010997 -0.008204 0.035170
#
#
# Mechanical properties :
#
#
# Convention : Reuss Voigt Hill
#
# Bulk Modulus (GPa) = 57.19753 61.10622 59.15187
# Shear Modulus (GPa) = 22.47698 31.90471 27.19085
#
# Velocity S-wave (km/s) = 3.09990 3.69323 3.40950
# Velocity P-wave (km/s) = 6.10457 6.65664 6.38657
#
# Compressibility (1/GPa) = 0.01748327
#
# Stress axis : x y z
#
# Youngs Moduli (GPa) = 86.99514 59.07824 38.68803
#
# Poissons Ratio (x) = 0.01763 0.20159
# Poissons Ratio (y) = 0.02596 0.49846
# Poissons Ratio (z) = 0.45330 0.76117
#
# Static dielectric constant tensor:
#      x y z
#    x 1.877270 0.016240 -0.051110 
#    y 0.016240 1.872010 0.023890 
#    z -0.051110 0.023890 1.916840 
# 
# From -- ./inp_files/597734.got.cif
#   From: 2010.05.17/outbox.cif.g08.bks.cpg/sg2_299_cif.got.tgz:597734.got - 2010.06.03 11:33:40.
