data_PCOD9014103
_publ_section_title
;
Structure prediction by ZEFSAII (Michael W. Deem and Ramdas Pophale) SiO2 
 PCOD9014103
Probable space group: P -1
;
_chemical_formula_sum "Si O2"
_cell_formula_units_Z 14
_cell_length_a 5.530796
_cell_length_b 20.750953
_cell_length_c 4.875399
_cell_angle_alpha 87.185772
_cell_angle_beta 87.375517
_cell_angle_gamma 99.981431
_cell_volume 549.572924
_symmetry_space_group_name_H-M "P -1"
_symmetry_group_IT_number 2
_symmetry_cell_setting 'triclinic'
loop_
_space_group_symop_operation_xyz
x,y,z
-x,-y,-z
loop_
_atom_site_type_symbol
_atom_site_label
_atom_site_fract_x
_atom_site_fract_y
_atom_site_fract_z
Si Si1 0.448974 0.206598 0.747672
Si Si2 0.237223 0.064439 0.643549
Si Si3 0.092931 0.929495 0.833434
Si Si4 0.930079 0.212902 0.079289
Si Si5 0.506894 0.344098 0.620892
Si Si6 0.031939 0.552312 0.237670
Si Si7 0.798163 0.653290 0.851735
O O1 0.422587 0.131828 0.662661
O O2 0.491205 0.269459 0.529281
O O3 0.181059 0.207162 0.899920
O O4 0.695398 0.219630 0.910749
O O5 0.142744 0.062770 0.339984
O O6 0.293796 0.993498 0.742305
O O7 0.000323 0.069789 0.850279
O O8 0.142968 0.858181 0.765029
O O9 0.012345 0.279849 0.228737
O O10 0.325354 0.374359 0.419115
O O11 0.751269 0.395465 0.639021
O O12 0.417669 0.332359 0.940816
O O13 0.000000 0.500000 0.500000
O O14 0.907007 0.604952 0.057614
O O15 0.000000 0.500000 0.000000
#
# Coordination Sequence:
#
# PCOD9014103 Si02
#       7
#     2   2   2   2   2   2   2
#     4  10  21  41  66  97 133 177 227 278 336 401
#     4   9  18  35  59  91 129 172 221 275 333 394
#     4   9  18  35  59  91 129 172 221 275 333 394
#     4  10  21  41  66  97 133 177 227 278 336 401
#     4  11  24  44  67  96 133 175 221 276 336 402
#     4  12  26  44  68 100 131 170 221 274 340 408
#     4  11  24  44  67  96 133 175 221 276 336 402
#
# _framework density 25.474326999999999
#
# number of rings (size 3 to 8) (size 9 to 14) (size 15 to 20)
#    0.000    1.714    1.429    2.571    0.000    4.000 
#    0.000   14.286    0.000   15.429    0.000    0.000 
#    0.000    0.000    0.000    0.000    0.000    0.000 
#
# Total GULP energy -77961.962517 kJ/mol
# GULP energy per Si atom -5568.711608 kJ/mol
# Density = 2.541635 g / cm^3
# Si number density = 25.474327 Si / 1000 Ang^3
#
#
#
# Elastic Constant Matrix: (Units=GPa)
#
#
# Indices 1 2 3 4 5 6 
#
# 1 100.0628 45.0128 38.5432 -3.8281 22.3417 18.3611
# 2 45.0128 231.2354 46.2090 -23.9773 19.0485 23.4537
# 3 38.5432 46.2090 150.3382 -7.8600 30.0748 3.8444
# 4 -3.8281 -23.9773 -7.8600 65.1088 3.5735 13.6360
# 5 22.3417 19.0485 30.0748 3.5735 48.4801 4.4195
# 6 18.3611 23.4537 3.8444 13.6360 4.4195 21.8407
#
#
#
# Elastic Compliance Matrix: (Units=1/GPa)
#
#
# Indices 1 2 3 4 5 6 
#
# 1 0.014382 -0.000407 -0.002236 0.003263 -0.004187 -0.012451
# 2 -0.000407 0.005898 -0.001113 0.003727 -0.000992 -0.007922
# 3 -0.002236 -0.001113 0.008300 0.000198 -0.003904 0.002280
# 4 0.003263 0.003727 0.000198 0.021172 -0.002882 -0.019416
# 5 -0.004187 -0.000992 -0.003904 -0.002882 0.025404 0.001931
# 6 -0.012451 -0.007922 0.002280 -0.019416 0.001931 0.076090
#
#
# Mechanical properties :
#
#
# Convention : Reuss Voigt Hill
#
# Bulk Modulus (GPa) = 47.46148 82.35183 64.90665
# Shear Modulus (GPa) = 30.16056 50.54401 40.35229
#
# Velocity S-wave (km/s) = 3.44460 4.45917 3.98431
# Velocity P-wave (km/s) = 5.87298 7.67528 6.83381
#
# Compressibility (1/GPa) = 0.02106972
#
# Stress axis : x y z
#
# Youngs Moduli (GPa) = 69.53058 169.55334 120.48507
#
# Poissons Ratio (x) = 0.06897 0.26937
# Poissons Ratio (y) = 0.02828 0.13405
# Poissons Ratio (z) = 0.15545 0.18864
#
# Static dielectric constant tensor:
#      x y z
#    x 2.123330 -0.146380 -0.034120 
#    y -0.146380 2.159070 -0.002290 
#    z -0.034120 -0.002290 1.978620 
# 
# From -- ./inp_files/10442.got.cif
#   From: 2010.05.17/outbox.cif.g08.bks.cpg/sg2_6_cif.got.tgz:10442.got - 2010.06.03 11:33:40.
