data_PCOD9014884
_publ_section_title
;
Structure prediction by ZEFSAII (Michael W. Deem and Ramdas Pophale) SiO2 
 PCOD9014884
Probable space group: P -1
;
_chemical_formula_sum "Si O2"
_cell_formula_units_Z 14
_cell_length_a 27.108456
_cell_length_b 29.969147
_cell_length_c 7.025467
_cell_angle_alpha 51.780568
_cell_angle_beta 128.215825
_cell_angle_gamma 170.869632
_cell_volume 710.163818
_symmetry_space_group_name_H-M "P -1"
_symmetry_group_IT_number 2
_symmetry_cell_setting 'triclinic'
loop_
_space_group_symop_operation_xyz
x,y,z
-x,-y,-z
loop_
_atom_site_type_symbol
_atom_site_label
_atom_site_fract_x
_atom_site_fract_y
_atom_site_fract_z
Si Si1 0.138944 0.210662 0.326136
Si Si2 0.671802 0.834490 0.878275
Si Si3 0.281309 0.539217 0.046367
Si Si4 0.914637 0.331048 0.762716
Si Si5 0.881650 0.072795 0.351686
Si Si6 0.815071 0.335701 0.190365
Si Si7 0.235102 0.209809 0.836376
O O1 0.037151 0.063352 0.581279
O O2 0.459618 0.480941 0.268250
O O3 0.118551 0.240059 0.367251
O O4 0.926204 0.047991 0.084102
O O5 0.794348 0.972351 0.616750
O O6 0.410615 0.638833 0.881007
O O7 0.599532 0.705027 0.999747
O O8 0.569739 0.797086 0.203722
O O9 0.046937 0.280035 0.218006
O O10 0.105031 0.442551 0.887354
O O11 0.903114 0.359708 0.469679
O O12 0.080584 0.516486 0.830427
O O13 0.558326 0.999667 0.841865
O O14 0.000000 0.500000 0.000000
O O15 0.000000 0.000000 0.000000
#
# Coordination Sequence:
#
# PCOD9014884 Si02
#       7
#     2   2   2   2   2   2   2
#     4  10  23  39  59  89 117 157 211 270 321 379
#     4  11  24  40  62  86 126 165 210 265 319 376
#     4  11  25  42  63  92 132 167 209 256 308 376
#     4  10  22  40  64  99 130 166 208 254 305 364
#     4  11  24  42  63  89 125 169 214 256 316 377
#     4  10  21  41  69  98 130 164 207 256 302 363
#     4  11  21  39  62  88 116 161 212 267 327 374
#
# _framework density 19.713761999999999
#
# number of rings (size 3 to 8) (size 9 to 14) (size 15 to 20)
#    0.000    1.429    2.857    1.714    2.000    2.857 
#    0.000    0.000    0.000    0.000    0.000    0.000 
#    0.000    0.000    0.000    0.000    0.000    0.000 
#
# Total GULP energy -78020.013087 kJ/mol
# GULP energy per Si atom -5572.858078 kJ/mol
# Density = 1.966889 g / cm^3
# Si number density = 19.713762 Si / 1000 Ang^3
#
#
#
# Elastic Constant Matrix: (Units=GPa)
#
#
# Indices 1 2 3 4 5 6 
#
# 1 163.3927 64.6293 93.0943 -9.1206 23.2311 14.4759
# 2 64.6293 113.7005 65.5399 -21.8962 2.6737 1.3808
# 3 93.0943 65.5399 126.7514 -30.1498 -9.1366 19.5878
# 4 -9.1206 -21.8962 -30.1498 31.4410 12.6540 -1.0911
# 5 23.2311 2.6737 -9.1366 12.6540 37.9526 -3.3429
# 6 14.4759 1.3808 19.5878 -1.0911 -3.3429 36.2331
#
#
#
# Elastic Compliance Matrix: (Units=1/GPa)
#
#
# Indices 1 2 3 4 5 6 
#
# 1 0.014741 -0.002507 -0.011089 -0.004005 -0.010257 -0.000866
# 2 -0.002507 0.014006 -0.004715 0.005475 -0.002150 0.002983
# 3 -0.011089 -0.004715 0.022949 0.012037 0.008042 -0.006692
# 4 -0.004005 0.005475 0.012037 0.050826 -0.012399 -0.004730
# 5 -0.010257 -0.002150 0.008042 -0.012399 0.039119 0.003068
# 6 -0.000866 0.002983 -0.006692 -0.004730 0.003068 0.031590
#
#
# Mechanical properties :
#
#
# Convention : Reuss Voigt Hill
#
# Bulk Modulus (GPa) = 66.33346 94.48575 80.40961
# Shear Modulus (GPa) = 23.26905 33.16407 28.21656
#
# Velocity S-wave (km/s) = 3.43934 4.10601 3.78737
# Velocity P-wave (km/s) = 7.03516 8.39714 7.74614
#
# Compressibility (1/GPa) = 0.01507535
#
# Stress axis : x y z
#
# Youngs Moduli (GPa) = 67.83635 71.39593 43.57490
#
# Poissons Ratio (x) = 0.17898 0.48320
# Poissons Ratio (y) = 0.17005 0.20545
# Poissons Ratio (z) = 0.75223 0.33663
#
# Static dielectric constant tensor:
#      x y z
#    x 1.779750 -0.116430 0.007140 
#    y -0.116430 1.964330 0.039390 
#    z 0.007140 0.039390 1.683610 
# 
# From -- ./inp_files/7863.got.cif
#   From: 2010.05.17/outbox.cif.g08.bks.cpg/sg2_4_cif.got.tgz:7863.got - 2010.06.03 11:33:40.
