data_PCOD9014648
_publ_section_title
;
Structure prediction by ZEFSAII (Michael W. Deem and Ramdas Pophale) SiO2 
 PCOD9014648
Probable space group: P -1
;
_chemical_formula_sum "Si O2"
_cell_formula_units_Z 14
_cell_length_a 9.149941
_cell_length_b 9.195868
_cell_length_c 7.876665
_cell_angle_alpha 65.121448
_cell_angle_beta 85.318897
_cell_angle_gamma 70.798040
_cell_volume 566.554909
_symmetry_space_group_name_H-M "P -1"
_symmetry_group_IT_number 2
_symmetry_cell_setting 'triclinic'
loop_
_space_group_symop_operation_xyz
x,y,z
-x,-y,-z
loop_
_atom_site_type_symbol
_atom_site_label
_atom_site_fract_x
_atom_site_fract_y
_atom_site_fract_z
Si Si1 0.229306 0.738157 0.911976
Si Si2 0.046760 0.976571 0.308023
Si Si3 0.480092 0.182703 0.997349
Si Si4 0.092663 0.309473 0.535544
Si Si5 0.681332 0.273211 0.478671
Si Si6 0.623019 0.637506 0.410110
Si Si7 0.829509 0.597257 0.882327
O O1 0.364810 0.811475 0.922054
O O2 0.251910 0.713841 0.718544
O O3 0.053084 0.869169 0.872463
O O4 0.233891 0.559197 0.077805
O O5 0.992832 0.818701 0.341127
O O6 0.231347 0.898676 0.343389
O O7 0.000000 0.000000 0.500000
O O8 0.313610 0.267489 0.069132
O O9 0.466738 0.313041 0.780575
O O10 0.500000 0.000000 0.000000
O O11 0.252695 0.268825 0.638612
O O12 0.130910 0.311541 0.331469
O O13 0.000000 0.500000 0.500000
O O14 0.692212 0.435754 0.500306
O O15 0.501857 0.296444 0.464437
O O16 0.000000 0.500000 0.000000
#
# Coordination Sequence:
#
# PCOD9014648 Si02
#       7
#     2   2   2   2   2   2   2
#     4  11  24  45  72  99 139 185 229 286 355 407
#     4  10  22  43  67  98 135 178 227 283 338 413
#     4  12  27  46  69 104 146 182 233 290 348 415
#     4  12  24  43  70 101 137 183 235 282 345 414
#     4  10  21  41  68  96 131 177 229 277 337 413
#     4  11  23  39  68  98 133 175 230 279 336 410
#     4  12  26  46  72 105 143 183 232 292 352 412
#
# _framework density 24.710754999999999
#
# number of rings (size 3 to 8) (size 9 to 14) (size 15 to 20)
#    0.000    0.857    2.857    4.714    4.000    3.429 
#    0.000    7.143    0.000    0.000    0.000    0.000 
#    0.000    0.000    0.000    0.000    0.000    0.000 
#
# Total GULP energy -78224.524951 kJ/mol
# GULP energy per Si atom -5587.466068 kJ/mol
# Density = 2.465451 g / cm^3
# Si number density = 24.710755 Si / 1000 Ang^3
#
#
#
# Elastic Constant Matrix: (Units=GPa)
#
#
# Indices 1 2 3 4 5 6 
#
# 1 91.4315 41.8244 4.3973 -0.6542 27.6774 5.8627
# 2 41.8244 132.3525 19.4693 -20.3577 6.8036 -6.1915
# 3 4.3973 19.4693 65.6525 -6.3403 5.8497 -12.8777
# 4 -0.6542 -20.3577 -6.3403 32.3001 -3.4794 -2.5437
# 5 27.6774 6.8036 5.8497 -3.4794 36.9273 -7.2586
# 6 5.8627 -6.1915 -12.8777 -2.5437 -7.2586 37.7696
#
#
#
# Elastic Compliance Matrix: (Units=1/GPa)
#
#
# Indices 1 2 3 4 5 6 
#
# 1 0.018791 -0.006406 -0.000013 -0.005830 -0.014871 -0.007222
# 2 -0.006406 0.010878 -0.001820 0.007123 0.004443 0.003491
# 3 -0.000013 -0.001820 0.017199 0.002551 -0.001050 0.005538
# 4 -0.005830 0.007123 0.002551 0.037183 0.007511 0.006890
# 5 -0.014871 0.004443 -0.001050 0.007511 0.040435 0.010955
# 6 -0.007222 0.003491 0.005538 0.006890 0.010955 0.032627
#
#
# Mechanical properties :
#
#
# Convention : Reuss Voigt Hill
#
# Bulk Modulus (GPa) = 32.90780 46.75760 39.83270
# Shear Modulus (GPa) = 27.21490 36.31578 31.76534
#
# Velocity S-wave (km/s) = 3.32224 3.83774 3.58926
# Velocity P-wave (km/s) = 5.29740 6.21295 5.77335
#
# Compressibility (1/GPa) = 0.03038793
#
# Stress axis : x y z
#
# Youngs Moduli (GPa) = 53.21619 91.92629 58.14433
#
# Poissons Ratio (x) = 0.58892 0.00078
# Poissons Ratio (y) = 0.34093 0.10583
# Poissons Ratio (z) = 0.00072 0.16732
#
# Static dielectric constant tensor:
#      x y z
#    x 2.023890 -0.065620 0.034420 
#    y -0.065620 2.055670 0.046850 
#    z 0.034420 0.046850 1.961290 
# 
# From -- ./inp_files/157400.got.cif
#   From: 2010.05.17/outbox.cif.g08.bks.cpg/sg2_79_cif.got.tgz:157400.got - 2010.06.03 11:33:40.
