data_PCOD9014754
_publ_section_title
;
Structure prediction by ZEFSAII (Michael W. Deem and Ramdas Pophale) SiO2 
 PCOD9014754
Probable space group: P -1
;
_chemical_formula_sum "Si O2"
_cell_formula_units_Z 16
_cell_length_a 14.429922
_cell_length_b 11.423898
_cell_length_c 6.872442
_cell_angle_alpha 87.181642
_cell_angle_beta 59.464581
_cell_angle_gamma 45.028437
_cell_volume 594.369701
_symmetry_space_group_name_H-M "P -1"
_symmetry_group_IT_number 2
_symmetry_cell_setting 'triclinic'
loop_
_space_group_symop_operation_xyz
x,y,z
-x,-y,-z
loop_
_atom_site_type_symbol
_atom_site_label
_atom_site_fract_x
_atom_site_fract_y
_atom_site_fract_z
Si Si1 0.735250 0.857979 0.275233
Si Si2 0.076122 0.689751 0.851920
Si Si3 0.116159 0.565949 0.389239
Si Si4 0.114398 0.957408 0.206518
Si Si5 0.396574 0.282995 0.513261
Si Si6 0.257471 0.201655 0.189805
Si Si7 0.579706 0.164607 0.920191
Si Si8 0.371779 0.540700 0.980288
O O1 0.701452 0.758980 0.408203
O O2 0.572669 0.087444 0.451087
O O3 0.735873 0.830259 0.044608
O O4 0.919120 0.763805 0.129777
O O5 0.094576 0.602681 0.638339
O O6 0.271718 0.488060 0.735011
O O7 0.009874 0.874067 0.836699
O O8 0.246453 0.349703 0.207819
O O9 0.200602 0.613588 0.225204
O O10 0.924543 0.685346 0.527350
O O11 0.229239 0.957649 0.194061
O O12 0.263026 0.740366 0.976815
O O13 0.000000 0.000000 0.500000
O O14 0.464126 0.274201 0.234285
O O15 0.397385 0.990729 0.147928
O O16 0.510548 0.314473 0.820131
O O17 0.500000 0.500000 0.000000
#
# Coordination Sequence:
#
# PCOD9014754 Si02
#       8
#     2   2   2   2   2   2   2   2
#     4   9  19  32  45  70 100 127 165 198 241 296
#     4  11  18  30  47  72 100 127 160 199 249 290
#     4  10  17  31  46  69  99 133 159 191 247 304
#     4  11  17  29  45  66 103 127 159 201 240 291
#     4  10  17  30  49  67  99 130 158 205 243 291
#     4   9  18  30  49  66 100 136 153 195 246 300
#     4  10  17  31  44  73 101 126 161 199 249 289
#     4  10  20  28  45  69  99 129 159 201 240 289
#
# _framework density 26.919276
#
# number of rings (size 3 to 8) (size 9 to 14) (size 15 to 20)
#    0.000    2.000    6.250    0.375    0.000    0.500 
#    0.000    0.000    0.000    0.000    0.000    4.375 
#    0.000    0.000    0.000    6.750    0.000    0.000 
#
# Total GULP energy -89295.261048 kJ/mol
# GULP energy per Si atom -5580.953815 kJ/mol
# Density = 2.685801 g / cm^3
# Si number density = 26.919276 Si / 1000 Ang^3
#
#
#
# Elastic Constant Matrix: (Units=GPa)
#
#
# Indices 1 2 3 4 5 6 
#
# 1 51.5027 43.0698 30.1457 -9.4767 3.7922 6.5659
# 2 43.0698 211.7062 57.8168 50.5245 11.0247 15.4653
# 3 30.1457 57.8168 106.2357 9.1035 -33.0119 -2.1923
# 4 -9.4767 50.5245 9.1035 68.1033 1.6231 0.0543
# 5 3.7922 11.0247 -33.0119 1.6231 39.3409 -5.9570
# 6 6.5659 15.4653 -2.1923 0.0543 -5.9570 45.6835
#
#
#
# Elastic Compliance Matrix: (Units=1/GPa)
#
#
# Indices 1 2 3 4 5 6 
#
# 1 0.034427 -0.005081 -0.012181 0.010512 -0.013393 -0.005571
# 2 -0.005081 0.009486 -0.005363 -0.006859 -0.006936 -0.003634
# 3 -0.012181 -0.005363 0.023380 -0.001409 0.023529 0.007758
# 4 0.010512 -0.006859 -0.001409 0.021448 -0.001070 0.000578
# 5 -0.013393 -0.006936 0.023529 -0.001070 0.050252 0.011956
# 6 -0.005571 -0.003634 0.007758 0.000578 0.011956 0.025851
#
#
# Mechanical properties :
#
#
# Convention : Reuss Voigt Hill
#
# Bulk Modulus (GPa) = 45.36866 70.16768 57.76817
# Shear Modulus (GPa) = 22.99459 46.51971 34.75715
#
# Velocity S-wave (km/s) = 2.92585 4.16157 3.59717
# Velocity P-wave (km/s) = 5.32018 7.01528 6.22569
#
# Compressibility (1/GPa) = 0.02204165
#
# Stress axis : x y z
#
# Youngs Moduli (GPa) = 29.04739 105.42353 42.77071
#
# Poissons Ratio (x) = 0.53570 0.52099
# Poissons Ratio (y) = 0.14760 0.22937
# Poissons Ratio (z) = 0.35383 0.56537
#
# Static dielectric constant tensor:
#      x y z
#    x 2.169660 -0.071720 -0.087040 
#    y -0.071720 2.139950 0.071220 
#    z -0.087040 0.071220 2.170680 
# 
# From -- ./inp_files/470750.got.cif
#   From: 2010.05.17/outbox.cif.g08.bks.cpg/sg2_236_cif.got.tgz:470750.got - 2010.06.03 11:33:40.
