data_PCOD9014271
_publ_section_title
;
Structure prediction by ZEFSAII (Michael W. Deem and Ramdas Pophale) SiO2 
 PCOD9014271
Probable space group: P -1
;
_chemical_formula_sum "Si O2"
_cell_formula_units_Z 15
_cell_length_a 11.381156
_cell_length_b 9.515004
_cell_length_c 11.750027
_cell_angle_alpha 57.669573
_cell_angle_beta 139.913232
_cell_angle_gamma 122.862076
_cell_volume 671.207675
_symmetry_space_group_name_H-M "P -1"
_symmetry_group_IT_number 2
_symmetry_cell_setting 'triclinic'
loop_
_space_group_symop_operation_xyz
x,y,z
-x,-y,-z
loop_
_atom_site_type_symbol
_atom_site_label
_atom_site_fract_x
_atom_site_fract_y
_atom_site_fract_z
Si Si1 0.237113 0.972625 0.469614
Si Si2 0.495399 0.386729 0.713268
Si Si3 0.519097 0.247581 0.155780
Si Si4 0.732954 0.522779 0.029856
Si Si5 0.932381 0.156090 0.823544
Si Si6 0.324976 0.076747 0.870532
Si Si7 0.561599 0.266354 0.567166
Si Si8 0.000000 0.000000 0.500000
O O1 0.389826 0.861538 0.644812
O O2 0.080585 0.881034 0.304773
O O3 0.355758 0.152602 0.429492
O O4 0.163404 0.989037 0.534341
O O5 0.683435 0.451608 0.898206
O O6 0.349667 0.255377 0.741602
O O7 0.543310 0.293766 0.676846
O O8 0.410587 0.545713 0.547501
O O9 0.422645 0.373795 0.097975
O O10 0.684910 0.362795 0.150183
O O11 0.364436 0.130540 0.007857
O O12 0.928405 0.659821 0.127917
O O13 0.726595 0.174991 0.700647
O O14 0.000000 0.000000 0.000000
O O15 0.133065 0.964794 0.724788
O O16 0.500000 0.000000 0.000000
#
# Coordination Sequence:
#
# PCOD9014271 Si02
#       8
#     2   2   2   2   2   2   2   1
#     4  12  24  43  67  99 131 180 233 282 347 406
#     4  10  22  42  66  92 136 180 222 280 348 401
#     4  10  21  41  67  91 138 178 217 292 344 400
#     4  10  22  40  62  98 128 178 221 274 353 404
#     4  12  26  43  67  99 136 181 236 284 336 429
#     4  11  21  42  65 101 141 176 230 283 346 403
#     4  11  23  43  66  94 132 183 226 283 346 406
#     4  12  24  38  70 104 130 176 228 278 340 414
#
# _framework density 22.347776
#
# number of rings (size 3 to 8) (size 9 to 14) (size 15 to 20)
#    0.000    1.067    2.667    3.600    0.000    3.200 
#    0.000    0.000    0.000    0.000    0.000    0.000 
#    0.000    0.000    0.000    0.000    0.000    0.000 
#
# Total GULP energy -83626.421568 kJ/mol
# GULP energy per Si atom -5575.094771 kJ/mol
# Density = 2.229691 g / cm^3
# Si number density = 22.347776 Si / 1000 Ang^3
#
#
#
# Elastic Constant Matrix: (Units=GPa)
#
#
# Indices 1 2 3 4 5 6 
#
# 1 43.4077 3.9228 0.8603 -7.2063 1.5618 -5.0599
# 2 3.9228 38.6663 4.2750 3.0189 3.5099 -9.3800
# 3 0.8603 4.2750 70.3295 2.3028 -11.9628 -6.2707
# 4 -7.2063 3.0189 2.3028 47.4227 -6.4511 -5.7586
# 5 1.5618 3.5099 -11.9628 -6.4511 34.7574 5.5563
# 6 -5.0599 -9.3800 -6.2707 -5.7586 5.5563 22.4006
#
#
#
# Elastic Compliance Matrix: (Units=1/GPa)
#
#
# Indices 1 2 3 4 5 6 
#
# 1 0.024687 -0.001156 -0.000001 0.004454 -0.001211 0.006537
# 2 -0.001156 0.029921 -0.001600 -0.001222 -0.005817 0.012949
# 3 -0.000001 -0.001600 0.015397 0.000351 0.005133 0.002457
# 4 0.004454 -0.001222 0.000351 0.022974 0.003404 0.005654
# 5 -0.001211 -0.005817 0.005133 0.003404 0.033191 -0.008630
# 6 0.006537 0.012949 0.002457 0.005654 -0.008630 0.055823
#
#
# Mechanical properties :
#
#
# Convention : Reuss Voigt Hill
#
# Bulk Modulus (GPa) = 15.50586 18.94663 17.22625
# Shear Modulus (GPa) = 23.92311 30.47250 27.19781
#
# Velocity S-wave (km/s) = 3.27539 3.69665 3.49237
# Velocity P-wave (km/s) = 4.61061 5.16882 4.89768
#
# Compressibility (1/GPa) = 0.06449173
#
# Stress axis : x y z
#
# Youngs Moduli (GPa) = 40.50715 33.42118 64.94886
#
# Poissons Ratio (x) = 0.03865 0.00004
# Poissons Ratio (y) = 0.04684 0.10389
# Poissons Ratio (z) = 0.00003 0.05346
#
# Static dielectric constant tensor:
#      x y z
#    x 1.837250 0.044940 -0.013490 
#    y 0.044940 1.919270 0.031780 
#    z -0.013490 0.031780 1.824510 
# 
# From -- ./inp_files/416749.got.cif
#   From: 2010.05.17/outbox.cif.g08.bks.cpg/sg2_209_cif.got.tgz:416749.got - 2010.06.03 11:33:40.
