data_PCOD9014068
_publ_section_title
;
Structure prediction by ZEFSAII (Michael W. Deem and Ramdas Pophale) SiO2 
 PCOD9014068
Probable space group: P -1
;
_chemical_formula_sum "Si O2"
_cell_formula_units_Z 16
_cell_length_a 9.413421
_cell_length_b 20.073338
_cell_length_c 11.879726
_cell_angle_alpha 135.488544
_cell_angle_beta 127.271932
_cell_angle_gamma 30.106170
_cell_volume 788.968683
_symmetry_space_group_name_H-M "P -1"
_symmetry_group_IT_number 2
_symmetry_cell_setting 'triclinic'
loop_
_space_group_symop_operation_xyz
x,y,z
-x,-y,-z
loop_
_atom_site_type_symbol
_atom_site_label
_atom_site_fract_x
_atom_site_fract_y
_atom_site_fract_z
Si Si1 0.262278 0.283672 0.446732
Si Si2 0.355078 0.434998 0.579368
Si Si3 0.663881 0.111625 0.981173
Si Si4 0.698310 0.574725 0.926666
Si Si5 0.679203 0.382896 0.044715
Si Si6 0.647805 0.926145 0.604142
Si Si7 0.256518 0.627717 0.450532
Si Si8 0.321032 0.165965 0.087876
O O1 0.385213 0.338461 0.566979
O O2 0.405792 0.147092 0.433333
O O3 0.287905 0.236779 0.273879
O O4 0.924570 0.447802 0.493218
O O5 0.327395 0.543893 0.764286
O O6 0.633742 0.326478 0.509056
O O7 0.612685 0.037665 0.792105
O O8 0.496377 0.272368 0.051078
O O9 0.506507 0.149293 0.068000
O O10 0.000000 0.000000 0.000000
O O11 0.502736 0.630420 0.009355
O O12 0.774235 0.448413 0.740308
O O13 0.000000 0.500000 0.000000
O O14 0.009436 0.253364 0.010021
O O15 0.500000 0.500000 0.000000
O O16 0.975944 0.772775 0.552700
O O17 0.500000 0.000000 0.500000
O O18 0.500000 0.500000 0.500000
O O19 0.500000 0.000000 0.000000
#
# Coordination Sequence:
#
# PCOD9014068 Si02
#       8
#     2   2   2   2   2   2   2   2
#     4  10  21  41  66  96 126 166 226 268 331 386
#     4   9  21  39  67  96 120 166 224 276 311 388
#     4  12  26  42  67 101 134 175 225 274 340 402
#     4  11  24  42  66  99 132 173 223 270 327 399
#     4  10  22  41  65  95 131 167 216 273 329 386
#     4  12  26  43  64  98 142 175 214 282 344 397
#     4  11  22  41  69  93 128 172 224 272 321 394
#     4  11  22  41  67  89 129 175 216 270 324 394
#
# _framework density 20.279639
#
# number of rings (size 3 to 8) (size 9 to 14) (size 15 to 20)
#    0.000    1.250    2.500    3.000    5.250    4.000 
#    0.000    0.625    0.000    0.000    0.000    0.000 
#    0.000    0.000    0.000    0.000    0.000    0.000 
#
# Total GULP energy -89120.361885 kJ/mol
# GULP energy per Si atom -5570.022618 kJ/mol
# Density = 2.023348 g / cm^3
# Si number density = 20.279639 Si / 1000 Ang^3
#
#
#
# Elastic Constant Matrix: (Units=GPa)
#
#
# Indices 1 2 3 4 5 6 
#
# 1 167.1310 41.6261 3.0172 -5.0205 -4.4027 4.7976
# 2 41.6261 87.3266 -14.9931 -4.5991 -6.6619 -3.2438
# 3 3.0172 -14.9931 29.7216 3.1608 -2.5832 -7.5046
# 4 -5.0205 -4.5991 3.1608 31.8096 -1.4289 0.2093
# 5 -4.4027 -6.6619 -2.5832 -1.4289 30.0169 4.8224
# 6 4.7976 -3.2438 -7.5046 0.2093 4.8224 43.7115
#
#
#
# Elastic Compliance Matrix: (Units=1/GPa)
#
#
# Indices 1 2 3 4 5 6 
#
# 1 0.007100 -0.003932 -0.003197 0.000890 0.000200 -0.001646
# 2 -0.003932 0.015255 0.008978 0.000818 0.003179 0.002750
# 3 -0.003197 0.008978 0.041096 -0.003176 0.003675 0.007683
# 4 0.000890 0.000818 -0.003176 0.032094 0.001715 -0.000925
# 5 0.000200 0.003179 0.003675 0.001715 0.034932 -0.003017
# 6 -0.001646 0.002750 0.007683 -0.000925 -0.003017 0.024918
#
#
# Mechanical properties :
#
#
# Convention : Reuss Voigt Hill
#
# Bulk Modulus (GPa) = 14.89234 38.16437 26.52836
# Shear Modulus (GPa) = 28.72237 38.07619 33.39928
#
# Velocity S-wave (km/s) = 3.76748 4.33778 4.06265
# Velocity P-wave (km/s) = 5.12685 6.62936 5.92592
#
# Compressibility (1/GPa) = 0.06714862
#
# Stress axis : x y z
#
# Youngs Moduli (GPa) = 140.85187 65.55310 24.33316
#
# Poissons Ratio (x) = 0.25776 0.07780
# Poissons Ratio (y) = 0.55385 -0.21847
# Poissons Ratio (z) = 0.45033 -0.58856
#
# Static dielectric constant tensor:
#      x y z
#    x 2.492030 0.230830 1.259370 
#    y 0.230830 1.740610 0.091470 
#    z 1.259370 0.091470 1.728940 
# 
# From -- ./inp_files/343691.got.cif
#   From: 2010.05.17/outbox.cif.g08.bks.cpg/sg2_172_cif.got.tgz:343691.got - 2010.06.03 11:33:40.
