data_PCOD9014116
_publ_section_title
;
Structure prediction by ZEFSAII (Michael W. Deem and Ramdas Pophale) SiO2 
 PCOD9014116
Probable space group: P -1
;
_chemical_formula_sum "Si O2"
_cell_formula_units_Z 16
_cell_length_a 5.348286
_cell_length_b 11.973142
_cell_length_c 19.389081
_cell_angle_alpha 138.505597
_cell_angle_beta 52.439490
_cell_angle_gamma 117.888475
_cell_volume 651.948117
_symmetry_space_group_name_H-M "P -1"
_symmetry_group_IT_number 2
_symmetry_cell_setting 'triclinic'
loop_
_space_group_symop_operation_xyz
x,y,z
-x,-y,-z
loop_
_atom_site_type_symbol
_atom_site_label
_atom_site_fract_x
_atom_site_fract_y
_atom_site_fract_z
Si Si1 0.178470 0.524071 0.146882
Si Si2 0.771744 0.326261 0.929154
Si Si3 0.684959 0.366772 0.363121
Si Si4 0.760737 0.843138 0.836008
Si Si5 0.879445 0.197894 0.001118
Si Si6 0.688093 0.966442 0.753444
Si Si7 0.296852 0.872380 0.524153
Si Si8 0.130608 0.333238 0.608921
O O1 0.044388 0.603993 0.135918
O O2 0.095589 0.648696 0.279093
O O3 0.544285 0.479141 0.057322
O O4 0.034968 0.335377 0.088316
O O5 0.922884 0.256293 0.941300
O O6 0.592279 0.159924 0.850825
O O7 0.500000 0.500000 0.500000
O O8 0.499354 0.190649 0.320309
O O9 0.734688 0.475751 0.336295
O O10 0.040048 0.314486 0.294679
O O11 0.648040 0.923766 0.821160
O O12 0.958959 0.001863 0.908020
O O13 0.490658 0.796395 0.913492
O O14 0.045138 0.955607 0.657520
O O15 0.565177 0.776784 0.477352
O O16 0.082561 0.746138 0.453552
O O17 0.500000 0.000000 0.500000
#
# Coordination Sequence:
#
# PCOD9014116 Si02
#       8
#     2   2   2   2   2   2   2   2
#     4  11  23  41  68  99 141 180 241 297 358 429
#     4  10  23  42  64 102 134 188 237 295 362 429
#     4  12  24  41  67  99 141 181 235 296 352 420
#     4  10  23  40  66 100 136 184 232 295 358 429
#     4  10  21  41  66  97 137 181 234 293 361 426
#     4  11  24  44  69  99 144 186 243 292 362 428
#     4  12  28  52  74 106 147 193 243 295 356 428
#     4  12  28  46  77 108 143 191 242 297 360 425
#
# _framework density 24.541827000000001
#
# number of rings (size 3 to 8) (size 9 to 14) (size 15 to 20)
#    0.000    1.000    1.250    4.500    5.250    1.000 
#    9.000    5.000    0.000    0.000    0.000    0.000 
#    0.000    0.000    0.000    0.000    0.000    0.000 
#
# Total GULP energy -89322.721070 kJ/mol
# GULP energy per Si atom -5582.670067 kJ/mol
# Density = 2.448597 g / cm^3
# Si number density = 24.541827 Si / 1000 Ang^3
#
#
#
# Elastic Constant Matrix: (Units=GPa)
#
#
# Indices 1 2 3 4 5 6 
#
# 1 62.9986 11.7762 24.3493 10.9111 -3.1172 -0.9903
# 2 11.7762 93.1387 16.8046 0.8504 -1.8726 5.2905
# 3 24.3493 16.8046 139.3231 -8.8715 -1.5074 -0.6450
# 4 10.9111 0.8504 -8.8715 38.2685 -3.6560 6.0984
# 5 -3.1172 -1.8726 -1.5074 -3.6560 34.9417 8.0992
# 6 -0.9903 5.2905 -0.6450 6.0984 8.0992 34.9947
#
#
#
# Elastic Compliance Matrix: (Units=1/GPa)
#
#
# Indices 1 2 3 4 5 6 
#
# 1 0.018676 -0.001775 -0.003441 -0.006329 0.000354 0.001755
# 2 -0.001775 0.011277 -0.001022 0.000436 0.000926 -0.002064
# 3 -0.003441 -0.001022 0.008094 0.002982 0.000393 -0.000404
# 4 -0.006329 0.000436 0.002982 0.030040 0.004214 -0.006400
# 5 0.000354 0.000926 0.000393 0.004214 0.031021 -0.008037
# 6 0.001755 -0.002064 -0.000404 -0.006400 -0.008037 0.031905
#
#
# Mechanical properties :
#
#
# Convention : Reuss Voigt Hill
#
# Bulk Modulus (GPa) = 39.10494 44.59117 41.84805
# Shear Modulus (GPa) = 32.89156 37.80967 35.35062
#
# Velocity S-wave (km/s) = 3.66488 3.92933 3.79941
# Velocity P-wave (km/s) = 5.82040 6.22857 6.02794
#
# Compressibility (1/GPa) = 0.02557222
#
# Stress axis : x y z
#
# Youngs Moduli (GPa) = 53.54342 88.67302 123.54142
#
# Poissons Ratio (x) = 0.15742 0.42510
# Poissons Ratio (y) = 0.09506 0.12623
# Poissons Ratio (z) = 0.18424 0.09060
#
# Static dielectric constant tensor:
#      x y z
#    x 2.111220 0.122670 -0.007820 
#    y 0.122670 2.047960 -0.015580 
#    z -0.007820 -0.015580 2.009120 
# 
# From -- ./inp_files/70313.got.cif
#   From: 2010.05.17/outbox.cif.g08.bks.cpg/sg2_36_cif.got.tgz:70313.got - 2010.06.03 11:33:40.
