data_PCOD9014042
_publ_section_title
;
Structure prediction by ZEFSAII (Michael W. Deem and Ramdas Pophale) SiO2 
 PCOD9014042
Probable space group: P -1
;
_chemical_formula_sum "Si O2"
_cell_formula_units_Z 14
_cell_length_a 9.499201
_cell_length_b 24.703907
_cell_length_c 5.074528
_cell_angle_alpha 96.940028
_cell_angle_beta 75.422717
_cell_angle_gamma 39.036835
_cell_volume 620.469650
_symmetry_space_group_name_H-M "P -1"
_symmetry_group_IT_number 2
_symmetry_cell_setting 'triclinic'
loop_
_space_group_symop_operation_xyz
x,y,z
-x,-y,-z
loop_
_atom_site_type_symbol
_atom_site_label
_atom_site_fract_x
_atom_site_fract_y
_atom_site_fract_z
Si Si1 0.917081 0.061825 0.823715
Si Si2 0.086698 0.672212 0.195758
Si Si3 0.595939 0.522351 0.224303
Si Si4 0.288983 0.257948 0.224247
Si Si5 0.230259 0.158115 0.245522
Si Si6 0.279549 0.042539 0.818377
Si Si7 0.127347 0.519282 0.459923
O O1 0.077479 0.067777 0.774288
O O2 0.599972 0.171780 0.026191
O O3 0.000000 0.000000 0.500000
O O4 0.000000 0.000000 0.000000
O O5 0.264356 0.581131 0.858003
O O6 0.826259 0.717271 0.411734
O O7 0.952901 0.773476 0.367173
O O8 0.299306 0.606251 0.302411
O O9 0.750869 0.501455 0.891028
O O10 0.643048 0.545505 0.466237
O O11 0.232788 0.214326 0.112564
O O12 0.107624 0.364536 0.277510
O O13 0.536005 0.051712 0.127505
O O14 0.144753 0.132897 0.105478
O O15 0.500000 0.000000 0.500000
O O16 0.000000 0.500000 0.500000
#
# Coordination Sequence:
#
# PCOD9014042 Si02
#       7
#     2   2   2   2   2   2   2
#     4  12  25  44  69  98 136 180 222 272 343 404
#     4   8  19  39  66  92 123 170 221 270 327 394
#     4  10  21  41  66  95 125 174 216 275 330 392
#     4   9  21  43  65  95 129 180 217 274 336 397
#     4   9  20  43  62  94 131 169 223 276 333 390
#     4  11  23  39  69  96 136 173 226 284 331 396
#     4  11  24  42  66  95 137 172 223 276 334 397
#
# _framework density 22.563552000000001
#
# number of rings (size 3 to 8) (size 9 to 14) (size 15 to 20)
#    0.857    1.143    1.429    1.286    2.000   10.857 
#    5.143    0.000    0.000    0.000    0.000    0.000 
#    0.000    0.000    0.000    0.000    0.000    0.000 
#
# Total GULP energy -78046.987313 kJ/mol
# GULP energy per Si atom -5574.784808 kJ/mol
# Density = 2.251220 g / cm^3
# Si number density = 22.563552 Si / 1000 Ang^3
#
#
#
# Elastic Constant Matrix: (Units=GPa)
#
#
# Indices 1 2 3 4 5 6 
#
# 1 178.3015 35.2565 46.2129 12.0280 10.2438 -4.7527
# 2 35.2565 64.0057 22.7057 12.7112 2.2596 5.3808
# 3 46.2129 22.7057 75.3029 2.0229 7.1761 -3.1910
# 4 12.0280 12.7112 2.0229 43.1412 -2.6615 0.5537
# 5 10.2438 2.2596 7.1761 -2.6615 45.8961 8.6031
# 6 -4.7527 5.3808 -3.1910 0.5537 8.6031 33.0902
#
#
#
# Elastic Compliance Matrix: (Units=1/GPa)
#
#
# Indices 1 2 3 4 5 6 
#
# 1 0.007202 -0.002599 -0.003418 -0.001181 -0.001291 0.001483
# 2 -0.002599 0.019952 -0.004546 -0.004837 0.000813 -0.004186
# 3 -0.003418 -0.004546 0.017009 0.001338 -0.002044 0.002398
# 4 -0.001181 -0.004837 0.001338 0.024982 0.001766 -0.000131
# 5 -0.001291 0.000813 -0.002044 0.001766 0.023716 -0.006710
# 6 0.001483 -0.004186 0.002398 -0.000131 -0.006710 0.033092
#
#
# Mechanical properties :
#
#
# Convention : Reuss Voigt Hill
#
# Bulk Modulus (GPa) = 43.41093 58.44004 50.92548
# Shear Modulus (GPa) = 32.30859 38.65451 35.48155
#
# Velocity S-wave (km/s) = 3.78814 4.14350 3.96980
# Velocity P-wave (km/s) = 6.19794 6.98912 6.60539
#
# Compressibility (1/GPa) = 0.02303567
#
# Stress axis : x y z
#
# Youngs Moduli (GPa) = 138.85571 50.12115 58.79332
#
# Poissons Ratio (x) = 0.13026 0.20098
# Poissons Ratio (y) = 0.36087 0.26727
# Poissons Ratio (z) = 0.47466 0.22785
#
# Static dielectric constant tensor:
#      x y z
#    x 1.829650 0.037750 0.008440 
#    y 0.037750 1.910890 -0.051440 
#    z 0.008440 -0.051440 1.965170 
# 
# From -- ./inp_files/56022.got.cif
#   From: 2010.05.17/outbox.cif.g08.bks.cpg/sg2_29_cif.got.tgz:56022.got - 2010.06.03 11:33:40.
