data_PCOD9014086
_publ_section_title
;
Structure prediction by ZEFSAII (Michael W. Deem and Ramdas Pophale) SiO2 
 PCOD9014086
Probable space group: P -1
;
_chemical_formula_sum "Si O2"
_cell_formula_units_Z 12
_cell_length_a 9.355561
_cell_length_b 18.831329
_cell_length_c 14.719725
_cell_angle_alpha 159.485739
_cell_angle_beta 135.638336
_cell_angle_gamma 45.156256
_cell_volume 628.682018
_symmetry_space_group_name_H-M "P -1"
_symmetry_group_IT_number 2
_symmetry_cell_setting 'triclinic'
loop_
_space_group_symop_operation_xyz
x,y,z
-x,-y,-z
loop_
_atom_site_type_symbol
_atom_site_label
_atom_site_fract_x
_atom_site_fract_y
_atom_site_fract_z
Si Si1 0.953726 0.937884 0.802215
Si Si2 0.526920 0.907376 0.272092
Si Si3 0.734896 0.913797 0.022909
Si Si4 0.589834 0.319204 0.892393
Si Si5 0.984616 0.547798 0.762638
Si Si6 0.148328 0.127181 0.774596
O O1 0.987547 0.692771 0.515675
O O2 0.716500 0.023264 0.772590
O O3 0.000000 0.000000 0.000000
O O4 0.113594 0.017678 0.901228
O O5 0.545615 0.722740 0.132066
O O6 0.611727 0.102693 0.590094
O O7 0.652554 0.856405 0.176271
O O8 0.789153 0.666276 0.760923
O O9 0.500000 0.000000 0.000000
O O10 0.792254 0.980909 0.230991
O O11 0.500000 0.500000 0.000000
O O12 0.810384 0.373607 0.088290
O O13 0.958103 0.648316 0.971668
O O14 0.000000 0.000000 0.500000
#
# Coordination Sequence:
#
# PCOD9014086 Si02
#       6
#     2   2   2   2   2   2
#     4  12  25  43  69  94 129 178 228 274 322 394
#     4  11  21  40  65  96 129 168 216 271 324 389
#     4  10  23  46  65  93 138 174 219 280 324 397
#     4  11  21  39  68  95 130 168 215 271 329 390
#     4  10  23  43  65  97 132 170 223 266 338 393
#     4  10  21  41  66  96 135 170 214 273 336 391
#
# _framework density 19.087551999999999
#
# number of rings (size 3 to 8) (size 9 to 14) (size 15 to 20)
#    1.000    0.333    5.000    1.000    2.333    1.333 
#    3.000    1.667    0.000    0.000    0.000    0.000 
#    0.000    0.000    0.000    0.000    0.000    0.000 
#
# Total GULP energy -66903.688808 kJ/mol
# GULP energy per Si atom -5575.307401 kJ/mol
# Density = 1.904411 g / cm^3
# Si number density = 19.087552 Si / 1000 Ang^3
#
#
#
# Elastic Constant Matrix: (Units=GPa)
#
#
# Indices 1 2 3 4 5 6 
#
# 1 165.5779 45.9123 51.1428 8.4280 3.3033 21.5811
# 2 45.9123 118.9471 41.9066 6.4506 4.5888 5.5922
# 3 51.1428 41.9066 97.4679 10.8654 -9.6287 10.9466
# 4 8.4280 6.4506 10.8654 31.3641 8.6166 -1.7585
# 5 3.3033 4.5888 -9.6287 8.6166 16.9877 -2.6912
# 6 21.5811 5.5922 10.9466 -1.7585 -2.6912 38.1267
#
#
#
# Elastic Compliance Matrix: (Units=1/GPa)
#
#
# Indices 1 2 3 4 5 6 
#
# 1 0.008117 -0.001560 -0.003597 0.000254 -0.003895 -0.003596
# 2 -0.001560 0.010758 -0.004576 0.001421 -0.005874 0.000270
# 3 -0.003597 -0.004576 0.016693 -0.008161 0.015318 -0.001380
# 4 0.000254 0.001421 -0.008161 0.041557 -0.025807 0.002086
# 5 -0.003895 -0.005874 0.015318 -0.025807 0.083517 0.003373
# 6 -0.003596 0.000270 -0.001380 0.002086 0.003373 0.028955
#
#
# Mechanical properties :
#
#
# Convention : Reuss Voigt Hill
#
# Bulk Modulus (GPa) = 62.10836 73.32403 67.71619
# Shear Modulus (GPa) = 23.31762 33.49779 28.40770
#
# Velocity S-wave (km/s) = 3.49895 4.19376 3.86201
# Velocity P-wave (km/s) = 6.99520 7.87072 7.44584
#
# Compressibility (1/GPa) = 0.01610089
#
# Stress axis : x y z
#
# Youngs Moduli (GPa) = 123.20448 92.95130 59.90587
#
# Poissons Ratio (x) = 0.14500 0.21551
# Poissons Ratio (y) = 0.19220 0.27413
# Poissons Ratio (z) = 0.44322 0.42535
#
# Static dielectric constant tensor:
#      x y z
#    x 1.674740 0.001180 0.001360 
#    y 0.001180 1.694150 0.005360 
#    z 0.001360 0.005360 1.649380 
# 
# From -- ./inp_files/258041.got.cif
#   From: 2010.05.17/outbox.cif.g08.bks.cpg/sg2_130_cif.got.tgz:258041.got - 2010.06.03 11:33:40.
