data_PCOD9014921
_publ_section_title
;
Structure prediction by ZEFSAII (Michael W. Deem and Ramdas Pophale) SiO2 
 PCOD9014921
Probable space group: P -1
;
_chemical_formula_sum "Si O2"
_cell_formula_units_Z 16
_cell_length_a 5.452635
_cell_length_b 12.348371
_cell_length_c 21.360666
_cell_angle_alpha 145.410298
_cell_angle_beta 57.417318
_cell_angle_gamma 115.520813
_cell_volume 687.745566
_symmetry_space_group_name_H-M "P -1"
_symmetry_group_IT_number 2
_symmetry_cell_setting 'triclinic'
loop_
_space_group_symop_operation_xyz
x,y,z
-x,-y,-z
loop_
_atom_site_type_symbol
_atom_site_label
_atom_site_fract_x
_atom_site_fract_y
_atom_site_fract_z
Si Si1 0.669799 0.639358 0.999270
Si Si2 0.354930 0.837412 0.584490
Si Si3 0.494854 0.843865 0.002338
Si Si4 0.984067 0.674703 0.440749
Si Si5 0.769392 0.476497 0.197789
Si Si6 0.941106 0.289288 0.205632
Si Si7 0.418371 0.854729 0.387730
Si Si8 0.066020 0.972253 0.813425
O O1 0.825805 0.810492 0.095692
O O2 0.500000 0.500000 0.000000
O O3 0.471028 0.746661 0.026785
O O4 0.898462 0.516293 0.867620
O O5 0.636971 0.712037 0.508692
O O6 0.162216 0.750087 0.512671
O O7 0.493715 0.035889 0.634846
O O8 0.152188 0.880094 0.692285
O O9 0.351653 0.706636 0.906755
O O10 0.827998 0.829338 0.926392
O O11 0.279804 0.026536 0.122456
O O12 0.064832 0.452626 0.311990
O O13 0.093823 0.789919 0.418490
O O14 0.760403 0.423179 0.246230
O O15 0.605468 0.663057 0.284196
O O16 0.791290 0.140783 0.201147
O O17 0.500000 0.000000 0.500000
#
# Coordination Sequence:
#
# PCOD9014921 Si02
#       8
#     2   2   2   2   2   2   2   2
#     4  10  25  41  67  98 141 181 227 290 363 424
#     4  11  27  44  71 107 146 184 239 291 364 426
#     4  10  23  43  68  99 131 182 233 289 354 411
#     4  11  24  46  70 105 141 192 232 297 357 417
#     4  10  22  41  67 100 132 183 231 293 350 414
#     4  11  23  44  71  95 140 181 245 285 351 425
#     4  10  21  41  70 101 135 179 236 292 348 422
#     4  11  27  43  66 103 138 187 230 296 351 428
#
# _framework density 23.264419
#
# number of rings (size 3 to 8) (size 9 to 14) (size 15 to 20)
#    0.000    1.500    1.250    2.250    5.250    9.500 
#    0.000    0.000    0.000    0.000    0.000    0.000 
#    0.000    0.000    0.000    0.000    0.000    0.000 
#
# Total GULP energy -89368.816785 kJ/mol
# GULP energy per Si atom -5585.551049 kJ/mol
# Density = 2.321147 g / cm^3
# Si number density = 23.264419 Si / 1000 Ang^3
#
#
#
# Elastic Constant Matrix: (Units=GPa)
#
#
# Indices 1 2 3 4 5 6 
#
# 1 94.2638 14.7531 41.0226 0.3645 2.8487 -9.8586
# 2 14.7531 116.8092 45.6850 -2.5883 10.6847 -7.4963
# 3 41.0226 45.6850 130.7138 -4.4202 -7.2495 -1.8224
# 4 0.3645 -2.5883 -4.4202 18.5404 -6.9046 13.6408
# 5 2.8487 10.6847 -7.2495 -6.9046 31.8667 4.5806
# 6 -9.8586 -7.4963 -1.8224 13.6408 4.5806 25.1445
#
#
#
# Elastic Compliance Matrix: (Units=1/GPa)
#
#
# Indices 1 2 3 4 5 6 
#
# 1 0.015475 0.002385 -0.006663 -0.019180 -0.010531 0.018619
# 2 0.002385 0.012024 -0.005791 -0.013325 -0.010349 0.013214
# 3 -0.006663 -0.005791 0.012793 0.017807 0.011486 -0.015164
# 4 -0.019180 -0.013325 0.017807 0.157024 0.059526 -0.106231
# 5 -0.010531 -0.010349 0.011486 0.059526 0.058391 -0.049311
# 6 0.018619 0.013214 -0.015164 -0.106231 -0.049311 0.116523
#
#
# Mechanical properties :
#
#
# Convention : Reuss Voigt Hill
#
# Bulk Modulus (GPa) = 49.62073 60.52312 55.07193
# Shear Modulus (GPa) = 12.52860 31.13207 21.83034
#
# Velocity S-wave (km/s) = 2.32314 3.66209 3.06658
# Velocity P-wave (km/s) = 5.34521 6.62970 6.02181
#
# Compressibility (1/GPa) = 0.02015287
#
# Stress axis : x y z
#
# Youngs Moduli (GPa) = 64.62188 83.16619 78.16690
#
# Poissons Ratio (x) = -0.19832 0.52082
# Poissons Ratio (y) = -0.15410 0.45268
# Poissons Ratio (z) = 0.43057 0.48163
#
# Static dielectric constant tensor:
#      x y z
#    x 1.848270 0.011190 -0.035400 
#    y 0.011190 1.865040 0.007080 
#    z -0.035400 0.007080 1.885850 
# 
# From -- ./inp_files/66796.got.cif
#   From: 2010.05.17/outbox.cif.g08.bks.cpg/sg2_34_cif.got.tgz:66796.got - 2010.06.03 11:33:40.
