data_PCOD9014278
_publ_section_title
;
Structure prediction by ZEFSAII (Michael W. Deem and Ramdas Pophale) SiO2 
 PCOD9014278
Probable space group: P -1
;
_chemical_formula_sum "Si O2"
_cell_formula_units_Z 16
_cell_length_a 10.023865
_cell_length_b 8.740633
_cell_length_c 12.086650
_cell_angle_alpha 74.391709
_cell_angle_beta 45.816806
_cell_angle_gamma 76.173248
_cell_volume 729.366634
_symmetry_space_group_name_H-M "P -1"
_symmetry_group_IT_number 2
_symmetry_cell_setting 'triclinic'
loop_
_space_group_symop_operation_xyz
x,y,z
-x,-y,-z
loop_
_atom_site_type_symbol
_atom_site_label
_atom_site_fract_x
_atom_site_fract_y
_atom_site_fract_z
Si Si1 0.097481 0.316024 0.664643
Si Si2 0.763464 0.995027 0.217236
Si Si3 0.968254 0.652051 0.762043
Si Si4 0.139739 0.125506 0.040994
Si Si5 0.411783 0.191248 0.367786
Si Si6 0.563726 0.673384 0.904029
Si Si7 0.183055 0.909014 0.464471
Si Si8 0.742705 0.158284 0.807910
O O1 0.173255 0.163938 0.721896
O O2 0.052581 0.472568 0.732448
O O3 0.270438 0.324593 0.479296
O O4 0.906993 0.273607 0.721475
O O5 0.590110 0.105977 0.342010
O O6 0.725523 0.933397 0.126242
O O7 0.940478 0.098751 0.105868
O O8 0.118247 0.772312 0.609467
O O9 0.887293 0.702395 0.919823
O O10 0.785619 0.674976 0.785371
O O11 0.184450 0.006797 0.142109
O O12 0.491696 0.267625 0.196944
O O13 0.289966 0.043879 0.436457
O O14 0.500000 0.500000 0.000000
O O15 0.451607 0.787227 0.033263
O O16 0.285281 0.845896 0.306213
O O17 0.000000 0.000000 0.500000
#
# Coordination Sequence:
#
# PCOD9014278 Si02
#       8
#     2   2   2   2   2   2   2   2
#     4  11  24  42  64  90 134 172 208 264 322 372
#     4  10  23  43  68  91 119 175 225 262 305 374
#     4  12  25  42  64  99 132 168 208 266 329 375
#     4  10  21  41  67  92 125 168 220 265 311 375
#     4  12  24  44  68  96 127 170 220 257 313 390
#     4  12  25  38  66 102 133 163 208 267 325 385
#     4  12  22  40  66  96 129 170 209 257 320 386
#     4  11  21  40  63  95 130 168 213 258 320 382
#
# _framework density 21.936841000000001
#
# number of rings (size 3 to 8) (size 9 to 14) (size 15 to 20)
#    0.000    0.750    6.250    1.125    3.500    2.500 
#    0.000    2.500    0.000    0.000    0.000    0.000 
#    0.000    0.000    0.000    0.000    0.000    0.000 
#
# Total GULP energy -89390.914052 kJ/mol
# GULP energy per Si atom -5586.932128 kJ/mol
# Density = 2.188691 g / cm^3
# Si number density = 21.936841 Si / 1000 Ang^3
#
#
#
# Elastic Constant Matrix: (Units=GPa)
#
#
# Indices 1 2 3 4 5 6 
#
# 1 49.8147 13.3147 -4.6163 2.9907 -7.2529 -4.2993
# 2 13.3147 93.3972 13.0324 23.3524 -6.6560 3.6990
# 3 -4.6163 13.0324 73.3609 19.0134 4.5596 -6.5689
# 4 2.9907 23.3524 19.0134 42.7816 1.0754 -2.6622
# 5 -7.2529 -6.6560 4.5596 1.0754 37.2508 8.6068
# 6 -4.2993 3.6990 -6.5689 -2.6622 8.6068 24.1808
#
#
#
# Elastic Compliance Matrix: (Units=1/GPa)
#
#
# Indices 1 2 3 4 5 6 
#
# 1 0.021916 -0.003291 0.002326 -0.000577 0.002466 0.004091
# 2 -0.003291 0.013541 -0.001478 -0.006899 0.003313 -0.004997
# 3 0.002326 -0.001478 0.016309 -0.006195 -0.002879 0.005413
# 4 -0.000577 -0.006899 -0.006195 0.030201 -0.002243 0.003393
# 5 0.002466 0.003313 -0.002879 -0.002243 0.031150 -0.012185
# 6 0.004091 -0.004997 0.005413 0.003393 -0.012185 0.049028
#
#
# Mechanical properties :
#
#
# Convention : Reuss Voigt Hill
#
# Bulk Modulus (GPa) = 21.33027 28.89270 25.11148
# Shear Modulus (GPa) = 27.37341 33.83211 30.60276
#
# Velocity S-wave (km/s) = 3.53629 3.93141 3.73907
# Velocity P-wave (km/s) = 5.13989 5.81442 5.48753
#
# Compressibility (1/GPa) = 0.04688173
#
# Stress axis : x y z
#
# Youngs Moduli (GPa) = 45.62799 73.84779 61.31410
#
# Poissons Ratio (x) = 0.24304 -0.14264
# Poissons Ratio (y) = 0.15016 0.09063
# Poissons Ratio (z) = -0.10615 0.10915
#
# Static dielectric constant tensor:
#      x y z
#    x 1.796050 0.016860 0.024880 
#    y 0.016860 1.809330 0.040010 
#    z 0.024880 0.040010 1.905490 
# 
# From -- ./inp_files/205934.got.cif
#   From: 2010.05.17/outbox.cif.g08.bks.cpg/sg2_103_cif.got.tgz:205934.got - 2010.06.03 11:33:40.
