data_PCOD9014332
_publ_section_title
;
Structure prediction by ZEFSAII (Michael W. Deem and Ramdas Pophale) SiO2 
 PCOD9014332
Probable space group: P -1
;
_chemical_formula_sum "Si O2"
_cell_formula_units_Z 16
_cell_length_a 5.057509
_cell_length_b 30.529897
_cell_length_c 18.837028
_cell_angle_alpha 18.943546
_cell_angle_beta 97.436312
_cell_angle_gamma 106.290374
_cell_volume 815.586986
_symmetry_space_group_name_H-M "P -1"
_symmetry_group_IT_number 2
_symmetry_cell_setting 'triclinic'
loop_
_space_group_symop_operation_xyz
x,y,z
-x,-y,-z
loop_
_atom_site_type_symbol
_atom_site_label
_atom_site_fract_x
_atom_site_fract_y
_atom_site_fract_z
Si Si1 0.778299 0.260580 0.556444
Si Si2 0.171899 0.013996 0.059693
Si Si3 0.353978 0.802322 0.598196
Si Si4 0.453464 0.845319 0.699035
Si Si5 0.181112 0.180923 0.518020
Si Si6 0.729953 0.517904 0.872874
Si Si7 0.244064 0.351015 0.984722
Si Si8 0.395009 0.331643 0.540693
O O1 0.654677 0.083426 0.800981
O O2 0.528607 0.291414 0.536392
O O3 0.954156 0.371517 0.326989
O O4 0.056792 0.304970 0.553858
O O5 0.958167 0.924016 0.256359
O O6 0.364287 0.197802 0.797756
O O7 0.000000 0.000000 0.000000
O O8 0.479377 0.864571 0.585340
O O9 0.597099 0.860445 0.454259
O O10 0.086937 0.838166 0.514654
O O11 0.242403 0.618849 0.878804
O O12 0.687418 0.786965 0.820983
O O13 0.106374 0.711982 0.909962
O O14 0.500000 0.000000 0.500000
O O15 0.328515 0.361608 0.268986
O O16 0.460593 0.430011 0.940185
O O17 0.373171 0.486343 0.722545
#
# Coordination Sequence:
#
# PCOD9014332 Si02
#       8
#     2   2   2   2   2   2   2   2
#     4   9  18  28  46  71 102 146 186 212 246 292
#     4   9  20  34  50  73 108 154 193 220 252 299
#     4  11  22  36  52  78 109 144 184 223 268 325
#     4  11  23  41  61  82 107 137 177 232 285 333
#     4  11  23  34  51  80 115 153 183 211 259 317
#     4   9  19  33  51  76 116 152 175 208 254 324
#     4  10  20  34  57  87 108 138 183 221 270 328
#     4  10  17  30  48  73 105 134 175 229 254 292
#
# _framework density 19.617771999999999
#
# number of rings (size 3 to 8) (size 9 to 14) (size 15 to 20)
#    0.000    2.000    0.000    6.000    0.000   13.000 
#    0.000    0.000    0.000    0.000    0.000    5.250 
#    0.000    0.000    0.000    0.000    0.000    0.000 
#
# Total GULP energy -89343.840932 kJ/mol
# GULP energy per Si atom -5583.990058 kJ/mol
# Density = 1.957312 g / cm^3
# Si number density = 19.617772 Si / 1000 Ang^3
#
#
#
# Elastic Constant Matrix: (Units=GPa)
#
#
# Indices 1 2 3 4 5 6 
#
# 1 44.0651 -5.2781 -7.4108 -0.3619 0.6815 -3.0932
# 2 -5.2781 54.0473 23.9319 -5.0720 1.3613 -15.9487
# 3 -7.4108 23.9319 93.6051 12.2650 3.4552 -5.0060
# 4 -0.3619 -5.0720 12.2650 22.6611 -4.4807 6.6224
# 5 0.6815 1.3613 3.4552 -4.4807 24.2215 -0.8716
# 6 -3.0932 -15.9487 -5.0060 6.6224 -0.8716 22.2425
#
#
#
# Elastic Compliance Matrix: (Units=1/GPa)
#
#
# Indices 1 2 3 4 5 6 
#
# 1 0.023854 0.003402 0.001677 -0.001956 -0.001223 0.006669
# 2 0.003402 0.027148 -0.006408 0.004754 0.000788 0.017112
# 3 0.001677 -0.006408 0.014007 -0.010173 -0.003507 0.001682
# 4 -0.001956 0.004754 -0.010173 0.057533 0.011312 -0.015839
# 5 -0.001223 0.000788 -0.003507 0.011312 0.043795 -0.002046
# 6 0.006669 0.017112 0.001682 -0.015839 -0.002046 0.063171
#
#
# Mechanical properties :
#
#
# Convention : Reuss Voigt Hill
#
# Bulk Modulus (GPa) = 16.03846 23.80039 19.91943
# Shear Modulus (GPa) = 19.76673 25.85665 22.81169
#
# Velocity S-wave (km/s) = 3.17770 3.63440 3.41370
# Velocity P-wave (km/s) = 4.65370 5.45620 5.07085
#
# Compressibility (1/GPa) = 0.06235011
#
# Stress axis : x y z
#
# Youngs Moduli (GPa) = 41.92140 36.83498 71.39404
#
# Poissons Ratio (x) = -0.12532 -0.11971
# Poissons Ratio (y) = -0.14262 0.45752
# Poissons Ratio (z) = -0.07029 0.23605
#
# Static dielectric constant tensor:
#      x y z
#    x 1.714630 0.011810 -0.003670 
#    y 0.011810 1.676490 -0.002020 
#    z -0.003670 -0.002020 1.777100 
# 
# From -- ./inp_files/84698.got.cif
#   From: 2010.05.17/outbox.cif.g08.bks.cpg/sg2_43_cif.got.tgz:84698.got - 2010.06.03 11:33:40.
