data_PCOD9014138
_publ_section_title
;
Structure prediction by ZEFSAII (Michael W. Deem and Ramdas Pophale) SiO2 
 PCOD9014138
Probable space group: P -1
;
_chemical_formula_sum "Si O2"
_cell_formula_units_Z 14
_cell_length_a 12.021938
_cell_length_b 11.286183
_cell_length_c 14.145067
_cell_angle_alpha 41.152039
_cell_angle_beta 109.066737
_cell_angle_gamma 140.452319
_cell_volume 639.640668
_symmetry_space_group_name_H-M "P -1"
_symmetry_group_IT_number 2
_symmetry_cell_setting 'triclinic'
loop_
_space_group_symop_operation_xyz
x,y,z
-x,-y,-z
loop_
_atom_site_type_symbol
_atom_site_label
_atom_site_fract_x
_atom_site_fract_y
_atom_site_fract_z
Si Si1 0.329028 0.223110 0.311210
Si Si2 0.851600 0.159225 0.215422
Si Si3 0.565766 0.878505 0.153880
Si Si4 0.450881 0.699924 0.507682
Si Si5 0.530420 0.861922 0.952369
Si Si6 0.136771 0.228753 0.520190
Si Si7 0.737862 0.170846 0.619351
O O1 0.491232 0.370007 0.352711
O O2 0.343547 0.096479 0.308096
O O3 0.391272 0.501006 0.123754
O O4 0.073413 0.913490 0.455470
O O5 0.685996 0.894180 0.243850
O O6 0.691023 0.035227 0.324289
O O7 0.935518 0.073700 0.323624
O O8 0.000000 0.500000 0.000000
O O9 0.309239 0.498328 0.322621
O O10 0.588608 0.106474 0.069339
O O11 0.664517 0.006387 0.000283
O O12 0.277007 0.438756 0.530422
O O13 0.356526 0.763012 0.486084
O O14 0.652466 0.047510 0.777300
O O15 0.000000 0.500000 0.500000
#
# Coordination Sequence:
#
# PCOD9014138 Si02
#       7
#     2   2   2   2   2   2   2
#     4  12  25  42  71 100 136 180 229 270 333 400
#     4  11  22  38  65 103 140 171 221 283 336 400
#     4  10  21  41  66  98 140 172 222 279 339 400
#     4  11  24  46  66  99 135 178 227 274 335 399
#     4  11  22  40  69 100 129 175 225 282 330 392
#     4  11  22  42  69  99 138 179 214 279 344 398
#     4  12  24  48  69  93 139 185 226 275 333 398
#
# _framework density 21.887291000000001
#
# number of rings (size 3 to 8) (size 9 to 14) (size 15 to 20)
#    0.000    0.857    4.286    5.143    0.000    5.714 
#    0.000    0.714    0.000    0.000    0.000    0.000 
#    0.000    0.000    0.000    0.000    0.000    0.000 
#
# Total GULP energy -78117.997202 kJ/mol
# GULP energy per Si atom -5579.856943 kJ/mol
# Density = 2.183747 g / cm^3
# Si number density = 21.887291 Si / 1000 Ang^3
#
#
#
# Elastic Constant Matrix: (Units=GPa)
#
#
# Indices 1 2 3 4 5 6 
#
# 1 127.2526 42.4154 31.1107 -11.1239 16.9747 4.9664
# 2 42.4154 103.5184 22.6724 10.0255 -5.0555 1.4082
# 3 31.1107 22.6724 95.9868 -3.5644 13.5430 2.3093
# 4 -11.1239 10.0255 -3.5644 28.8990 -4.4696 5.6636
# 5 16.9747 -5.0555 13.5430 -4.4696 36.1324 -0.3913
# 6 4.9664 1.4082 2.3093 5.6636 -0.3913 42.3464
#
#
#
# Elastic Compliance Matrix: (Units=1/GPa)
#
#
# Indices 1 2 3 4 5 6 
#
# 1 0.011030 -0.004913 -0.001514 0.005399 -0.004653 -0.001813
# 2 -0.004913 0.012981 -0.002331 -0.006251 0.004237 0.001147
# 3 -0.001514 -0.002331 0.012083 0.001216 -0.004000 -0.000603
# 4 0.005399 -0.006251 0.001216 0.040315 0.001057 -0.005874
# 5 -0.004653 0.004237 -0.004000 0.001057 0.032093 0.000778
# 6 -0.001813 0.001147 -0.000603 -0.005874 0.000778 0.024615
#
#
# Mechanical properties :
#
#
# Convention : Reuss Voigt Hill
#
# Bulk Modulus (GPa) = 53.82872 57.68386 55.75629
# Shear Modulus (GPa) = 31.88269 36.84617 34.36443
#
# Velocity S-wave (km/s) = 3.82078 4.10744 3.96670
# Velocity P-wave (km/s) = 6.64165 6.99335 6.81977
#
# Compressibility (1/GPa) = 0.01857744
#
# Stress axis : x y z
#
# Youngs Moduli (GPa) = 90.66591 77.03831 82.75813
#
# Poissons Ratio (x) = 0.37850 0.12527
# Poissons Ratio (y) = 0.44545 0.19293
# Poissons Ratio (z) = 0.13724 0.17959
#
# Static dielectric constant tensor:
#      x y z
#    x 1.801200 0.006360 0.025940 
#    y 0.006360 1.952920 -0.044450 
#    z 0.025940 -0.044450 1.817860 
# 
# From -- ./inp_files/259516.got.cif
#   From: 2010.05.17/outbox.cif.g08.bks.cpg/sg2_130_cif.got.tgz:259516.got - 2010.06.03 11:33:40.
