data_PCOD9014336
_publ_section_title
;
Structure prediction by ZEFSAII (Michael W. Deem and Ramdas Pophale) SiO2 
 PCOD9014336
Probable space group: P -1
;
_chemical_formula_sum "Si O2"
_cell_formula_units_Z 16
_cell_length_a 14.684157
_cell_length_b 8.691694
_cell_length_c 14.652802
_cell_angle_alpha 29.422388
_cell_angle_beta 131.922120
_cell_angle_gamma 130.396152
_cell_volume 672.280729
_symmetry_space_group_name_H-M "P -1"
_symmetry_group_IT_number 2
_symmetry_cell_setting 'triclinic'
loop_
_space_group_symop_operation_xyz
x,y,z
-x,-y,-z
loop_
_atom_site_type_symbol
_atom_site_label
_atom_site_fract_x
_atom_site_fract_y
_atom_site_fract_z
Si Si1 0.267877 0.698361 0.460267
Si Si2 0.283093 0.400022 0.439836
Si Si3 0.078986 0.284607 0.223769
Si Si4 0.993358 0.448048 0.415190
Si Si5 0.342553 0.734983 0.850599
Si Si6 0.293312 0.373779 0.173045
Si Si7 0.597855 0.145392 0.859226
Si Si8 0.739668 0.627712 0.181026
O O1 0.309117 0.483871 0.519518
O O2 0.277674 0.576360 0.632519
O O3 0.120854 0.655017 0.358131
O O4 0.333620 0.064439 0.315763
O O5 0.152963 0.439138 0.283428
O O6 0.386677 0.633679 0.332927
O O7 0.290140 0.032603 0.620931
O O8 0.185758 0.245397 0.240894
O O9 0.012102 0.934866 0.395877
O O10 0.000000 0.500000 0.000000
O O11 0.868904 0.585902 0.240188
O O12 0.000000 0.500000 0.500000
O O13 0.354320 0.498670 0.897800
O O14 0.474859 0.884827 0.905274
O O15 0.257360 0.570482 0.961210
O O16 0.391480 0.618066 0.170728
O O17 0.716296 0.966292 0.025896
#
# Coordination Sequence:
#
# PCOD9014336 Si02
#       8
#     2   2   2   2   2   2   2   2
#     4  11  24  42  68  98 138 177 215 268 330 399
#     4  11  25  43  66  99 133 172 224 272 329 396
#     4  11  24  43  69  99 135 175 216 270 332 397
#     4  10  21  41  67  94 136 172 210 260 338 384
#     4  12  24  45  68  96 132 174 227 279 331 387
#     4  11  24  43  64 100 134 172 225 272 323 397
#     4  11  25  44  69  95 130 178 222 282 334 381
#     4  11  22  44  69  96 134 174 219 276 327 391
#
# _framework density 23.799581
#
# number of rings (size 3 to 8) (size 9 to 14) (size 15 to 20)
#    0.000    1.000    3.750    3.375    8.750    1.500 
#    0.000    3.750    0.000    0.000    0.000    0.000 
#    0.000    0.000    0.000    0.000    0.000    0.000 
#
# Total GULP energy -89279.847063 kJ/mol
# GULP energy per Si atom -5579.990441 kJ/mol
# Density = 2.374541 g / cm^3
# Si number density = 23.799581 Si / 1000 Ang^3
#
#
#
# Elastic Constant Matrix: (Units=GPa)
#
#
# Indices 1 2 3 4 5 6 
#
# 1 33.9041 22.9669 9.8075 9.8851 -15.3936 -16.2944
# 2 22.9669 113.1135 2.2938 -11.1873 2.7404 -14.4053
# 3 9.8075 2.2938 72.0829 -5.2021 5.3018 8.8630
# 4 9.8851 -11.1873 -5.2021 29.6385 -0.4646 -0.0680
# 5 -15.3936 2.7404 5.3018 -0.4646 35.5570 8.0250
# 6 -16.2944 -14.4053 8.8630 -0.0680 8.0250 25.1286
#
#
#
# Elastic Compliance Matrix: (Units=1/GPa)
#
#
# Indices 1 2 3 4 5 6 
#
# 1 0.112771 -0.020842 -0.028407 -0.049690 0.040926 0.057992
# 2 -0.020842 0.013985 0.004520 0.012862 -0.009714 -0.003955
# 3 -0.028407 0.004520 0.021941 0.014810 -0.011223 -0.019943
# 4 -0.049690 0.012862 0.014810 0.057421 -0.018546 -0.023993
# 5 0.040926 -0.009714 -0.011223 -0.018546 0.045701 0.010283
# 6 0.057992 -0.003955 -0.019943 -0.023993 0.010283 0.078818
#
#
# Mechanical properties :
#
#
# Convention : Reuss Voigt Hill
#
# Bulk Modulus (GPa) = 16.88108 32.13743 24.50926
# Shear Modulus (GPa) = 11.36779 30.33364 20.85072
#
# Velocity S-wave (km/s) = 2.18788 3.57395 2.96310
# Velocity P-wave (km/s) = 3.67299 5.52843 4.69331
#
# Compressibility (1/GPa) = 0.05923790
#
# Stress axis : x y z
#
# Youngs Moduli (GPa) = 8.86754 71.50753 45.57778
#
# Poissons Ratio (x) = 1.49034 1.29472
# Poissons Ratio (y) = 0.18482 -0.20600
# Poissons Ratio (z) = 0.25190 -0.32319
#
# Static dielectric constant tensor:
#      x y z
#    x 1.962950 0.091550 0.086120 
#    y 0.091550 1.944120 0.003390 
#    z 0.086120 0.003390 2.017940 
# 
# From -- ./inp_files/326623.got.cif
#   From: 2010.05.17/outbox.cif.g08.bks.cpg/sg2_164_cif.got.tgz:326623.got - 2010.06.03 11:33:40.
