data_PCOD9014728
_publ_section_title
;
Structure prediction by ZEFSAII (Michael W. Deem and Ramdas Pophale) SiO2 
 PCOD9014728
Probable space group: P -1
;
_chemical_formula_sum "Si O2"
_cell_formula_units_Z 14
_cell_length_a 13.577582
_cell_length_b 13.079115
_cell_length_c 6.192271
_cell_angle_alpha 91.140341
_cell_angle_beta 98.098449
_cell_angle_gamma 149.360631
_cell_volume 532.684158
_symmetry_space_group_name_H-M "P -1"
_symmetry_group_IT_number 2
_symmetry_cell_setting 'triclinic'
loop_
_space_group_symop_operation_xyz
x,y,z
-x,-y,-z
loop_
_atom_site_type_symbol
_atom_site_label
_atom_site_fract_x
_atom_site_fract_y
_atom_site_fract_z
Si Si1 0.436237 0.020629 0.174606
Si Si2 0.088816 0.296511 0.603277
Si Si3 0.819498 0.345418 0.613732
Si Si4 0.600618 0.494721 0.660885
Si Si5 0.173098 0.181834 0.895284
Si Si6 0.206538 0.981219 0.844679
Si Si7 0.179089 0.462398 0.074326
O O1 0.252961 0.812089 0.258431
O O2 0.367828 0.061463 0.031875
O O3 0.622910 0.197597 0.403448
O O4 0.500000 0.000000 0.000000
O O5 0.261683 0.428257 0.487662
O O6 0.074678 0.170841 0.695898
O O7 0.878303 0.137128 0.414886
O O8 0.159763 0.440324 0.810376
O O9 0.865339 0.475510 0.806456
O O10 0.000000 0.500000 0.500000
O O11 0.500000 0.500000 0.500000
O O12 0.599290 0.380926 0.776385
O O13 0.664288 0.614286 0.900821
O O14 0.240828 0.132752 0.827341
O O15 0.000000 0.000000 0.000000
O O16 0.000916 0.778124 0.919317
#
# Coordination Sequence:
#
# PCOD9014728 Si02
#       7
#     2   2   2   2   2   2   2
#     4  11  28  51  77 120 148 191 264 317 383 457
#     4  10  21  41  69 100 146 191 242 296 376 453
#     4  11  27  55  82 107 153 202 251 322 387 453
#     4  10  23  39  61  99 143 186 242 296 366 449
#     4  11  20  40  64 105 139 189 242 293 365 450
#     4  11  23  41  71 105 145 192 244 311 378 447
#     4  10  23  42  71 103 137 196 247 302 384 445
#
# _framework density 26.281993
#
# number of rings (size 3 to 8) (size 9 to 14) (size 15 to 20)
#    0.000    1.429    4.286    1.286    2.000   11.429 
#    2.571    0.714    0.000    0.000    0.000    0.000 
#    0.000    0.000    0.000    0.000    0.000    0.000 
#
# Total GULP energy -78093.680756 kJ/mol
# GULP energy per Si atom -5578.120054 kJ/mol
# Density = 2.622217 g / cm^3
# Si number density = 26.281993 Si / 1000 Ang^3
#
#
#
# Elastic Constant Matrix: (Units=GPa)
#
#
# Indices 1 2 3 4 5 6 
#
# 1 130.4094 39.8576 77.2182 1.7300 3.7226 -0.0883
# 2 39.8576 89.0988 36.8803 -17.5690 -5.6366 -7.8365
# 3 77.2182 36.8803 194.2610 2.4751 2.1878 0.0354
# 4 1.7300 -17.5690 2.4751 41.1436 -3.5367 3.3990
# 5 3.7226 -5.6366 2.1878 -3.5367 78.8045 -12.8945
# 6 -0.0883 -7.8365 0.0354 3.3990 -12.8945 46.6957
#
#
#
# Elastic Compliance Matrix: (Units=1/GPa)
#
#
# Indices 1 2 3 4 5 6 
#
# 1 0.011071 -0.003968 -0.003612 -0.001959 -0.000918 -0.000753
# 2 -0.003968 0.015282 -0.001433 0.006738 0.002054 0.002635
# 3 -0.003612 -0.001433 0.006869 -0.000871 -0.000202 -0.000245
# 4 -0.001959 0.006738 -0.000871 0.027501 0.001770 -0.000385
# 5 -0.000918 0.002054 -0.000202 0.001770 0.013615 0.003974
# 6 -0.000753 0.002635 -0.000245 -0.000385 0.003974 0.022982
#
#
# Mechanical properties :
#
#
# Convention : Reuss Voigt Hill
#
# Bulk Modulus (GPa) = 65.80986 80.18681 72.99834
# Shear Modulus (GPa) = 41.52371 50.64962 46.08666
#
# Velocity S-wave (km/s) = 3.97915 4.39471 4.19208
# Velocity P-wave (km/s) = 6.79748 7.50518 7.16008
#
# Compressibility (1/GPa) = 0.01519529
#
# Stress axis : x y z
#
# Youngs Moduli (GPa) = 90.32234 65.43530 145.58083
#
# Poissons Ratio (x) = 0.25967 0.52585
# Poissons Ratio (y) = 0.35842 0.20868
# Poissons Ratio (z) = 0.32625 0.09380
#
# Static dielectric constant tensor:
#      x y z
#    x 2.154350 0.028360 0.055740 
#    y 0.028360 2.248370 -0.037810 
#    z 0.055740 -0.037810 2.036340 
# 
# From -- ./inp_files/98320.got.cif
#   From: 2010.05.17/outbox.cif.g08.bks.cpg/sg2_50_cif.got.tgz:98320.got - 2010.06.03 11:33:40.
