data_PCOD9014698
_publ_section_title
;
Structure prediction by ZEFSAII (Michael W. Deem and Ramdas Pophale) SiO2 
 PCOD9014698
Probable space group: P -1
;
_chemical_formula_sum "Si O2"
_cell_formula_units_Z 16
_cell_length_a 12.495240
_cell_length_b 9.072338
_cell_length_c 19.048375
_cell_angle_alpha 98.649712
_cell_angle_beta 129.450384
_cell_angle_gamma 38.891181
_cell_volume 737.287871
_symmetry_space_group_name_H-M "P -1"
_symmetry_group_IT_number 2
_symmetry_cell_setting 'triclinic'
loop_
_space_group_symop_operation_xyz
x,y,z
-x,-y,-z
loop_
_atom_site_type_symbol
_atom_site_label
_atom_site_fract_x
_atom_site_fract_y
_atom_site_fract_z
Si Si1 0.052640 0.325974 0.212030
Si Si2 0.238698 0.329024 0.528156
Si Si3 0.030813 0.996183 0.192247
Si Si4 0.890115 0.012492 0.284659
Si Si5 0.200617 0.244550 0.743117
Si Si6 0.271683 0.650555 0.551756
Si Si7 0.703208 0.224973 0.932528
Si Si8 0.218469 0.184002 0.111993
O O1 0.047216 0.324819 0.125017
O O2 0.814358 0.652830 0.181981
O O3 0.399867 0.060350 0.345723
O O4 0.018211 0.187496 0.213333
O O5 0.243038 0.504326 0.548031
O O6 0.000000 0.500000 0.500000
O O7 0.112364 0.413746 0.404463
O O8 0.394174 0.619070 0.300893
O O9 0.977454 0.953170 0.236502
O O10 0.783937 0.188893 0.043909
O O11 0.604322 0.403053 0.200431
O O12 0.780035 0.949997 0.248625
O O13 0.183438 0.754796 0.440095
O O14 0.456249 0.044135 0.777673
O O15 0.000000 0.000000 0.500000
O O16 0.707968 0.045080 0.908589
O O17 0.000000 0.000000 0.000000
O O18 0.000000 0.500000 0.000000
#
# Coordination Sequence:
#
# PCOD9014698 Si02
#       8
#     2   2   2   2   2   2   2   2
#     4  11  24  44  70  99 133 179 222 274 338 399
#     4  10  21  41  68  99 133 173 220 271 339 398
#     4  11  24  44  66  97 134 177 225 272 335 398
#     4  11  25  43  68 103 133 175 223 276 338 397
#     4  11  25  44  68 102 138 171 223 281 333 402
#     4  10  23  40  67  98 132 172 221 275 332 397
#     4  12  24  45  70  95 136 176 225 276 332 400
#     4  12  27  45  69  98 135 178 227 275 332 396
#
# _framework density 21.701156999999998
#
# number of rings (size 3 to 8) (size 9 to 14) (size 15 to 20)
#    0.000    1.000    2.500    3.375    3.500    3.500 
#    0.000    0.000    0.000    0.000    0.000    0.000 
#    0.000    0.000    0.000    0.000    0.000    0.000 
#
# Total GULP energy -89307.565531 kJ/mol
# GULP energy per Si atom -5581.722846 kJ/mol
# Density = 2.165176 g / cm^3
# Si number density = 21.701157 Si / 1000 Ang^3
#
#
#
# Elastic Constant Matrix: (Units=GPa)
#
#
# Indices 1 2 3 4 5 6 
#
# 1 106.3770 0.2999 10.8143 12.7815 -11.4926 -0.2401
# 2 0.2999 70.5723 -0.5476 -0.5431 -12.9542 4.2410
# 3 10.8143 -0.5476 60.6581 -0.7303 -16.6280 15.0984
# 4 12.7815 -0.5431 -0.7303 31.3394 -0.6672 -7.6815
# 5 -11.4926 -12.9542 -16.6280 -0.6672 16.0660 -1.8828
# 6 -0.2401 4.2410 15.0984 -7.6815 -1.8828 29.5912
#
#
#
# Elastic Compliance Matrix: (Units=1/GPa)
#
#
# Indices 1 2 3 4 5 6 
#
# 1 0.010912 0.001860 0.001104 -0.004487 0.010114 -0.001262
# 2 0.001860 0.018926 0.007722 -0.001063 0.023907 -0.005392
# 3 0.001104 0.007722 0.029888 -0.002450 0.036127 -0.014685
# 4 -0.004487 -0.001063 -0.002450 0.036156 -0.003870 0.010506
# 5 0.010114 0.023907 0.036127 -0.003870 0.124241 -0.014877
# 6 -0.001262 -0.005392 -0.014685 0.010506 -0.014877 0.043830
#
#
# Mechanical properties :
#
#
# Convention : Reuss Voigt Hill
#
# Bulk Modulus (GPa) = 12.33068 28.74897 20.53982
# Shear Modulus (GPa) = 18.54519 30.53539 24.54029
#
# Velocity S-wave (km/s) = 2.92648 3.75518 3.36643
# Velocity P-wave (km/s) = 4.13683 5.66377 4.95942
#
# Compressibility (1/GPa) = 0.08109851
#
# Stress axis : x y z
#
# Youngs Moduli (GPa) = 91.64280 52.83698 33.45860
#
# Poissons Ratio (x) = -0.09828 -0.03694
# Poissons Ratio (y) = -0.17046 -0.25838
# Poissons Ratio (z) = -0.10118 -0.40802
#
# Static dielectric constant tensor:
#      x y z
#    x 1.828720 0.079650 -0.047940 
#    y 0.079650 2.120620 -0.069780 
#    z -0.047940 -0.069780 1.891710 
# 
# From -- ./inp_files/282669.got.cif
#   From: 2010.05.17/outbox.cif.g08.bks.cpg/sg2_142_cif.got.tgz:282669.got - 2010.06.03 11:33:40.
