data_PCOD9014751
_publ_section_title
;
Structure prediction by ZEFSAII (Michael W. Deem and Ramdas Pophale) SiO2 
 PCOD9014751
Probable space group: P -1
;
_chemical_formula_sum "Si O2"
_cell_formula_units_Z 14
_cell_length_a 12.880445
_cell_length_b 19.301829
_cell_length_c 8.787882
_cell_angle_alpha 34.858765
_cell_angle_beta 146.986485
_cell_angle_gamma 151.165344
_cell_volume 542.484236
_symmetry_space_group_name_H-M "P -1"
_symmetry_group_IT_number 2
_symmetry_cell_setting 'triclinic'
loop_
_space_group_symop_operation_xyz
x,y,z
-x,-y,-z
loop_
_atom_site_type_symbol
_atom_site_label
_atom_site_fract_x
_atom_site_fract_y
_atom_site_fract_z
Si Si1 0.078141 0.754743 0.202742
Si Si2 0.859317 0.574538 0.796368
Si Si3 0.747923 0.035276 0.686657
Si Si4 0.711479 0.785943 0.568492
Si Si5 0.629881 0.749162 0.202055
Si Si6 0.589386 0.949671 0.335189
Si Si7 0.178908 0.522239 0.414762
O O1 0.342410 0.822780 0.348467
O O2 0.936786 0.582603 0.392923
O O3 0.077538 0.837483 0.206765
O O4 0.931992 0.779822 0.859062
O O5 0.758302 0.669541 0.518110
O O6 0.646170 0.396259 0.898651
O O7 0.901524 0.570566 0.675811
O O8 0.084328 0.622260 0.088937
O O9 0.759210 0.067402 0.463901
O O10 0.500000 0.000000 0.500000
O O11 0.725911 0.881859 0.959505
O O12 0.669848 0.826141 0.277675
O O13 0.722242 0.891295 0.520614
O O14 0.462963 0.621339 0.590913
O O15 0.500000 0.000000 0.000000
#
# Coordination Sequence:
#
# PCOD9014751 Si02
#       7
#     2   2   2   2   2   2   2
#     4  11  25  46  68 101 141 184 229 288 340 412
#     4   9  20  39  70 100 135 182 230 287 338 412
#     4  10  22  43  71  96 134 181 228 281 342 415
#     4  11  25  43  66 104 140 182 231 285 342 409
#     4  10  21  41  69 103 135 182 235 280 344 413
#     4  11  26  45  70 103 137 180 227 286 355 411
#     4  10  22  43  67 101 139 182 232 279 351 408
#
# _framework density 25.807200999999999
#
# number of rings (size 3 to 8) (size 9 to 14) (size 15 to 20)
#    0.000    1.714    0.000    3.857    4.000    5.714 
#    5.143    0.000    0.000    0.000    0.000    0.000 
#    0.000    0.000    0.000    0.000    0.000    0.000 
#
# Total GULP energy -78428.509893 kJ/mol
# GULP energy per Si atom -5602.036421 kJ/mol
# Density = 2.574846 g / cm^3
# Si number density = 25.807201 Si / 1000 Ang^3
#
#
#
# Elastic Constant Matrix: (Units=GPa)
#
#
# Indices 1 2 3 4 5 6 
#
# 1 79.9519 17.9137 9.3244 -1.7644 0.6773 -14.7727
# 2 17.9137 67.8724 17.7720 6.0042 -6.5137 4.9679
# 3 9.3244 17.7720 89.4506 1.0873 -0.2769 -6.8776
# 4 -1.7644 6.0042 1.0873 37.0624 5.8230 -6.6097
# 5 0.6773 -6.5137 -0.2769 5.8230 54.6372 -0.0484
# 6 -14.7727 4.9679 -6.8776 -6.6097 -0.0484 53.1887
#
#
#
# Elastic Compliance Matrix: (Units=1/GPa)
#
#
# Indices 1 2 3 4 5 6 
#
# 1 0.014450 -0.004378 -0.000309 0.002390 -0.000953 0.004679
# 2 -0.004378 0.017630 -0.003280 -0.004047 0.002567 -0.003787
# 3 -0.000309 -0.003280 0.011997 0.000553 -0.000384 0.001840
# 4 0.002390 -0.004047 0.000553 0.029146 -0.003611 0.004732
# 5 -0.000953 0.002567 -0.000384 -0.003611 0.019003 -0.000986
# 6 0.004679 -0.003787 0.001840 0.004732 -0.000986 0.021279
#
#
# Mechanical properties :
#
#
# Convention : Reuss Voigt Hill
#
# Bulk Modulus (GPa) = 35.53448 36.36612 35.95030
# Shear Modulus (GPa) = 36.01802 41.79530 38.90666
#
# Velocity S-wave (km/s) = 3.73990 4.02869 3.88698
# Velocity P-wave (km/s) = 5.69634 5.98018 5.83998
#
# Compressibility (1/GPa) = 0.02814168
#
# Stress axis : x y z
#
# Youngs Moduli (GPa) = 69.20518 56.72258 83.35520
#
# Poissons Ratio (x) = 0.24835 0.02573
# Poissons Ratio (y) = 0.30300 0.27343
# Poissons Ratio (z) = 0.02136 0.18607
#
# Static dielectric constant tensor:
#      x y z
#    x 2.046880 -0.038680 0.008130 
#    y -0.038680 2.049860 -0.028840 
#    z 0.008130 -0.028840 1.970540 
# 
# From -- ./inp_files/319196.got.cif
#   From: 2010.05.17/outbox.cif.g08.bks.cpg/sg2_160_cif.got.tgz:319196.got - 2010.06.03 11:33:40.
