data_PCOD9014829
_publ_section_title
;
Structure prediction by ZEFSAII (Michael W. Deem and Ramdas Pophale) SiO2 
 PCOD9014829
Probable space group: P -1
;
_chemical_formula_sum "Si O2"
_cell_formula_units_Z 16
_cell_length_a 8.372860
_cell_length_b 20.738371
_cell_length_c 19.315865
_cell_angle_alpha 160.489111
_cell_angle_beta 45.042949
_cell_angle_gamma 137.141121
_cell_volume 760.138952
_symmetry_space_group_name_H-M "P -1"
_symmetry_group_IT_number 2
_symmetry_cell_setting 'triclinic'
loop_
_space_group_symop_operation_xyz
x,y,z
-x,-y,-z
loop_
_atom_site_type_symbol
_atom_site_label
_atom_site_fract_x
_atom_site_fract_y
_atom_site_fract_z
Si Si1 0.638941 0.078705 0.606609
Si Si2 0.203689 0.479772 0.282475
Si Si3 0.504287 0.098668 0.390194
Si Si4 0.783066 0.901072 0.017599
Si Si5 0.582670 0.002956 0.875521
Si Si6 0.328777 0.640483 0.679197
Si Si7 0.054249 0.980782 0.323846
Si Si8 0.645437 0.632603 0.027326
O O1 0.542855 0.263586 0.843558
O O2 0.500000 0.000000 0.500000
O O3 0.548417 0.910397 0.521934
O O4 0.910088 0.115303 0.541778
O O5 0.414776 0.675891 0.434943
O O6 0.206218 0.305019 0.159440
O O7 0.937953 0.496720 0.386387
O O8 0.246929 0.442402 0.149794
O O9 0.257529 0.965912 0.299607
O O10 0.728104 0.022128 0.223706
O O11 0.561956 0.903097 0.039563
O O12 0.000000 0.000000 0.000000
O O13 0.799228 0.944800 0.714997
O O14 0.419186 0.792055 0.740865
O O15 0.667131 0.185563 0.088730
O O16 0.500000 0.500000 0.500000
O O17 0.860223 0.783421 0.156512
O O18 0.500000 0.500000 0.000000
#
# Coordination Sequence:
#
# PCOD9014829 Si02
#       8
#     2   2   2   2   2   2   2   2
#     4  10  21  41  69  94 132 178 220 282 340 396
#     4  12  24  44  70 102 137 179 236 279 334 418
#     4  11  25  43  68 102 135 180 226 278 347 404
#     4  11  24  44  69  95 144 184 223 284 342 399
#     4  10  23  44  64  96 137 182 219 282 345 396
#     4  11  25  40  68  99 134 178 234 276 337 403
#     4  10  22  44  65  93 140 172 218 282 346 391
#     4  11  23  43  68 102 132 179 232 277 339 409
#
# _framework density 21.048781999999999
#
# number of rings (size 3 to 8) (size 9 to 14) (size 15 to 20)
#    0.000    1.250    3.750    1.875    1.750    5.500 
#    4.500    1.250    0.000    0.000    0.000    0.000 
#    0.000    0.000    0.000    0.000    0.000    0.000 
#
# Total GULP energy -89073.842360 kJ/mol
# GULP energy per Si atom -5567.115147 kJ/mol
# Density = 2.100087 g / cm^3
# Si number density = 21.048782 Si / 1000 Ang^3
#
#
#
# Elastic Constant Matrix: (Units=GPa)
#
#
# Indices 1 2 3 4 5 6 
#
# 1 60.0962 49.8579 12.6467 4.5386 -15.4139 2.6777
# 2 49.8579 164.9412 40.4183 -16.9387 -14.8913 3.8256
# 3 12.6467 40.4183 53.8084 -5.4676 -22.2422 5.0421
# 4 4.5386 -16.9387 -5.4676 34.8838 -2.6818 -5.1263
# 5 -15.4139 -14.8913 -22.2422 -2.6818 28.0980 -1.0552
# 6 2.6777 3.8256 5.0421 -5.1263 -1.0552 34.5923
#
#
#
# Elastic Compliance Matrix: (Units=1/GPa)
#
#
# Indices 1 2 3 4 5 6 
#
# 1 0.026932 -0.008855 0.005652 -0.006208 0.013872 -0.002426
# 2 -0.008855 0.010621 -0.007386 0.004976 -0.004555 0.001186
# 3 0.005652 -0.007386 0.034337 0.002592 0.026486 -0.003434
# 4 -0.006208 0.004976 0.002592 0.033334 0.004639 0.004634
# 5 0.013872 -0.004555 0.026486 0.004639 0.062124 -0.001848
# 6 -0.002426 0.001186 -0.003434 0.004634 -0.001848 0.030096
#
#
# Mechanical properties :
#
#
# Convention : Reuss Voigt Hill
#
# Bulk Modulus (GPa) = 19.71873 53.85463 36.78668
# Shear Modulus (GPa) = 21.22914 31.24301 26.23607
#
# Velocity S-wave (km/s) = 3.17924 3.85686 3.53433
# Velocity P-wave (km/s) = 4.78176 6.74351 5.84552
#
# Compressibility (1/GPa) = 0.05071320
#
# Stress axis : x y z
#
# Youngs Moduli (GPa) = 37.13121 94.14971 29.12312
#
# Poissons Ratio (x) = 0.83366 -0.16460
# Poissons Ratio (y) = 0.32878 0.21509
# Poissons Ratio (z) = -0.20986 0.69535
#
# Static dielectric constant tensor:
#      x y z
#    x 1.792930 -0.012090 0.014160 
#    y -0.012090 1.814560 -0.062030 
#    z 0.014160 -0.062030 1.863580 
# 
# From -- ./inp_files/591795.got.cif
#   From: 2010.05.17/outbox.cif.g08.bks.cpg/sg2_296_cif.got.tgz:591795.got - 2010.06.03 11:33:40.
