data_PCOD9014439
_publ_section_title
;
Structure prediction by ZEFSAII (Michael W. Deem and Ramdas Pophale) SiO2 
 PCOD9014439
Probable space group: P -1
;
_chemical_formula_sum "Si O2"
_cell_formula_units_Z 16
_cell_length_a 7.737573
_cell_length_b 19.069646
_cell_length_c 16.368583
_cell_angle_alpha 20.964608
_cell_angle_beta 47.546592
_cell_angle_gamma 45.990786
_cell_volume 618.287489
_symmetry_space_group_name_H-M "P -1"
_symmetry_group_IT_number 2
_symmetry_cell_setting 'triclinic'
loop_
_space_group_symop_operation_xyz
x,y,z
-x,-y,-z
loop_
_atom_site_type_symbol
_atom_site_label
_atom_site_fract_x
_atom_site_fract_y
_atom_site_fract_z
Si Si1 0.311695 0.781135 0.748266
Si Si2 0.793491 0.390885 0.862665
Si Si3 0.470510 0.022110 0.786583
Si Si4 0.282315 0.648868 0.719221
Si Si5 0.929296 0.821246 0.369788
Si Si6 0.164920 0.318676 0.694346
Si Si7 0.462997 0.803063 0.175219
Si Si8 0.159287 0.222437 0.374302
O O1 0.248845 0.705549 0.763326
O O2 0.600626 0.711914 0.746759
O O3 0.245904 0.024412 0.506086
O O4 0.196117 0.706763 0.945593
O O5 0.516902 0.461327 0.842697
O O6 0.868934 0.603591 0.613357
O O7 0.984210 0.259162 0.882489
O O8 0.656532 0.152854 0.559038
O O9 0.282555 0.162691 0.756620
O O10 0.304193 0.017801 0.766014
O O11 0.557041 0.823368 0.031046
O O12 0.047147 0.621444 0.777757
O O13 0.181891 0.812769 0.255658
O O14 0.949221 0.841859 0.437682
O O15 0.376964 0.365842 0.632376
O O16 0.000000 0.500000 0.500000
O O17 0.500000 0.000000 0.000000
#
# Coordination Sequence:
#
# PCOD9014439 Si02
#       8
#     2   2   2   2   2   2   2   2
#     4  11  25  46  66 100 132 174 227 281 329 389
#     4  11  25  43  68  93 141 176 214 279 333 397
#     4  10  21  41  67  98 131 174 217 277 331 393
#     4  11  22  44  71  94 137 176 218 275 341 392
#     4  11  22  42  67  97 133 175 219 278 336 397
#     4  11  21  42  62  95 135 176 212 271 334 391
#     4  10  23  38  67  95 127 176 222 264 334 400
#     4  11  24  42  72  97 131 174 231 274 331 395
#
# _framework density 25.877928000000001
#
# number of rings (size 3 to 8) (size 9 to 14) (size 15 to 20)
#    0.000    1.250    5.000    2.625    5.250    1.000 
#    0.000    0.000    0.000    0.000    0.000    0.000 
#    0.000    0.000    0.000    0.000    0.000    0.000 
#
# Total GULP energy -89607.684690 kJ/mol
# GULP energy per Si atom -5600.480293 kJ/mol
# Density = 2.581903 g / cm^3
# Si number density = 25.877928 Si / 1000 Ang^3
#
#
#
# Elastic Constant Matrix: (Units=GPa)
#
#
# Indices 1 2 3 4 5 6 
#
# 1 151.9688 24.0907 36.0563 6.7464 25.4703 -20.2595
# 2 24.0907 72.7199 13.9528 13.5794 8.3746 4.0640
# 3 36.0563 13.9528 115.0677 35.5003 19.0235 -0.5563
# 4 6.7464 13.5794 35.5003 41.2095 8.3227 5.6236
# 5 25.4703 8.3746 19.0235 8.3227 48.9082 0.9933
# 6 -20.2595 4.0640 -0.5563 5.6236 0.9933 34.1114
#
#
#
# Elastic Compliance Matrix: (Units=1/GPa)
#
#
# Indices 1 2 3 4 5 6 
#
# 1 0.008784 -0.002618 -0.002226 0.001335 -0.003597 0.005377
# 2 -0.002618 0.015616 0.000443 -0.004610 -0.000645 -0.002630
# 3 -0.002226 0.000443 0.012967 -0.010603 -0.002169 0.000648
# 4 0.001335 -0.004610 -0.010603 0.035692 -0.001761 -0.004664
# 5 -0.003597 -0.000645 -0.002169 -0.001761 0.023624 -0.002492
# 6 0.005377 -0.002630 0.000648 -0.004664 -0.002492 0.033675
#
#
# Mechanical properties :
#
#
# Convention : Reuss Voigt Hill
#
# Bulk Modulus (GPa) = 35.00963 54.21733 44.61348
# Shear Modulus (GPa) = 33.62862 42.55625 38.09243
#
# Velocity S-wave (km/s) = 3.60878 4.05964 3.84083
# Velocity P-wave (km/s) = 5.56080 6.55522 6.07838
#
# Compressibility (1/GPa) = 0.02856357
#
# Stress axis : x y z
#
# Youngs Moduli (GPa) = 113.84357 64.03751 77.11745
#
# Poissons Ratio (x) = 0.16768 0.17168
# Poissons Ratio (y) = 0.29809 -0.03416
# Poissons Ratio (z) = 0.25345 -0.02837
#
# Static dielectric constant tensor:
#      x y z
#    x 2.039320 -0.035130 0.009830 
#    y -0.035130 2.077650 -0.097470 
#    z 0.009830 -0.097470 2.178460 
# 
# From -- ./inp_files/563228.got.cif
#   From: 2010.05.17/outbox.cif.g08.bks.cpg/sg2_282_cif.got.tgz:563228.got - 2010.06.03 11:33:40.
