data_PCOD9014230
_publ_section_title
;
Structure prediction by ZEFSAII (Michael W. Deem and Ramdas Pophale) SiO2 
 PCOD9014230
Probable space group: P -1
;
_chemical_formula_sum "Si O2"
_cell_formula_units_Z 16
_cell_length_a 14.985200
_cell_length_b 16.475141
_cell_length_c 14.918515
_cell_angle_alpha 136.313963
_cell_angle_beta 19.576371
_cell_angle_gamma 128.559335
_cell_volume 825.175218
_symmetry_space_group_name_H-M "P -1"
_symmetry_group_IT_number 2
_symmetry_cell_setting 'triclinic'
loop_
_space_group_symop_operation_xyz
x,y,z
-x,-y,-z
loop_
_atom_site_type_symbol
_atom_site_label
_atom_site_fract_x
_atom_site_fract_y
_atom_site_fract_z
Si Si1 0.012852 0.991409 0.374887
Si Si2 0.367292 0.949575 0.751581
Si Si3 0.472070 0.631542 0.086752
Si Si4 0.965756 0.640774 0.863956
Si Si5 0.404953 0.114208 0.994370
Si Si6 0.646699 0.233217 0.515189
Si Si7 0.017367 0.180250 0.873934
Si Si8 0.920387 0.630023 0.521529
O O1 0.269805 0.033455 0.124117
O O2 0.731588 0.077318 0.669071
O O3 0.000000 0.000000 0.500000
O O4 0.019836 0.857449 0.222510
O O5 0.326424 0.905573 0.654012
O O6 0.676041 0.884458 0.436293
O O7 0.174435 0.884572 0.938911
O O8 0.326549 0.081896 0.940409
O O9 0.380610 0.737858 0.331161
O O10 0.225954 0.645661 0.259988
O O11 0.500000 0.500000 0.000000
O O12 0.762198 0.628348 0.764303
O O13 0.113705 0.712887 0.711104
O O14 0.062753 0.498464 0.642573
O O15 0.033637 0.683955 0.932749
O O16 0.640240 0.686472 0.190124
O O17 0.265657 0.253145 0.257491
#
# Coordination Sequence:
#
# PCOD9014230 Si02
#       8
#     2   2   2   2   2   2   2   2
#     4  10  19  36  60  80  98 125 163 208 246 297
#     4   8  16  31  48  67  96 130 163 208 242 287
#     4  12  21  33  48  74 102 134 182 215 243 280
#     4  10  17  30  48  71  97 132 169 206 242 285
#     4  10  21  36  52  78 106 130 163 197 256 316
#     4  10  18  30  49  69  94 128 181 220 235 270
#     4   8  16  28  50  75  94 121 166 203 236 289
#     4  12  22  33  50  73 106 139 162 209 259 295
#
# _framework density 19.389821000000001
#
# number of rings (size 3 to 8) (size 9 to 14) (size 15 to 20)
#    0.000    2.000    2.500    2.250    0.000    0.000 
#    0.000    1.250    0.000    1.500    0.000    0.000 
#    0.000    0.000    0.000    0.000    0.000    0.000 
#
# Total GULP energy -89202.332455 kJ/mol
# GULP energy per Si atom -5575.145778 kJ/mol
# Density = 1.934569 g / cm^3
# Si number density = 19.389821 Si / 1000 Ang^3
#
#
#
# Elastic Constant Matrix: (Units=GPa)
#
#
# Indices 1 2 3 4 5 6 
#
# 1 54.7469 21.0381 5.7434 16.8069 23.8981 24.3903
# 2 21.0381 42.2815 10.3417 4.3403 5.5917 14.3856
# 3 5.7434 10.3417 65.8479 -6.3110 3.9214 9.8840
# 4 16.8069 4.3403 -6.3110 38.9629 11.6725 4.7011
# 5 23.8981 5.5917 3.9214 11.6725 32.1904 5.3868
# 6 24.3903 14.3856 9.8840 4.7011 5.3868 20.9159
#
#
#
# Elastic Compliance Matrix: (Units=1/GPa)
#
#
# Indices 1 2 3 4 5 6 
#
# 1 0.068596 -0.007334 0.006483 -0.008868 -0.036059 -0.066730
# 2 -0.007334 0.031988 -0.002595 0.000026 0.002342 -0.012831
# 3 0.006483 -0.002595 0.017748 0.003677 -0.005590 -0.013548
# 4 -0.008868 0.000026 0.003677 0.031451 -0.005776 0.003004
# 5 -0.036059 0.002342 -0.005590 -0.005776 0.055154 0.030173
# 6 -0.066730 -0.012831 -0.013548 0.003004 0.030173 0.132406
#
#
# Mechanical properties :
#
#
# Convention : Reuss Voigt Hill
#
# Bulk Modulus (GPa) = 8.97359 26.34696 17.66028
# Shear Modulus (GPa) = 13.11020 26.79738 19.95379
#
# Velocity S-wave (km/s) = 2.60309 3.72160 3.21142
# Velocity P-wave (km/s) = 3.69767 5.66433 4.78317
#
# Compressibility (1/GPa) = 0.11143809
#
# Stress axis : x y z
#
# Youngs Moduli (GPa) = 14.57820 31.26151 56.34581
#
# Poissons Ratio (x) = 0.22927 -0.36526
# Poissons Ratio (y) = 0.10692 0.14622
# Poissons Ratio (z) = -0.09450 0.08113
#
# Static dielectric constant tensor:
#      x y z
#    x 1.704200 0.041170 0.044320 
#    y 0.041170 1.692300 0.024070 
#    z 0.044320 0.024070 1.692700 
# 
# From -- ./inp_files/80978.got.cif
#   From: 2010.05.17/outbox.cif.g08.bks.cpg/sg2_41_cif.got.tgz:80978.got - 2010.06.03 11:33:40.
