data_PCOD9014165
_publ_section_title
;
Structure prediction by ZEFSAII (Michael W. Deem and Ramdas Pophale) SiO2 
 PCOD9014165
Probable space group: P -1
;
_chemical_formula_sum "Si O2"
_cell_formula_units_Z 14
_cell_length_a 8.830083
_cell_length_b 7.614582
_cell_length_c 18.189785
_cell_angle_alpha 117.931344
_cell_angle_beta 138.920501
_cell_angle_gamma 89.858022
_cell_volume 565.936356
_symmetry_space_group_name_H-M "P -1"
_symmetry_group_IT_number 2
_symmetry_cell_setting 'triclinic'
loop_
_space_group_symop_operation_xyz
x,y,z
-x,-y,-z
loop_
_atom_site_type_symbol
_atom_site_label
_atom_site_fract_x
_atom_site_fract_y
_atom_site_fract_z
Si Si1 0.401147 0.495732 0.045243
Si Si2 0.742001 0.206245 0.778299
Si Si3 0.767470 0.321369 0.578755
Si Si4 0.616877 0.213265 0.145503
Si Si5 0.503489 0.579640 0.365953
Si Si6 0.705995 0.949131 0.855877
Si Si7 0.048186 0.048678 0.615047
O O1 0.471400 0.346185 0.094411
O O2 0.618727 0.776099 0.209593
O O3 0.500000 0.500000 0.000000
O O4 0.062816 0.361407 0.893930
O O5 0.612159 0.350439 0.732712
O O6 0.519870 0.921185 0.611349
O O7 0.774574 0.159706 0.865587
O O8 0.652824 0.396081 0.617989
O O9 0.034084 0.577056 0.687684
O O10 0.927508 0.196221 0.630280
O O11 0.485871 0.092688 0.152650
O O12 0.500000 0.000000 0.000000
O O13 0.446554 0.318321 0.290853
O O14 0.847164 0.786781 0.530118
O O15 0.000000 0.000000 0.000000
O O16 0.000000 0.000000 0.500000
#
# Coordination Sequence:
#
# PCOD9014165 Si02
#       7
#     2   2   2   2   2   2   2
#     4  11  22  43  71 103 137 183 243 283 351 429
#     4  11  24  44  74 106 137 186 237 283 355 418
#     4  10  22  43  70 102 140 183 233 285 353 418
#     4  11  24  48  66  96 148 180 225 298 352 413
#     4  11  23  46  75 100 145 182 227 296 348 418
#     4  12  26  46  70 104 143 181 235 294 349 418
#     4  10  21  41  66  99 142 182 226 289 350 410
#
# _framework density 24.737762
#
# number of rings (size 3 to 8) (size 9 to 14) (size 15 to 20)
#    0.000    1.143    1.429    6.857    0.000    1.714 
#   12.857    0.000    0.000    0.000    0.000    0.000 
#    0.000    0.000    0.000    0.000    0.000    0.000 
#
# Total GULP energy -78358.904176 kJ/mol
# GULP energy per Si atom -5597.064584 kJ/mol
# Density = 2.468146 g / cm^3
# Si number density = 24.737762 Si / 1000 Ang^3
#
#
#
# Elastic Constant Matrix: (Units=GPa)
#
#
# Indices 1 2 3 4 5 6 
#
# 1 141.6392 26.4839 47.0907 1.5699 16.4606 12.6119
# 2 26.4839 112.4063 12.0185 -10.0681 8.8538 9.4353
# 3 47.0907 12.0185 161.1215 11.2394 39.1409 -0.9262
# 4 1.5699 -10.0681 11.2394 34.1729 6.0580 -3.1464
# 5 16.4606 8.8538 39.1409 6.0580 50.2499 9.8625
# 6 12.6119 9.4353 -0.9262 -3.1464 9.8625 34.0874
#
#
#
# Elastic Compliance Matrix: (Units=1/GPa)
#
#
# Indices 1 2 3 4 5 6 
#
# 1 0.008368 -0.001515 -0.002301 -0.000307 -0.000108 -0.002736
# 2 -0.001515 0.009772 -0.000242 0.003082 -0.001105 -0.001547
# 3 -0.002301 -0.000242 0.008524 -0.001405 -0.006228 0.002822
# 4 -0.000307 0.003082 -0.001405 0.031618 -0.003795 0.003239
# 5 -0.000108 -0.001105 -0.006228 -0.003795 0.027007 -0.007988
# 6 -0.002736 -0.001547 0.002822 0.003239 -0.007988 0.033464
#
#
# Mechanical properties :
#
#
# Convention : Reuss Voigt Hill
#
# Bulk Modulus (GPa) = 53.90896 65.15034 59.52965
# Shear Modulus (GPa) = 37.57977 45.67363 41.62670
#
# Velocity S-wave (km/s) = 3.90182 4.30153 4.10655
# Velocity P-wave (km/s) = 6.49141 7.14594 6.82653
#
# Compressibility (1/GPa) = 0.01854979
#
# Stress axis : x y z
#
# Youngs Moduli (GPa) = 119.50302 102.33378 117.31419
#
# Poissons Ratio (x) = 0.15502 0.26991
# Poissons Ratio (y) = 0.18103 0.02833
# Poissons Ratio (z) = 0.27495 0.02471
#
# Static dielectric constant tensor:
#      x y z
#    x 1.902740 -0.012660 -0.068700 
#    y -0.012660 1.970930 -0.029530 
#    z -0.068700 -0.029530 2.085540 
# 
# From -- ./inp_files/557511.got.cif
#   From: 2010.05.17/outbox.cif.g08.bks.cpg/sg2_279_cif.got.tgz:557511.got - 2010.06.03 11:33:40.
