data_PCOD9014606
_publ_section_title
;
Structure prediction by ZEFSAII (Michael W. Deem and Ramdas Pophale) SiO2 
 PCOD9014606
Probable space group: P -1
;
_chemical_formula_sum "Si O2"
_cell_formula_units_Z 15
_cell_length_a 8.713776
_cell_length_b 11.360087
_cell_length_c 11.981874
_cell_angle_alpha 53.951910
_cell_angle_beta 127.333252
_cell_angle_gamma 140.577918
_cell_volume 581.724184
_symmetry_space_group_name_H-M "P -1"
_symmetry_group_IT_number 2
_symmetry_cell_setting 'triclinic'
loop_
_space_group_symop_operation_xyz
x,y,z
-x,-y,-z
loop_
_atom_site_type_symbol
_atom_site_label
_atom_site_fract_x
_atom_site_fract_y
_atom_site_fract_z
Si Si1 0.398305 0.453986 0.107781
Si Si2 0.055798 0.800659 0.662276
Si Si3 0.139362 0.494253 0.670491
Si Si4 0.786711 0.847414 0.341162
Si Si5 0.784302 0.368682 0.784967
Si Si6 0.968164 0.988250 0.860988
Si Si7 0.502336 0.071677 0.341702
Si Si8 0.000000 0.500000 0.000000
O O1 0.648769 0.525703 0.248720
O O2 0.192030 0.224850 0.137946
O O3 0.500000 0.500000 0.000000
O O4 0.258346 0.532056 0.040639
O O5 0.350622 0.938061 0.684948
O O6 0.905491 0.763375 0.501815
O O7 0.952072 0.595376 0.779256
O O8 0.040565 0.935071 0.656466
O O9 0.321542 0.702653 0.691369
O O10 0.000000 0.500000 0.500000
O O11 0.930537 0.371931 0.744136
O O12 0.493946 0.715134 0.319006
O O13 0.809359 0.877037 0.202680
O O14 0.809361 0.299233 0.951006
O O15 0.785413 0.036946 0.743351
O O16 0.000000 0.000000 0.000000
O O17 0.500000 0.000000 0.500000
#
# Coordination Sequence:
#
# PCOD9014606 Si02
#       8
#     2   2   2   2   2   2   2   1
#     4  11  25  49  75 103 150 200 243 309 378 438
#     4  10  23  44  67 100 142 184 247 303 363 441
#     4  10  24  43  73 106 141 189 245 303 368 446
#     4  11  24  42  71 102 143 190 239 310 369 435
#     4  11  25  43  69 105 141 193 245 298 373 439
#     4  11  26  45  69 107 142 189 249 299 375 450
#     4  10  21  41  68  94 138 186 233 298 368 428
#     4  12  26  46  76 104 150 198 254 302 368 450
#
# _framework density 25.785412999999998
#
# number of rings (size 3 to 8) (size 9 to 14) (size 15 to 20)
#    0.000    1.333    2.667    1.200    3.733    6.400 
#    0.000    2.000    0.000    0.000    0.000    0.000 
#    0.000    0.000    0.000    0.000    0.000    0.000 
#
# Total GULP energy -83617.036198 kJ/mol
# GULP energy per Si atom -5574.469080 kJ/mol
# Density = 2.572672 g / cm^3
# Si number density = 25.785413 Si / 1000 Ang^3
#
#
#
# Elastic Constant Matrix: (Units=GPa)
#
#
# Indices 1 2 3 4 5 6 
#
# 1 159.9153 40.5106 57.4853 -10.1661 4.5335 15.3596
# 2 40.5106 88.1208 -2.1358 -6.8918 0.7740 -4.5504
# 3 57.4853 -2.1358 128.5844 15.9031 12.0548 -0.2029
# 4 -10.1661 -6.8918 15.9031 26.5365 9.8448 0.7661
# 5 4.5335 0.7740 12.0548 9.8448 53.6120 7.5094
# 6 15.3596 -4.5504 -0.2029 0.7661 7.5094 41.9470
#
#
#
# Elastic Compliance Matrix: (Units=1/GPa)
#
#
# Indices 1 2 3 4 5 6 
#
# 1 0.010130 -0.004534 -0.005353 0.006072 -0.000097 -0.004320
# 2 -0.004534 0.013722 0.002257 0.000719 -0.000918 0.003311
# 3 -0.005353 0.002257 0.011288 -0.007923 -0.001026 0.002588
# 4 0.006072 0.000719 -0.007923 0.047687 -0.007253 -0.001756
# 5 -0.000097 -0.000918 -0.001026 -0.007253 0.020748 -0.003651
# 6 -0.004320 0.003311 0.002588 -0.001756 -0.003651 0.026479
#
#
# Mechanical properties :
#
#
# Convention : Reuss Voigt Hill
#
# Bulk Modulus (GPa) = 50.29894 63.14897 56.72396
# Shear Modulus (GPa) = 32.90810 43.13646 38.02228
#
# Velocity S-wave (km/s) = 3.57631 4.09455 3.84417
# Velocity P-wave (km/s) = 6.04999 6.84815 6.46141
#
# Compressibility (1/GPa) = 0.01988113
#
# Stress axis : x y z
#
# Youngs Moduli (GPa) = 98.71989 72.87383 88.59317
#
# Poissons Ratio (x) = 0.33040 0.47420
# Poissons Ratio (y) = 0.44758 -0.19997
# Poissons Ratio (z) = 0.52840 -0.16449
#
# Static dielectric constant tensor:
#      x y z
#    x 2.004210 -0.113170 0.193930 
#    y -0.113170 2.009920 0.223820 
#    z 0.193930 0.223820 1.470210 
# 
# From -- ./inp_files/392411.got.cif
#   From: 2010.05.17/outbox.cif.g08.bks.cpg/sg2_197_cif.got.tgz:392411.got - 2010.06.03 11:33:40.
