data_PCOD9014667
_publ_section_title
;
Structure prediction by ZEFSAII (Michael W. Deem and Ramdas Pophale) SiO2 
 PCOD9014667
Probable space group: P -1
;
_chemical_formula_sum "Si O2"
_cell_formula_units_Z 16
_cell_length_a 24.053805
_cell_length_b 9.307801
_cell_length_c 14.467465
_cell_angle_alpha 131.790543
_cell_angle_beta 150.808854
_cell_angle_gamma 30.350106
_cell_volume 746.905801
_symmetry_space_group_name_H-M "P -1"
_symmetry_group_IT_number 2
_symmetry_cell_setting 'triclinic'
loop_
_space_group_symop_operation_xyz
x,y,z
-x,-y,-z
loop_
_atom_site_type_symbol
_atom_site_label
_atom_site_fract_x
_atom_site_fract_y
_atom_site_fract_z
Si Si1 0.301997 0.490282 0.445088
Si Si2 0.883217 0.316066 0.416429
Si Si3 0.369431 0.850303 0.467814
Si Si4 0.775343 0.743194 0.912556
Si Si5 0.695476 0.136854 0.822998
Si Si6 0.980326 0.631204 0.728611
Si Si7 0.568985 0.797594 0.292841
Si Si8 0.920404 0.205914 0.205810
O O1 0.302054 0.320661 0.295436
O O2 0.485930 0.372730 0.645958
O O3 0.318395 0.383365 0.526772
O O4 0.114084 0.848572 0.320195
O O5 0.682141 0.565313 0.273376
O O6 0.893638 0.283169 0.307819
O O7 0.955038 0.435418 0.597193
O O8 0.000000 0.000000 0.500000
O O9 0.500000 0.500000 0.500000
O O10 0.280525 0.981519 0.294094
O O11 0.459034 0.938861 0.653054
O O12 0.217883 0.021156 0.397605
O O13 0.818840 0.861504 0.957828
O O14 0.626120 0.023133 0.886562
O O15 0.920887 0.464993 0.072080
O O16 0.762165 0.267504 0.973219
O O17 0.077479 0.607708 0.775020
#
# Coordination Sequence:
#
# PCOD9014667 Si02
#       8
#     2   2   2   2   2   2   2   2
#     4  11  21  42  70 100 137 173 216 286 331 397
#     4  11  23  48  71  92 126 181 234 276 324 393
#     4  11  22  39  67  97 139 174 213 271 345 397
#     4  11  22  42  66 103 137 169 222 276 339 400
#     4  11  23  39  67 101 133 178 223 267 337 405
#     4  11  27  42  66 100 136 176 221 281 336 393
#     4  10  21  41  68  97 133 171 220 278 327 391
#     4  12  26  43  67  97 137 177 229 273 336 391
#
# _framework density 21.421710999999998
#
# number of rings (size 3 to 8) (size 9 to 14) (size 15 to 20)
#    0.000    1.000    3.750    3.375    3.500    2.000 
#    2.250    2.500    0.000    0.000    0.000    0.000 
#    0.000    0.000    0.000    0.000    0.000    0.000 
#
# Total GULP energy -89409.532780 kJ/mol
# GULP energy per Si atom -5588.095799 kJ/mol
# Density = 2.137295 g / cm^3
# Si number density = 21.421711 Si / 1000 Ang^3
#
#
#
# Elastic Constant Matrix: (Units=GPa)
#
#
# Indices 1 2 3 4 5 6 
#
# 1 132.8625 32.4187 10.0600 0.5191 9.2127 -6.2107
# 2 32.4187 93.8098 7.1446 -10.3369 13.2649 -2.6671
# 3 10.0600 7.1446 41.0842 5.7682 9.6624 0.8113
# 4 0.5191 -10.3369 5.7682 15.1943 3.6283 -2.3856
# 5 9.2127 13.2649 9.6624 3.6283 25.2156 -1.9666
# 6 -6.2107 -2.6671 0.8113 -2.3856 -1.9666 36.8214
#
#
#
# Elastic Compliance Matrix: (Units=1/GPa)
#
#
# Indices 1 2 3 4 5 6 
#
# 1 0.008421 -0.002818 -0.001201 -0.001372 -0.000850 0.001108
# 2 -0.002818 0.014220 -0.001785 0.012388 -0.007472 0.000998
# 3 -0.001201 -0.001785 0.028353 -0.010311 -0.008164 -0.002061
# 4 -0.001372 0.012388 -0.010311 0.082285 -0.013476 0.005505
# 5 -0.000850 -0.007472 -0.008164 -0.013476 0.049064 0.001243
# 6 0.001108 0.000998 -0.002061 0.005505 0.001243 0.027886
#
#
# Mechanical properties :
#
#
# Convention : Reuss Voigt Hill
#
# Bulk Modulus (GPa) = 25.38974 40.77812 33.08393
# Shear Modulus (GPa) = 21.27973 29.98849 25.63411
#
# Velocity S-wave (km/s) = 3.15520 3.74560 3.46300
# Velocity P-wave (km/s) = 5.01516 6.14680 5.60959
#
# Compressibility (1/GPa) = 0.03938599
#
# Stress axis : x y z
#
# Youngs Moduli (GPa) = 118.74654 70.32524 35.26950
#
# Poissons Ratio (x) = 0.19819 0.04237
# Poissons Ratio (y) = 0.33465 0.06294
# Poissons Ratio (z) = 0.14265 0.12550
#
# Static dielectric constant tensor:
#      x y z
#    x 1.779500 0.022990 0.012190 
#    y 0.022990 1.773980 -0.032570 
#    z 0.012190 -0.032570 1.815900 
# 
# From -- ./inp_files/311735.got.cif
#   From: 2010.05.17/outbox.cif.g08.bks.cpg/sg2_156_cif.got.tgz:311735.got - 2010.06.03 11:33:40.
