data_PCOD9014421
_publ_section_title
;
Structure prediction by ZEFSAII (Michael W. Deem and Ramdas Pophale) SiO2 
 PCOD9014421
Probable space group: P -1
;
_chemical_formula_sum "Si O2"
_cell_formula_units_Z 14
_cell_length_a 18.020363
_cell_length_b 15.089663
_cell_length_c 7.779623
_cell_angle_alpha 53.797634
_cell_angle_beta 135.385214
_cell_angle_gamma 158.000419
_cell_volume 536.866079
_symmetry_space_group_name_H-M "P -1"
_symmetry_group_IT_number 2
_symmetry_cell_setting 'triclinic'
loop_
_space_group_symop_operation_xyz
x,y,z
-x,-y,-z
loop_
_atom_site_type_symbol
_atom_site_label
_atom_site_fract_x
_atom_site_fract_y
_atom_site_fract_z
Si Si1 0.297341 0.110008 0.746404
Si Si2 0.406092 0.415154 0.183122
Si Si3 0.757141 0.261673 0.537077
Si Si4 0.766090 0.030748 0.851944
Si Si5 0.553962 0.323142 0.579855
Si Si6 0.744932 0.294986 0.094593
Si Si7 0.015997 0.001106 0.768324
O O1 0.498021 0.377373 0.847870
O O2 0.360832 0.130015 0.637532
O O3 0.077568 0.990444 0.521133
O O4 0.274138 0.994817 0.981629
O O5 0.590927 0.489156 0.445294
O O6 0.270230 0.279721 0.934707
O O7 0.193512 0.189557 0.220337
O O8 0.838202 0.212374 0.683562
O O9 0.731172 0.300823 0.271211
O O10 0.000172 0.526969 0.726844
O O11 0.500000 0.000000 0.500000
O O12 0.544108 0.792846 0.638589
O O13 0.937388 0.085812 0.065278
O O14 0.735396 0.398228 0.848808
O O15 0.500000 0.000000 0.000000
#
# Coordination Sequence:
#
# PCOD9014421 Si02
#       7
#     2   2   2   2   2   2   2
#     4  11  22  39  63  97 139 178 220 272 342 406
#     4   9  20  37  62  94 136 176 222 274 327 415
#     4  11  26  47  70 105 137 177 241 298 353 423
#     4  11  23  41  66  98 135 176 232 278 339 421
#     4  10  21  41  67  97 134 177 231 279 351 407
#     4  11  24  48  75  97 136 186 230 297 363 409
#     4   9  19  37  58  94 134 178 222 271 332 403
#
# _framework density 26.077265000000001
#
# number of rings (size 3 to 8) (size 9 to 14) (size 15 to 20)
#    0.000    1.714    1.429    3.857    4.000    2.857 
#    2.571    0.000    0.000    0.000    0.000    0.000 
#    0.000    0.000    0.000    0.000    0.000    0.000 
#
# Total GULP energy -78077.353112 kJ/mol
# GULP energy per Si atom -5576.953794 kJ/mol
# Density = 2.601791 g / cm^3
# Si number density = 26.077265 Si / 1000 Ang^3
#
#
#
# Elastic Constant Matrix: (Units=GPa)
#
#
# Indices 1 2 3 4 5 6 
#
# 1 31.9279 12.9952 35.2023 6.1547 7.0974 20.3761
# 2 12.9952 126.3770 23.1036 19.7318 7.7646 18.4444
# 3 35.2023 23.1036 128.6784 -9.5519 16.8968 -6.9946
# 4 6.1547 19.7318 -9.5519 52.6928 9.2007 -2.6430
# 5 7.0974 7.7646 16.8968 9.2007 24.3744 0.3211
# 6 20.3761 18.4444 -6.9946 -2.6430 0.3211 26.4179
#
#
#
# Elastic Compliance Matrix: (Units=1/GPa)
#
#
# Indices 1 2 3 4 5 6 
#
# 1 -0.529066 -0.085440 0.205401 0.163261 -0.029840 0.538800
# 2 -0.085440 -0.003408 0.030403 0.021447 -0.004242 0.078527
# 3 0.205401 0.030403 -0.069857 -0.058953 0.003874 -0.204093
# 4 0.163261 0.021447 -0.058953 -0.026550 -0.001385 -0.159145
# 5 -0.029840 -0.004242 0.003874 -0.001385 0.048558 0.026274
# 6 0.538800 0.078527 -0.204093 -0.159145 0.026274 -0.502826
#
#
# Mechanical properties :
#
#
# Convention : Reuss Voigt Hill
#
# Bulk Modulus (GPa) = -3.31561 47.73172 22.20806
# Shear Modulus (GPa) = -3.36834 35.07582 15.85374
#
# Velocity S-wave (km/s) = -1.13775 3.67150 2.46834
# Velocity P-wave (km/s) = 1.73211 6.02635 4.08147
#
# Compressibility (1/GPa) = -0.30160403
#
# Stress axis : x y z
#
# Youngs Moduli (GPa) = -1.89012 -293.40531 -14.31487
#
# Poissons Ratio (x) = -25.06869 2.94029
# Poissons Ratio (y) = -0.16149 0.43522
# Poissons Ratio (z) = 0.38823 8.92046
#
# Static dielectric constant tensor:
#      x y z
#    x 2.158340 0.019070 -0.041270 
#    y 0.019070 2.124190 0.095010 
#    z -0.041270 0.095010 2.117750 
# 
# From -- ./inp_files/348378.got.cif
#   From: 2010.05.17/outbox.cif.g08.bks.cpg/sg2_175_cif.got.tgz:348378.got - 2010.06.03 11:33:40.
