data_PCOD9014928
_publ_section_title
;
Structure prediction by ZEFSAII (Michael W. Deem and Ramdas Pophale) SiO2 
 PCOD9014928
Probable space group: P -1
;
_chemical_formula_sum "Si O2"
_cell_formula_units_Z 14
_cell_length_a 11.229203
_cell_length_b 5.220481
_cell_length_c 11.347531
_cell_angle_alpha 93.344161
_cell_angle_beta 81.715720
_cell_angle_gamma 52.551149
_cell_volume 513.502804
_symmetry_space_group_name_H-M "P -1"
_symmetry_group_IT_number 2
_symmetry_cell_setting 'triclinic'
loop_
_space_group_symop_operation_xyz
x,y,z
-x,-y,-z
loop_
_atom_site_type_symbol
_atom_site_label
_atom_site_fract_x
_atom_site_fract_y
_atom_site_fract_z
Si Si1 0.708076 0.391304 0.659412
Si Si2 0.100826 0.577460 0.056113
Si Si3 0.667965 0.402519 0.418205
Si Si4 0.135351 0.229912 0.748660
Si Si5 0.654680 0.980303 0.821079
Si Si6 0.026033 0.699200 0.590617
Si Si7 0.319453 0.407558 0.844361
O O1 0.594792 0.481718 0.563852
O O2 0.680971 0.716512 0.714127
O O3 0.674483 0.230163 0.763156
O O4 0.889789 0.085551 0.605057
O O5 0.236918 0.245793 0.093992
O O6 0.976674 0.830535 0.178740
O O7 0.182650 0.671141 0.960626
O O8 0.000000 0.500000 0.000000
O O9 0.798446 0.438643 0.437985
O O10 0.642143 0.517484 0.287399
O O11 0.764988 0.016504 0.377067
O O12 0.018227 0.590012 0.720068
O O13 0.258105 0.205956 0.813517
O O14 0.476427 0.205081 0.886519
O O15 0.000000 0.500000 0.500000
#
# Coordination Sequence:
#
# PCOD9014928 Si02
#       7
#     2   2   2   2   2   2   2
#     4  12  26  43  74 108 149 188 237 290 361 432
#     4  10  22  49  75 103 140 184 247 304 361 414
#     4  11  24  40  69 106 145 191 233 297 357 429
#     4  10  21  41  70 101 142 178 245 292 362 411
#     4  12  27  49  73 107 145 193 239 292 358 432
#     4  11  20  38  66 105 144 183 235 297 355 413
#     4  10  26  45  68 101 145 194 240 292 353 428
#
# _framework density 27.263724
#
# number of rings (size 3 to 8) (size 9 to 14) (size 15 to 20)
#    0.000    1.143    2.857    2.571    4.000    1.714 
#    5.143    1.429    0.000    0.000    0.000    0.000 
#    0.000    0.000    0.000    0.000    0.000    0.000 
#
# Total GULP energy -78181.432452 kJ/mol
# GULP energy per Si atom -5584.388032 kJ/mol
# Density = 2.720167 g / cm^3
# Si number density = 27.263724 Si / 1000 Ang^3
#
#
#
# Elastic Constant Matrix: (Units=GPa)
#
#
# Indices 1 2 3 4 5 6 
#
# 1 -95.0208 -16.1601 -19.8120 -20.9362 6.6674 15.7079
# 2 -16.1601 67.8531 2.8771 -28.2383 -6.7494 0.4101
# 3 -19.8120 2.8771 99.9356 -30.7168 -19.7640 -7.4285
# 4 -20.9362 -28.2383 -30.7168 62.2209 -8.7239 17.7410
# 5 6.6674 -6.7494 -19.7640 -8.7239 64.0550 -3.1497
# 6 15.7079 0.4101 -7.4285 17.7410 -3.1497 40.7370
#
#
#
# Elastic Compliance Matrix: (Units=1/GPa)
#
#
# Indices 1 2 3 4 5 6 
#
# 1 -0.006492 -0.004872 -0.003520 -0.007860 -0.001738 0.005199
# 2 -0.004872 0.017129 0.001602 0.007771 0.003811 -0.001091
# 3 -0.003520 0.001602 0.012200 0.005891 0.005171 0.001400
# 4 -0.007860 0.007771 0.005891 0.022207 0.006225 -0.005163
# 5 -0.001738 0.003811 0.005171 0.006225 0.018652 0.000306
# 6 0.005199 -0.001091 0.001400 -0.005163 0.000306 0.025082
#
#
# Mechanical properties :
#
#
# Convention : Reuss Voigt Hill
#
# Bulk Modulus (GPa) = 108.03556 0.73088 54.38322
# Shear Modulus (GPa) = 47.41878 40.46010 43.93944
#
# Velocity S-wave (km/s) = 4.17497 3.85649 4.01888
# Velocity P-wave (km/s) = 7.93427 4.48315 6.44404
#
# Compressibility (1/GPa) = 0.00925621
#
# Stress axis : x y z
#
# Youngs Moduli (GPa) = -154.02873 58.38058 81.96783
#
# Poissons Ratio (x) = 0.28444 0.28852
# Poissons Ratio (y) = -0.75046 -0.13131
# Poissons Ratio (z) = -0.54217 -0.09352
#
# Static dielectric constant tensor:
#      x y z
#    x 2.261090 -0.056360 -0.202880 
#    y -0.056360 2.112850 -0.002450 
#    z -0.202880 -0.002450 2.523330 
# 
# From -- ./inp_files/410493.got.cif
#   From: 2010.05.17/outbox.cif.g08.bks.cpg/sg2_206_cif.got.tgz:410493.got - 2010.06.03 11:33:40.
