data_PCOD9014999
_publ_section_title
;
Structure prediction by ZEFSAII (Michael W. Deem and Ramdas Pophale) SiO2 
 PCOD9014999
Probable space group: P -1
;
_chemical_formula_sum "Si O2"
_cell_formula_units_Z 16
_cell_length_a 18.174602
_cell_length_b 12.123556
_cell_length_c 9.748705
_cell_angle_alpha 124.405661
_cell_angle_beta 134.734028
_cell_angle_gamma 31.808382
_cell_volume 801.143095
_symmetry_space_group_name_H-M "P -1"
_symmetry_group_IT_number 2
_symmetry_cell_setting 'triclinic'
loop_
_space_group_symop_operation_xyz
x,y,z
-x,-y,-z
loop_
_atom_site_type_symbol
_atom_site_label
_atom_site_fract_x
_atom_site_fract_y
_atom_site_fract_z
Si Si1 0.097013 0.613369 0.876146
Si Si2 0.480514 0.109049 0.417103
Si Si3 0.904410 0.227858 0.493122
Si Si4 0.871963 0.905114 0.549896
Si Si5 0.105459 0.524708 0.134685
Si Si6 0.570024 0.544945 0.416195
Si Si7 0.341458 0.131744 0.792135
Si Si8 0.703944 0.344062 0.743566
O O1 0.221700 0.375545 0.824161
O O2 0.944517 0.765699 0.683189
O O3 0.065418 0.613389 0.992539
O O4 0.175219 0.683214 0.032522
O O5 0.294234 0.298415 0.250662
O O6 0.518060 0.228439 0.574730
O O7 0.500000 0.000000 0.500000
O O8 0.595937 0.941323 0.331833
O O9 0.936892 0.316349 0.702919
O O10 0.713696 0.385508 0.381861
O O11 0.977270 0.204402 0.427660
O O12 0.000000 0.000000 0.500000
O O13 0.751834 0.915308 0.331269
O O14 0.780190 0.131797 0.633891
O O15 0.000000 0.500000 0.000000
O O16 0.645417 0.480992 0.625591
O O17 0.444829 0.549558 0.278642
O O18 0.500000 0.000000 0.000000
#
# Coordination Sequence:
#
# PCOD9014999 Si02
#       8
#     2   2   2   2   2   2   2   2
#     4  12  25  43  67 104 137 174 231 284 337 410
#     4  11  24  43  68  97 133 178 228 279 335 406
#     4  11  22  41  64  98 130 175 221 277 335 399
#     4  12  26  42  71 101 136 180 225 285 340 404
#     4  11  24  43  64  93 136 179 220 276 342 399
#     4  10  21  41  70  95 131 177 228 268 344 393
#     4  12  25  45  67 100 134 179 233 274 337 403
#     4  11  21  44  71  96 134 183 224 276 341 413
#
# _framework density 19.971463
#
# number of rings (size 3 to 8) (size 9 to 14) (size 15 to 20)
#    0.000    0.750    6.250    1.500    7.000    0.000 
#    0.000    0.625    0.000    0.000    0.000    0.000 
#    0.000    0.000    0.000    0.000    0.000    0.000 
#
# Total GULP energy -89379.495140 kJ/mol
# GULP energy per Si atom -5586.218446 kJ/mol
# Density = 1.992601 g / cm^3
# Si number density = 19.971463 Si / 1000 Ang^3
#
#
#
# Elastic Constant Matrix: (Units=GPa)
#
#
# Indices 1 2 3 4 5 6 
#
# 1 135.2698 27.6912 37.5002 0.6817 3.1780 -6.8599
# 2 27.6912 100.8559 27.3075 22.9016 -1.8731 10.7916
# 3 37.5002 27.3075 61.5645 -1.2074 14.4856 2.5456
# 4 0.6817 22.9016 -1.2074 27.0384 4.9927 -10.5815
# 5 3.1780 -1.8731 14.4856 4.9927 42.8680 -0.6227
# 6 -6.8599 10.7916 2.5456 -10.5815 -0.6227 35.4316
#
#
#
# Elastic Compliance Matrix: (Units=1/GPa)
#
#
# Indices 1 2 3 4 5 6 
#
# 1 0.009389 -0.002251 -0.004963 0.002784 0.000612 0.003702
# 2 -0.002251 0.019613 -0.008791 -0.023059 0.006498 -0.012550
# 3 -0.004963 -0.008791 0.025617 0.011827 -0.010003 0.003232
# 4 0.002784 -0.023059 0.011827 0.070100 -0.012976 0.027420
# 5 0.000612 0.006498 -0.010003 -0.012976 0.028392 -0.004518
# 6 0.003702 -0.012550 0.003232 0.027420 -0.004518 0.040640
#
#
# Mechanical properties :
#
#
# Convention : Reuss Voigt Hill
#
# Bulk Modulus (GPa) = 44.22828 53.63201 48.93014
# Shear Modulus (GPa) = 21.43201 34.74704 28.08952
#
# Velocity S-wave (km/s) = 3.27942 4.17566 3.75438
# Velocity P-wave (km/s) = 6.04428 7.08243 6.58385
#
# Compressibility (1/GPa) = 0.02260997
#
# Stress axis : x y z
#
# Youngs Moduli (GPa) = 106.51231 50.98675 39.03635
#
# Poissons Ratio (x) = 0.11477 0.19373
# Poissons Ratio (y) = 0.23975 0.34315
# Poissons Ratio (z) = 0.52861 0.44820
#
# Static dielectric constant tensor:
#      x y z
#    x 1.730530 -0.011790 0.032740 
#    y -0.011790 1.701860 -0.012540 
#    z 0.032740 -0.012540 1.700160 
# 
# From -- ./inp_files/333643.got.cif
#   From: 2010.05.17/outbox.cif.g08.bks.cpg/sg2_167_cif.got.tgz:333643.got - 2010.06.03 11:33:40.
