data_PCOD9014697
_publ_section_title
;
Structure prediction by ZEFSAII (Michael W. Deem and Ramdas Pophale) SiO2 
 PCOD9014697
Probable space group: P -1
;
_chemical_formula_sum "Si O2"
_cell_formula_units_Z 16
_cell_length_a 10.199116
_cell_length_b 8.427767
_cell_length_c 10.507495
_cell_angle_alpha 87.338511
_cell_angle_beta 126.103629
_cell_angle_gamma 108.959560
_cell_volume 677.595814
_symmetry_space_group_name_H-M "P -1"
_symmetry_group_IT_number 2
_symmetry_cell_setting 'triclinic'
loop_
_space_group_symop_operation_xyz
x,y,z
-x,-y,-z
loop_
_atom_site_type_symbol
_atom_site_label
_atom_site_fract_x
_atom_site_fract_y
_atom_site_fract_z
Si Si1 0.582377 0.892047 0.139007
Si Si2 0.259640 0.434574 0.449696
Si Si3 0.169550 0.902637 0.138499
Si Si4 0.412320 0.290921 0.304244
Si Si5 0.022448 0.557278 0.158688
Si Si6 0.911033 0.977394 0.150335
Si Si7 0.366188 0.507131 0.031742
Si Si8 0.825878 0.909545 0.481195
O O1 0.744625 0.882564 0.146472
O O2 0.437672 0.709202 0.094913
O O3 0.677168 0.962501 0.326760
O O4 0.500000 0.000000 0.000000
O O5 0.340286 0.362578 0.381602
O O6 0.380890 0.621974 0.558740
O O7 0.085121 0.443074 0.292589
O O8 0.236322 0.295464 0.551391
O O9 0.181607 0.741754 0.225430
O O10 0.976667 0.884079 0.080795
O O11 0.321004 0.086972 0.243386
O O12 0.143560 0.890148 0.971315
O O13 0.379841 0.389179 0.159748
O O14 0.000000 0.500000 0.000000
O O15 0.839112 0.550771 0.111263
O O16 0.088963 0.043219 0.332012
O O17 0.500000 0.500000 0.000000
O O18 0.000000 0.000000 0.500000
#
# Coordination Sequence:
#
# PCOD9014697 Si02
#       8
#     2   2   2   2   2   2   2   2
#     4  11  25  40  69 102 133 180 234 287 341 421
#     4  11  23  44  69 106 138 181 241 288 350 413
#     4  11  22  41  72  99 136 181 233 281 354 414
#     4  11  23  43  73  98 141 194 225 289 358 425
#     4  12  26  42  71 108 137 179 241 295 332 420
#     4  10  21  41  68  99 132 183 225 273 351 419
#     4  12  25  46  67 101 147 187 227 286 363 417
#     4  10  21  41  70  94 137 181 228 278 355 419
#
# _framework density 23.612897
#
# number of rings (size 3 to 8) (size 9 to 14) (size 15 to 20)
#    0.000    1.000    3.750    3.750    5.250    0.500 
#    0.000    3.125    0.000    2.250    0.000    0.000 
#    0.000    0.000    0.000    0.000    0.000    0.000 
#
# Total GULP energy -89172.834489 kJ/mol
# GULP energy per Si atom -5573.302156 kJ/mol
# Density = 2.355915 g / cm^3
# Si number density = 23.612897 Si / 1000 Ang^3
#
#
#
# Elastic Constant Matrix: (Units=GPa)
#
#
# Indices 1 2 3 4 5 6 
#
# 1 65.0967 25.6865 14.5380 0.3121 3.8416 22.8977
# 2 25.6865 141.0976 60.9140 10.1594 1.9094 32.6751
# 3 14.5380 60.9140 144.6775 -3.8101 19.3342 7.3180
# 4 0.3121 10.1594 -3.8101 40.1456 4.6928 1.7727
# 5 3.8416 1.9094 19.3342 4.6928 25.9741 -6.5123
# 6 22.8977 32.6751 7.3180 1.7727 -6.5123 29.9009
#
#
#
# Elastic Compliance Matrix: (Units=1/GPa)
#
#
# Indices 1 2 3 4 5 6 
#
# 1 0.022675 0.000655 -0.000391 0.001477 -0.008365 -0.019893
# 2 0.000655 0.012011 -0.004551 -0.002910 -0.000170 -0.012377
# 3 -0.000391 -0.004551 0.009844 0.002877 -0.007172 0.001130
# 4 0.001477 -0.002910 0.002877 0.026863 -0.007470 -0.001875
# 5 -0.008365 -0.000170 -0.007172 -0.007470 0.051451 0.019996
# 6 -0.019893 -0.012377 0.001130 -0.001875 0.019996 0.066393
#
#
# Mechanical properties :
#
#
# Convention : Reuss Voigt Hill
#
# Bulk Modulus (GPa) = 27.81197 61.46098 44.63647
# Shear Modulus (GPa) = 23.83261 35.85301 29.84281
#
# Velocity S-wave (km/s) = 3.18040 3.90085 3.55890
# Velocity P-wave (km/s) = 5.02896 6.80984 5.98600
#
# Compressibility (1/GPa) = 0.03595575
#
# Stress axis : x y z
#
# Youngs Moduli (GPa) = 44.10171 83.25820 101.58298
#
# Poissons Ratio (x) = -0.05450 0.03973
# Poissons Ratio (y) = -0.02887 0.46226
# Poissons Ratio (z) = 0.01725 0.37888
#
# Static dielectric constant tensor:
#      x y z
#    x 1.913220 -0.069970 -0.036030 
#    y -0.069970 2.021610 0.029200 
#    z -0.036030 0.029200 1.944680 
# 
# From -- ./inp_files/419309.got.cif
#   From: 2010.05.17/outbox.cif.g08.bks.cpg/sg2_210_cif.got.tgz:419309.got - 2010.06.03 11:33:40.
