data_PCOD9014644
_publ_section_title
;
Structure prediction by ZEFSAII (Michael W. Deem and Ramdas Pophale) SiO2 
 PCOD9014644
Probable space group: P -1
;
_chemical_formula_sum "Si O2"
_cell_formula_units_Z 14
_cell_length_a 9.265839
_cell_length_b 8.575513
_cell_length_c 9.452325
_cell_angle_alpha 62.923093
_cell_angle_beta 75.341560
_cell_angle_gamma 67.195262
_cell_volume 613.786363
_symmetry_space_group_name_H-M "P -1"
_symmetry_group_IT_number 2
_symmetry_cell_setting 'triclinic'
loop_
_space_group_symop_operation_xyz
x,y,z
-x,-y,-z
loop_
_atom_site_type_symbol
_atom_site_label
_atom_site_fract_x
_atom_site_fract_y
_atom_site_fract_z
Si Si1 0.746206 0.694087 0.192816
Si Si2 0.526455 0.681932 0.991715
Si Si3 0.513091 0.034405 0.651635
Si Si4 0.042231 0.116852 0.097760
Si Si5 0.051236 0.440032 0.356636
Si Si6 0.144033 0.064573 0.391144
Si Si7 0.195192 0.738281 0.116430
O O1 0.885552 0.512100 0.283196
O O2 0.623470 0.803352 0.300256
O O3 0.660202 0.652553 0.090270
O O4 0.844555 0.828863 0.063977
O O5 0.530665 0.842629 0.813418
O O6 0.500000 0.500000 0.000000
O O7 0.364602 0.754292 0.089261
O O8 0.681166 0.072307 0.610478
O O9 0.500000 0.000000 0.500000
O O10 0.089105 0.170684 0.213969
O O11 0.080550 0.897109 0.176295
O O12 0.866350 0.208718 0.050142
O O13 0.000000 0.500000 0.500000
O O14 0.144710 0.226010 0.428790
O O15 0.169441 0.545296 0.229708
O O16 0.000000 0.000000 0.500000
#
# Coordination Sequence:
#
# PCOD9014644 Si02
#       7
#     2   2   2   2   2   2   2
#     4  11  24  46  73  98 141 190 230 290 353 420
#     4  12  25  42  69 105 141 183 238 290 351 421
#     4  12  26  46  72 103 143 184 237 296 357 419
#     4  10  21  41  68  96 129 180 230 274 340 421
#     4  11  25  45  67 103 143 180 234 291 353 418
#     4  12  26  42  68  97 139 181 234 281 353 413
#     4  10  22  38  67  94 134 173 224 278 341 414
#
# _framework density 22.809238000000001
#
# number of rings (size 3 to 8) (size 9 to 14) (size 15 to 20)
#    0.000    0.857    2.857    3.857    4.000    1.143 
#    0.000    2.143    0.000    0.000    0.000    0.000 
#    0.000    0.000    0.000    0.000    0.000    0.000 
#
# Total GULP energy -78132.238598 kJ/mol
# GULP energy per Si atom -5580.874186 kJ/mol
# Density = 2.275732 g / cm^3
# Si number density = 22.809238 Si / 1000 Ang^3
#
#
#
# Elastic Constant Matrix: (Units=GPa)
#
#
# Indices 1 2 3 4 5 6 
#
# 1 144.8801 3.3192 38.4918 -3.8679 -2.2375 -6.7437
# 2 3.3192 66.5778 -0.8789 7.4480 -9.4583 -5.0500
# 3 38.4918 -0.8789 77.8394 15.4390 3.4199 -9.2293
# 4 -3.8679 7.4480 15.4390 30.1759 7.0099 -0.8156
# 5 -2.2375 -9.4583 3.4199 7.0099 43.5708 5.5565
# 6 -6.7437 -5.0500 -9.2293 -0.8156 5.5565 31.6504
#
#
#
# Elastic Compliance Matrix: (Units=1/GPa)
#
#
# Indices 1 2 3 4 5 6 
#
# 1 0.008322 -0.000881 -0.004834 0.003774 -0.000033 0.000326
# 2 -0.000881 0.016508 0.001894 -0.006050 0.004092 0.002124
# 3 -0.004834 0.001894 0.017753 -0.010020 -0.000156 0.004218
# 4 0.003774 -0.006050 -0.010020 0.041839 -0.006965 -0.000782
# 5 -0.000033 0.004092 -0.000156 -0.006965 0.025488 -0.004054
# 6 0.000326 0.002124 0.004218 -0.000782 -0.004054 0.033925
#
#
# Mechanical properties :
#
#
# Convention : Reuss Voigt Hill
#
# Bulk Modulus (GPa) = 28.61859 41.24015 34.92937
# Shear Modulus (GPa) = 30.65168 37.63710 34.14439
#
# Velocity S-wave (km/s) = 3.66980 4.06653 3.87325
# Velocity P-wave (km/s) = 5.52547 6.33787 5.94556
#
# Compressibility (1/GPa) = 0.03494232
#
# Stress axis : x y z
#
# Youngs Moduli (GPa) = 120.16289 60.57606 56.32871
#
# Poissons Ratio (x) = 0.05336 0.27227
# Poissons Ratio (y) = 0.10584 -0.10668
# Poissons Ratio (z) = 0.58081 -0.11473
#
# Static dielectric constant tensor:
#      x y z
#    x 1.914040 -0.050050 -0.008930 
#    y -0.050050 2.127620 0.206050 
#    z -0.008930 0.206050 2.050290 
# 
# From -- ./inp_files/156662.got.cif
#   From: 2010.05.17/outbox.cif.g08.bks.cpg/sg2_79_cif.got.tgz:156662.got - 2010.06.03 11:33:40.
