data_PCOD9014459
_publ_section_title
;
Structure prediction by ZEFSAII (Michael W. Deem and Ramdas Pophale) SiO2 
 PCOD9014459
Probable space group: P -1
;
_chemical_formula_sum "Si O2"
_cell_formula_units_Z 16
_cell_length_a 8.617072
_cell_length_b 13.931329
_cell_length_c 11.071576
_cell_angle_alpha 127.405052
_cell_angle_beta 140.132394
_cell_angle_gamma 52.795476
_cell_volume 651.291654
_symmetry_space_group_name_H-M "P -1"
_symmetry_group_IT_number 2
_symmetry_cell_setting 'triclinic'
loop_
_space_group_symop_operation_xyz
x,y,z
-x,-y,-z
loop_
_atom_site_type_symbol
_atom_site_label
_atom_site_fract_x
_atom_site_fract_y
_atom_site_fract_z
Si Si1 0.324171 0.715861 0.610494
Si Si2 0.159520 0.078553 0.581345
Si Si3 0.277614 0.152288 0.951011
Si Si4 0.067442 0.799344 0.879161
Si Si5 0.070032 0.977369 0.220917
Si Si6 0.721935 0.644509 0.609453
Si Si7 0.370756 0.546734 0.745711
Si Si8 0.062417 0.580305 0.990359
O O1 0.443996 0.666006 0.514854
O O2 0.371970 0.611956 0.664113
O O3 0.037704 0.793508 0.483676
O O4 0.494513 0.806965 0.822004
O O5 0.331162 0.114119 0.813854
O O6 0.248481 0.998840 0.452621
O O7 0.000000 0.000000 0.500000
O O8 0.173914 0.051058 0.883542
O O9 0.040437 0.276285 0.916795
O O10 0.237723 0.662901 0.839153
O O11 0.804166 0.771630 0.737311
O O12 0.172280 0.863004 0.102081
O O13 0.017880 0.897634 0.815954
O O14 0.749739 0.566096 0.444032
O O15 0.904372 0.572797 0.770015
O O16 0.645833 0.476784 0.903864
O O17 0.000000 0.500000 0.000000
#
# Coordination Sequence:
#
# PCOD9014459 Si02
#       8
#     2   2   2   2   2   2   2   2
#     4  11  21  40  66 102 128 172 218 273 337 386
#     4  10  22  38  67  97 126 168 223 277 320 385
#     4  10  21  41  67  99 135 164 218 277 335 382
#     4  11  23  44  66  95 134 185 219 268 329 400
#     4  10  21  43  65  89 136 177 217 272 325 388
#     4  11  24  43  68  96 135 173 224 272 330 393
#     4  12  24  40  70  97 132 179 218 267 338 394
#     4  11  22  39  66 103 133 164 215 283 327 384
#
# _framework density 24.566566000000002
#
# number of rings (size 3 to 8) (size 9 to 14) (size 15 to 20)
#    0.000    1.250    6.250    1.500    1.750    2.500 
#    0.000    0.000    0.000    7.500    0.000    0.000 
#    0.000    0.000    0.000    0.000    0.000    0.000 
#
# Total GULP energy -89532.331346 kJ/mol
# GULP energy per Si atom -5595.770709 kJ/mol
# Density = 2.451065 g / cm^3
# Si number density = 24.566566 Si / 1000 Ang^3
#
#
#
# Elastic Constant Matrix: (Units=GPa)
#
#
# Indices 1 2 3 4 5 6 
#
# 1 63.0684 15.7261 19.4282 9.3948 -24.1648 1.5855
# 2 15.7261 106.0119 28.3163 11.5264 -9.5345 -2.3406
# 3 19.4282 28.3163 109.6811 6.7362 -37.7947 -23.8027
# 4 9.3948 11.5264 6.7362 33.1068 -10.4569 -15.0305
# 5 -24.1648 -9.5345 -37.7947 -10.4569 39.4673 17.2997
# 6 1.5855 -2.3406 -23.8027 -15.0305 17.2997 46.3251
#
#
#
# Elastic Compliance Matrix: (Units=1/GPa)
#
#
# Indices 1 2 3 4 5 6 
#
# 1 0.023552 -0.001810 0.000624 -0.004628 0.017058 -0.008449
# 2 -0.001810 0.010783 -0.003240 -0.003924 -0.001941 -0.001606
# 3 0.000624 -0.003240 0.015030 0.003831 0.013343 0.003798
# 4 -0.004628 -0.003924 0.003831 0.039476 0.004648 0.013001
# 5 0.017058 -0.001941 0.013343 0.004648 0.054949 -0.012838
# 6 -0.008449 -0.001606 0.003798 0.013001 -0.012838 0.032759
#
#
# Mechanical properties :
#
#
# Convention : Reuss Voigt Hill
#
# Bulk Modulus (GPa) = 24.68243 45.07803 34.88023
# Shear Modulus (GPa) = 25.13765 38.13256 31.63511
#
# Velocity S-wave (km/s) = 3.20229 3.94409 3.59239
# Velocity P-wave (km/s) = 4.87256 6.25542 5.60679
#
# Compressibility (1/GPa) = 0.04051465
#
# Stress axis : x y z
#
# Youngs Moduli (GPa) = 42.45843 92.73590 66.53410
#
# Poissons Ratio (x) = 0.16782 -0.04151
# Poissons Ratio (y) = 0.07683 0.21556
# Poissons Ratio (z) = -0.02649 0.30045
#
# Static dielectric constant tensor:
#      x y z
#    x 2.010100 -0.055160 -0.005670 
#    y -0.055160 1.977010 0.034330 
#    z -0.005670 0.034330 1.952280 
# 
# From -- ./inp_files/399691.got.cif
#   From: 2010.05.17/outbox.cif.g08.bks.cpg/sg2_200_cif.got.tgz:399691.got - 2010.06.03 11:33:40.
