data_PCOD9014202
_publ_section_title
;
Structure prediction by ZEFSAII (Michael W. Deem and Ramdas Pophale) SiO2 
 PCOD9014202
Probable space group: P -1
;
_chemical_formula_sum "Si O2"
_cell_formula_units_Z 10
_cell_length_a 10.567469
_cell_length_b 9.132942
_cell_length_c 4.996608
_cell_angle_alpha 67.433565
_cell_angle_beta 92.762770
_cell_angle_gamma 61.043210
_cell_volume 372.943344
_symmetry_space_group_name_H-M "P -1"
_symmetry_group_IT_number 2
_symmetry_cell_setting 'triclinic'
loop_
_space_group_symop_operation_xyz
x,y,z
-x,-y,-z
loop_
_atom_site_type_symbol
_atom_site_label
_atom_site_fract_x
_atom_site_fract_y
_atom_site_fract_z
Si Si1 0.924718 0.787340 0.121018
Si Si2 0.435679 0.137836 0.149577
Si Si3 0.865381 0.124210 0.603526
Si Si4 0.817217 0.620287 0.671922
Si Si5 0.614498 0.528937 0.331390
O O1 0.853786 0.747985 0.399930
O O2 0.055438 0.819407 0.209167
O O3 0.033021 0.586192 0.130608
O O4 0.817392 0.985988 0.815251
O O5 0.260364 0.278171 0.126823
O O6 0.500000 0.000000 0.500000
O O7 0.475792 0.293831 0.000214
O O8 0.500000 0.000000 0.000000
O O9 0.732424 0.328984 0.343658
O O10 0.000000 0.000000 0.500000
O O11 0.702004 0.590482 0.501387
O O12 0.500000 0.500000 0.500000
#
# Coordination Sequence:
#
# PCOD9014202 Si02
#       5
#     2   2   2   2   2
#     4   9  21  41  72 102 136 190 229 307 349 434
#     4  12  26  48  71 102 144 195 241 293 361 434
#     4  10  21  41  67 103 142 181 239 291 368 422
#     4  10  22  45  70 103 144 182 253 286 365 424
#     4  11  26  43  69 106 145 189 237 302 359 430
#
# _framework density 26.813723
#
# number of rings (size 3 to 8) (size 9 to 14) (size 15 to 20)
#    0.000    1.600    2.000    1.200    2.800    4.000 
#    0.000    6.000    0.000    0.000    0.000    0.000 
#    0.000    0.000    0.000    0.000    0.000    0.000 
#
# Total GULP energy -55969.617170 kJ/mol
# GULP energy per Si atom -5596.961717 kJ/mol
# Density = 2.675269 g / cm^3
# Si number density = 26.813723 Si / 1000 Ang^3
#
#
#
# Elastic Constant Matrix: (Units=GPa)
#
#
# Indices 1 2 3 4 5 6 
#
# 1 104.0503 43.6296 35.7572 -13.3086 -28.1197 4.4187
# 2 43.6296 225.9464 118.6190 -10.5152 -27.3946 -28.0438
# 3 35.7572 118.6190 182.8654 -37.2802 -44.4978 -4.3943
# 4 -13.3086 -10.5152 -37.2802 66.9326 4.9278 -7.5414
# 5 -28.1197 -27.3946 -44.4978 4.9278 58.8403 -2.8076
# 6 4.4187 -28.0438 -4.3943 -7.5414 -2.8076 57.1338
#
#
#
# Elastic Compliance Matrix: (Units=1/GPa)
#
#
# Indices 1 2 3 4 5 6 
#
# 1 0.011921 -0.002092 0.000565 0.001833 0.004929 -0.001421
# 2 -0.002092 0.007711 -0.005069 -0.001586 -0.000952 0.003301
# 3 0.000565 -0.005069 0.011056 0.004962 0.005820 -0.000740
# 4 0.001833 -0.001586 0.004962 0.017855 0.002488 0.001941
# 5 0.004929 -0.000952 0.005820 0.002488 0.023151 0.001065
# 6 -0.001421 0.003301 -0.000740 0.001941 0.001065 0.019484
#
#
# Mechanical properties :
#
#
# Convention : Reuss Voigt Hill
#
# Bulk Modulus (GPa) = 57.15381 100.98596 79.06989
# Shear Modulus (GPa) = 45.37124 57.57178 51.47151
#
# Velocity S-wave (km/s) = 4.11797 4.63871 4.38607
# Velocity P-wave (km/s) = 6.63111 8.15070 7.42986
#
# Compressibility (1/GPa) = 0.01749665
#
# Stress axis : x y z
#
# Youngs Moduli (GPa) = 83.88835 129.68226 90.44851
#
# Poissons Ratio (x) = 0.27128 -0.05110
# Poissons Ratio (y) = 0.17549 0.45845
# Poissons Ratio (z) = -0.04740 0.65731
#
# Static dielectric constant tensor:
#      x y z
#    x 2.277250 0.047180 0.162490 
#    y 0.047180 2.129250 -0.020200 
#    z 0.162490 -0.020200 2.195910 
# 
# From -- ./inp_files/40915.got.cif
#   From: 2010.05.17/outbox.cif.g08.bks.cpg/sg2_21_cif.got.tgz:40915.got - 2010.06.03 11:33:40.
