data_PCOD9014423
_publ_section_title
;
Structure prediction by ZEFSAII (Michael W. Deem and Ramdas Pophale) SiO2 
 PCOD9014423
Probable space group: P -1
;
_chemical_formula_sum "Si O2"
_cell_formula_units_Z 16
_cell_length_a 17.533695
_cell_length_b 17.188539
_cell_length_c 8.277934
_cell_angle_alpha 40.306585
_cell_angle_beta 40.227062
_cell_angle_gamma 24.709055
_cell_volume 651.116559
_symmetry_space_group_name_H-M "P -1"
_symmetry_group_IT_number 2
_symmetry_cell_setting 'triclinic'
loop_
_space_group_symop_operation_xyz
x,y,z
-x,-y,-z
loop_
_atom_site_type_symbol
_atom_site_label
_atom_site_fract_x
_atom_site_fract_y
_atom_site_fract_z
Si Si1 0.072276 0.033160 0.192902
Si Si2 0.288645 0.485360 0.328418
Si Si3 0.064779 0.438730 0.677373
Si Si4 0.485597 0.281655 0.995705
Si Si5 0.542175 0.003905 0.183522
Si Si6 0.154025 0.605789 0.825181
Si Si7 0.032144 0.856904 0.313365
Si Si8 0.385563 0.910613 0.402123
O O1 0.293211 0.873801 0.115316
O O2 0.042540 0.986373 0.148338
O O3 0.000000 0.000000 0.500000
O O4 0.962459 0.243647 0.073714
O O5 0.115945 0.526780 0.531022
O O6 0.195866 0.686312 0.196976
O O7 0.442045 0.316745 0.477149
O O8 0.395798 0.393349 0.131346
O O9 0.000000 0.500000 0.500000
O O10 0.259397 0.209940 0.744603
O O11 0.908795 0.482477 0.951203
O O12 0.371433 0.438649 0.789775
O O13 0.459807 0.159590 0.202281
O O14 0.408163 0.001444 0.350502
O O15 0.585330 0.051494 0.880011
O O16 0.094476 0.726774 0.574394
O O17 0.817922 0.988703 0.415738
#
# Coordination Sequence:
#
# PCOD9014423 Si02
#       8
#     2   2   2   2   2   2   2   2
#     4  10  24  46  72  95 127 177 230 278 324 387
#     4  11  27  38  62 105 138 176 216 268 341 399
#     4  11  21  41  67 102 140 167 219 273 333 400
#     4  12  24  43  68 101 134 172 222 279 330 395
#     4  10  21  41  67  97 134 179 218 274 331 391
#     4  11  23  43  71 100 128 175 229 274 325 396
#     4  11  24  43  68  95 133 181 222 273 327 392
#     4  10  22  42  64  96 138 173 224 273 325 392
#
# _framework density 24.573173000000001
#
# number of rings (size 3 to 8) (size 9 to 14) (size 15 to 20)
#    0.000    1.250    3.750    1.500    1.750    8.000 
#    0.000    1.250    0.000    0.000    0.000    0.000 
#    0.000    0.000    0.000    0.000    0.000    0.000 
#
# Total GULP energy -89673.618058 kJ/mol
# GULP energy per Si atom -5604.601129 kJ/mol
# Density = 2.451724 g / cm^3
# Si number density = 24.573173 Si / 1000 Ang^3
#
#
#
# Elastic Constant Matrix: (Units=GPa)
#
#
# Indices 1 2 3 4 5 6 
#
# 1 123.3618 81.1580 14.9128 -5.0699 -3.7037 -17.9511
# 2 81.1580 131.4214 16.6697 -1.8451 -6.9248 -14.4986
# 3 14.9128 16.6697 62.2771 -11.3592 13.7346 -17.2999
# 4 -5.0699 -1.8451 -11.3592 29.1475 -12.2923 9.3910
# 5 -3.7037 -6.9248 13.7346 -12.2923 38.5996 -0.2100
# 6 -17.9511 -14.4986 -17.2999 9.3910 -0.2100 58.6649
#
#
#
# Elastic Compliance Matrix: (Units=1/GPa)
#
#
# Indices 1 2 3 4 5 6 
#
# 1 0.013979 -0.008327 -0.000455 0.001306 0.000435 0.001878
# 2 -0.008327 0.013133 -0.002036 -0.000591 0.002094 0.000200
# 3 -0.000455 -0.002036 0.020056 0.003373 -0.006446 0.004709
# 4 0.001306 -0.000591 0.003373 0.042850 0.012435 -0.005567
# 5 0.000435 0.002094 -0.006446 0.012435 0.032561 -0.003124
# 6 0.001878 0.000200 0.004709 -0.005567 -0.003124 0.019939
#
#
# Mechanical properties :
#
#
# Convention : Reuss Voigt Hill
#
# Bulk Modulus (GPa) = 39.16333 60.28237 49.72285
# Shear Modulus (GPa) = 28.95805 38.90373 33.93089
#
# Velocity S-wave (km/s) = 3.43657 3.98323 3.71996
# Velocity P-wave (km/s) = 5.63194 6.76313 6.22329
#
# Compressibility (1/GPa) = 0.02553409
#
# Stress axis : x y z
#
# Youngs Moduli (GPa) = 71.53514 76.14185 49.86070
#
# Poissons Ratio (x) = 0.63400 0.02268
# Poissons Ratio (y) = 0.59564 0.10151
# Poissons Ratio (z) = 0.03254 0.15501
#
# Static dielectric constant tensor:
#      x y z
#    x 2.006900 0.037360 0.032390 
#    y 0.037360 1.934900 0.012770 
#    z 0.032390 0.012770 1.954950 
# 
# From -- ./inp_files/314601.got.cif
#   From: 2010.05.17/outbox.cif.g08.bks.cpg/sg2_158_cif.got.tgz:314601.got - 2010.06.03 11:33:40.
