data_PCOD9014559
_publ_section_title
;
Structure prediction by ZEFSAII (Michael W. Deem and Ramdas Pophale) SiO2 
 PCOD9014559
Probable space group: P -1
;
_chemical_formula_sum "Si O2"
_cell_formula_units_Z 16
_cell_length_a 10.908490
_cell_length_b 10.716372
_cell_length_c 17.127915
_cell_angle_alpha 148.054047
_cell_angle_beta 133.279718
_cell_angle_gamma 63.998053
_cell_volume 715.899625
_symmetry_space_group_name_H-M "P -1"
_symmetry_group_IT_number 2
_symmetry_cell_setting 'triclinic'
loop_
_space_group_symop_operation_xyz
x,y,z
-x,-y,-z
loop_
_atom_site_type_symbol
_atom_site_label
_atom_site_fract_x
_atom_site_fract_y
_atom_site_fract_z
Si Si1 0.591090 0.944861 0.932377
Si Si2 0.319902 0.095374 0.806264
Si Si3 0.610914 0.349339 0.806678
Si Si4 0.127743 0.542040 0.154032
Si Si5 0.140693 0.957168 0.198962
Si Si6 0.704020 0.041467 0.453686
Si Si7 0.927225 0.198987 0.316625
Si Si8 0.533634 0.607502 0.485862
O O1 0.520215 0.644274 0.725126
O O2 0.513376 0.066510 0.893061
O O3 0.500000 0.000000 0.000000
O O4 0.799096 0.081700 0.122351
O O5 0.271213 0.047381 0.668786
O O6 0.181367 0.899309 0.702525
O O7 0.335967 0.374437 0.986731
O O8 0.676918 0.389981 0.767237
O O9 0.719918 0.182663 0.799277
O O10 0.406961 0.185851 0.657110
O O11 0.122028 0.772006 0.325649
O O12 0.000000 0.500000 0.000000
O O13 0.042842 0.283138 0.028814
O O14 0.257239 0.199676 0.327691
O O15 0.083923 0.085266 0.316432
O O16 0.593368 0.230081 0.494574
O O17 0.000000 0.500000 0.500000
O O18 0.500000 0.500000 0.500000
#
# Coordination Sequence:
#
# PCOD9014559 Si02
#       8
#     2   2   2   2   2   2   2   2
#     4  10  22  41  65  94 130 172 219 260 314 393
#     4  11  22  42  65  97 134 167 219 273 316 388
#     4  10  22  41  69  92 126 173 220 265 322 392
#     4  10  21  43  63  93 128 166 215 266 322 389
#     4  10  21  41  68  91 128 168 221 264 322 392
#     4  11  23  40  66  97 129 171 218 271 326 385
#     4  11  23  42  66  96 133 173 215 267 327 385
#     4  11  22  41  67  95 129 168 219 272 324 389
#
# _framework density 22.349502000000001
#
# number of rings (size 3 to 8) (size 9 to 14) (size 15 to 20)
#    0.000    1.500    2.500    3.000    1.750    0.000 
#    6.750    3.750    0.000    0.000    0.000    0.000 
#    0.000    0.000    0.000    0.000    0.000    0.000 
#
# Total GULP energy -89220.545543 kJ/mol
# GULP energy per Si atom -5576.284096 kJ/mol
# Density = 2.229863 g / cm^3
# Si number density = 22.349502 Si / 1000 Ang^3
#
#
#
# Elastic Constant Matrix: (Units=GPa)
#
#
# Indices 1 2 3 4 5 6 
#
# 1 74.9984 31.2445 51.3753 16.5803 -1.8310 24.6019
# 2 31.2445 75.9639 51.8303 13.0875 0.1897 6.7388
# 3 51.3753 51.8303 156.4594 40.2191 -7.5018 34.9498
# 4 16.5803 13.0875 40.2191 43.3599 7.1755 -5.9308
# 5 -1.8310 0.1897 -7.5018 7.1755 42.7182 13.9014
# 6 24.6019 6.7388 34.9498 -5.9308 13.9014 38.5243
#
#
#
# Elastic Compliance Matrix: (Units=1/GPa)
#
#
# Indices 1 2 3 4 5 6 
#
# 1 0.028851 -0.010756 0.008801 -0.023692 0.018104 -0.034707
# 2 -0.010756 0.021925 -0.012548 0.013955 -0.011894 0.020857
# 3 0.008801 -0.012548 0.027350 -0.034909 0.024970 -0.042623
# 4 -0.023692 0.013955 -0.034909 0.077363 -0.043638 0.072016
# 5 0.018104 -0.011894 0.024970 -0.043638 0.055062 -0.058721
# 6 -0.034707 0.020857 -0.042623 0.072016 -0.058721 0.115418
#
#
# Mechanical properties :
#
#
# Convention : Reuss Voigt Hill
#
# Bulk Modulus (GPa) = 20.35835 64.03577 42.19706
# Shear Modulus (GPa) = 13.46448 36.45191 24.95820
#
# Velocity S-wave (km/s) = 2.45715 4.04294 3.34537
# Velocity P-wave (km/s) = 4.14475 7.10690 5.81752
#
# Compressibility (1/GPa) = 0.04911989
#
# Stress axis : x y z
#
# Youngs Moduli (GPa) = 34.66116 45.61075 36.56276
#
# Poissons Ratio (x) = 0.49058 -0.32178
# Poissons Ratio (y) = 0.37281 0.45879
# Poissons Ratio (z) = -0.30505 0.57232
#
# Static dielectric constant tensor:
#      x y z
#    x 1.882680 -0.067770 0.099600 
#    y -0.067770 1.894890 -0.069400 
#    z 0.099600 -0.069400 1.928380 
# 
# From -- ./inp_files/569025.got.cif
#   From: 2010.05.17/outbox.cif.g08.bks.cpg/sg2_285_cif.got.tgz:569025.got - 2010.06.03 11:33:40.
