data_PCOD9014505
_publ_section_title
;
Structure prediction by ZEFSAII (Michael W. Deem and Ramdas Pophale) SiO2 
 PCOD9014505
Probable space group: P -1
;
_chemical_formula_sum "Si O2"
_cell_formula_units_Z 16
_cell_length_a 10.429684
_cell_length_b 6.733768
_cell_length_c 11.215709
_cell_angle_alpha 83.448167
_cell_angle_beta 117.115710
_cell_angle_gamma 86.154479
_cell_volume 690.191711
_symmetry_space_group_name_H-M "P -1"
_symmetry_group_IT_number 2
_symmetry_cell_setting 'triclinic'
loop_
_space_group_symop_operation_xyz
x,y,z
-x,-y,-z
loop_
_atom_site_type_symbol
_atom_site_label
_atom_site_fract_x
_atom_site_fract_y
_atom_site_fract_z
Si Si1 0.148941 0.254910 0.314480
Si Si2 0.145132 0.822082 0.699060
Si Si3 0.670594 0.958528 0.050293
Si Si4 0.483146 0.648405 0.667170
Si Si5 0.673426 0.944148 0.400532
Si Si6 0.268776 0.625811 0.353591
Si Si7 0.839202 0.989723 0.880781
Si Si8 0.313686 0.408817 0.762066
O O1 0.292026 0.143563 0.448585
O O2 0.141237 0.489003 0.328596
O O3 0.154419 0.212999 0.180092
O O4 0.014271 0.156823 0.316550
O O5 0.249127 0.895817 0.840382
O O6 0.183059 0.589737 0.693205
O O7 0.190817 0.951477 0.598744
O O8 0.705350 0.725195 0.121562
O O9 0.500000 0.000000 0.000000
O O10 0.726597 0.993338 0.940490
O O11 0.355599 0.650347 0.511308
O O12 0.620298 0.517434 0.675040
O O13 0.446587 0.534737 0.780990
O O14 0.466735 0.886339 0.673442
O O15 0.668766 0.754868 0.325319
O O16 0.211027 0.829032 0.245651
O O17 0.000000 0.000000 0.000000
#
# Coordination Sequence:
#
# PCOD9014505 Si02
#       8
#     2   2   2   2   2   2   2   2
#     4  12  24  42  68 101 136 188 225 282 359 413
#     4  10  24  41  67  99 138 174 233 296 330 421
#     4  11  25  46  71  98 133 189 238 283 344 411
#     4  10  21  43  65 105 139 165 233 291 345 415
#     4  10  21  41  68 102 137 177 225 289 356 411
#     4  11  25  39  69 100 137 183 220 286 354 410
#     4  12  27  47  69 100 147 185 233 286 344 425
#     4  10  22  42  71  97 133 175 228 292 344 402
#
# _framework density 23.181965999999999
#
# number of rings (size 3 to 8) (size 9 to 14) (size 15 to 20)
#    0.000    1.250    3.750    1.125    1.750    7.000 
#    0.000    0.000    0.000    0.000    0.000    0.000 
#    0.000    0.000    0.000    0.000    0.000    0.000 
#
# Total GULP energy -89395.705077 kJ/mol
# GULP energy per Si atom -5587.231567 kJ/mol
# Density = 2.312920 g / cm^3
# Si number density = 23.181966 Si / 1000 Ang^3
#
#
#
# Elastic Constant Matrix: (Units=GPa)
#
#
# Indices 1 2 3 4 5 6 
#
# 1 90.8569 2.1638 14.5511 0.8623 -3.7802 -0.6747
# 2 2.1638 103.6772 35.3161 -10.9411 2.6537 -3.2498
# 3 14.5511 35.3161 73.0335 2.0614 0.0413 13.0736
# 4 0.8623 -10.9411 2.0614 27.4105 4.0600 -11.1360
# 5 -3.7802 2.6537 0.0413 4.0600 30.6367 2.6246
# 6 -0.6747 -3.2498 13.0736 -11.1360 2.6246 30.3890
#
#
#
# Elastic Compliance Matrix: (Units=1/GPa)
#
#
# Indices 1 2 3 4 5 6 
#
# 1 0.011535 0.000952 -0.003131 0.000882 0.001062 0.001936
# 2 0.000952 0.014268 -0.009133 0.010802 -0.003371 0.009726
# 3 -0.003131 -0.009133 0.021744 -0.011745 0.003215 -0.014982
# 4 0.000882 0.010802 -0.011745 0.054123 -0.010292 0.026950
# 5 0.001062 -0.003371 0.003215 -0.010292 0.035154 -0.008528
# 6 0.001936 0.009726 -0.014982 0.026950 -0.008528 0.051048
#
#
# Mechanical properties :
#
#
# Convention : Reuss Voigt Hill
#
# Bulk Modulus (GPa) = 40.12198 41.29218 40.70708
# Shear Modulus (GPa) = 22.85167 32.05635 27.45401
#
# Velocity S-wave (km/s) = 3.14308 3.72266 3.44507
# Velocity P-wave (km/s) = 5.52421 6.02731 5.78123
#
# Compressibility (1/GPa) = 0.02492400
#
# Stress axis : x y z
#
# Youngs Moduli (GPa) = 86.69069 70.08921 45.98937
#
# Poissons Ratio (x) = -0.06675 0.14399
# Poissons Ratio (y) = -0.08256 0.42002
# Poissons Ratio (z) = 0.27142 0.64012
#
# Static dielectric constant tensor:
#      x y z
#    x 1.908330 0.039120 0.023490 
#    y 0.039120 1.888040 -0.006450 
#    z 0.023490 -0.006450 1.894740 
# 
# From -- ./inp_files/363895.got.cif
#   From: 2010.05.17/outbox.cif.g08.bks.cpg/sg2_182_cif.got.tgz:363895.got - 2010.06.03 11:33:40.
