data_PCOD9014341
_publ_section_title
;
Structure prediction by ZEFSAII (Michael W. Deem and Ramdas Pophale) SiO2 
 PCOD9014341
Probable space group: P -1
;
_chemical_formula_sum "Si O2"
_cell_formula_units_Z 16
_cell_length_a 14.444718
_cell_length_b 7.628140
_cell_length_c 14.486958
_cell_angle_alpha 64.132965
_cell_angle_beta 153.448233
_cell_angle_gamma 104.140632
_cell_volume 598.279395
_symmetry_space_group_name_H-M "P -1"
_symmetry_group_IT_number 2
_symmetry_cell_setting 'triclinic'
loop_
_space_group_symop_operation_xyz
x,y,z
-x,-y,-z
loop_
_atom_site_type_symbol
_atom_site_label
_atom_site_fract_x
_atom_site_fract_y
_atom_site_fract_z
Si Si1 0.791280 0.077688 0.464662
Si Si2 0.641272 0.565276 0.554132
Si Si3 0.649156 0.042405 0.702521
Si Si4 0.950201 0.360358 0.410742
Si Si5 0.627995 0.777772 0.307624
Si Si6 0.223750 0.656492 0.923712
Si Si7 0.069330 0.907150 0.213386
Si Si8 0.875134 0.413512 0.955107
O O1 0.838422 0.220718 0.396629
O O2 0.809936 0.167378 0.563597
O O3 0.593893 0.000645 0.274581
O O4 0.000674 0.859080 0.694142
O O5 0.532546 0.811808 0.426142
O O6 0.699854 0.589765 0.491825
O O7 0.897867 0.513611 0.843825
O O8 0.387431 0.534914 0.333434
O O9 0.772527 0.163506 0.719697
O O10 0.500000 0.000000 0.500000
O O11 0.842693 0.889465 0.975037
O O12 0.791834 0.453758 0.160087
O O13 0.000000 0.500000 0.500000
O O14 0.188068 0.247162 0.600460
O O15 0.416399 0.750028 0.079110
O O16 0.223556 0.524300 0.043871
O O17 0.989957 0.161536 0.096371
#
# Coordination Sequence:
#
# PCOD9014341 Si02
#       8
#     2   2   2   2   2   2   2   2
#     4  10  22  43  66  92 121 172 222 266 320 383
#     4  12  21  38  63  96 132 166 209 266 315 380
#     4  11  22  39  57  90 133 170 211 258 313 384
#     4  11  26  45  63  94 131 164 214 280 335 377
#     4  11  22  42  70  93 127 169 222 267 313 393
#     4  10  21  41  67  95 123 168 224 260 317 390
#     4  10  22  39  60  90 129 172 212 256 319 387
#     4  11  20  37  64  96 129 171 217 260 315 385
#
# _framework density 26.743355000000001
#
# number of rings (size 3 to 8) (size 9 to 14) (size 15 to 20)
#    0.000    1.250    2.500    6.000    0.000    3.500 
#    6.750    0.000    0.000    0.000    0.000    0.000 
#    0.000    0.000    0.000    0.000    0.000    0.000 
#
# Total GULP energy -89274.365046 kJ/mol
# GULP energy per Si atom -5579.647815 kJ/mol
# Density = 2.668249 g / cm^3
# Si number density = 26.743355 Si / 1000 Ang^3
#
#
#
# Elastic Constant Matrix: (Units=GPa)
#
#
# Indices 1 2 3 4 5 6 
#
# 1 177.6117 46.9097 38.3911 26.6885 -38.3737 1.1819
# 2 46.9097 110.5465 29.3587 51.9519 -20.8122 14.5855
# 3 38.3911 29.3587 111.1490 58.2745 -23.5933 -8.0311
# 4 26.6885 51.9519 58.2745 56.9293 -11.4716 -2.5263
# 5 -38.3737 -20.8122 -23.5933 -11.4716 45.9203 16.0562
# 6 1.1819 14.5855 -8.0311 -2.5263 16.0562 42.2624
#
#
#
# Elastic Compliance Matrix: (Units=1/GPa)
#
#
# Indices 1 2 3 4 5 6 
#
# 1 0.007539 -0.001752 -0.001345 0.000488 0.005625 -0.001970
# 2 -0.001752 0.028849 0.015611 -0.039106 0.015114 -0.015021
# 3 -0.001345 0.015611 0.029200 -0.041165 0.013217 -0.007283
# 4 0.000488 -0.039106 -0.041165 0.091504 -0.022486 0.019673
# 5 0.005625 0.015114 0.013217 -0.022486 0.041482 -0.019966
# 6 -0.001970 -0.015021 -0.007283 0.019673 -0.019966 0.036278
#
#
# Mechanical properties :
#
#
# Convention : Reuss Voigt Hill
#
# Bulk Modulus (GPa) = 11.03564 69.84736 40.44150
# Shear Modulus (GPa) = 20.83075 47.99892 34.41484
#
# Velocity S-wave (km/s) = 2.79393 4.24110 3.59117
# Velocity P-wave (km/s) = 3.81360 7.08216 5.68773
#
# Compressibility (1/GPa) = 0.09061552
#
# Stress axis : x y z
#
# Youngs Moduli (GPa) = 132.64398 34.66331 34.24664
#
# Poissons Ratio (x) = 0.06073 0.04606
# Poissons Ratio (y) = 0.23240 -0.53462
# Poissons Ratio (z) = 0.17842 -0.54113
#
# Static dielectric constant tensor:
#      x y z
#    x 2.091610 -0.034400 -0.041020 
#    y -0.034400 1.571750 0.362470 
#    z -0.041020 0.362470 2.011900 
# 
# From -- ./inp_files/529478.got.cif
#   From: 2010.05.17/outbox.cif.g08.bks.cpg/sg2_265_cif.got.tgz:529478.got - 2010.06.03 11:33:40.
