data_PCOD9014967
_publ_section_title
;
Structure prediction by ZEFSAII (Michael W. Deem and Ramdas Pophale) SiO2 
 PCOD9014967
Probable space group: P -1
;
_chemical_formula_sum "Si O2"
_cell_formula_units_Z 16
_cell_length_a 8.174907
_cell_length_b 9.730939
_cell_length_c 11.320392
_cell_angle_alpha 72.174856
_cell_angle_beta 95.231915
_cell_angle_gamma 131.881216
_cell_volume 630.098712
_symmetry_space_group_name_H-M "P -1"
_symmetry_group_IT_number 2
_symmetry_cell_setting 'triclinic'
loop_
_space_group_symop_operation_xyz
x,y,z
-x,-y,-z
loop_
_atom_site_type_symbol
_atom_site_label
_atom_site_fract_x
_atom_site_fract_y
_atom_site_fract_z
Si Si1 0.998720 0.578358 0.162297
Si Si2 0.587114 0.012576 0.872292
Si Si3 0.285154 0.183025 0.183494
Si Si4 0.865830 0.796157 0.338668
Si Si5 0.592254 0.362322 0.369894
Si Si6 0.276413 0.976452 0.675928
Si Si7 0.137053 0.395434 0.107791
Si Si8 0.164444 0.727337 0.498114
O O1 0.154711 0.796773 0.157662
O O2 0.164565 0.540922 0.164965
O O3 0.797736 0.442977 0.274316
O O4 0.904258 0.562374 0.033400
O O5 0.569273 0.833793 0.885614
O O6 0.486761 0.043586 0.748624
O O7 0.500000 0.000000 0.000000
O O8 0.373093 0.220639 0.314056
O O9 0.305816 0.364791 0.115688
O O10 0.029581 0.977516 0.210502
O O11 0.042636 0.788462 0.408147
O O12 0.659189 0.565825 0.355555
O O13 0.765722 0.875650 0.380532
O O14 0.611019 0.242357 0.497119
O O15 0.212532 0.843326 0.592826
O O16 0.087019 0.809363 0.802493
O O17 0.000000 0.500000 0.500000
#
# Coordination Sequence:
#
# PCOD9014967 Si02
#       8
#     2   2   2   2   2   2   2   2
#     4  11  22  41  62  93 130 174 209 258 324 378
#     4  12  24  40  65  97 132 173 211 257 323 388
#     4  11  24  42  62  96 130 169 217 266 312 384
#     4  10  24  41  67  95 127 171 214 270 325 369
#     4  11  22  42  64  93 132 164 215 264 319 386
#     4  11  21  43  64  95 132 163 216 269 314 384
#     4  10  23  39  64  90 129 171 212 260 317 385
#     4  10  21  41  70  92 123 172 218 265 325 375
#
# _framework density 25.392848000000001
#
# number of rings (size 3 to 8) (size 9 to 14) (size 15 to 20)
#    0.000    1.250    5.000    0.375    3.500    2.500 
#    0.000    0.000    0.000    4.500    0.000    0.000 
#    0.000    0.000    0.000    0.000    0.000    0.000 
#
# Total GULP energy -89130.681940 kJ/mol
# GULP energy per Si atom -5570.667621 kJ/mol
# Density = 2.533505 g / cm^3
# Si number density = 25.392848 Si / 1000 Ang^3
#
#
#
# Elastic Constant Matrix: (Units=GPa)
#
#
# Indices 1 2 3 4 5 6 
#
# 1 113.2867 48.1258 22.8512 6.1965 0.8782 -59.3789
# 2 48.1258 143.7595 23.3111 10.4935 -12.7213 -40.0805
# 3 22.8512 23.3111 66.9023 22.1782 3.8346 -29.8090
# 4 6.1965 10.4935 22.1782 27.2315 -10.8079 0.8956
# 5 0.8782 -12.7213 3.8346 -10.8079 17.4622 0.6023
# 6 -59.3789 -40.0805 -29.8090 0.8956 0.6023 63.9979
#
#
#
# Elastic Compliance Matrix: (Units=1/GPa)
#
#
# Indices 1 2 3 4 5 6 
#
# 1 0.023212 -0.002773 0.016677 -0.028936 -0.025733 0.028215
# 2 -0.002773 0.009520 -0.003455 0.003724 0.010082 0.001633
# 3 0.016677 -0.003455 0.059316 -0.078558 -0.066474 0.042662
# 4 -0.028936 0.003724 -0.078558 0.155567 0.119927 -0.064412
# 5 -0.025733 0.010082 -0.066474 0.119927 0.156512 -0.051675
# 6 0.028215 0.001633 0.042662 -0.064412 -0.051675 0.064086
#
#
# Mechanical properties :
#
#
# Convention : Reuss Voigt Hill
#
# Bulk Modulus (GPa) = 8.85386 56.94719 32.90052
# Shear Modulus (GPa) = 10.31001 37.04903 23.67952
#
# Velocity S-wave (km/s) = 2.01718 3.82387 3.05704
# Velocity P-wave (km/s) = 2.98658 6.47852 5.04435
#
# Compressibility (1/GPa) = 0.11294513
#
# Stress axis : x y z
#
# Youngs Moduli (GPa) = 43.08026 105.03812 16.85896
#
# Poissons Ratio (x) = 0.29132 -0.28115
# Poissons Ratio (y) = 0.11948 0.05824
# Poissons Ratio (z) = -0.71843 0.36288
#
# Static dielectric constant tensor:
#      x y z
#    x 2.114860 0.012180 -0.088540 
#    y 0.012180 1.999210 -0.127370 
#    z -0.088540 -0.127370 2.390270 
# 
# From -- ./inp_files/206587.got.cif
#   From: 2010.05.17/outbox.cif.g08.bks.cpg/sg2_104_cif.got.tgz:206587.got - 2010.06.03 11:33:40.
