data_PCOD9014031
_publ_section_title
;
Structure prediction by ZEFSAII (Michael W. Deem and Ramdas Pophale) SiO2 
 PCOD9014031
Probable space group: P -1
;
_chemical_formula_sum "Si O2"
_cell_formula_units_Z 16
_cell_length_a 13.560374
_cell_length_b 13.638664
_cell_length_c 7.488564
_cell_angle_alpha 42.906018
_cell_angle_beta 56.628974
_cell_angle_gamma 44.733365
_cell_volume 662.335085
_symmetry_space_group_name_H-M "P -1"
_symmetry_group_IT_number 2
_symmetry_cell_setting 'triclinic'
loop_
_space_group_symop_operation_xyz
x,y,z
-x,-y,-z
loop_
_atom_site_type_symbol
_atom_site_label
_atom_site_fract_x
_atom_site_fract_y
_atom_site_fract_z
Si Si1 0.411036 0.167986 0.246120
Si Si2 0.960647 0.065769 0.748065
Si Si3 0.258708 0.800674 0.706746
Si Si4 0.429150 0.926088 0.286540
Si Si5 0.650759 0.236499 0.922302
Si Si6 0.084176 0.589955 0.821913
Si Si7 0.682451 0.546180 0.499278
Si Si8 0.214462 0.522367 0.137337
O O1 0.500000 0.000000 0.500000
O O2 0.349146 0.090527 0.277381
O O3 0.526606 0.212968 0.013463
O O4 0.295491 0.326026 0.263114
O O5 0.799425 0.121244 0.825917
O O6 0.963509 0.232642 0.467370
O O7 0.090524 0.910477 0.721999
O O8 0.000000 0.000000 0.000000
O O9 0.316686 0.880824 0.408968
O O10 0.304485 0.606669 0.890875
O O11 0.316297 0.808503 0.836842
O O12 0.563593 0.731579 0.444515
O O13 0.500000 0.000000 0.000000
O O14 0.621424 0.426997 0.687265
O O15 0.239283 0.461475 0.750494
O O16 0.089804 0.610452 0.001936
O O17 0.000000 0.500000 0.000000
O O18 0.798144 0.461561 0.657835
#
# Coordination Sequence:
#
# PCOD9014031 Si02
#       8
#     2   2   2   2   2   2   2   2
#     4  12  22  39  66 102 132 174 222 280 347 399
#     4   9  21  42  69  96 130 186 231 274 340 409
#     4  10  21  41  66  94 134 177 227 275 331 414
#     4  12  25  38  63 101 139 174 221 288 343 399
#     4   9  19  40  69  93 131 176 224 273 333 413
#     4  11  26  44  70 100 141 179 227 298 347 405
#     4  10  22  45  65  98 135 180 228 274 347 416
#     4  11  24  43  70  98 133 183 230 277 352 413
#
# _framework density 24.156957999999999
#
# number of rings (size 3 to 8) (size 9 to 14) (size 15 to 20)
#    0.000    1.500    2.500    2.250    3.500    5.000 
#    2.250    4.375    0.000    0.000    0.000    0.000 
#    0.000    0.000    0.000    0.000    0.000    0.000 
#
# Total GULP energy -89191.418995 kJ/mol
# GULP energy per Si atom -5574.463687 kJ/mol
# Density = 2.410198 g / cm^3
# Si number density = 24.156958 Si / 1000 Ang^3
#
#
#
# Elastic Constant Matrix: (Units=GPa)
#
#
# Indices 1 2 3 4 5 6 
#
# 1 78.5189 -1.9967 21.3290 -3.5540 -1.5174 9.6041
# 2 -1.9967 76.2903 9.9257 -24.1204 1.3390 2.8753
# 3 21.3290 9.9257 91.9987 -20.5749 -11.4558 2.1043
# 4 -3.5540 -24.1204 -20.5749 38.5692 0.6230 -8.7145
# 5 -1.5174 1.3390 -11.4558 0.6230 28.8683 -1.3850
# 6 9.6041 2.8753 2.1043 -8.7145 -1.3850 25.9885
#
#
#
# Elastic Compliance Matrix: (Units=1/GPa)
#
#
# Indices 1 2 3 4 5 6 
#
# 1 0.014368 0.000601 -0.003738 -0.001554 -0.000993 -0.005648
# 2 0.000601 0.016485 0.000402 0.010942 -0.000735 0.001551
# 3 -0.003738 0.000402 0.014088 0.008055 0.005354 0.003183
# 4 -0.001554 0.010942 0.008055 0.039625 0.002334 0.012123
# 5 -0.000993 -0.000735 0.005354 0.002334 0.036829 0.002760
# 6 -0.005648 0.001551 0.003183 0.012123 0.002760 0.044349
#
#
# Mechanical properties :
#
#
# Convention : Reuss Voigt Hill
#
# Bulk Modulus (GPa) = 25.33447 33.92486 29.62967
# Shear Modulus (GPa) = 27.11933 33.18854 30.15393
#
# Velocity S-wave (km/s) = 3.35420 3.71060 3.53689
# Velocity P-wave (km/s) = 5.05085 5.69491 5.38253
#
# Compressibility (1/GPa) = 0.03947191
#
# Stress axis : x y z
#
# Youngs Moduli (GPa) = 69.60059 60.66094 70.98060
#
# Poissons Ratio (x) = -0.03648 0.26532
# Poissons Ratio (y) = -0.04185 -0.02854
# Poissons Ratio (z) = 0.26016 -0.02439
#
# Static dielectric constant tensor:
#      x y z
#    x 1.986400 -0.005780 0.101510 
#    y -0.005780 2.026500 0.084180 
#    z 0.101510 0.084180 2.023600 
# 
# From -- ./inp_files/312307.got.cif
#   From: 2010.05.17/outbox.cif.g08.bks.cpg/sg2_157_cif.got.tgz:312307.got - 2010.06.03 11:33:40.
