data_PCOD9014461
_publ_section_title
;
Structure prediction by ZEFSAII (Michael W. Deem and Ramdas Pophale) SiO2 
 PCOD9014461
Probable space group: P -1
;
_chemical_formula_sum "Si O2"
_cell_formula_units_Z 16
_cell_length_a 8.727855
_cell_length_b 9.246267
_cell_length_c 26.602370
_cell_angle_alpha 45.165462
_cell_angle_beta 141.788559
_cell_angle_gamma 103.351589
_cell_volume 637.012951
_symmetry_space_group_name_H-M "P -1"
_symmetry_group_IT_number 2
_symmetry_cell_setting 'triclinic'
loop_
_space_group_symop_operation_xyz
x,y,z
-x,-y,-z
loop_
_atom_site_type_symbol
_atom_site_label
_atom_site_fract_x
_atom_site_fract_y
_atom_site_fract_z
Si Si1 0.582523 0.953087 0.227441
Si Si2 0.351555 0.462972 0.587697
Si Si3 0.526576 0.227631 0.959208
Si Si4 0.745901 0.432108 0.033448
Si Si5 0.425397 0.288190 0.807554
Si Si6 0.173707 0.242156 0.282789
Si Si7 0.271569 0.751106 0.589369
Si Si8 0.637505 0.570069 0.561705
O O1 0.489117 0.842300 0.273273
O O2 0.443630 0.974840 0.130236
O O3 0.024361 0.648952 0.417071
O O4 0.446549 0.267453 0.120410
O O5 0.132882 0.712184 0.514946
O O6 0.658889 0.421647 0.653888
O O7 0.794764 0.201584 0.069216
O O8 0.585524 0.254339 0.910354
O O9 0.146160 0.517745 0.818659
O O10 0.500000 0.000000 0.000000
O O11 0.500000 0.500000 0.000000
O O12 0.081568 0.313295 0.181692
O O13 0.482878 0.446428 0.748003
O O14 0.007383 0.469779 0.668772
O O15 0.492054 0.210078 0.380629
O O16 0.323146 0.924702 0.404665
O O17 0.000000 0.000000 0.500000
O O18 0.500000 0.500000 0.500000
#
# Coordination Sequence:
#
# PCOD9014461 Si02
#       8
#     2   2   2   2   2   2   2   2
#     4  10  21  41  67  99 136 188 224 290 354 422
#     4  10  22  39  67 100 139 181 233 286 363 409
#     4  11  25  43  71 102 139 183 234 293 348 422
#     4  10  22  42  71  96 136 182 238 284 346 420
#     4  11  23  41  66  99 139 180 228 287 355 406
#     4  11  25  45  70 102 140 187 237 290 355 423
#     4  11  24  42  65 102 142 180 226 297 352 419
#     4  12  24  39  70 106 136 179 238 296 346 424
#
# _framework density 25.117231
#
# number of rings (size 3 to 8) (size 9 to 14) (size 15 to 20)
#    0.000    1.250    2.500    3.750    5.250    1.000 
#    0.000    7.500    0.000    0.000    0.000    0.000 
#    0.000    0.000    0.000    0.000    0.000    0.000 
#
# Total GULP energy -89302.684625 kJ/mol
# GULP energy per Si atom -5581.417789 kJ/mol
# Density = 2.506006 g / cm^3
# Si number density = 25.117231 Si / 1000 Ang^3
#
#
#
# Elastic Constant Matrix: (Units=GPa)
#
#
# Indices 1 2 3 4 5 6 
#
# 1 92.2572 30.0779 21.9136 -19.9311 -15.2950 -4.6376
# 2 30.0779 169.7799 44.3708 -22.0471 -11.7309 -20.2698
# 3 21.9136 44.3708 73.8602 -26.9635 -16.2247 -0.7086
# 4 -19.9311 -22.0471 -26.9635 53.6032 -3.8120 -14.5329
# 5 -15.2950 -11.7309 -16.2247 -3.8120 38.4306 2.9094
# 6 -4.6376 -20.2698 -0.7086 -14.5329 2.9094 41.0731
#
#
#
# Elastic Compliance Matrix: (Units=1/GPa)
#
#
# Indices 1 2 3 4 5 6 
#
# 1 0.013415 -0.000910 -0.000180 0.005628 0.005341 0.002676
# 2 -0.000910 0.007829 -0.003390 0.002440 0.000495 0.004531
# 3 -0.000180 -0.003390 0.021373 0.010385 0.008817 0.001725
# 4 0.005628 0.002440 0.010385 0.030990 0.009511 0.012310
# 5 0.005341 0.000495 0.008817 0.009511 0.032809 0.002041
# 6 0.002676 0.004531 0.001725 0.012310 0.002041 0.031126
#
#
# Mechanical properties :
#
#
# Convention : Reuss Voigt Hill
#
# Bulk Modulus (GPa) = 29.71141 58.73579 44.22360
# Shear Modulus (GPa) = 31.70160 42.59038 37.14599
#
# Velocity S-wave (km/s) = 3.55652 4.12231 3.84983
# Velocity P-wave (km/s) = 5.35910 6.78921 6.11610
#
# Compressibility (1/GPa) = 0.03365711
#
# Stress axis : x y z
#
# Youngs Moduli (GPa) = 74.54581 127.72613 46.78714
#
# Poissons Ratio (x) = 0.11626 0.00840
# Poissons Ratio (y) = 0.06785 0.15862
# Poissons Ratio (z) = 0.01338 0.43303
#
# Static dielectric constant tensor:
#      x y z
#    x 2.046220 0.002060 -0.040330 
#    y 0.002060 2.071060 0.080920 
#    z -0.040330 0.080920 2.173540 
# 
# From -- ./inp_files/616781.got.cif
#   From: 2010.05.17/outbox.cif.g08.bks.cpg/sg2_309_cif.got.tgz:616781.got - 2010.06.03 11:33:40.
