data_PCOD9014052
_publ_section_title
;
Structure prediction by ZEFSAII (Michael W. Deem and Ramdas Pophale) SiO2 
 PCOD9014052
Probable space group: P -1
;
_chemical_formula_sum "Si O2"
_cell_formula_units_Z 16
_cell_length_a 8.657806
_cell_length_b 19.464828
_cell_length_c 11.415270
_cell_angle_alpha 27.022637
_cell_angle_beta 81.090639
_cell_angle_gamma 65.877811
_cell_volume 688.756830
_symmetry_space_group_name_H-M "P -1"
_symmetry_group_IT_number 2
_symmetry_cell_setting 'triclinic'
loop_
_space_group_symop_operation_xyz
x,y,z
-x,-y,-z
loop_
_atom_site_type_symbol
_atom_site_label
_atom_site_fract_x
_atom_site_fract_y
_atom_site_fract_z
Si Si1 0.215544 0.437250 0.604597
Si Si2 0.820938 0.429098 0.342582
Si Si3 0.710886 0.558582 0.663128
Si Si4 0.637642 0.326078 0.333703
Si Si5 0.035448 0.850432 0.623788
Si Si6 0.321722 0.163658 0.353343
Si Si7 0.781162 0.863405 0.198248
Si Si8 0.442333 0.019008 0.174521
O O1 0.216651 0.539769 0.562153
O O2 0.306202 0.462707 0.440443
O O3 0.000000 0.500000 0.500000
O O4 0.341205 0.215790 0.955801
O O5 0.682883 0.411432 0.305050
O O6 0.021332 0.212380 0.644063
O O7 0.789846 0.619349 0.008222
O O8 0.513659 0.698604 0.547786
O O9 0.810006 0.664552 0.495289
O O10 0.840221 0.354233 0.016516
O O11 0.827313 0.174232 0.463392
O O12 0.500000 0.500000 0.000000
O O13 0.838277 0.879615 0.558157
O O14 0.000000 0.000000 0.500000
O O15 0.500000 0.000000 0.500000
O O16 0.427529 0.140472 0.500646
O O17 0.595160 0.002825 0.089091
O O18 0.734751 0.933067 0.963744
#
# Coordination Sequence:
#
# PCOD9014052 Si02
#       8
#     2   2   2   2   2   2   2   2
#     4  11  20  42  68 102 136 173 232 283 339 404
#     4  12  23  43  72  97 139 180 234 285 336 417
#     4  10  22  43  67  94 136 184 224 274 354 405
#     4  10  26  44  62  99 135 182 225 280 346 411
#     4  11  25  45  67  98 142 179 227 289 344 413
#     4  12  25  37  68 110 129 175 228 285 349 391
#     4  10  21  41  66  95 131 178 225 282 337 401
#     4  10  22  35  63 101 136 164 222 286 335 396
#
# _framework density 23.230259
#
# number of rings (size 3 to 8) (size 9 to 14) (size 15 to 20)
#    0.000    1.250    5.000    0.750    7.000    1.500 
#    0.000    1.250    0.000   10.500    0.000    0.000 
#    0.000    0.000    0.000    0.000    0.000    0.000 
#
# Total GULP energy -89198.168081 kJ/mol
# GULP energy per Si atom -5574.885505 kJ/mol
# Density = 2.317739 g / cm^3
# Si number density = 23.230259 Si / 1000 Ang^3
#
#
#
# Elastic Constant Matrix: (Units=GPa)
#
#
# Indices 1 2 3 4 5 6 
#
# 1 50.2552 29.5645 35.8678 17.5448 19.6090 -2.3271
# 2 29.5645 130.3234 32.5825 19.3713 14.9095 -3.7528
# 3 35.8678 32.5825 131.0518 12.7487 18.9855 -1.3809
# 4 17.5448 19.3713 12.7487 51.1748 4.1129 4.8729
# 5 19.6090 14.9095 18.9855 4.1129 34.9731 5.9103
# 6 -2.3271 -3.7528 -1.3809 4.8729 5.9103 41.5647
#
#
#
# Elastic Compliance Matrix: (Units=1/GPa)
#
#
# Indices 1 2 3 4 5 6 
#
# 1 0.034927 -0.003410 -0.005690 -0.008510 -0.014811 0.004562
# 2 -0.003410 0.009180 -0.000930 -0.002059 -0.001432 0.001052
# 3 -0.005690 -0.000930 0.009664 0.000016 -0.001688 0.000157
# 4 -0.008510 -0.002059 0.000016 0.023320 0.003558 -0.003902
# 5 -0.014811 -0.001432 -0.001688 0.003558 0.039190 -0.007004
# 6 0.004562 0.001052 0.000157 -0.003902 -0.007004 0.025868
#
#
# Mechanical properties :
#
#
# Convention : Reuss Voigt Hill
#
# Bulk Modulus (GPa) = 29.66481 56.40667 43.03574
# Shear Modulus (GPa) = 28.82788 39.78354 34.30571
#
# Velocity S-wave (km/s) = 3.52655 4.14282 3.84704
# Velocity P-wave (km/s) = 5.42031 6.87155 6.18861
#
# Compressibility (1/GPa) = 0.03370997
#
# Stress axis : x y z
#
# Youngs Moduli (GPa) = 28.63146 108.93805 103.48072
#
# Poissons Ratio (x) = 0.37148 0.58878
# Poissons Ratio (y) = 0.09763 0.09625
# Poissons Ratio (z) = 0.16291 0.10132
#
# Static dielectric constant tensor:
#      x y z
#    x 1.762590 -0.032540 0.039170 
#    y -0.032540 1.901150 -0.006440 
#    z 0.039170 -0.006440 1.894990 
# 
# From -- ./inp_files/404531.got.cif
#   From: 2010.05.17/outbox.cif.g08.bks.cpg/sg2_203_cif.got.tgz:404531.got - 2010.06.03 11:33:40.
