data_PCOD9014778
_publ_section_title
;
Structure prediction by ZEFSAII (Michael W. Deem and Ramdas Pophale) SiO2 
 PCOD9014778
Probable space group: P -1
;
_chemical_formula_sum "Si O2"
_cell_formula_units_Z 14
_cell_length_a 15.316070
_cell_length_b 9.993702
_cell_length_c 10.119448
_cell_angle_alpha 43.129144
_cell_angle_beta 117.367027
_cell_angle_gamma 136.535583
_cell_volume 720.314761
_symmetry_space_group_name_H-M "P -1"
_symmetry_group_IT_number 2
_symmetry_cell_setting 'triclinic'
loop_
_space_group_symop_operation_xyz
x,y,z
-x,-y,-z
loop_
_atom_site_type_symbol
_atom_site_label
_atom_site_fract_x
_atom_site_fract_y
_atom_site_fract_z
Si Si1 0.798261 0.200064 0.913323
Si Si2 0.506280 0.955217 0.881561
Si Si3 0.467217 0.327454 0.471379
Si Si4 0.132253 0.071400 0.999900
Si Si5 0.125588 0.282956 0.343385
Si Si6 0.739731 0.734829 0.311802
Si Si7 0.286165 0.351653 0.165776
O O1 0.879778 0.491573 0.801217
O O2 0.865258 0.153667 0.880766
O O3 0.652980 0.080448 0.861436
O O4 0.777004 0.011619 0.150324
O O5 0.597203 0.347801 0.991131
O O6 0.500000 0.000000 0.000000
O O7 0.500000 0.500000 0.500000
O O8 0.465795 0.099253 0.673014
O O9 0.591310 0.525985 0.324348
O O10 0.343696 0.247932 0.367262
O O11 0.228758 0.218166 0.082513
O O12 0.180231 0.235501 0.779542
O O13 0.000000 0.000000 0.000000
O O14 0.231058 0.342105 0.479447
O O15 0.176228 0.305947 0.215245
O O16 0.000000 0.000000 0.500000
#
# Coordination Sequence:
#
# PCOD9014778 Si02
#       7
#     2   2   2   2   2   2   2
#     4  10  22  42  71  88 136 177 211 275 346 368
#     4  12  20  38  69 103 134 165 216 285 341 386
#     4  12  20  37  67 104 133 162 218 285 333 391
#     4  10  25  49  64  91 142 186 219 271 330 398
#     4  12  24  41  68  99 127 177 238 266 317 407
#     4  10  21  41  69  87 136 172 215 271 339 374
#     4  12  24  42  68 101 133 174 223 275 335 393
#
# _framework density 19.435948
#
# number of rings (size 3 to 8) (size 9 to 14) (size 15 to 20)
#    0.857    0.000    7.143    0.857    0.000    2.857 
#    5.143    2.857    0.000    0.000    0.000    0.000 
#    0.000    0.000    0.000    0.000    0.000    0.000 
#
# Total GULP energy -78090.807323 kJ/mol
# GULP energy per Si atom -5577.914809 kJ/mol
# Density = 1.939171 g / cm^3
# Si number density = 19.435948 Si / 1000 Ang^3
#
#
#
# Elastic Constant Matrix: (Units=GPa)
#
#
# Indices 1 2 3 4 5 6 
#
# 1 112.2238 14.1925 15.2402 -19.2463 -4.5529 -3.6585
# 2 14.1925 39.6282 9.9477 -13.0819 4.1915 -3.7693
# 3 15.2402 9.9477 71.5555 -20.4259 16.5654 -14.6519
# 4 -19.2463 -13.0819 -20.4259 34.2459 3.0676 -0.2107
# 5 -4.5529 4.1915 16.5654 3.0676 40.2005 -5.9593
# 6 -3.6585 -3.7693 -14.6519 -0.2107 -5.9593 25.4086
#
#
#
# Elastic Compliance Matrix: (Units=1/GPa)
#
#
# Indices 1 2 3 4 5 6 
#
# 1 0.010111 -0.002061 -0.000759 0.004315 0.001507 0.001102
# 2 -0.002061 0.030310 0.001367 0.011640 -0.004239 0.004090
# 3 -0.000759 0.001367 0.022335 0.014282 -0.008890 0.011007
# 4 0.004315 0.011640 0.014282 0.045429 -0.008756 0.008907
# 5 0.001507 -0.004239 -0.008890 -0.008756 0.030032 0.001432
# 6 0.001102 0.004090 0.011007 0.008907 0.001432 0.046879
#
#
# Mechanical properties :
#
#
# Convention : Reuss Voigt Hill
#
# Bulk Modulus (GPa) = 16.70829 33.57427 25.14128
# Shear Modulus (GPa) = 24.04393 32.23946 28.14170
#
# Velocity S-wave (km/s) = 3.52104 4.07720 3.80928
# Velocity P-wave (km/s) = 5.01453 6.28304 5.68428
#
# Compressibility (1/GPa) = 0.05985054
#
# Stress axis : x y z
#
# Youngs Moduli (GPa) = 98.89775 32.99291 44.77193
#
# Poissons Ratio (x) = 0.06800 0.03396
# Poissons Ratio (y) = 0.20384 -0.06119
# Poissons Ratio (z) = 0.07503 -0.04510
#
# Static dielectric constant tensor:
#      x y z
#    x 1.800340 0.041220 0.012970 
#    y 0.041220 1.681580 -0.013630 
#    z 0.012970 -0.013630 1.679290 
# 
# From -- ./inp_files/444364.got.cif
#   From: 2010.05.17/outbox.cif.g08.bks.cpg/sg2_223_cif.got.tgz:444364.got - 2010.06.03 11:33:40.
