data_PCOD9014925
_publ_section_title
;
Structure prediction by ZEFSAII (Michael W. Deem and Ramdas Pophale) SiO2 
 PCOD9014925
Probable space group: P -1
;
_chemical_formula_sum "Si O2"
_cell_formula_units_Z 16
_cell_length_a 9.099875
_cell_length_b 20.387728
_cell_length_c 12.017269
_cell_angle_alpha 42.822814
_cell_angle_beta 40.573036
_cell_angle_gamma 74.585343
_cell_volume 741.446519
_symmetry_space_group_name_H-M "P -1"
_symmetry_group_IT_number 2
_symmetry_cell_setting 'triclinic'
loop_
_space_group_symop_operation_xyz
x,y,z
-x,-y,-z
loop_
_atom_site_type_symbol
_atom_site_label
_atom_site_fract_x
_atom_site_fract_y
_atom_site_fract_z
Si Si1 0.802638 0.789424 0.583918
Si Si2 0.762909 0.103604 0.389029
Si Si3 0.120303 0.637599 0.229547
Si Si4 0.156643 0.263281 0.620920
Si Si5 0.308987 0.873805 0.344035
Si Si6 0.804282 0.994263 0.285422
Si Si7 0.756945 0.359726 0.259008
Si Si8 0.166110 0.378573 0.812513
O O1 0.793893 0.729194 0.548838
O O2 0.979756 0.789195 0.581882
O O3 0.957709 0.934128 0.277551
O O4 0.471991 0.725515 0.893838
O O5 0.680348 0.076951 0.599207
O O6 0.762598 0.016216 0.410224
O O7 0.516867 0.103424 0.470768
O O8 0.091400 0.244041 0.023927
O O9 0.000000 0.500000 0.500000
O O10 0.037076 0.696639 0.291832
O O11 0.929577 0.614026 0.261712
O O12 0.478295 0.345102 0.394781
O O13 0.976673 0.122642 0.954298
O O14 0.364004 0.772575 0.444378
O O15 0.500000 0.000000 0.000000
O O16 0.000000 0.500000 0.000000
O O17 0.936209 0.362325 0.050634
O O18 0.500000 0.500000 0.500000
#
# Coordination Sequence:
#
# PCOD9014925 Si02
#       8
#     2   2   2   2   2   2   2   2
#     4  12  25  44  70 108 148 181 231 302 359 435
#     4  10  21  41  70 101 137 186 245 284 348 438
#     4  12  27  44  69 106 140 190 239 293 365 412
#     4  12  24  46  75 102 139 188 241 294 359 433
#     4  11  25  45  68 105 152 187 235 302 373 419
#     4  11  20  42  75 101 134 181 241 291 353 427
#     4  11  25  44  72 103 139 192 250 291 350 442
#     4  11  22  45  68 101 143 188 241 293 349 434
#
# _framework density 21.579439000000001
#
# number of rings (size 3 to 8) (size 9 to 14) (size 15 to 20)
#    0.000    0.750    3.750    4.125    5.250    2.000 
#    0.000    1.250    0.000    0.000    0.000    0.000 
#    0.000    0.000    0.000    0.000    0.000    0.000 
#
# Total GULP energy -89361.746601 kJ/mol
# GULP energy per Si atom -5585.109163 kJ/mol
# Density = 2.153032 g / cm^3
# Si number density = 21.579439 Si / 1000 Ang^3
#
#
#
# Elastic Constant Matrix: (Units=GPa)
#
#
# Indices 1 2 3 4 5 6 
#
# 1 100.7388 56.4363 27.7397 18.4178 -6.3878 27.1393
# 2 56.4363 119.4688 39.6191 12.8496 7.3109 15.1475
# 3 27.7397 39.6191 100.6673 -1.2182 -7.3754 8.5093
# 4 18.4178 12.8496 -1.2182 30.3309 0.2631 -3.2990
# 5 -6.3878 7.3109 -7.3754 0.2631 40.8822 -0.9623
# 6 27.1393 15.1475 8.5093 -3.2990 -0.9623 37.2950
#
#
#
# Elastic Compliance Matrix: (Units=1/GPa)
#
#
# Indices 1 2 3 4 5 6 
#
# 1 0.019139 -0.006040 -0.001757 -0.010459 0.003541 -0.011907
# 2 -0.006040 0.012944 -0.003717 -0.001962 -0.003923 -0.000289
# 3 -0.001757 -0.003717 0.012074 0.003145 0.002557 0.000378
# 4 -0.010459 -0.001962 0.003145 0.041518 -0.000716 0.011344
# 5 0.003541 -0.003923 0.002557 -0.000716 0.026159 -0.000955
# 6 -0.011907 -0.000289 0.000378 0.011344 -0.000955 0.036488
#
#
# Mechanical properties :
#
#
# Convention : Reuss Voigt Hill
#
# Bulk Modulus (GPa) = 47.32937 63.16276 55.24607
# Shear Modulus (GPa) = 28.02788 34.84028 31.43408
#
# Velocity S-wave (km/s) = 3.60783 4.02246 3.82077
# Velocity P-wave (km/s) = 6.27180 7.13491 6.71723
#
# Compressibility (1/GPa) = 0.02112853
#
# Stress axis : x y z
#
# Youngs Moduli (GPa) = 52.24941 77.25505 82.82138
#
# Poissons Ratio (x) = 0.46665 0.14554
# Poissons Ratio (y) = 0.31561 0.30782
# Poissons Ratio (z) = 0.09182 0.28713
#
# Static dielectric constant tensor:
#      x y z
#    x 1.714510 0.035680 -0.045510 
#    y 0.035680 1.789050 0.014870 
#    z -0.045510 0.014870 1.840440 
# 
# From -- ./inp_files/405371.got.cif
#   From: 2010.05.17/outbox.cif.g08.bks.cpg/sg2_203_cif.got.tgz:405371.got - 2010.06.03 11:33:40.
