data_PCOD9014084
_publ_section_title
;
Structure prediction by ZEFSAII (Michael W. Deem and Ramdas Pophale) SiO2 
 PCOD9014084
Probable space group: P -1
;
_chemical_formula_sum "Si O2"
_cell_formula_units_Z 14
_cell_length_a 13.744322
_cell_length_b 9.682749
_cell_length_c 9.020793
_cell_angle_alpha 121.130597
_cell_angle_beta 40.421176
_cell_angle_gamma 97.348176
_cell_volume 585.014034
_symmetry_space_group_name_H-M "P -1"
_symmetry_group_IT_number 2
_symmetry_cell_setting 'triclinic'
loop_
_space_group_symop_operation_xyz
x,y,z
-x,-y,-z
loop_
_atom_site_type_symbol
_atom_site_label
_atom_site_fract_x
_atom_site_fract_y
_atom_site_fract_z
Si Si1 0.402376 0.964906 0.456749
Si Si2 0.989191 0.519146 0.349827
Si Si3 0.970771 0.693711 0.068043
Si Si4 0.902152 0.883822 0.541995
Si Si5 0.543548 0.169548 0.233467
Si Si6 0.304094 0.730013 0.616619
Si Si7 0.404792 0.354756 0.179907
O O1 0.268839 0.912285 0.665147
O O2 0.500000 0.000000 0.500000
O O3 0.404763 0.115964 0.425798
O O4 0.505801 0.781858 0.134763
O O5 0.027948 0.681081 0.346688
O O6 0.793044 0.595953 0.571305
O O7 0.000000 0.500000 0.500000
O O8 0.089209 0.328936 0.039269
O O9 0.869535 0.851362 0.392081
O O10 0.138486 0.718901 0.861601
O O11 0.000000 0.500000 0.000000
O O12 0.000000 0.000000 0.500000
O O13 0.726294 0.988487 0.893610
O O14 0.582262 0.279953 0.377904
O O15 0.484174 0.263085 0.195056
O O16 0.400117 0.550684 0.302453
#
# Coordination Sequence:
#
# PCOD9014084 Si02
#       7
#     2   2   2   2   2   2   2
#     4  10  22  40  62  95 134 166 209 273 328 381
#     4  10  23  45  66  90 131 174 219 266 325 387
#     4   9  20  41  66  94 125 176 219 257 322 393
#     4  11  21  42  68  94 132 167 218 271 318 395
#     4  11  22  41  68 101 130 169 216 270 333 383
#     4  10  21  41  66  96 135 165 220 270 323 392
#     4  11  22  43  67  95 130 172 219 266 328 392
#
# _framework density 23.931051
#
# number of rings (size 3 to 8) (size 9 to 14) (size 15 to 20)
#    0.000    1.714    2.857    1.286    0.000    0.000 
#   10.286    6.429    0.000    0.000    0.000    0.000 
#    0.000    0.000    0.000    0.000    0.000    0.000 
#
# Total GULP energy -78128.860187 kJ/mol
# GULP energy per Si atom -5580.632871 kJ/mol
# Density = 2.387658 g / cm^3
# Si number density = 23.931051 Si / 1000 Ang^3
#
#
#
# Elastic Constant Matrix: (Units=GPa)
#
#
# Indices 1 2 3 4 5 6 
#
# 1 95.4762 53.3101 58.4920 3.6221 37.4086 31.5317
# 2 53.3101 164.7649 18.9642 -15.9629 5.3596 34.5688
# 3 58.4920 18.9642 98.1245 -7.0736 31.6462 21.1249
# 4 3.6221 -15.9629 -7.0736 40.0663 9.8120 7.2147
# 5 37.4086 5.3596 31.6462 9.8120 46.5448 7.2483
# 6 31.5317 34.5688 21.1249 7.2147 7.2483 32.1644
#
#
#
# Elastic Compliance Matrix: (Units=1/GPa)
#
#
# Indices 1 2 3 4 5 6 
#
# 1 0.028773 -0.004887 -0.008433 0.000096 -0.014648 -0.014136
# 2 -0.004887 0.009912 0.003352 0.006571 0.000630 -0.009679
# 3 -0.008433 0.003352 0.019380 0.008827 -0.007339 -0.008390
# 4 0.000096 0.006571 0.008827 0.035213 -0.011412 -0.018281
# 5 -0.014648 0.000630 -0.007339 -0.011412 0.038657 0.012351
# 6 -0.014136 -0.009679 -0.008390 -0.018281 0.012351 0.062178
#
#
# Mechanical properties :
#
#
# Convention : Reuss Voigt Hill
#
# Bulk Modulus (GPa) = 26.22724 68.87756 47.55240
# Shear Modulus (GPa) = 22.04997 38.92838 30.48918
#
# Velocity S-wave (km/s) = 3.03874 4.03760 3.57325
# Velocity P-wave (km/s) = 4.82651 7.11199 6.07765
#
# Compressibility (1/GPa) = 0.03812829
#
# Stress axis : x y z
#
# Youngs Moduli (GPa) = 34.75474 100.89221 51.60063
#
# Poissons Ratio (x) = 0.49310 0.43514
# Poissons Ratio (y) = 0.16986 -0.17297
# Poissons Ratio (z) = 0.29308 -0.33820
#
# Static dielectric constant tensor:
#      x y z
#    x 2.055980 -0.165490 -0.048710 
#    y -0.165490 2.072880 0.083800 
#    z -0.048710 0.083800 2.031550 
# 
# From -- ./inp_files/299429.got.cif
#   From: 2010.05.17/outbox.cif.g08.bks.cpg/sg2_150_cif.got.tgz:299429.got - 2010.06.03 11:33:40.
