data_PCOD9014838
_publ_section_title
;
Structure prediction by ZEFSAII (Michael W. Deem and Ramdas Pophale) SiO2 
 PCOD9014838
Probable space group: P -1
;
_chemical_formula_sum "Si O2"
_cell_formula_units_Z 16
_cell_length_a 11.265536
_cell_length_b 9.881700
_cell_length_c 8.763562
_cell_angle_alpha 125.846581
_cell_angle_beta 90.185717
_cell_angle_gamma 93.529136
_cell_volume 788.364887
_symmetry_space_group_name_H-M "P -1"
_symmetry_group_IT_number 2
_symmetry_cell_setting 'triclinic'
loop_
_space_group_symop_operation_xyz
x,y,z
-x,-y,-z
loop_
_atom_site_type_symbol
_atom_site_label
_atom_site_fract_x
_atom_site_fract_y
_atom_site_fract_z
Si Si1 0.881869 0.097754 0.538562
Si Si2 0.751873 0.556492 0.227522
Si Si3 0.260753 0.176328 0.837518
Si Si4 0.248144 0.827064 0.103681
Si Si5 0.192858 0.152305 0.153484
Si Si6 0.025562 0.336852 0.488138
Si Si7 0.422282 0.334887 0.445723
Si Si8 0.504121 0.989441 0.177552
O O1 0.832040 0.163375 0.739863
O O2 0.914020 0.244976 0.514516
O O3 0.788925 0.958930 0.375139
O O4 0.000000 0.000000 0.500000
O O5 0.739811 0.644338 0.122954
O O6 0.874303 0.619217 0.353759
O O7 0.645225 0.616279 0.369822
O O8 0.750340 0.358262 0.082282
O O9 0.387242 0.116089 0.847596
O O10 0.181776 0.172495 0.986955
O O11 0.383611 0.896960 0.181779
O O12 0.205690 0.959764 0.068847
O O13 0.084043 0.213353 0.289194
O O14 0.313561 0.261668 0.285168
O O15 0.000000 0.500000 0.500000
O O16 0.500000 0.500000 0.500000
O O17 0.505391 0.180886 0.361569
O O18 0.500000 0.000000 0.000000
#
# Coordination Sequence:
#
# PCOD9014838 Si02
#       8
#     2   2   2   2   2   2   2   2
#     4  12  25  47  68  95 136 179 227 288 336 394
#     4  11  26  43  65 102 137 172 227 285 338 395
#     4  12  25  43  71 101 137 178 225 280 342 395
#     4  11  24  45  70  97 140 178 227 274 342 409
#     4  10  23  43  68 100 134 177 225 272 340 416
#     4  11  26  46  68  97 135 175 234 281 339 402
#     4  10  21  41  69  95 140 176 220 275 332 404
#     4  11  22  43  70 102 137 177 222 271 337 416
#
# _framework density 20.295169000000001
#
# number of rings (size 3 to 8) (size 9 to 14) (size 15 to 20)
#    0.000    1.000    5.000    2.250    3.500    5.500 
#    0.000    0.000    0.000    0.000    0.000    0.000 
#    0.000    0.000    0.000    0.000    0.000    0.000 
#
# Total GULP energy -89463.487459 kJ/mol
# GULP energy per Si atom -5591.467966 kJ/mol
# Density = 2.024898 g / cm^3
# Si number density = 20.295169 Si / 1000 Ang^3
#
#
#
# Elastic Constant Matrix: (Units=GPa)
#
#
# Indices 1 2 3 4 5 6 
#
# 1 52.6166 19.5468 3.2138 0.4410 -18.5653 -3.6188
# 2 19.5468 130.1134 42.8658 15.9829 -11.9016 -2.5359
# 3 3.2138 42.8658 102.9905 13.5035 -27.6463 -0.7687
# 4 0.4410 15.9829 13.5035 38.1221 3.4399 1.9583
# 5 -18.5653 -11.9016 -27.6463 3.4399 19.8648 -5.2741
# 6 -3.6188 -2.5359 -0.7687 1.9583 -5.2741 36.3215
#
#
#
# Elastic Compliance Matrix: (Units=1/GPa)
#
#
# Indices 1 2 3 4 5 6 
#
# 1 0.056865 -0.006693 0.030750 -0.018957 0.100928 0.021526
# 2 -0.006693 0.010022 -0.006332 -0.000974 -0.009265 -0.001394
# 3 0.030750 -0.006332 0.036296 -0.018903 0.083106 0.016476
# 4 -0.018957 -0.000974 -0.018903 0.039126 -0.054677 -0.012406
# 5 0.100928 -0.009265 0.083106 -0.054677 0.278738 0.054590
# 6 0.021526 -0.001394 0.016476 -0.012406 0.054590 0.038524
#
#
# Mechanical properties :
#
#
# Convention : Reuss Voigt Hill
#
# Bulk Modulus (GPa) = 7.21332 46.33038 26.77185
# Shear Modulus (GPa) = 10.63080 33.53463 22.08272
#
# Velocity S-wave (km/s) = 2.29117 4.06931 3.30218
# Velocity P-wave (km/s) = 3.24980 6.70499 5.26869
#
# Compressibility (1/GPa) = 0.13863249
#
# Stress axis : x y z
#
# Youngs Moduli (GPa) = 17.58562 99.77783 27.55141
#
# Poissons Ratio (x) = 0.66783 -0.84722
# Poissons Ratio (y) = 0.11770 0.17446
# Poissons Ratio (z) = -0.54076 0.63182
#
# Static dielectric constant tensor:
#      x y z
#    x 1.733730 -0.000210 0.012690 
#    y -0.000210 1.719590 0.002450 
#    z 0.012690 0.002450 1.710190 
# 
# From -- ./inp_files/245981.got.cif
#   From: 2010.05.17/outbox.cif.g08.bks.cpg/sg2_123_cif.got.tgz:245981.got - 2010.06.03 11:33:40.
