data_PCOD9014679
_publ_section_title
;
Structure prediction by ZEFSAII (Michael W. Deem and Ramdas Pophale) SiO2 
 PCOD9014679
Probable space group: P -1
;
_chemical_formula_sum "Si O2"
_cell_formula_units_Z 11
_cell_length_a 5.153460
_cell_length_b 13.273319
_cell_length_c 15.468646
_cell_angle_alpha 153.053818
_cell_angle_beta 121.875198
_cell_angle_gamma 62.818780
_cell_volume 406.912728
_symmetry_space_group_name_H-M "P -1"
_symmetry_group_IT_number 2
_symmetry_cell_setting 'triclinic'
loop_
_space_group_symop_operation_xyz
x,y,z
-x,-y,-z
loop_
_atom_site_type_symbol
_atom_site_label
_atom_site_fract_x
_atom_site_fract_y
_atom_site_fract_z
Si Si1 0.712270 0.451715 0.306810
Si Si2 0.808286 0.842012 0.229911
Si Si3 0.858379 0.432224 0.790711
Si Si4 0.818125 0.162098 0.331110
Si Si5 0.839715 0.192550 0.973429
Si Si6 0.500000 0.500000 0.500000
O O1 0.480850 0.611234 0.337822
O O2 0.740873 0.235662 0.086908
O O3 0.563882 0.406065 0.337861
O O4 0.045773 0.582408 0.466496
O O5 0.977493 0.769955 0.290599
O O6 0.917858 0.057510 0.359429
O O7 0.840007 0.629537 0.009324
O O8 0.444376 0.861276 0.182287
O O9 0.042949 0.560449 0.846297
O O10 0.472381 0.236999 0.331498
O O11 0.916853 0.989541 0.145174
#
# Coordination Sequence:
#
# PCOD9014679 Si02
#       6
#     2   2   2   2   2   1
#     4  11  24  43  66  94 129 170 215 266 320 377
#     4   9  19  38  66 100 134 166 205 257 318 385
#     4   9  19  38  66 100 134 166 205 257 318 385
#     4  11  24  43  66  94 129 170 215 266 320 377
#     4  10  21  41  68  98 130 169 213 256 318 384
#     4  12  26  46  64  88 130 170 220 276 318 372
#
# _framework density 27.032824000000002
#
# number of rings (size 3 to 8) (size 9 to 14) (size 15 to 20)
#    0.000    1.818    0.000    3.273    0.000    2.909 
#    0.000   23.636    0.000    0.000    0.000    0.000 
#    0.000    0.000    0.000    0.000    0.000    0.000 
#
# Total GULP energy -61351.220021 kJ/mol
# GULP energy per Si atom -5577.383638 kJ/mol
# Density = 2.697130 g / cm^3
# Si number density = 27.032824 Si / 1000 Ang^3
#
#
#
# Elastic Constant Matrix: (Units=GPa)
#
#
# Indices 1 2 3 4 5 6 
#
# 1 90.7641 27.5747 29.0661 2.1311 -25.4315 6.4099
# 2 27.5747 189.2114 61.3041 7.7301 -29.8280 -12.1449
# 3 29.0661 61.3041 106.5233 21.9703 -39.1624 -7.1909
# 4 2.1311 7.7301 21.9703 43.2989 -5.8170 -2.7486
# 5 -25.4315 -29.8280 -39.1624 -5.8170 60.7841 -7.0629
# 6 6.4099 -12.1449 -7.1909 -2.7486 -7.0629 29.4494
#
#
#
# Elastic Compliance Matrix: (Units=1/GPa)
#
#
# Indices 1 2 3 4 5 6 
#
# 1 0.013123 -0.000884 -0.002206 0.000905 0.003390 -0.002862
# 2 -0.000884 0.006780 -0.003172 0.000781 0.001290 0.002596
# 3 -0.002206 -0.003172 0.016339 -0.006260 0.007970 0.004489
# 4 0.000905 0.000781 -0.006260 0.026052 -0.000678 0.000865
# 5 0.003390 0.001290 0.007970 -0.000678 0.024449 0.007541
# 6 -0.002862 0.002596 0.004489 0.000865 0.007541 0.038635
#
#
# Mechanical properties :
#
#
# Convention : Reuss Voigt Hill
#
# Bulk Modulus (GPa) = 42.16124 69.15429 55.65776
# Shear Modulus (GPa) = 34.29152 44.61009 39.45080
#
# Velocity S-wave (km/s) = 3.56548 4.06670 3.82431
# Velocity P-wave (km/s) = 5.70793 6.90564 6.33515
#
# Compressibility (1/GPa) = 0.02371847
#
# Stress axis : x y z
#
# Youngs Moduli (GPa) = 76.20120 147.49794 61.20176
#
# Poissons Ratio (x) = 0.13042 0.13498
# Poissons Ratio (y) = 0.06738 0.19414
# Poissons Ratio (z) = 0.16807 0.46789
#
# Static dielectric constant tensor:
#      x y z
#    x 17.498380 -9.738560 -1.937760 
#    y -9.738560 8.245110 1.253430 
#    z -1.937760 1.253430 2.315250 
# 
# From -- ./inp_files/74742.got.cif
#   From: 2010.05.17/outbox.cif.g08.bks.cpg/sg2_38_cif.got.tgz:74742.got - 2010.06.03 11:33:40.
