data_PCOD9014611
_publ_section_title
;
Structure prediction by ZEFSAII (Michael W. Deem and Ramdas Pophale) SiO2 
 PCOD9014611
Probable space group: P -1
;
_chemical_formula_sum "Si O2"
_cell_formula_units_Z 16
_cell_length_a 8.678077
_cell_length_b 15.669643
_cell_length_c 9.484425
_cell_angle_alpha 143.409093
_cell_angle_beta 80.077100
_cell_angle_gamma 107.642728
_cell_volume 726.886235
_symmetry_space_group_name_H-M "P -1"
_symmetry_group_IT_number 2
_symmetry_cell_setting 'triclinic'
loop_
_space_group_symop_operation_xyz
x,y,z
-x,-y,-z
loop_
_atom_site_type_symbol
_atom_site_label
_atom_site_fract_x
_atom_site_fract_y
_atom_site_fract_z
Si Si1 0.554688 0.438816 0.056727
Si Si2 0.959547 0.825449 0.152699
Si Si3 0.255303 0.992147 0.459143
Si Si4 0.810042 0.654451 0.483201
Si Si5 0.733245 0.550952 0.670907
Si Si6 0.579415 0.144153 0.520396
Si Si7 0.808324 0.261755 0.379696
Si Si8 0.128651 0.014575 0.125187
O O1 0.727695 0.539038 0.221373
O O2 0.422998 0.444547 0.205644
O O3 0.500000 0.500000 0.000000
O O4 0.562803 0.272923 0.801261
O O5 0.119009 0.841128 0.240688
O O6 0.827209 0.874857 0.331046
O O7 0.883736 0.674139 0.882999
O O8 0.024323 0.958277 0.206080
O O9 0.332774 0.962451 0.553920
O O10 0.396085 0.043302 0.389113
O O11 0.728376 0.597508 0.571340
O O12 0.777696 0.812132 0.657734
O O13 0.005121 0.684925 0.518859
O O14 0.769639 0.392851 0.470690
O O15 0.683053 0.220687 0.473954
O O16 0.784679 0.111722 0.093572
O O17 0.000000 0.000000 0.000000
#
# Coordination Sequence:
#
# PCOD9014611 Si02
#       8
#     2   2   2   2   2   2   2   2
#     4  12  27  46  66  95 140 180 224 280 339 397
#     4  11  22  41  70  98 132 176 224 276 340 395
#     4  10  24  40  68  99 134 176 227 275 332 406
#     4  11  26  44  73  98 132 182 228 273 343 402
#     4  12  24  44  70 102 137 174 226 283 338 401
#     4  11  24  44  63  98 139 180 223 276 336 398
#     4  11  24  42  72  99 136 172 226 280 334 406
#     4  10  21  41  68  95 129 168 219 276 327 398
#
# _framework density 22.011700000000001
#
# number of rings (size 3 to 8) (size 9 to 14) (size 15 to 20)
#    0.000    1.000    5.000    2.250    3.500    1.500 
#    0.000    2.500    0.000    0.000    0.000    0.000 
#    0.000    0.000    0.000    0.000    0.000    0.000 
#
# Total GULP energy -89462.586501 kJ/mol
# GULP energy per Si atom -5591.411656 kJ/mol
# Density = 2.196160 g / cm^3
# Si number density = 22.011700 Si / 1000 Ang^3
#
#
#
# Elastic Constant Matrix: (Units=GPa)
#
#
# Indices 1 2 3 4 5 6 
#
# 1 79.4943 28.4557 23.6363 -0.7793 -4.3221 19.4362
# 2 28.4557 110.1228 6.4197 3.9152 -14.0396 14.1930
# 3 23.6363 6.4197 86.5380 17.8917 -3.7044 4.2380
# 4 -0.7793 3.9152 17.8917 38.4192 -1.8636 -5.3545
# 5 -4.3221 -14.0396 -3.7044 -1.8636 30.4154 3.2565
# 6 19.4362 14.1930 4.2380 -5.3545 3.2565 18.6260
#
#
#
# Elastic Compliance Matrix: (Units=1/GPa)
#
#
# Indices 1 2 3 4 5 6 
#
# 1 0.019073 -0.001960 -0.004070 0.000129 0.003246 -0.018014
# 2 -0.001960 0.011499 0.000888 -0.002549 0.005911 -0.008685
# 3 -0.004070 0.000888 0.014196 -0.006984 0.001336 -0.001901
# 4 0.000129 -0.002549 -0.006984 0.031233 -0.001447 0.012629
# 5 0.003246 0.005911 0.001336 -0.001447 0.037771 -0.015216
# 6 -0.018014 -0.008685 -0.001901 0.012629 -0.015216 0.085827
#
#
# Mechanical properties :
#
#
# Convention : Reuss Voigt Hill
#
# Bulk Modulus (GPa) = 28.99930 43.68649 36.34289
# Shear Modulus (GPa) = 22.58578 32.00168 27.29373
#
# Velocity S-wave (km/s) = 3.20672 3.81707 3.52513
# Velocity P-wave (km/s) = 5.18786 6.27031 5.75459
#
# Compressibility (1/GPa) = 0.03448360
#
# Stress axis : x y z
#
# Youngs Moduli (GPa) = 52.42909 86.96303 70.44479
#
# Poissons Ratio (x) = 0.17047 0.28668
# Poissons Ratio (y) = 0.10278 -0.06253
# Poissons Ratio (z) = 0.21336 -0.07719
#
# Static dielectric constant tensor:
#      x y z
#    x 1.959130 -0.044220 0.106410 
#    y -0.044220 1.832680 -0.051780 
#    z 0.106410 -0.051780 1.874450 
# 
# From -- ./inp_files/209305.got.cif
#   From: 2010.05.17/outbox.cif.g08.bks.cpg/sg2_105_cif.got.tgz:209305.got - 2010.06.03 11:33:40.
