data_PCOD9014773
_publ_section_title
;
Structure prediction by ZEFSAII (Michael W. Deem and Ramdas Pophale) SiO2 
 PCOD9014773
Probable space group: P -1
;
_chemical_formula_sum "Si O2"
_cell_formula_units_Z 16
_cell_length_a 8.984408
_cell_length_b 5.162063
_cell_length_c 18.425898
_cell_angle_alpha 104.985769
_cell_angle_beta 60.802007
_cell_angle_gamma 124.026438
_cell_volume 618.127927
_symmetry_space_group_name_H-M "P -1"
_symmetry_group_IT_number 2
_symmetry_cell_setting 'triclinic'
loop_
_space_group_symop_operation_xyz
x,y,z
-x,-y,-z
loop_
_atom_site_type_symbol
_atom_site_label
_atom_site_fract_x
_atom_site_fract_y
_atom_site_fract_z
Si Si1 0.084211 0.067738 0.147899
Si Si2 0.798246 0.148696 0.031574
Si Si3 0.165014 0.956849 0.271877
Si Si4 0.825796 0.335448 0.276962
Si Si5 0.262923 0.774847 0.545844
Si Si6 0.140639 0.344329 0.428074
Si Si7 0.298540 0.386045 0.862645
Si Si8 0.426165 0.815534 0.280320
O O1 0.983746 0.281497 0.190583
O O2 0.197430 0.124687 0.200027
O O3 0.883478 0.728870 0.159148
O O4 0.216103 0.053357 0.050339
O O5 0.654337 0.285994 0.090448
O O6 0.777963 0.906107 0.082476
O O7 0.000000 0.500000 0.000000
O O8 0.303053 0.813081 0.240463
O O9 0.934995 0.694784 0.297211
O O10 0.186077 0.116238 0.355522
O O11 0.791220 0.195534 0.356594
O O12 0.611757 0.157354 0.278351
O O13 0.213129 0.437946 0.499922
O O14 0.091966 0.786666 0.540160
O O15 0.500000 0.000000 0.500000
O O16 0.277716 0.659711 0.371192
O O17 0.470083 0.382691 0.776592
#
# Coordination Sequence:
#
# PCOD9014773 Si02
#       8
#     2   2   2   2   2   2   2   2
#     4  10  22  40  71  96 148 190 241 295 372 437
#     4  10  21  41  69 111 146 195 251 314 366 441
#     4  12  25  43  70 105 142 189 247 296 368 444
#     4  11  24  44  70 105 135 198 243 296 373 446
#     4  11  22  46  73  97 143 187 244 300 367 443
#     4  11  25  45  69 100 144 192 234 309 368 437
#     4  10  24  40  72 110 147 194 255 308 372 440
#     4  11  25  44  71 104 150 188 244 304 371 445
#
# _framework density 25.884609000000001
#
# number of rings (size 3 to 8) (size 9 to 14) (size 15 to 20)
#    0.000    1.250    3.750    1.500   10.500    2.500 
#    0.000    2.500    0.000    0.000    0.000    0.000 
#    0.000    0.000    0.000    0.000    0.000    0.000 
#
# Total GULP energy -89236.632920 kJ/mol
# GULP energy per Si atom -5577.289558 kJ/mol
# Density = 2.582569 g / cm^3
# Si number density = 25.884609 Si / 1000 Ang^3
#
#
#
# Elastic Constant Matrix: (Units=GPa)
#
#
# Indices 1 2 3 4 5 6 
#
# 1 120.5843 43.3414 39.1948 4.0946 3.1234 15.0378
# 2 43.3414 109.5962 40.3906 8.7048 10.6770 8.9873
# 3 39.1948 40.3906 136.0694 20.8577 -13.7503 -6.0871
# 4 4.0946 8.7048 20.8577 39.3471 3.1624 0.6448
# 5 3.1234 10.6770 -13.7503 3.1624 29.0740 2.7869
# 6 15.0378 8.9873 -6.0871 0.6448 2.7869 44.1825
#
#
#
# Elastic Compliance Matrix: (Units=1/GPa)
#
#
# Indices 1 2 3 4 5 6 
#
# 1 0.010601 -0.002940 -0.002603 0.001069 -0.001089 -0.003316
# 2 -0.002940 0.012230 -0.003405 -0.000117 -0.005620 -0.001600
# 3 -0.002603 -0.003405 0.010738 -0.005268 0.006923 0.002698
# 4 0.001069 -0.000117 -0.005268 0.028588 -0.005565 -0.001132
# 5 -0.001089 -0.005620 0.006923 -0.005565 0.040455 -0.000003
# 6 -0.003316 -0.001600 0.002698 -0.001132 -0.000003 0.024476
#
#
# Mechanical properties :
#
#
# Convention : Reuss Voigt Hill
#
# Bulk Modulus (GPa) = 63.80642 68.01149 65.90895
# Shear Modulus (GPa) = 33.28712 38.74228 36.01470
#
# Velocity S-wave (km/s) = 3.58995 3.87296 3.73413
# Velocity P-wave (km/s) = 6.47205 6.80674 6.64150
#
# Compressibility (1/GPa) = 0.01567240
#
# Stress axis : x y z
#
# Youngs Moduli (GPa) = 94.32896 81.76685 93.13049
#
# Poissons Ratio (x) = 0.24039 0.24244
# Poissons Ratio (y) = 0.27732 0.31711
# Poissons Ratio (z) = 0.24556 0.27842
#
# Static dielectric constant tensor:
#      x y z
#    x 2.035020 -0.064110 -0.054430 
#    y -0.064110 2.196030 -0.002910 
#    z -0.054430 -0.002910 2.155590 
# 
# From -- ./inp_files/553710.got.cif
#   From: 2010.05.17/outbox.cif.g08.bks.cpg/sg2_277_cif.got.tgz:553710.got - 2010.06.03 11:33:40.
