data_PCOD9014739
_publ_section_title
;
Structure prediction by ZEFSAII (Michael W. Deem and Ramdas Pophale) SiO2 
 PCOD9014739
Probable space group: P -1
;
_chemical_formula_sum "Si O2"
_cell_formula_units_Z 14
_cell_length_a 12.137011
_cell_length_b 7.165529
_cell_length_c 12.531523
_cell_angle_alpha 103.562026
_cell_angle_beta 32.357144
_cell_angle_gamma 89.286128
_cell_volume 518.510221
_symmetry_space_group_name_H-M "P -1"
_symmetry_group_IT_number 2
_symmetry_cell_setting 'triclinic'
loop_
_space_group_symop_operation_xyz
x,y,z
-x,-y,-z
loop_
_atom_site_type_symbol
_atom_site_label
_atom_site_fract_x
_atom_site_fract_y
_atom_site_fract_z
Si Si1 0.372935 0.411473 0.010895
Si Si2 0.860906 0.502442 0.474223
Si Si3 0.843122 0.476821 0.244209
Si Si4 0.459461 0.932294 0.875948
Si Si5 0.351695 0.052696 0.485113
Si Si6 0.347942 0.388921 0.783553
Si Si7 0.997202 0.048770 0.385574
O O1 0.090660 0.701140 0.522734
O O2 0.103722 0.510684 0.260427
O O3 0.500000 0.500000 0.000000
O O4 0.408883 0.443977 0.859440
O O5 0.791135 0.449301 0.405911
O O6 0.540365 0.838843 0.071638
O O7 0.678644 0.722684 0.695500
O O8 0.711186 0.447809 0.244749
O O9 0.776024 0.726868 0.326189
O O10 0.110593 0.368157 0.997049
O O11 0.238726 0.941659 0.116529
O O12 0.458853 0.931141 0.747082
O O13 0.462379 0.839190 0.430833
O O14 0.170409 0.024785 0.551210
O O15 0.000000 0.000000 0.500000
#
# Coordination Sequence:
#
# PCOD9014739 Si02
#       7
#     2   2   2   2   2   2   2
#     4   9  18  36  68 109 151 195 238 291 359 431
#     4   9  20  42  70 103 142 190 240 301 364 428
#     4   9  18  38  70 101 137 184 239 292 354 427
#     4   9  21  44  69  99 144 187 239 294 357 427
#     4  10  21  41  69 101 139 186 236 289 362 425
#     4   9  18  36  66 104 139 187 234 288 355 421
#     4  11  25  45  70 101 147 187 242 298 365 439
#
# _framework density 27.000433999999998
#
# number of rings (size 3 to 8) (size 9 to 14) (size 15 to 20)
#    0.000    2.571    0.000    1.286    0.000    2.857 
#   15.429    3.571   12.571   36.857    0.000    0.000 
#    0.000    0.000    0.000    0.000    0.000    0.000 
#
# Total GULP energy -78507.434152 kJ/mol
# GULP energy per Si atom -5607.673868 kJ/mol
# Density = 2.693898 g / cm^3
# Si number density = 27.000434 Si / 1000 Ang^3
#
#
#
# Elastic Constant Matrix: (Units=GPa)
#
#
# Indices 1 2 3 4 5 6 
#
# 1 158.0714 57.8629 38.0159 -9.1677 -6.0807 -28.7710
# 2 57.8629 125.8040 67.1809 19.0041 -4.8519 -21.7508
# 3 38.0159 67.1809 193.7225 15.4930 -10.5513 -8.5012
# 4 -9.1677 19.0041 15.4930 58.4592 -13.6851 3.3120
# 5 -6.0807 -4.8519 -10.5513 -13.6851 40.8710 1.1544
# 6 -28.7710 -21.7508 -8.5012 3.3120 1.1544 47.3695
#
#
#
# Elastic Compliance Matrix: (Units=1/GPa)
#
#
# Indices 1 2 3 4 5 6 
#
# 1 0.008522 -0.003464 -0.000463 0.002768 0.001572 0.003270
# 2 -0.003464 0.012430 -0.003219 -0.004246 -0.001387 0.003356
# 3 -0.000463 -0.003219 0.006437 -0.000446 0.001078 -0.000599
# 4 0.002768 -0.004246 -0.000446 0.020740 0.006793 -0.001964
# 5 0.001572 -0.001387 0.001078 0.006793 0.027107 -0.000625
# 6 0.003270 0.003356 -0.000599 -0.001964 -0.000625 0.024683
#
#
# Mechanical properties :
#
#
# Convention : Reuss Voigt Hill
#
# Bulk Modulus (GPa) = 76.36422 89.30194 82.83308
# Shear Modulus (GPa) = 42.16649 50.30914 46.23781
#
# Velocity S-wave (km/s) = 3.95612 4.32125 4.14271
# Velocity P-wave (km/s) = 7.01511 7.61864 7.32309
#
# Compressibility (1/GPa) = 0.01309514
#
# Stress axis : x y z
#
# Youngs Moduli (GPa) = 117.34241 80.45338 155.34144
#
# Poissons Ratio (x) = 0.27873 0.07195
# Poissons Ratio (y) = 0.40653 0.50009
# Poissons Ratio (z) = 0.05435 0.25901
#
# Static dielectric constant tensor:
#      x y z
#    x 2.191860 -0.014820 0.026220 
#    y -0.014820 2.111480 -0.056700 
#    z 0.026220 -0.056700 2.111590 
# 
# From -- ./inp_files/331953.got.cif
#   From: 2010.05.17/outbox.cif.g08.bks.cpg/sg2_166_cif.got.tgz:331953.got - 2010.06.03 11:33:40.
