data_PCOD9014120
_publ_section_title
;
Structure prediction by ZEFSAII (Michael W. Deem and Ramdas Pophale) SiO2 
 PCOD9014120
Probable space group: P -1
;
_chemical_formula_sum "Si O2"
_cell_formula_units_Z 14
_cell_length_a 10.764313
_cell_length_b 8.736948
_cell_length_c 9.231843
_cell_angle_alpha 138.288436
_cell_angle_beta 96.922457
_cell_angle_gamma 76.496977
_cell_volume 559.790216
_symmetry_space_group_name_H-M "P -1"
_symmetry_group_IT_number 2
_symmetry_cell_setting 'triclinic'
loop_
_space_group_symop_operation_xyz
x,y,z
-x,-y,-z
loop_
_atom_site_type_symbol
_atom_site_label
_atom_site_fract_x
_atom_site_fract_y
_atom_site_fract_z
Si Si1 0.760569 0.776914 0.019188
Si Si2 0.328988 0.673054 0.310608
Si Si3 0.484899 0.958229 0.644319
Si Si4 0.118871 0.156746 0.199530
Si Si5 0.303566 0.774948 0.064914
Si Si6 0.111203 0.140627 0.629035
Si Si7 0.148907 0.532121 0.684385
O O1 0.743689 0.522039 0.786178
O O2 0.797552 0.912026 0.981653
O O3 0.630888 0.895249 0.169406
O O4 0.874107 0.759755 0.138579
O O5 0.351015 0.623767 0.107559
O O6 0.449131 0.701782 0.444860
O O7 0.238623 0.933946 0.480548
O O8 0.604884 0.038176 0.792102
O O9 0.500000 0.000000 0.500000
O O10 0.162514 0.380255 0.434272
O O11 0.970114 0.249803 0.208284
O O12 0.161055 0.945367 0.170484
O O13 0.276505 0.601957 0.812795
O O14 0.106810 0.357075 0.672889
O O15 0.000000 0.000000 0.500000
#
# Coordination Sequence:
#
# PCOD9014120 Si02
#       7
#     2   2   2   2   2   2   2
#     4  11  24  43  67 100 131 173 220 276 328 381
#     4  10  21  41  66  98 128 167 226 268 322 389
#     4   9  23  42  69  99 129 169 226 276 323 388
#     4  11  26  41  64  99 139 171 219 272 326 394
#     4  11  22  42  69  90 133 179 218 267 332 391
#     4  11  23  39  67  97 132 169 225 272 318 394
#     4  11  24  43  65  97 134 183 216 260 335 397
#
# _framework density 25.009369
#
# number of rings (size 3 to 8) (size 9 to 14) (size 15 to 20)
#    0.000    1.429    2.857    1.286    2.000    9.714 
#    0.000    1.429    0.000    0.000    0.000    0.000 
#    0.000    0.000    0.000    0.000    0.000    0.000 
#
# Total GULP energy -78111.725952 kJ/mol
# GULP energy per Si atom -5579.408997 kJ/mol
# Density = 2.495245 g / cm^3
# Si number density = 25.009369 Si / 1000 Ang^3
#
#
#
# Elastic Constant Matrix: (Units=GPa)
#
#
# Indices 1 2 3 4 5 6 
#
# 1 120.4103 33.2954 59.9431 -6.2758 32.4927 -0.8051
# 2 33.2954 88.6280 27.0854 -0.0888 5.4662 14.7360
# 3 59.9431 27.0854 114.3937 -18.4679 49.8257 6.3014
# 4 -6.2758 -0.0888 -18.4679 37.0865 -1.5457 1.6589
# 5 32.4927 5.4662 49.8257 -1.5457 79.0929 3.9280
# 6 -0.8051 14.7360 6.3014 1.6589 3.9280 24.3408
#
#
#
# Elastic Compliance Matrix: (Units=1/GPa)
#
#
# Indices 1 2 3 4 5 6 
#
# 1 0.012380 -0.003669 -0.005204 -0.000773 -0.001783 0.004319
# 2 -0.003669 0.014662 -0.002291 -0.001240 0.002345 -0.008699
# 3 -0.005204 -0.002291 0.016812 0.007255 -0.008037 -0.002335
# 4 -0.000773 -0.001240 0.007255 0.030419 -0.003440 -0.002671
# 5 -0.001783 0.002345 -0.008037 -0.003440 0.018315 -0.002119
# 6 0.004319 -0.008699 -0.002335 -0.002671 -0.002119 0.047621
#
#
# Mechanical properties :
#
#
# Convention : Reuss Voigt Hill
#
# Bulk Modulus (GPa) = 46.46002 62.67555 54.56779
# Shear Modulus (GPa) = 29.46125 41.64458 35.55292
#
# Velocity S-wave (km/s) = 3.43594 4.08506 3.77448
# Velocity P-wave (km/s) = 5.86159 6.88226 6.39233
#
# Compressibility (1/GPa) = 0.02152388
#
# Stress axis : x y z
#
# Youngs Moduli (GPa) = 80.77337 68.20207 59.48191
#
# Poissons Ratio (x) = 0.25025 0.30957
# Poissons Ratio (y) = 0.29638 0.13630
# Poissons Ratio (z) = 0.42038 0.15628
#
# Static dielectric constant tensor:
#      x y z
#    x 2.053130 -0.045410 -0.006190 
#    y -0.045410 1.958890 0.014310 
#    z -0.006190 0.014310 2.082240 
# 
# From -- ./inp_files/229641.got.cif
#   From: 2010.05.17/outbox.cif.g08.bks.cpg/sg2_115_cif.got.tgz:229641.got - 2010.06.03 11:33:40.
