data_PCOD9014367
_publ_section_title
;
Structure prediction by ZEFSAII (Michael W. Deem and Ramdas Pophale) SiO2 
 PCOD9014367
Probable space group: P -1
;
_chemical_formula_sum "Si O2"
_cell_formula_units_Z 16
_cell_length_a 13.284742
_cell_length_b 13.602127
_cell_length_c 11.017090
_cell_angle_alpha 33.132877
_cell_angle_beta 131.714596
_cell_angle_gamma 140.145913
_cell_volume 695.866244
_symmetry_space_group_name_H-M "P -1"
_symmetry_group_IT_number 2
_symmetry_cell_setting 'triclinic'
loop_
_space_group_symop_operation_xyz
x,y,z
-x,-y,-z
loop_
_atom_site_type_symbol
_atom_site_label
_atom_site_fract_x
_atom_site_fract_y
_atom_site_fract_z
Si Si1 0.467536 0.801322 0.430405
Si Si2 0.209730 0.503673 0.687417
Si Si3 0.486399 0.707088 0.267742
Si Si4 0.201111 0.036460 0.421559
Si Si5 0.381163 0.149751 0.013454
Si Si6 0.176035 0.662092 0.929342
Si Si7 0.116950 0.856990 0.279655
Si Si8 0.699255 0.524961 0.955637
O O1 0.310293 0.588235 0.558871
O O2 0.503154 0.796991 0.322432
O O3 0.612679 0.839631 0.588721
O O4 0.448627 0.996311 0.246528
O O5 0.175044 0.688366 0.503038
O O6 0.053307 0.282989 0.770854
O O7 0.303427 0.482747 0.894521
O O8 0.500000 0.500000 0.500000
O O9 0.627906 0.853221 0.137072
O O10 0.320006 0.677349 0.112025
O O11 0.193029 0.236163 0.250443
O O12 0.179983 0.875133 0.676541
O O13 0.111530 0.927766 0.338787
O O14 0.230667 0.049404 0.082887
O O15 0.520050 0.386636 0.908571
O O16 0.211574 0.587615 0.907819
O O17 0.000000 0.500000 0.000000
#
# Coordination Sequence:
#
# PCOD9014367 Si02
#       8
#     2   2   2   2   2   2   2   2
#     4  11  21  39  70  96 130 189 226 280 343 411
#     4  10  22  40  67  98 137 172 233 283 347 413
#     4  11  24  44  68 102 139 178 235 287 337 413
#     4  12  24  42  71  98 138 179 232 280 355 408
#     4  10  21  41  67  95 136 179 231 278 338 413
#     4  11  26  47  72  98 144 186 227 288 350 413
#     4  10  22  41  67  99 134 183 219 288 358 405
#     4  11  23  44  67 101 133 177 233 287 333 420
#
# _framework density 22.992923999999999
#
# number of rings (size 3 to 8) (size 9 to 14) (size 15 to 20)
#    0.000    1.250    3.750    2.625    1.750    7.000 
#    2.250    0.000    0.000    0.000    0.000    0.000 
#    0.000    0.000    0.000    0.000    0.000    0.000 
#
# Total GULP energy -89329.959177 kJ/mol
# GULP energy per Si atom -5583.122449 kJ/mol
# Density = 2.294059 g / cm^3
# Si number density = 22.992924 Si / 1000 Ang^3
#
#
#
# Elastic Constant Matrix: (Units=GPa)
#
#
# Indices 1 2 3 4 5 6 
#
# 1 48.5866 31.0058 33.8586 -7.7900 -19.1262 5.2570
# 2 31.0058 93.1751 43.6019 -16.4287 -23.0152 -8.7985
# 3 33.8586 43.6019 94.8798 -3.6867 -11.9349 5.6163
# 4 -7.7900 -16.4287 -3.6867 33.0086 1.2902 -8.9550
# 5 -19.1262 -23.0152 -11.9349 1.2902 39.3424 -8.1580
# 6 5.2570 -8.7985 5.6163 -8.9550 -8.1580 23.5422
#
#
#
# Elastic Compliance Matrix: (Units=1/GPa)
#
#
# Indices 1 2 3 4 5 6 
#
# 1 0.034602 -0.003922 -0.008856 0.004382 0.011394 -0.001464
# 2 -0.003922 0.024804 -0.008967 0.016203 0.014198 0.023368
# 3 -0.008856 -0.008967 0.017377 -0.007192 -0.006201 -0.010404
# 4 0.004382 0.016203 -0.007192 0.045940 0.013956 0.029104
# 5 0.011394 0.014198 -0.006201 0.013956 0.041916 0.024075
# 6 -0.001464 0.023368 -0.010404 0.029104 0.024075 0.073432
#
#
# Mechanical properties :
#
#
# Convention : Reuss Voigt Hill
#
# Bulk Modulus (GPa) = 30.03484 50.39711 40.21598
# Shear Modulus (GPa) = 17.08474 27.72365 22.40420
#
# Velocity S-wave (km/s) = 2.72884 3.47615 3.12492
# Velocity P-wave (km/s) = 4.79789 6.17071 5.52709
#
# Compressibility (1/GPa) = 0.03329467
#
# Stress axis : x y z
#
# Youngs Moduli (GPa) = 28.90023 40.31554 57.54731
#
# Poissons Ratio (x) = 0.15810 0.50961
# Poissons Ratio (y) = 0.11334 0.51603
# Poissons Ratio (z) = 0.25593 0.36151
#
# Static dielectric constant tensor:
#      x y z
#    x 1.886300 -0.017490 0.062900 
#    y -0.017490 1.856410 -0.036060 
#    z 0.062900 -0.036060 1.945280 
# 
# From -- ./inp_files/455428.got.cif
#   From: 2010.05.17/outbox.cif.g08.bks.cpg/sg2_228_cif.got.tgz:455428.got - 2010.06.03 11:33:40.
