data_PCOD9014036
_publ_section_title
;
Structure prediction by ZEFSAII (Michael W. Deem and Ramdas Pophale) SiO2 
 PCOD9014036
Probable space group: P -1
;
_chemical_formula_sum "Si O2"
_cell_formula_units_Z 12
_cell_length_a 6.783288
_cell_length_b 7.148306
_cell_length_c 13.906550
_cell_angle_alpha 125.398991
_cell_angle_beta 89.097079
_cell_angle_gamma 64.068789
_cell_volume 459.818598
_symmetry_space_group_name_H-M "P -1"
_symmetry_group_IT_number 2
_symmetry_cell_setting 'triclinic'
loop_
_space_group_symop_operation_xyz
x,y,z
-x,-y,-z
loop_
_atom_site_type_symbol
_atom_site_label
_atom_site_fract_x
_atom_site_fract_y
_atom_site_fract_z
Si Si1 0.785624 0.005646 0.388085
Si Si2 0.318592 0.634150 0.325367
Si Si3 0.180560 0.661863 0.811826
Si Si4 0.544849 0.940690 0.758987
Si Si5 0.041277 0.676568 0.624792
Si Si6 0.858827 0.779733 0.026120
O O1 0.701579 0.132915 0.533426
O O2 0.624717 0.957948 0.303500
O O3 0.799314 0.237930 0.400496
O O4 0.061680 0.764767 0.320631
O O5 0.543248 0.508026 0.214628
O O6 0.373053 0.370764 0.308579
O O7 0.164251 0.519500 0.674537
O O8 0.121005 0.962512 0.869590
O O9 0.981222 0.709834 0.900804
O O10 0.780741 0.927550 0.730064
O O11 0.408082 0.106657 0.905845
O O12 0.000000 0.500000 0.500000
O O13 0.000000 0.500000 0.000000
#
# Coordination Sequence:
#
# PCOD9014036 Si02
#       6
#     2   2   2   2   2   2
#     4  11  22  42  65 101 136 180 225 277 352 424
#     4  10  21  41  66  94 138 178 224 285 342 411
#     4  10  23  46  70 101 142 181 235 292 343 413
#     4  11  23  43  67  94 139 178 225 291 345 402
#     4  12  23  41  71 103 138 181 220 281 361 421
#     4  10  23  45  71  98 134 187 242 288 342 404
#
# _framework density 26.097248
#
# number of rings (size 3 to 8) (size 9 to 14) (size 15 to 20)
#    0.000    1.333    5.000    1.500    2.333    2.000 
#    0.000    7.500    0.000    0.000    0.000    0.000 
#    0.000    0.000    0.000    0.000    0.000    0.000 
#
# Total GULP energy -67117.141308 kJ/mol
# GULP energy per Si atom -5593.095109 kJ/mol
# Density = 2.603785 g / cm^3
# Si number density = 26.097248 Si / 1000 Ang^3
#
#
#
# Elastic Constant Matrix: (Units=GPa)
#
#
# Indices 1 2 3 4 5 6 
#
# 1 88.3746 10.7648 22.8114 4.1102 -25.0650 -10.9326
# 2 10.7648 95.2026 8.0497 13.9033 -2.7757 -16.5687
# 3 22.8114 8.0497 94.0044 8.6905 -35.8669 -1.6397
# 4 4.1102 13.9033 8.6905 35.1266 -3.6218 -4.5900
# 5 -25.0650 -2.7757 -35.8669 -3.6218 47.5906 6.6734
# 6 -10.9326 -16.5687 -1.6397 -4.5900 6.6734 58.4608
#
#
#
# Elastic Compliance Matrix: (Units=1/GPa)
#
#
# Indices 1 2 3 4 5 6 
#
# 1 0.013621 -0.001006 -0.000770 -0.000157 0.006311 0.001508
# 2 -0.001006 0.011756 -0.000772 -0.004079 -0.001148 0.002933
# 3 -0.000770 -0.000772 0.015332 -0.002433 0.011115 -0.001393
# 4 -0.000157 -0.004079 -0.002433 0.030859 0.000030 0.001166
# 5 0.006311 -0.001148 0.011115 0.000030 0.033013 -0.002599
# 6 0.001508 0.002933 -0.001393 0.001166 -0.002599 0.018568
#
#
# Mechanical properties :
#
#
# Convention : Reuss Voigt Hill
#
# Bulk Modulus (GPa) = 28.08027 40.09261 34.08644
# Shear Modulus (GPa) = 35.68498 43.96598 39.82548
#
# Velocity S-wave (km/s) = 3.70183 4.10896 3.91070
# Velocity P-wave (km/s) = 5.39023 6.15691 5.78628
#
# Compressibility (1/GPa) = 0.03561220
#
# Stress axis : x y z
#
# Youngs Moduli (GPa) = 73.41830 85.06591 65.22209
#
# Poissons Ratio (x) = 0.08554 0.05024
# Poissons Ratio (y) = 0.07383 0.05037
# Poissons Ratio (z) = 0.05655 0.06569
#
# Static dielectric constant tensor:
#      x y z
#    x 2.027750 0.010950 -0.025620 
#    y 0.010950 2.094550 0.010920 
#    z -0.025620 0.010920 2.102790 
# 
# From -- ./inp_files/493623.got.cif
#   From: 2010.05.17/outbox.cif.g08.bks.cpg/sg2_247_cif.got.tgz:493623.got - 2010.06.03 11:33:40.
