data_PCOD9014306
_publ_section_title
;
Structure prediction by ZEFSAII (Michael W. Deem and Ramdas Pophale) SiO2 
 PCOD9014306
Probable space group: P -1
;
_chemical_formula_sum "Si O2"
_cell_formula_units_Z 12
_cell_length_a 8.567822
_cell_length_b 14.975503
_cell_length_c 10.753205
_cell_angle_alpha 139.096692
_cell_angle_beta 108.763137
_cell_angle_gamma 102.222914
_cell_volume 581.308539
_symmetry_space_group_name_H-M "P -1"
_symmetry_group_IT_number 2
_symmetry_cell_setting 'triclinic'
loop_
_space_group_symop_operation_xyz
x,y,z
-x,-y,-z
loop_
_atom_site_type_symbol
_atom_site_label
_atom_site_fract_x
_atom_site_fract_y
_atom_site_fract_z
Si Si1 0.758241 0.735505 0.303128
Si Si2 0.840382 0.596556 0.380359
Si Si3 0.961642 0.133694 0.745347
Si Si4 0.983532 0.459888 0.099812
Si Si5 0.321658 0.765285 0.713132
Si Si6 0.451048 0.358557 0.234268
O O1 0.898044 0.765537 0.492892
O O2 0.921183 0.793925 0.286943
O O3 0.500000 0.500000 0.000000
O O4 0.749903 0.894253 0.455666
O O5 0.806958 0.457236 0.122660
O O6 0.610780 0.486297 0.288478
O O7 0.066078 0.674562 0.599679
O O8 0.174151 0.203865 0.960882
O O9 0.911175 0.260058 0.895200
O O10 0.236737 0.649127 0.436114
O O11 0.000000 0.500000 0.000000
O O12 0.450107 0.726246 0.783136
O O13 0.500000 0.000000 0.000000
O O14 0.500000 0.500000 0.500000
#
# Coordination Sequence:
#
# PCOD9014306 Si02
#       6
#     2   2   2   2   2   2
#     4  11  22  41  67  97 133 167 218 273 334 391
#     4  10  22  40  65  90 134 169 219 271 325 390
#     4  11  22  40  69  97 128 174 214 273 332 391
#     4  10  21  41  67  93 131 169 223 272 326 398
#     4  10  22  40  65  94 134 175 213 272 333 391
#     4  12  22  40  65  92 128 175 220 269 324 391
#
# _framework density 20.643080999999999
#
# number of rings (size 3 to 8) (size 9 to 14) (size 15 to 20)
#    1.000    0.333    5.000    1.500    0.000    0.000 
#    0.000    9.167    0.000    0.000    0.000    0.000 
#    0.000    0.000    0.000    0.000    0.000    0.000 
#
# Total GULP energy -66878.434470 kJ/mol
# GULP energy per Si atom -5573.202872 kJ/mol
# Density = 2.059610 g / cm^3
# Si number density = 20.643081 Si / 1000 Ang^3
#
#
#
# Elastic Constant Matrix: (Units=GPa)
#
#
# Indices 1 2 3 4 5 6 
#
# 1 74.5843 32.9333 27.6987 23.5345 -14.2230 -3.8681
# 2 32.9333 122.9643 46.0045 14.0179 -13.8442 -15.3842
# 3 27.6987 46.0045 94.6098 31.6162 -9.0600 2.4930
# 4 23.5345 14.0179 31.6162 38.8416 -13.2398 -8.8935
# 5 -14.2230 -13.8442 -9.0600 -13.2398 37.4475 -4.0046
# 6 -3.8681 -15.3842 2.4930 -8.8935 -4.0046 38.3769
#
#
#
# Elastic Compliance Matrix: (Units=1/GPa)
#
#
# Indices 1 2 3 4 5 6 
#
# 1 0.018381 -0.003738 -0.000236 -0.009231 0.002113 -0.001549
# 2 -0.003738 0.012333 -0.006833 0.006526 0.004542 0.006997
# 3 -0.000236 -0.006833 0.019278 -0.016604 -0.004715 -0.008355
# 4 -0.009231 0.006526 -0.016604 0.051222 0.014729 0.016172
# 5 0.002113 0.004542 -0.004715 0.014729 0.034250 0.009327
# 6 -0.001549 0.006997 -0.008355 0.016172 0.009327 0.033970
#
#
# Mechanical properties :
#
#
# Convention : Reuss Voigt Hill
#
# Bulk Modulus (GPa) = 35.23795 56.15903 45.69849
# Shear Modulus (GPa) = 24.93675 35.30134 30.11904
#
# Velocity S-wave (km/s) = 3.47939 4.13980 3.82388
# Velocity P-wave (km/s) = 5.76617 7.07915 6.45613
#
# Compressibility (1/GPa) = 0.02837850
#
# Stress axis : x y z
#
# Youngs Moduli (GPa) = 54.40336 81.08410 51.87156
#
# Poissons Ratio (x) = 0.30313 0.01223
# Poissons Ratio (y) = 0.20338 0.35443
# Poissons Ratio (z) = 0.01282 0.55403
#
# Static dielectric constant tensor:
#      x y z
#    x 1.700110 -0.031370 0.007310 
#    y -0.031370 1.758050 -0.037190 
#    z 0.007310 -0.037190 1.817410 
# 
# From -- ./inp_files/373488.got.cif
#   From: 2010.05.17/outbox.cif.g08.bks.cpg/sg2_187_cif.got.tgz:373488.got - 2010.06.03 11:33:40.
