data_PCOD9014113
_publ_section_title
;
Structure prediction by ZEFSAII (Michael W. Deem and Ramdas Pophale) SiO2 
 PCOD9014113
Probable space group: P -1
;
_chemical_formula_sum "Si O2"
_cell_formula_units_Z 16
_cell_length_a 8.044379
_cell_length_b 15.142825
_cell_length_c 11.703292
_cell_angle_alpha 30.014150
_cell_angle_beta 70.163196
_cell_angle_gamma 65.946956
_cell_volume 650.911571
_symmetry_space_group_name_H-M "P -1"
_symmetry_group_IT_number 2
_symmetry_cell_setting 'triclinic'
loop_
_space_group_symop_operation_xyz
x,y,z
-x,-y,-z
loop_
_atom_site_type_symbol
_atom_site_label
_atom_site_fract_x
_atom_site_fract_y
_atom_site_fract_z
Si Si1 0.354446 0.689269 0.841336
Si Si2 0.033234 0.399640 0.983789
Si Si3 0.292824 0.526566 0.622279
Si Si4 0.764400 0.883655 0.242724
Si Si5 0.141264 0.932498 0.206622
Si Si6 0.820705 0.992919 0.622248
Si Si7 0.399780 0.762163 0.000171
Si Si8 0.792359 0.512081 0.566172
O O1 0.330330 0.835465 0.580752
O O2 0.500000 0.500000 0.000000
O O3 0.401638 0.780034 0.844524
O O4 0.158022 0.643489 0.954444
O O5 0.105196 0.511236 0.744219
O O6 0.000000 0.500000 0.000000
O O7 0.189824 0.212203 0.169726
O O8 0.285574 0.738441 0.382525
O O9 0.445887 0.404992 0.801330
O O10 0.306886 0.456262 0.568711
O O11 0.728738 0.683735 0.472521
O O12 0.947770 0.895655 0.254436
O O13 0.801605 0.933700 0.047412
O O14 0.610961 0.048904 0.145212
O O15 0.140629 0.995060 0.266592
O O16 0.000000 0.000000 0.500000
O O17 0.225226 0.681763 0.164390
O O18 0.000000 0.500000 0.500000
#
# Coordination Sequence:
#
# PCOD9014113 Si02
#       8
#     2   2   2   2   2   2   2   2
#     4  11  24  47  71  98 138 180 229 290 347 404
#     4  11  23  42  69 100 130 183 235 277 344 415
#     4  12  24  44  68  98 143 178 223 285 345 415
#     4  11  23  41  70 101 137 178 230 283 343 411
#     4  11  21  41  68  97 136 181 223 283 346 403
#     4  10  21  41  66  97 136 180 228 281 343 410
#     4  12  26  46  66 103 143 176 228 291 344 404
#     4  12  23  44  70 103 135 181 231 274 349 413
#
# _framework density 24.580912000000001
#
# number of rings (size 3 to 8) (size 9 to 14) (size 15 to 20)
#    0.000    0.750    2.500    7.125    0.000    0.500 
#    4.500    1.250    0.000    0.000    0.000    0.000 
#    0.000    0.000    0.000    0.000    0.000    0.000 
#
# Total GULP energy -89661.370329 kJ/mol
# GULP energy per Si atom -5603.835646 kJ/mol
# Density = 2.452496 g / cm^3
# Si number density = 24.580912 Si / 1000 Ang^3
#
#
#
# Elastic Constant Matrix: (Units=GPa)
#
#
# Indices 1 2 3 4 5 6 
#
# 1 55.9645 19.8003 13.1228 3.9070 15.4878 1.2773
# 2 19.8003 158.2320 55.5341 -5.0274 15.6663 31.1831
# 3 13.1228 55.5341 124.6397 -8.1797 13.2197 3.4125
# 4 3.9070 -5.0274 -8.1797 56.3065 0.8791 7.4770
# 5 15.4878 15.6663 13.2197 0.8791 45.2479 1.7216
# 6 1.2773 31.1831 3.4125 7.4770 1.7216 40.3271
#
#
#
# Elastic Compliance Matrix: (Units=1/GPa)
#
#
# Indices 1 2 3 4 5 6 
#
# 1 0.020568 -0.002082 -0.000754 -0.001843 -0.006125 0.001625
# 2 -0.002082 0.009396 -0.003545 0.001433 -0.001262 -0.007112
# 3 -0.000754 -0.003545 0.009851 0.000949 -0.001480 0.001819
# 4 -0.001843 0.001433 0.000949 0.018769 -0.000332 -0.004595
# 5 -0.006125 -0.001262 -0.001480 -0.000332 0.025062 0.000287
# 6 0.001625 -0.007112 0.001819 -0.004595 0.000287 0.030931
#
#
# Mechanical properties :
#
#
# Convention : Reuss Voigt Hill
#
# Bulk Modulus (GPa) = 36.96084 57.30562 47.13323
# Shear Modulus (GPa) = 36.66835 45.06825 40.86830
#
# Velocity S-wave (km/s) = 3.86650 4.28654 4.08193
# Velocity P-wave (km/s) = 5.91626 6.91830 6.43681
#
# Compressibility (1/GPa) = 0.02705566
#
# Stress axis : x y z
#
# Youngs Moduli (GPa) = 48.61825 106.42298 101.50815
#
# Poissons Ratio (x) = 0.22153 0.07652
# Poissons Ratio (y) = 0.10120 0.35983
# Poissons Ratio (z) = 0.03665 0.37726
#
# Static dielectric constant tensor:
#      x y z
#    x -0.853500 1.977170 2.869050 
#    y 1.977170 0.519330 -2.025310 
#    z 2.869050 -2.025310 -0.946650 
# 
# From -- ./inp_files/307541.got.cif
#   From: 2010.05.17/outbox.cif.g08.bks.cpg/sg2_154_cif.got.tgz:307541.got - 2010.06.03 11:33:40.
