data_PCOD9014100
_publ_section_title
;
Structure prediction by ZEFSAII (Michael W. Deem and Ramdas Pophale) SiO2 
 PCOD9014100
Probable space group: P -1
;
_chemical_formula_sum "Si O2"
_cell_formula_units_Z 16
_cell_length_a 11.646726
_cell_length_b 6.551826
_cell_length_c 15.139803
_cell_angle_alpha 133.607942
_cell_angle_beta 127.428944
_cell_angle_gamma 77.560938
_cell_volume 621.155384
_symmetry_space_group_name_H-M "P -1"
_symmetry_group_IT_number 2
_symmetry_cell_setting 'triclinic'
loop_
_space_group_symop_operation_xyz
x,y,z
-x,-y,-z
loop_
_atom_site_type_symbol
_atom_site_label
_atom_site_fract_x
_atom_site_fract_y
_atom_site_fract_z
Si Si1 0.437016 0.030796 0.089372
Si Si2 0.375236 0.912359 0.492467
Si Si3 0.969743 0.945766 0.337068
Si Si4 0.355840 0.913075 0.202261
Si Si5 0.104116 0.469332 0.318973
Si Si6 0.646562 0.733071 0.052238
Si Si7 0.942812 0.145432 0.850961
Si Si8 0.760853 0.557265 0.430884
O O1 0.610342 0.280813 0.248653
O O2 0.353084 0.050654 0.146185
O O3 0.480867 0.730009 0.010706
O O4 0.343743 0.074409 0.975444
O O5 0.234801 0.597075 0.342029
O O6 0.500000 0.000000 0.500000
O O7 0.474389 0.938224 0.634526
O O8 0.302522 0.168849 0.527743
O O9 0.788313 0.885792 0.230908
O O10 0.009819 0.696373 0.337878
O O11 0.010428 0.883275 0.236464
O O12 0.081543 0.292224 0.507662
O O13 0.234856 0.945834 0.226231
O O14 0.336989 0.570028 0.068611
O O15 0.187318 0.489642 0.459501
O O16 0.010034 0.114276 0.155941
O O17 0.000000 0.500000 0.000000
#
# Coordination Sequence:
#
# PCOD9014100 Si02
#       8
#     2   2   2   2   2   2   2   2
#     4  11  25  44  73  98 128 186 230 284 338 392
#     4  11  22  37  66 100 139 174 223 282 337 409
#     4  10  23  45  65  99 139 176 221 282 338 416
#     4  12  23  41  67  99 136 174 227 282 341 407
#     4  10  22  40  66  97 134 178 219 273 345 406
#     4  11  25  47  67  97 138 177 233 284 334 400
#     4  11  24  42  65  99 138 178 224 276 342 416
#     4  10  21  41  66  97 132 170 232 276 333 401
#
# _framework density 25.758448000000001
#
# number of rings (size 3 to 8) (size 9 to 14) (size 15 to 20)
#    0.000    1.250    3.750    2.625    1.750    5.000 
#    0.000    0.625    0.000    0.000    0.000    0.000 
#    0.000    0.000    0.000    0.000    0.000    0.000 
#
# Total GULP energy -89375.770088 kJ/mol
# GULP energy per Si atom -5585.985630 kJ/mol
# Density = 2.569982 g / cm^3
# Si number density = 25.758448 Si / 1000 Ang^3
#
#
#
# Elastic Constant Matrix: (Units=GPa)
#
#
# Indices 1 2 3 4 5 6 
#
# 1 114.3652 23.6576 6.1895 -3.4038 -1.9307 7.3581
# 2 23.6576 148.8099 25.3507 5.4202 13.0970 5.5077
# 3 6.1895 25.3507 58.5524 8.8573 20.7629 5.8974
# 4 -3.4038 5.4202 8.8573 43.8834 -1.6781 2.6075
# 5 -1.9307 13.0970 20.7629 -1.6781 31.6578 -11.6478
# 6 7.3581 5.5077 5.8974 2.6075 -11.6478 35.3155
#
#
#
# Elastic Compliance Matrix: (Units=1/GPa)
#
#
# Indices 1 2 3 4 5 6 
#
# 1 0.009224 -0.001433 -0.000906 0.001198 0.001379 -0.001181
# 2 -0.001433 0.007579 -0.002062 -0.000646 -0.002373 -0.001274
# 3 -0.000906 -0.002062 0.027675 -0.005585 -0.021636 -0.010835
# 4 0.001198 -0.000646 -0.005585 0.024252 0.005598 0.000839
# 5 0.001379 -0.002373 -0.021636 0.005598 0.055026 0.021431
# 6 -0.001181 -0.001274 -0.010835 0.000839 0.021431 0.037577
#
#
# Mechanical properties :
#
#
# Convention : Reuss Voigt Hill
#
# Bulk Modulus (GPa) = 28.02982 48.01368 38.02175
# Shear Modulus (GPa) = 27.46843 39.93999 33.70421
#
# Velocity S-wave (km/s) = 3.26910 3.94199 3.62120
# Velocity P-wave (km/s) = 5.01545 6.27690 5.68129
#
# Compressibility (1/GPa) = 0.03567629
#
# Stress axis : x y z
#
# Youngs Moduli (GPa) = 108.40849 131.94822 36.13305
#
# Poissons Ratio (x) = 0.18914 0.03272
# Poissons Ratio (y) = 0.15540 0.07451
# Poissons Ratio (z) = 0.09818 0.27209
#
# Static dielectric constant tensor:
#      x y z
#    x 2.133330 0.035250 0.078010 
#    y 0.035250 2.034610 0.058700 
#    z 0.078010 0.058700 2.177480 
# 
# From -- ./inp_files/564593.got.cif
#   From: 2010.05.17/outbox.cif.g08.bks.cpg/sg2_283_cif.got.tgz:564593.got - 2010.06.03 11:33:40.
