data_PCOD9014672
_publ_section_title
;
Structure prediction by ZEFSAII (Michael W. Deem and Ramdas Pophale) SiO2 
 PCOD9014672
Probable space group: P -1
;
_chemical_formula_sum "Si O2"
_cell_formula_units_Z 16
_cell_length_a 17.585549
_cell_length_b 13.989891
_cell_length_c 23.205348
_cell_angle_alpha 159.026039
_cell_angle_beta 20.446125
_cell_angle_gamma 146.301482
_cell_volume 670.412529
_symmetry_space_group_name_H-M "P -1"
_symmetry_group_IT_number 2
_symmetry_cell_setting 'triclinic'
loop_
_space_group_symop_operation_xyz
x,y,z
-x,-y,-z
loop_
_atom_site_type_symbol
_atom_site_label
_atom_site_fract_x
_atom_site_fract_y
_atom_site_fract_z
Si Si1 0.500863 0.070529 0.945607
Si Si2 0.573346 0.174350 0.746122
Si Si3 0.799012 0.158711 0.686566
Si Si4 0.763860 0.275212 0.112605
Si Si5 0.645595 0.341641 0.556508
Si Si6 0.917700 0.477326 0.340742
Si Si7 0.723957 0.924470 0.375542
Si Si8 0.296252 0.798777 0.751746
O O1 0.462887 0.331799 0.162198
O O2 0.572752 0.178710 0.894938
O O3 0.284650 0.968517 0.028369
O O4 0.707546 0.786536 0.659132
O O5 0.766574 0.017537 0.569778
O O6 0.669157 0.098478 0.571659
O O7 0.353247 0.076510 0.854076
O O8 0.500000 0.500000 0.000000
O O9 0.861675 0.433699 0.780317
O O10 0.000000 0.000000 0.500000
O O11 0.540510 0.556705 0.423488
O O12 0.754044 0.211346 0.151286
O O13 0.012792 0.289990 0.930357
O O14 0.857875 0.341116 0.364640
O O15 0.710357 0.138937 0.452497
O O16 0.460585 0.234608 0.593826
O O17 0.890021 0.280459 0.197700
#
# Coordination Sequence:
#
# PCOD9014672 Si02
#       8
#     2   2   2   2   2   2   2   2
#     4  10  21  41  68  97 136 176 224 291 344 407
#     4  12  25  47  70  99 141 184 230 287 345 415
#     4  10  23  42  69 100 131 178 228 280 346 411
#     4  10  23  42  70 100 134 179 229 289 346 405
#     4  11  24  45  62  98 144 178 233 283 340 412
#     4  10  22  42  67  98 134 180 232 281 344 410
#     4  11  27  44  68  98 140 191 226 283 348 407
#     4  10  22  45  69  98 137 176 234 288 340 411
#
# _framework density 23.865902999999999
#
# number of rings (size 3 to 8) (size 9 to 14) (size 15 to 20)
#    0.000    1.500    2.500    1.125    5.250    3.000 
#    2.250    1.250    0.000    0.000    0.000    0.000 
#    0.000    0.000    0.000    0.000    0.000    0.000 
#
# Total GULP energy -89489.384040 kJ/mol
# GULP energy per Si atom -5593.086503 kJ/mol
# Density = 2.381158 g / cm^3
# Si number density = 23.865903 Si / 1000 Ang^3
#
#
#
# Elastic Constant Matrix: (Units=GPa)
#
#
# Indices 1 2 3 4 5 6 
#
# 1 128.9798 55.1183 27.1106 4.5423 16.0756 -3.0748
# 2 55.1183 161.3829 33.3020 -0.0577 6.5215 -2.0390
# 3 27.1106 33.3020 85.5482 8.3970 12.5905 5.0685
# 4 4.5423 -0.0577 8.3970 44.6442 7.9094 5.2444
# 5 16.0756 6.5215 12.5905 7.9094 29.0478 -1.0958
# 6 -3.0748 -2.0390 5.0685 5.2444 -1.0958 46.2793
#
#
#
# Elastic Compliance Matrix: (Units=1/GPa)
#
#
# Indices 1 2 3 4 5 6 
#
# 1 0.009814 -0.002887 -0.001406 -0.000075 -0.004131 0.000589
# 2 -0.002887 0.007619 -0.002231 0.000556 0.000716 0.000342
# 3 -0.001406 -0.002231 0.013895 -0.001501 -0.004398 -0.001648
# 4 -0.000075 0.000556 -0.001501 0.024085 -0.006092 -0.002690
# 5 -0.004131 0.000716 -0.004398 -0.006092 0.040187 0.001881
# 6 0.000589 0.000342 -0.001648 -0.002690 0.001881 0.022192
#
#
# Mechanical properties :
#
#
# Convention : Reuss Voigt Hill
#
# Bulk Modulus (GPa) = 54.70477 67.44140 61.07308
# Shear Modulus (GPa) = 36.51391 41.35293 38.93342
#
# Velocity S-wave (km/s) = 3.91572 4.16711 4.04337
# Velocity P-wave (km/s) = 6.58903 7.17446 6.88797
#
# Compressibility (1/GPa) = 0.01827994
#
# Stress axis : x y z
#
# Youngs Moduli (GPa) = 101.89397 131.25816 71.96646
#
# Poissons Ratio (x) = 0.37900 0.10116
# Poissons Ratio (y) = 0.29422 0.16055
# Poissons Ratio (z) = 0.14323 0.29283
#
# Static dielectric constant tensor:
#      x y z
#    x 1.952260 -0.022470 -0.096900 
#    y -0.022470 1.885760 0.028690 
#    z -0.096900 0.028690 1.966960 
# 
# From -- ./inp_files/613268.got.cif
#   From: 2010.05.17/outbox.cif.g08.bks.cpg/sg2_307_cif.got.tgz:613268.got - 2010.06.03 11:33:40.
