data_PCOD9014948
_publ_section_title
;
Structure prediction by ZEFSAII (Michael W. Deem and Ramdas Pophale) SiO2 
 PCOD9014948
Probable space group: P -1
;
_chemical_formula_sum "Si O2"
_cell_formula_units_Z 15
_cell_length_a 20.903595
_cell_length_b 4.898141
_cell_length_c 5.383098
_cell_angle_alpha 89.114709
_cell_angle_beta 73.360326
_cell_angle_gamma 76.305402
_cell_volume 512.263749
_symmetry_space_group_name_H-M "P -1"
_symmetry_group_IT_number 2
_symmetry_cell_setting 'triclinic'
loop_
_space_group_symop_operation_xyz
x,y,z
-x,-y,-z
loop_
_atom_site_type_symbol
_atom_site_label
_atom_site_fract_x
_atom_site_fract_y
_atom_site_fract_z
Si Si1 0.959476 0.753045 0.595544
Si Si2 0.257371 0.631763 0.532311
Si Si3 0.579279 0.136772 0.062625
Si Si4 0.502578 0.725989 0.326221
Si Si5 0.178539 0.378073 0.238775
Si Si6 0.291112 0.089111 0.765897
Si Si7 0.888794 0.155574 0.049796
Si Si8 0.000000 0.500000 0.000000
O O1 0.880243 0.762447 0.586667
O O2 0.001350 0.441193 0.691381
O O3 0.930968 0.838735 0.938029
O O4 0.000000 0.000000 0.500000
O O5 0.240130 0.462230 0.318835
O O6 0.289850 0.895006 0.529854
O O7 0.180255 0.764757 0.715887
O O8 0.302015 0.387113 0.660982
O O9 0.538686 0.386001 0.304247
O O10 0.559754 0.833565 0.082449
O O11 0.559872 0.249384 0.804053
O O12 0.654943 0.070421 0.092248
O O13 0.500000 0.000000 0.500000
O O14 0.136299 0.675352 0.177058
O O15 0.216878 0.176155 0.980110
O O16 0.940945 0.312276 0.110422
#
# Coordination Sequence:
#
# PCOD9014948 Si02
#       8
#     2   2   2   2   2   2   2   1
#     4  11  22  38  59  90 122 163 220 280 353 425
#     4  11  24  42  68  91 132 178 229 287 356 415
#     4  10  22  41  67 103 147 189 239 300 347 418
#     4  10  21  41  70 105 145 192 235 291 357 420
#     4  10  24  41  64  91 126 175 223 286 350 418
#     4  11  24  44  66  99 136 179 236 286 345 421
#     4  10  22  41  59  88 127 164 219 288 352 425
#     4  10  22  36  58  86 116 164 206 278 350 422
#
# _framework density 29.281794000000001
#
# number of rings (size 3 to 8) (size 9 to 14) (size 15 to 20)
#    0.000    1.600    1.333    2.400    1.867    4.267 
#    0.000    6.667    0.000    0.000    0.000    0.000 
#    0.000    0.000    0.000    0.000    0.000    0.000 
#
# Total GULP energy -83757.972454 kJ/mol
# GULP energy per Si atom -5583.864830 kJ/mol
# Density = 2.921515 g / cm^3
# Si number density = 29.281794 Si / 1000 Ang^3
#
#
#
# Elastic Constant Matrix: (Units=GPa)
#
#
# Indices 1 2 3 4 5 6 
#
# 1 94.9298 57.3183 15.6999 12.9752 20.5323 -12.0012
# 2 57.3183 246.7685 69.9078 26.5102 12.6153 5.4350
# 3 15.6999 69.9078 144.3508 29.1209 42.5623 -2.2512
# 4 12.9752 26.5102 29.1209 53.4757 -0.0463 12.8014
# 5 20.5323 12.6153 42.5623 -0.0463 57.4222 -2.1923
# 6 -12.0012 5.4350 -2.2512 12.8014 -2.1923 46.3954
#
#
#
# Elastic Compliance Matrix: (Units=1/GPa)
#
#
# Indices 1 2 3 4 5 6 
#
# 1 0.015029 -0.003645 0.003190 -0.004900 -0.006731 0.005503
# 2 -0.003645 0.005676 -0.003081 0.000156 0.002276 -0.001693
# 3 0.003190 -0.003081 0.012252 -0.006688 -0.009429 0.003180
# 4 -0.004900 0.000156 -0.006688 0.025454 0.006377 -0.008332
# 5 -0.006731 0.002276 -0.009429 0.006377 0.026202 -0.002987
# 6 0.005503 -0.001693 0.003180 -0.008332 -0.002987 0.025488
#
#
# Mechanical properties :
#
#
# Convention : Reuss Voigt Hill
#
# Bulk Modulus (GPa) = 38.63503 85.76680 62.20092
# Shear Modulus (GPa) = 39.74526 54.33354 47.03940
#
# Velocity S-wave (km/s) = 3.68820 4.31227 4.01239
# Velocity P-wave (km/s) = 5.60000 7.35853 6.53865
#
# Compressibility (1/GPa) = 0.02588324
#
# Stress axis : x y z
#
# Youngs Moduli (GPa) = 66.53891 176.17444 81.62093
#
# Poissons Ratio (x) = 0.64219 -0.26035
# Poissons Ratio (y) = 0.24255 0.25150
# Poissons Ratio (z) = -0.21224 0.54285
#
# Static dielectric constant tensor:
#      x y z
#    x -2.510030 7.864230 -3.950150 
#    y 7.864230 -10.843920 6.302270 
#    z -3.950150 6.302270 -0.546480 
# 
# From -- ./inp_files/114778.got.cif
#   From: 2010.05.17/outbox.cif.g08.bks.cpg/sg2_58_cif.got.tgz:114778.got - 2010.06.03 11:33:40.
