data_PCOD9014426
_publ_section_title
;
Structure prediction by ZEFSAII (Michael W. Deem and Ramdas Pophale) SiO2 
 PCOD9014426
Probable space group: P -1
;
_chemical_formula_sum "Si O2"
_cell_formula_units_Z 16
_cell_length_a 8.962711
_cell_length_b 9.965456
_cell_length_c 26.394064
_cell_angle_alpha 152.476796
_cell_angle_beta 133.278192
_cell_angle_gamma 46.576689
_cell_volume 770.696652
_symmetry_space_group_name_H-M "P -1"
_symmetry_group_IT_number 2
_symmetry_cell_setting 'triclinic'
loop_
_space_group_symop_operation_xyz
x,y,z
-x,-y,-z
loop_
_atom_site_type_symbol
_atom_site_label
_atom_site_fract_x
_atom_site_fract_y
_atom_site_fract_z
Si Si1 0.693847 0.902241 0.910459
Si Si2 0.793964 0.108956 0.823181
Si Si3 0.655614 0.614032 0.036871
Si Si4 0.966242 0.257821 0.154259
Si Si5 0.093324 0.688559 0.191495
Si Si6 0.092151 0.828490 0.413113
Si Si7 0.039193 0.799426 0.585963
Si Si8 0.482865 0.369155 0.396251
O O1 0.725180 0.597144 0.846681
O O2 0.838614 0.829470 0.869391
O O3 0.455634 0.045486 0.887090
O O4 0.779042 0.150496 0.045972
O O5 0.872412 0.170354 0.806912
O O6 0.626742 0.905583 0.714960
O O7 0.690727 0.421709 0.929979
O O8 0.974757 0.936432 0.845993
O O9 0.881482 0.568989 0.099694
O O10 0.500000 0.500000 0.000000
O O11 0.954724 0.600847 0.282708
O O12 0.048321 0.939289 0.307304
O O13 0.321125 0.617834 0.408695
O O14 0.000000 0.000000 0.500000
O O15 0.083530 0.084010 0.455183
O O16 0.288044 0.740033 0.611776
O O17 0.000000 0.500000 0.500000
O O18 0.500000 0.500000 0.500000
#
# Coordination Sequence:
#
# PCOD9014426 Si02
#       8
#     2   2   2   2   2   2   2   2
#     4  11  22  40  68 100 130 180 222 274 340 402
#     4  11  24  43  67  97 139 178 222 279 337 407
#     4  12  23  40  70  98 130 181 226 269 342 407
#     4  10  21  41  67  97 136 173 225 274 331 404
#     4  12  26  44  63 100 146 170 219 291 337 395
#     4  11  24  43  71 102 135 178 231 284 338 407
#     4  12  27  46  71 101 136 180 227 288 345 400
#     4  11  24  45  73 100 129 179 235 275 340 413
#
# _framework density 20.760437
#
# number of rings (size 3 to 8) (size 9 to 14) (size 15 to 20)
#    0.000    0.750    5.000    2.625    5.250    1.000 
#    0.000    1.250    0.000    0.000    0.000    0.000 
#    0.000    0.000    0.000    0.000    0.000    0.000 
#
# Total GULP energy -89488.528110 kJ/mol
# GULP energy per Si atom -5593.033007 kJ/mol
# Density = 2.071319 g / cm^3
# Si number density = 20.760437 Si / 1000 Ang^3
#
#
#
# Elastic Constant Matrix: (Units=GPa)
#
#
# Indices 1 2 3 4 5 6 
#
# 1 63.2530 28.6705 5.9330 -3.1176 -6.5477 26.9601
# 2 28.6705 125.5333 13.4769 17.7547 -2.5042 24.0905
# 3 5.9330 13.4769 101.5264 3.9963 -20.4636 9.7905
# 4 -3.1176 17.7547 3.9963 29.4635 7.9211 -4.9142
# 5 -6.5477 -2.5042 -20.4636 7.9211 31.1212 -2.9389
# 6 26.9601 24.0905 9.7905 -4.9142 -2.9389 40.8031
#
#
#
# Elastic Compliance Matrix: (Units=1/GPa)
#
#
# Indices 1 2 3 4 5 6 
#
# 1 0.023211 -0.002839 0.001088 0.000707 0.003910 -0.013555
# 2 -0.002839 0.010851 -0.000067 -0.008214 0.001815 -0.005373
# 3 0.001088 -0.000067 0.012123 -0.004491 0.009010 -0.003480
# 4 0.000707 -0.008214 -0.004491 0.044979 -0.013982 0.009870
# 5 0.003910 0.001815 0.009010 -0.013982 0.042163 -0.004464
# 6 -0.013555 -0.005373 -0.003480 0.009870 -0.004464 0.038339
#
#
# Mechanical properties :
#
#
# Convention : Reuss Voigt Hill
#
# Bulk Modulus (GPa) = 23.50232 42.94151 33.22191
# Shear Modulus (GPa) = 26.38735 36.42637 31.40686
#
# Velocity S-wave (km/s) = 3.56903 4.19335 3.89372
# Velocity P-wave (km/s) = 5.32253 6.64641 6.02096
#
# Compressibility (1/GPa) = 0.04254899
#
# Stress axis : x y z
#
# Youngs Moduli (GPa) = 43.08272 92.16057 82.48526
#
# Poissons Ratio (x) = 0.26162 -0.08973
# Poissons Ratio (y) = 0.12230 0.00554
# Poissons Ratio (z) = -0.04687 0.00619
#
# Static dielectric constant tensor:
#      x y z
#    x 1.713640 0.002230 -0.009540 
#    y 0.002230 1.755040 -0.018130 
#    z -0.009540 -0.018130 1.732890 
# 
# From -- ./inp_files/306940.got.cif
#   From: 2010.05.17/outbox.cif.g08.bks.cpg/sg2_154_cif.got.tgz:306940.got - 2010.06.03 11:33:40.
