data_PCOD9014397
_publ_section_title
;
Structure prediction by ZEFSAII (Michael W. Deem and Ramdas Pophale) SiO2 
 PCOD9014397
Probable space group: P -1
;
_chemical_formula_sum "Si O2"
_cell_formula_units_Z 16
_cell_length_a 14.064488
_cell_length_b 17.276403
_cell_length_c 7.504797
_cell_angle_alpha 85.780707
_cell_angle_beta 105.756109
_cell_angle_gamma 155.834476
_cell_volume 644.446302
_symmetry_space_group_name_H-M "P -1"
_symmetry_group_IT_number 2
_symmetry_cell_setting 'triclinic'
loop_
_space_group_symop_operation_xyz
x,y,z
-x,-y,-z
loop_
_atom_site_type_symbol
_atom_site_label
_atom_site_fract_x
_atom_site_fract_y
_atom_site_fract_z
Si Si1 0.497772 0.320094 0.450602
Si Si2 0.752222 0.978055 0.050928
Si Si3 0.046126 0.139734 0.849187
Si Si4 0.789831 0.398190 0.721606
Si Si5 0.829933 0.453773 0.146085
Si Si6 0.715897 0.796968 0.287536
Si Si7 0.250080 0.858725 0.802433
Si Si8 0.024429 0.290379 0.637729
O O1 0.543265 0.262582 0.533549
O O2 0.494757 0.361891 0.631735
O O3 0.721440 0.514793 0.399106
O O4 0.203061 0.103084 0.252696
O O5 0.447387 0.761964 0.850473
O O6 0.000000 0.135332 0.025892
O O7 0.708690 0.876028 0.182804
O O8 0.804057 0.098659 0.141608
O O9 0.011433 0.192898 0.708828
O O10 0.290519 0.271460 0.860804
O O11 0.910214 0.408078 0.698097
O O12 0.018454 0.628600 0.762279
O O13 0.761300 0.373947 0.924828
O O14 0.915049 0.605036 0.189223
O O15 0.000000 0.000000 0.500000
O O16 0.231316 0.865675 0.580998
O O17 0.500000 0.000000 0.000000
#
# Coordination Sequence:
#
# PCOD9014397 Si02
#       8
#     2   2   2   2   2   2   2   2
#     4  10  21  41  67  96 137 174 217 276 331 394
#     4  12  22  43  71  95 138 174 222 277 331 398
#     4  11  24  43  68  97 135 176 226 278 334 385
#     4  10  22  39  66  93 138 176 214 267 337 390
#     4  11  22  40  66  97 133 175 219 270 334 395
#     4  10  22  42  70  97 128 178 225 277 338 387
#     4  11  23  40  65 100 131 179 221 266 326 403
#     4  11  25  42  67 101 139 171 225 273 331 395
#
# _framework density 24.827517
#
# number of rings (size 3 to 8) (size 9 to 14) (size 15 to 20)
#    0.000    1.250    3.750    2.625    0.000    3.500 
#    0.000    3.750    0.000    0.000    0.000    0.000 
#    0.000    0.000    0.000    0.000    0.000    0.000 
#
# Total GULP energy -89392.049089 kJ/mol
# GULP energy per Si atom -5587.003068 kJ/mol
# Density = 2.477101 g / cm^3
# Si number density = 24.827517 Si / 1000 Ang^3
#
#
#
# Elastic Constant Matrix: (Units=GPa)
#
#
# Indices 1 2 3 4 5 6 
#
# 1 155.1652 30.7482 19.1708 -6.1918 -11.0627 -2.1582
# 2 30.7482 63.6832 5.6513 -13.1042 0.2326 -6.8349
# 3 19.1708 5.6513 51.1747 -13.4973 -6.4140 6.0661
# 4 -6.1918 -13.1042 -13.4973 21.1846 5.0125 -1.4112
# 5 -11.0627 0.2326 -6.4140 5.0125 29.3277 -2.0511
# 6 -2.1582 -6.8349 6.0661 -1.4112 -2.0511 33.2657
#
#
#
# Elastic Compliance Matrix: (Units=1/GPa)
#
#
# Indices 1 2 3 4 5 6 
#
# 1 0.007679 -0.003988 -0.002819 -0.002661 0.002784 0.000252
# 2 -0.003988 0.020782 0.002000 0.014025 -0.003347 0.004035
# 3 -0.002819 0.002000 0.025170 0.015864 0.001462 -0.003599
# 4 -0.002661 0.014025 0.015864 0.067488 -0.009031 0.002122
# 5 0.002784 -0.003347 0.001462 -0.009031 0.037117 0.001132
# 6 0.000252 0.004035 -0.003599 0.002122 0.001132 0.031722
#
#
# Mechanical properties :
#
#
# Convention : Reuss Voigt Hill
#
# Bulk Modulus (GPa) = 22.71817 42.35154 32.53486
# Shear Modulus (GPa) = 23.33785 31.05246 27.19516
#
# Velocity S-wave (km/s) = 3.06927 3.54040 3.31322
# Velocity P-wave (km/s) = 4.66163 5.81446 5.26966
#
# Compressibility (1/GPa) = 0.04401763
#
# Stress axis : x y z
#
# Youngs Moduli (GPa) = 130.22233 48.11856 39.72968
#
# Poissons Ratio (x) = 0.19191 0.11199
# Poissons Ratio (y) = 0.51936 -0.07947
# Poissons Ratio (z) = 0.36708 -0.09625
#
# Static dielectric constant tensor:
#      x y z
#    x 2.054660 0.125050 0.057040 
#    y 0.125050 1.964420 0.047620 
#    z 0.057040 0.047620 2.122190 
# 
# From -- ./inp_files/273209.got.cif
#   From: 2010.05.17/outbox.cif.g08.bks.cpg/sg2_137_cif.got.tgz:273209.got - 2010.06.03 11:33:40.
