data_PCOD9014093
_publ_section_title
;
Structure prediction by ZEFSAII (Michael W. Deem and Ramdas Pophale) SiO2 
 PCOD9014093
Probable space group: P -1
;
_chemical_formula_sum "Si O2"
_cell_formula_units_Z 16
_cell_length_a 9.189072
_cell_length_b 12.066240
_cell_length_c 16.081064
_cell_angle_alpha 143.468979
_cell_angle_beta 47.135171
_cell_angle_gamma 107.332545
_cell_volume 639.171535
_symmetry_space_group_name_H-M "P -1"
_symmetry_group_IT_number 2
_symmetry_cell_setting 'triclinic'
loop_
_space_group_symop_operation_xyz
x,y,z
-x,-y,-z
loop_
_atom_site_type_symbol
_atom_site_label
_atom_site_fract_x
_atom_site_fract_y
_atom_site_fract_z
Si Si1 0.124084 0.301475 0.897350
Si Si2 0.997246 0.962627 0.747538
Si Si3 0.710302 0.150515 0.144547
Si Si4 0.718875 0.509728 0.815210
Si Si5 0.174506 0.342660 0.630356
Si Si6 0.393436 0.839260 0.295201
Si Si7 0.646513 0.344132 0.449431
Si Si8 0.478476 0.917638 0.049680
O O1 0.978873 0.439379 0.119067
O O2 0.085909 0.111437 0.769872
O O3 0.000000 0.500000 0.000000
O O4 0.401705 0.192686 0.742061
O O5 0.807296 0.966366 0.763521
O O6 0.855531 0.085343 0.963050
O O7 0.218203 0.733339 0.562796
O O8 0.806216 0.202960 0.221575
O O9 0.468314 0.396946 0.366835
O O10 0.618149 0.989841 0.097169
O O11 0.712244 0.290803 0.699902
O O12 0.993823 0.427798 0.673880
O O13 0.537154 0.691412 0.067029
O O14 0.608941 0.653743 0.860500
O O15 0.434388 0.302954 0.503305
O O16 0.218570 0.106282 0.502275
O O17 0.500000 0.000000 0.000000
#
# Coordination Sequence:
#
# PCOD9014093 Si02
#       8
#     2   2   2   2   2   2   2   2
#     4  11  23  39  64  91 131 170 210 265 328 387
#     4  11  22  42  62  91 133 169 212 261 322 381
#     4  10  23  40  64  94 127 170 216 264 319 379
#     4  10  22  41  66  93 132 169 217 269 324 387
#     4  11  22  39  66  97 128 168 220 271 321 389
#     4  10  21  41  66  97 125 169 219 269 324 383
#     4  11  22  39  67  97 126 164 218 266 318 386
#     4  10  23  41  63  90 131 176 212 262 328 383
#
# _framework density 25.032402000000001
#
# number of rings (size 3 to 8) (size 9 to 14) (size 15 to 20)
#    0.000    1.500    2.500    2.250    1.750    5.000 
#    0.000    5.000    0.000    0.000    0.000    0.000 
#    0.000    0.000    0.000    0.000    0.000    0.000 
#
# Total GULP energy -89459.201845 kJ/mol
# GULP energy per Si atom -5591.200115 kJ/mol
# Density = 2.497543 g / cm^3
# Si number density = 25.032402 Si / 1000 Ang^3
#
#
#
# Elastic Constant Matrix: (Units=GPa)
#
#
# Indices 1 2 3 4 5 6 
#
# 1 81.9256 28.8560 18.4527 1.6341 -9.9721 6.0360
# 2 28.8560 93.1060 23.3479 31.5711 -8.0837 10.7884
# 3 18.4527 23.3479 72.0788 16.8124 1.8679 -3.6436
# 4 1.6341 31.5711 16.8124 44.9780 -7.6593 -4.2138
# 5 -9.9721 -8.0837 1.8679 -7.6593 50.7150 10.4238
# 6 6.0360 10.7884 -3.6436 -4.2138 10.4238 39.6395
#
#
#
# Elastic Compliance Matrix: (Units=1/GPa)
#
#
# Indices 1 2 3 4 5 6 
#
# 1 0.015174 -0.004888 -0.003554 0.004625 0.003384 -0.001705
# 2 -0.004888 0.017509 -0.002025 -0.011671 0.001333 -0.005798
# 3 -0.003554 -0.002025 0.016824 -0.004975 -0.002988 0.002896
# 4 0.004625 -0.011671 -0.004975 0.033112 0.003272 0.004674
# 5 0.003384 0.001333 -0.002988 0.003272 0.022586 -0.006744
# 6 -0.001705 -0.005798 0.002896 0.004674 -0.006744 0.029602
#
#
# Mechanical properties :
#
#
# Convention : Reuss Voigt Hill
#
# Bulk Modulus (GPa) = 35.00036 43.15818 39.07927
# Shear Modulus (GPa) = 30.25438 38.83008 34.54223
#
# Velocity S-wave (km/s) = 3.48028 3.94279 3.71873
# Velocity P-wave (km/s) = 5.49201 6.16489 5.83815
#
# Compressibility (1/GPa) = 0.02857113
#
# Stress axis : x y z
#
# Youngs Moduli (GPa) = 65.90319 57.11494 59.43948
#
# Poissons Ratio (x) = 0.27920 0.21124
# Poissons Ratio (y) = 0.32217 0.12038
# Poissons Ratio (z) = 0.23421 0.11567
#
# Static dielectric constant tensor:
#      x y z
#    x 2.023920 -0.054840 0.050460 
#    y -0.054840 2.008430 -0.113780 
#    z 0.050460 -0.113780 2.024860 
# 
# From -- ./inp_files/111607.got.cif
#   From: 2010.05.17/outbox.cif.g08.bks.cpg/sg2_56_cif.got.tgz:111607.got - 2010.06.03 11:33:40.
