data_PCOD9014422
_publ_section_title
;
Structure prediction by ZEFSAII (Michael W. Deem and Ramdas Pophale) SiO2 
 PCOD9014422
Probable space group: P -1
;
_chemical_formula_sum "Si O2"
_cell_formula_units_Z 16
_cell_length_a 13.103880
_cell_length_b 20.034896
_cell_length_c 15.237026
_cell_angle_alpha 22.485221
_cell_angle_beta 27.946981
_cell_angle_gamma 37.513405
_cell_volume 711.047888
_symmetry_space_group_name_H-M "P -1"
_symmetry_group_IT_number 2
_symmetry_cell_setting 'triclinic'
loop_
_space_group_symop_operation_xyz
x,y,z
-x,-y,-z
loop_
_atom_site_type_symbol
_atom_site_label
_atom_site_fract_x
_atom_site_fract_y
_atom_site_fract_z
Si Si1 0.109419 0.346177 0.649065
Si Si2 0.036340 0.878649 0.205401
Si Si3 0.708620 0.034721 0.362330
Si Si4 0.198045 0.295928 0.152236
Si Si5 0.696167 0.420790 0.634196
Si Si6 0.547135 0.878806 0.374856
Si Si7 0.111264 0.442967 0.847018
Si Si8 0.114046 0.924160 0.588183
O O1 0.235550 0.406753 0.569424
O O2 0.314516 0.282213 0.518699
O O3 0.000000 0.500000 0.500000
O O4 0.906859 0.192044 0.002985
O O5 0.111231 0.695137 0.345094
O O6 0.837903 0.871910 0.432504
O O7 0.257425 0.966880 0.977105
O O8 0.000000 0.000000 0.000000
O O9 0.593682 0.087735 0.473710
O O10 0.500000 0.000000 0.500000
O O11 0.054501 0.418415 0.167915
O O12 0.110753 0.085918 0.464376
O O13 0.451457 0.326696 0.954060
O O14 0.190723 0.369223 0.968272
O O15 0.711585 0.458745 0.472930
O O16 0.366385 0.889944 0.423974
O O17 0.003953 0.275671 0.073553
O O18 0.000000 0.000000 0.500000
#
# Coordination Sequence:
#
# PCOD9014422 Si02
#       8
#     2   2   2   2   2   2   2   2
#     4  11  27  43  63  97 135 172 222 288 340 397
#     4  11  23  41  64  96 131 172 222 275 331 404
#     4  11  24  42  68  91 124 175 224 268 333 415
#     4  10  22  43  70  97 137 184 212 283 352 398
#     4  12  23  42  67  96 134 175 225 276 343 402
#     4  11  22  43  66  91 134 175 221 273 336 402
#     4  10  23  42  66 104 137 168 237 278 331 421
#     4  10  21  41  67  97 134 178 223 275 338 404
#
# _framework density 22.502001
#
# number of rings (size 3 to 8) (size 9 to 14) (size 15 to 20)
#    0.000    1.250    2.500    3.375    1.750    0.500 
#    2.250    0.000    0.000    9.000    0.000    0.000 
#    0.000    0.000    0.000    0.000    0.000    0.000 
#
# Total GULP energy -89138.026625 kJ/mol
# GULP energy per Si atom -5571.126664 kJ/mol
# Density = 2.245079 g / cm^3
# Si number density = 22.502001 Si / 1000 Ang^3
#
#
#
# Elastic Constant Matrix: (Units=GPa)
#
#
# Indices 1 2 3 4 5 6 
#
# 1 77.3296 45.2749 22.7373 11.3096 -10.7766 1.7020
# 2 45.2749 169.9896 50.5635 15.8733 -2.4213 -4.2157
# 3 22.7373 50.5635 83.4721 13.9485 -19.3169 9.7052
# 4 11.3096 15.8733 13.9485 45.4988 0.8376 -3.2358
# 5 -10.7766 -2.4213 -19.3169 0.8376 36.5915 3.7151
# 6 1.7020 -4.2157 9.7052 -3.2358 3.7151 41.3435
#
#
#
# Elastic Compliance Matrix: (Units=1/GPa)
#
#
# Indices 1 2 3 4 5 6 
#
# 1 0.016463 -0.004000 -0.000328 -0.002798 0.004642 -0.001645
# 2 -0.004000 0.008513 -0.005175 -0.000141 -0.003604 0.002560
# 3 -0.000328 -0.005175 0.019112 -0.004611 0.010395 -0.006296
# 4 -0.002798 -0.000141 -0.004611 0.024461 -0.004180 0.003473
# 5 0.004642 -0.003604 0.010395 -0.004180 0.034695 -0.006444
# 6 -0.001645 0.002560 -0.006296 0.003473 -0.006444 0.026845
#
#
# Mechanical properties :
#
#
# Convention : Reuss Voigt Hill
#
# Bulk Modulus (GPa) = 39.87134 63.10475 51.48804
# Shear Modulus (GPa) = 31.75484 38.83446 35.29465
#
# Velocity S-wave (km/s) = 3.76067 4.15881 3.96474
# Velocity P-wave (km/s) = 6.05098 7.15303 6.62496
#
# Compressibility (1/GPa) = 0.02508068
#
# Stress axis : x y z
#
# Youngs Moduli (GPa) = 60.74377 117.46995 52.32182
#
# Poissons Ratio (x) = 0.46993 0.01717
# Poissons Ratio (y) = 0.24300 0.27077
# Poissons Ratio (z) = 0.01993 0.60792
#
# Static dielectric constant tensor:
#      x y z
#    x 1.895660 0.106810 0.037720 
#    y 0.106810 1.833500 -0.119920 
#    z 0.037720 -0.119920 1.807420 
# 
# From -- ./inp_files/574391.got.cif
#   From: 2010.05.17/outbox.cif.g08.bks.cpg/sg2_288_cif.got.tgz:574391.got - 2010.06.03 11:33:40.
