data_PCOD9014782
_publ_section_title
;
Structure prediction by ZEFSAII (Michael W. Deem and Ramdas Pophale) SiO2 
 PCOD9014782
Probable space group: P -1
;
_chemical_formula_sum "Si O2"
_cell_formula_units_Z 16
_cell_length_a 26.466165
_cell_length_b 5.611038
_cell_length_c 21.849577
_cell_angle_alpha 81.638510
_cell_angle_beta 167.184643
_cell_angle_gamma 99.788213
_cell_volume 706.152469
_symmetry_space_group_name_H-M "P -1"
_symmetry_group_IT_number 2
_symmetry_cell_setting 'triclinic'
loop_
_space_group_symop_operation_xyz
x,y,z
-x,-y,-z
loop_
_atom_site_type_symbol
_atom_site_label
_atom_site_fract_x
_atom_site_fract_y
_atom_site_fract_z
Si Si1 0.462094 0.120471 0.157769
Si Si2 0.411774 0.673096 0.207610
Si Si3 0.821212 0.167942 0.257364
Si Si4 0.795891 0.350533 0.634116
Si Si5 0.573820 0.003838 0.489042
Si Si6 0.692794 0.697954 0.748619
Si Si7 0.635503 0.271380 0.157398
Si Si8 0.077039 0.431423 0.733922
O O1 0.702601 0.258539 0.460438
O O2 0.408978 0.907625 0.152812
O O3 0.271780 0.299474 0.935697
O O4 0.407748 0.992855 0.033593
O O5 0.640331 0.556235 0.463029
O O6 0.433190 0.773354 0.297465
O O7 0.185463 0.496841 0.926013
O O8 0.756222 0.322254 0.232054
O O9 0.931317 0.325314 0.324902
O O10 0.000000 0.000000 0.500000
O O11 0.727634 0.143977 0.612815
O O12 0.068083 0.404345 0.955367
O O13 0.405892 0.182240 0.312485
O O14 0.716000 0.911325 0.716482
O O15 0.500000 0.500000 0.500000
O O16 0.831800 0.277046 0.441005
O O17 0.500000 0.500000 0.000000
O O18 0.500000 0.000000 0.000000
#
# Coordination Sequence:
#
# PCOD9014782 Si02
#       8
#     2   2   2   2   2   2   2   2
#     4   9  20  38  67  90 117 168 228 265 318 397
#     4   9  20  39  68  90 120 167 222 269 325 390
#     4  11  21  40  70  91 123 174 229 268 326 409
#     4  10  21  42  64  92 128 168 220 266 328 396
#     4  10  22  41  64  94 127 172 211 265 333 392
#     4  11  24  39  63  98 132 166 216 266 330 394
#     4  12  27  41  61 101 139 168 216 287 349 394
#     4  10  21  41  69  89 122 176 224 264 329 407
#
# _framework density 22.657995
#
# number of rings (size 3 to 8) (size 9 to 14) (size 15 to 20)
#    0.000    1.750    1.250    2.250    3.500    6.000 
#    2.250    1.250    0.000    0.000    0.000    0.000 
#    0.000    0.000    0.000    0.000    0.000    0.000 
#
# Total GULP energy -89377.799246 kJ/mol
# GULP energy per Si atom -5586.112453 kJ/mol
# Density = 2.260642 g / cm^3
# Si number density = 22.657995 Si / 1000 Ang^3
#
#
#
# Elastic Constant Matrix: (Units=GPa)
#
#
# Indices 1 2 3 4 5 6 
#
# 1 75.5469 21.8489 44.8532 8.0858 -10.7604 -25.1042
# 2 21.8489 86.7785 57.2715 7.3494 -3.0480 -16.8600
# 3 44.8532 57.2715 189.6390 18.0959 -11.3576 -20.5273
# 4 8.0858 7.3494 18.0959 39.7591 1.1535 -15.1813
# 5 -10.7604 -3.0480 -11.3576 1.1535 23.9754 6.3520
# 6 -25.1042 -16.8600 -20.5273 -15.1813 6.3520 50.9835
#
#
#
# Elastic Compliance Matrix: (Units=1/GPa)
#
#
# Indices 1 2 3 4 5 6 
#
# 1 0.018285 -0.001157 -0.002971 0.000356 0.004798 0.006932
# 2 -0.001157 0.014997 -0.004054 0.000526 -0.001376 0.003086
# 3 -0.002971 -0.004054 0.007466 -0.002393 0.002004 -0.000760
# 4 0.000356 0.000526 -0.002393 0.029553 -0.004651 0.008765
# 5 0.004798 -0.001376 0.002004 -0.004651 0.046028 -0.004405
# 6 0.006932 0.003086 -0.000760 0.008765 -0.004405 0.026901
#
#
# Mechanical properties :
#
#
# Convention : Reuss Voigt Hill
#
# Bulk Modulus (GPa) = 41.01296 66.65685 53.83490
# Shear Modulus (GPa) = 29.81101 38.14297 33.97699
#
# Velocity S-wave (km/s) = 3.63119 4.10740 3.87661
# Velocity P-wave (km/s) = 5.97669 7.20950 6.62185
#
# Compressibility (1/GPa) = 0.02438254
#
# Stress axis : x y z
#
# Youngs Moduli (GPa) = 54.69092 66.67932 133.93260
#
# Poissons Ratio (x) = 0.07717 0.39796
# Poissons Ratio (y) = 0.06330 0.54298
# Poissons Ratio (z) = 0.16250 0.27033
#
# Static dielectric constant tensor:
#      x y z
#    x 1.851530 0.014880 -0.010990 
#    y 0.014880 1.909730 0.050100 
#    z -0.010990 0.050100 1.857200 
# 
# From -- ./inp_files/53373.got.cif
#   From: 2010.05.17/outbox.cif.g08.bks.cpg/sg2_27_cif.got.tgz:53373.got - 2010.06.03 11:33:40.
