data_PCOD9014377
_publ_section_title
;
Structure prediction by ZEFSAII (Michael W. Deem and Ramdas Pophale) SiO2 
 PCOD9014377
Probable space group: P -1
;
_chemical_formula_sum "Si O2"
_cell_formula_units_Z 14
_cell_length_a 25.262279
_cell_length_b 5.310786
_cell_length_c 18.012148
_cell_angle_alpha 57.629569
_cell_angle_beta 163.115717
_cell_angle_gamma 124.575988
_cell_volume 577.601231
_symmetry_space_group_name_H-M "P -1"
_symmetry_group_IT_number 2
_symmetry_cell_setting 'triclinic'
loop_
_space_group_symop_operation_xyz
x,y,z
-x,-y,-z
loop_
_atom_site_type_symbol
_atom_site_label
_atom_site_fract_x
_atom_site_fract_y
_atom_site_fract_z
Si Si1 0.071649 0.652997 0.166561
Si Si2 0.597471 0.217640 0.163398
Si Si3 0.605268 0.408438 0.772244
Si Si4 0.789998 0.401984 0.260715
Si Si5 0.270184 0.161664 0.256958
Si Si6 0.281758 0.160596 0.485088
Si Si7 0.205142 0.968126 0.808871
O O1 0.152831 0.353583 0.322937
O O2 0.145102 0.822931 0.160052
O O3 0.177942 0.912400 0.325478
O O4 0.856330 0.626995 0.905269
O O5 0.791718 0.343963 0.359331
O O6 0.648074 0.049843 0.328443
O O7 0.500000 0.500000 0.000000
O O8 0.500000 0.000000 0.000000
O O9 0.472269 0.211545 0.560778
O O10 0.694583 0.720579 0.798853
O O11 0.452846 0.391549 0.636337
O O12 0.762158 0.259278 0.046053
O O13 0.711842 0.133466 0.140121
O O14 0.000000 0.500000 0.500000
O O15 0.697957 0.694012 0.084744
O O16 0.000000 0.000000 0.500000
#
# Coordination Sequence:
#
# PCOD9014377 Si02
#       7
#     2   2   2   2   2   2   2
#     4  10  23  44  64  93 130 166 215 268 330 387
#     4  12  24  40  62  93 131 169 213 264 320 380
#     4  10  21  41  67  96 127 169 218 265 322 386
#     4  10  22  40  61  87 123 164 209 256 309 376
#     4   9  22  42  67  95 130 171 216 272 326 383
#     4  11  24  41  66  95 130 173 215 268 325 386
#     4  10  22  40  64  95 129 164 211 268 320 380
#
# _framework density 24.238175999999999
#
# number of rings (size 3 to 8) (size 9 to 14) (size 15 to 20)
#    0.000    1.714    0.000    3.429    0.000   13.714 
#    0.000    5.714    0.000    0.000    0.000    0.000 
#    0.000    0.000    0.000    0.000    0.000    0.000 
#
# Total GULP energy -78038.921938 kJ/mol
# GULP energy per Si atom -5574.208710 kJ/mol
# Density = 2.418301 g / cm^3
# Si number density = 24.238176 Si / 1000 Ang^3
#
#
#
# Elastic Constant Matrix: (Units=GPa)
#
#
# Indices 1 2 3 4 5 6 
#
# 1 144.2935 45.0893 53.6150 -24.6606 2.0188 15.1154
# 2 45.0893 99.4780 40.3387 -31.9034 -0.3658 -23.6852
# 3 53.6150 40.3387 133.9158 -20.9651 -11.2340 10.8741
# 4 -24.6606 -31.9034 -20.9651 36.5950 8.2189 3.7114
# 5 2.0188 -0.3658 -11.2340 8.2189 31.4395 -9.5346
# 6 15.1154 -23.6852 10.8741 3.7114 -9.5346 54.8006
#
#
#
# Elastic Compliance Matrix: (Units=1/GPa)
#
#
# Indices 1 2 3 4 5 6 
#
# 1 0.010121 -0.003622 -0.002319 0.003713 -0.003958 -0.004837
# 2 -0.003622 0.018737 -0.003209 0.011391 -0.001009 0.008787
# 3 -0.002319 -0.003209 0.009926 0.000953 0.002709 -0.002310
# 4 0.003713 0.011391 0.000953 0.042975 -0.011357 -0.001176
# 5 -0.003958 -0.001009 0.002709 -0.011357 0.038275 0.007547
# 6 -0.004837 0.008787 -0.002310 -0.001176 0.007547 0.025231
#
#
# Mechanical properties :
#
#
# Convention : Reuss Voigt Hill
#
# Bulk Modulus (GPa) = 48.81750 72.86370 60.84060
# Shear Modulus (GPa) = 29.34402 40.47664 34.91033
#
# Velocity S-wave (km/s) = 3.48322 4.09094 3.79925
# Velocity P-wave (km/s) = 6.03005 7.24163 6.66344
#
# Compressibility (1/GPa) = 0.02048446
#
# Stress axis : x y z
#
# Youngs Moduli (GPa) = 98.80926 53.36986 100.74345
#
# Poissons Ratio (x) = 0.19333 0.23359
# Poissons Ratio (y) = 0.35792 0.32325
# Poissons Ratio (z) = 0.22911 0.17124
#
# Static dielectric constant tensor:
#      x y z
#    x 2.330890 0.662610 0.576060 
#    y 0.662610 3.174760 1.053470 
#    z 0.576060 1.053470 2.844110 
# 
# From -- ./inp_files/578556.got.cif
#   From: 2010.05.17/outbox.cif.g08.bks.cpg/sg2_290_cif.got.tgz:578556.got - 2010.06.03 11:33:40.
