data_PCOD9014044
_publ_section_title
;
Structure prediction by ZEFSAII (Michael W. Deem and Ramdas Pophale) SiO2 
 PCOD9014044
Probable space group: P -1
;
_chemical_formula_sum "Si O2"
_cell_formula_units_Z 12
_cell_length_a 10.996217
_cell_length_b 7.472781
_cell_length_c 10.294641
_cell_angle_alpha 89.351466
_cell_angle_beta 37.901069
_cell_angle_gamma 75.014489
_cell_volume 474.775230
_symmetry_space_group_name_H-M "P -1"
_symmetry_group_IT_number 2
_symmetry_cell_setting 'triclinic'
loop_
_space_group_symop_operation_xyz
x,y,z
-x,-y,-z
loop_
_atom_site_type_symbol
_atom_site_label
_atom_site_fract_x
_atom_site_fract_y
_atom_site_fract_z
Si Si1 0.068523 0.572070 0.609814
Si Si2 0.484054 0.209758 0.177038
Si Si3 0.888915 0.864211 0.541237
Si Si4 0.757411 0.144649 0.169900
Si Si5 0.327915 0.509099 0.947255
Si Si6 0.287751 0.830282 0.511916
O O1 0.284081 0.373561 0.424107
O O2 0.120043 0.725691 0.652666
O O3 0.032120 0.663704 0.494694
O O4 0.867234 0.533672 0.831929
O O5 0.349155 0.114193 0.212730
O O6 0.650190 0.071261 0.143494
O O7 0.602233 0.344504 0.021500
O O8 0.837114 0.948850 0.437873
O O9 0.000000 0.000000 0.500000
O O10 0.740744 0.351906 0.124190
O O11 0.630002 0.174945 0.411942
O O12 0.000000 0.000000 0.000000
O O13 0.525926 0.307327 0.742252
#
# Coordination Sequence:
#
# PCOD9014044 Si02
#       6
#     2   2   2   2   2   2
#     4  10  21  41  66  95 127 175 215 259 323 381
#     4   9  22  41  63  96 129 171 214 268 321 371
#     4  10  22  40  67  95 131 172 212 265 323 383
#     4  10  23  43  65  97 131 168 218 265 322 381
#     4   9  22  41  64  96 127 171 213 260 319 382
#     4  10  22  42  63  95 134 167 212 266 317 380
#
# _framework density 25.275117000000002
#
# number of rings (size 3 to 8) (size 9 to 14) (size 15 to 20)
#    1.000    1.333    0.000    1.000    2.333    4.000 
#    0.000    3.333    0.000    0.000    0.000    0.000 
#    0.000    0.000    0.000    0.000    0.000    0.000 
#
# Total GULP energy -66899.068847 kJ/mol
# GULP energy per Si atom -5574.922404 kJ/mol
# Density = 2.521759 g / cm^3
# Si number density = 25.275117 Si / 1000 Ang^3
#
#
#
# Elastic Constant Matrix: (Units=GPa)
#
#
# Indices 1 2 3 4 5 6 
#
# 1 66.6414 27.6640 18.9284 5.3413 -25.6183 -26.2898
# 2 27.6640 134.0131 19.6076 -19.0234 -11.5294 -9.8005
# 3 18.9284 19.6076 96.4486 -4.0093 -21.2029 6.6365
# 4 5.3413 -19.0234 -4.0093 36.2891 2.6372 -6.9115
# 5 -25.6183 -11.5294 -21.2029 2.6372 45.7403 -11.0392
# 6 -26.2898 -9.8005 6.6365 -6.9115 -11.0392 48.3647
#
#
#
# Elastic Compliance Matrix: (Units=1/GPa)
#
#
# Indices 1 2 3 4 5 6 
#
# 1 0.037134 -0.004013 -0.002956 -0.004985 0.024663 0.024694
# 2 -0.004013 0.009191 -0.001020 0.005428 -0.000606 0.000459
# 3 -0.002956 -0.001020 0.012017 0.000495 0.002974 -0.002713
# 4 -0.004985 0.005428 0.000495 0.031809 -0.002472 0.002304
# 5 0.024663 -0.000606 0.002974 -0.002472 0.042403 0.022201
# 6 0.024694 0.000459 -0.002713 0.002304 0.022201 0.039961
#
#
# Mechanical properties :
#
#
# Convention : Reuss Voigt Hill
#
# Bulk Modulus (GPa) = 23.60525 47.72257 35.66391
# Shear Modulus (GPa) = 24.67747 41.47233 33.07490
#
# Velocity S-wave (km/s) = 3.12806 4.05512 3.62138
# Velocity P-wave (km/s) = 4.73349 6.39121 5.62377
#
# Compressibility (1/GPa) = 0.04236346
#
# Stress axis : x y z
#
# Youngs Moduli (GPa) = 26.92977 108.79695 83.21607
#
# Poissons Ratio (x) = 0.43657 0.24602
# Poissons Ratio (y) = 0.10806 0.08490
# Poissons Ratio (z) = 0.07961 0.11099
#
# Static dielectric constant tensor:
#      x y z
#    x 2.107100 0.092570 0.012390 
#    y 0.092570 2.064720 0.008840 
#    z 0.012390 0.008840 2.016120 
# 
# From -- ./inp_files/412278.got.cif
#   From: 2010.05.17/outbox.cif.g08.bks.cpg/sg2_207_cif.got.tgz:412278.got - 2010.06.03 11:33:40.
