data_PCOD9014979
_publ_section_title
;
Structure prediction by ZEFSAII (Michael W. Deem and Ramdas Pophale) SiO2 
 PCOD9014979
Probable space group: P -1
;
_chemical_formula_sum "Si O2"
_cell_formula_units_Z 14
_cell_length_a 17.628212
_cell_length_b 12.129699
_cell_length_c 5.187159
_cell_angle_alpha 86.200362
_cell_angle_beta 81.881035
_cell_angle_gamma 30.164043
_cell_volume 548.246778
_symmetry_space_group_name_H-M "P -1"
_symmetry_group_IT_number 2
_symmetry_cell_setting 'triclinic'
loop_
_space_group_symop_operation_xyz
x,y,z
-x,-y,-z
loop_
_atom_site_type_symbol
_atom_site_label
_atom_site_fract_x
_atom_site_fract_y
_atom_site_fract_z
Si Si1 0.232583 0.290578 0.004521
Si Si2 0.348094 0.954202 0.290691
Si Si3 0.315956 0.747498 0.291812
Si Si4 0.121933 0.013511 0.863363
Si Si5 0.236102 0.540307 0.945259
Si Si6 0.085460 0.298579 0.709900
Si Si7 0.593480 0.594486 0.606261
O O1 0.269233 0.369247 0.898000
O O2 0.096515 0.476853 0.251188
O O3 0.358909 0.049664 0.096894
O O4 0.149696 0.326976 0.810709
O O5 0.385329 0.783231 0.209839
O O6 0.445572 0.840874 0.524744
O O7 0.170302 0.172878 0.421897
O O8 0.434560 0.501068 0.325189
O O9 0.217673 0.839629 0.072802
O O10 0.200203 0.895197 0.568440
O O11 0.131219 0.134715 0.881449
O O12 0.941332 0.215397 0.939339
O O13 0.337991 0.443696 0.158587
O O14 0.284950 0.542799 0.663346
#
# Coordination Sequence:
#
# PCOD9014979 Si02
#       7
#     2   2   2   2   2   2   2
#     4  10  21  41  70  93 128 161 219 274 322 375
#     4  11  24  41  68  95 129 170 215 270 322 380
#     4  11  23  43  70  97 122 172 221 276 313 365
#     4  10  21  42  71  97 127 160 224 274 323 363
#     4  11  27  44  64  99 131 177 209 261 325 395
#     4   9  20  39  67 102 120 160 216 282 323 363
#     4  12  28  44  62  93 142 176 214 249 320 403
#
# _framework density 25.535945000000002
#
# number of rings (size 3 to 8) (size 9 to 14) (size 15 to 20)
#    0.000    1.429    1.429    2.571    4.000    4.571 
#    0.000    3.571    0.000    0.000    0.000    0.000 
#    0.000    0.000    0.000    0.000    0.000    0.000 
#
# Total GULP energy -78370.097356 kJ/mol
# GULP energy per Si atom -5597.864097 kJ/mol
# Density = 2.547782 g / cm^3
# Si number density = 25.535945 Si / 1000 Ang^3
#
#
#
# Elastic Constant Matrix: (Units=GPa)
#
#
# Indices 1 2 3 4 5 6 
#
# 1 85.7497 10.0012 17.5000 -9.3584 -0.5075 19.9187
# 2 10.0012 86.4911 37.9578 -14.8888 -19.9580 9.9002
# 3 17.5000 37.9578 111.4360 2.5282 6.1726 3.6209
# 4 -9.3584 -14.8888 2.5282 61.9580 0.1530 -16.7360
# 5 -0.5075 -19.9580 6.1726 0.1530 25.4568 -5.4275
# 6 19.9187 9.9002 3.6209 -16.7360 -5.4275 44.1921
#
#
#
# Elastic Compliance Matrix: (Units=1/GPa)
#
#
# Indices 1 2 3 4 5 6 
#
# 1 0.013447 -0.000134 -0.001857 0.000521 -0.000617 -0.005757
# 2 -0.000134 0.019932 -0.007870 0.005140 0.017575 0.000345
# 3 -0.001857 -0.007870 0.012551 -0.002837 -0.009372 -0.000654
# 4 0.000521 0.005140 -0.002837 0.019433 0.006094 0.006954
# 5 -0.000617 0.017575 -0.009372 0.006094 0.056643 0.006374
# 6 -0.005757 0.000345 -0.000654 0.006954 0.006374 0.028616
#
#
# Mechanical properties :
#
#
# Convention : Reuss Voigt Hill
#
# Bulk Modulus (GPa) = 38.15437 46.06609 42.11023
# Shear Modulus (GPa) = 27.92076 40.86924 34.39500
#
# Velocity S-wave (km/s) = 3.31023 4.00491 3.67403
# Velocity P-wave (km/s) = 5.43912 6.28209 5.87574
#
# Compressibility (1/GPa) = 0.02620932
#
# Stress axis : x y z
#
# Youngs Moduli (GPa) = 74.36632 50.17117 79.67703
#
# Poissons Ratio (x) = 0.00671 0.14794
# Poissons Ratio (y) = 0.00995 0.62702
# Poissons Ratio (z) = 0.13808 0.39482
#
# Static dielectric constant tensor:
#      x y z
#    x 2.001730 0.029940 -0.020690 
#    y 0.029940 2.084610 0.006400 
#    z -0.020690 0.006400 2.004330 
# 
# From -- ./inp_files/31303.got.cif
#   From: 2010.05.17/outbox.cif.g08.bks.cpg/sg2_16_cif.got.tgz:31303.got - 2010.06.03 11:33:40.
