data_PCOD9014684
_publ_section_title
;
Structure prediction by ZEFSAII (Michael W. Deem and Ramdas Pophale) SiO2 
 PCOD9014684
Probable space group: P -1
;
_chemical_formula_sum "Si O2"
_cell_formula_units_Z 12
_cell_length_a 14.956261
_cell_length_b 7.331362
_cell_length_c 9.946136
_cell_angle_alpha 48.926058
_cell_angle_beta 45.555619
_cell_angle_gamma 38.363462
_cell_volume 468.666523
_symmetry_space_group_name_H-M "P -1"
_symmetry_group_IT_number 2
_symmetry_cell_setting 'triclinic'
loop_
_space_group_symop_operation_xyz
x,y,z
-x,-y,-z
loop_
_atom_site_type_symbol
_atom_site_label
_atom_site_fract_x
_atom_site_fract_y
_atom_site_fract_z
Si Si1 0.492734 0.229544 0.192211
Si Si2 0.936162 0.810219 0.693849
Si Si3 0.279366 0.208951 0.614650
Si Si4 0.716695 0.699726 0.842584
Si Si5 0.763908 0.226951 0.212410
Si Si6 0.933466 0.044085 0.847704
O O1 0.362684 0.342637 0.392346
O O2 0.433718 0.145169 0.167594
O O3 0.642446 0.945503 0.249575
O O4 0.500000 0.500000 0.000000
O O5 0.094542 0.471199 0.682960
O O6 0.797785 0.848805 0.735917
O O7 0.883225 0.914589 0.851647
O O8 0.000000 0.000000 0.500000
O O9 0.325007 0.921880 0.611333
O O10 0.849987 0.402614 0.755858
O O11 0.689300 0.553207 0.070482
O O12 0.879289 0.148887 0.250466
O O13 0.874827 0.030831 0.061821
#
# Coordination Sequence:
#
# PCOD9014684 Si02
#       6
#     2   2   2   2   2   2
#     4  11  23  43  71  95 136 187 227 275 337 408
#     4  12  25  38  67 110 137 174 225 283 342 400
#     4  11  23  41  70 101 133 180 231 272 342 408
#     4  10  21  41  68  98 133 177 221 278 338 395
#     4   9  18  39  67  99 124 181 216 270 348 385
#     4   9  19  38  64  98 139 162 221 276 341 394
#
# _framework density 25.604562999999999
#
# number of rings (size 3 to 8) (size 9 to 14) (size 15 to 20)
#    1.000    0.667    3.333    1.000    2.333    4.000 
#    0.000    0.833    3.667    6.000    0.000    0.000 
#    0.000    0.000    0.000    0.000    0.000    0.000 
#
# Total GULP energy -66953.818895 kJ/mol
# GULP energy per Si atom -5579.484908 kJ/mol
# Density = 2.554629 g / cm^3
# Si number density = 25.604563 Si / 1000 Ang^3
#
#
#
# Elastic Constant Matrix: (Units=GPa)
#
#
# Indices 1 2 3 4 5 6 
#
# 1 215.6174 38.8411 51.7878 -19.5802 -16.2494 -15.7289
# 2 38.8411 60.2310 29.4914 -11.4625 1.4937 -1.0225
# 3 51.7878 29.4914 153.5553 -22.6729 -19.0137 7.2562
# 4 -19.5802 -11.4625 -22.6729 30.4917 0.0335 6.5662
# 5 -16.2494 1.4937 -19.0137 0.0335 32.8768 -7.0997
# 6 -15.7289 -1.0225 7.2562 6.5662 -7.0997 28.0515
#
#
#
# Elastic Compliance Matrix: (Units=1/GPa)
#
#
# Indices 1 2 3 4 5 6 
#
# 1 0.006146 -0.003264 -0.001066 0.001008 0.003486 0.004249
# 2 -0.003264 0.020944 -0.002752 0.004286 -0.004711 -0.002550
# 3 -0.001066 -0.002752 0.008878 0.005585 0.004017 -0.003285
# 4 0.001008 0.004286 0.005585 0.041375 0.001316 -0.010075
# 5 0.003486 -0.004711 0.004017 0.001316 0.036780 0.009745
# 6 0.004249 -0.002550 -0.003285 -0.010075 0.009745 0.043613
#
#
# Mechanical properties :
#
#
# Convention : Reuss Voigt Hill
#
# Bulk Modulus (GPa) = 45.86289 74.40492 60.13391
# Shear Modulus (GPa) = 27.90680 38.90291 33.40486
#
# Velocity S-wave (km/s) = 3.30497 3.90214 3.61591
# Velocity P-wave (km/s) = 5.70216 7.03027 6.40075
#
# Compressibility (1/GPa) = 0.02180412
#
# Stress axis : x y z
#
# Youngs Moduli (GPa) = 162.70399 47.74636 112.64124
#
# Poissons Ratio (x) = 0.15584 0.12011
# Poissons Ratio (y) = 0.53104 0.30996
# Poissons Ratio (z) = 0.17350 0.13139
#
# Static dielectric constant tensor:
#      x y z
#    x 2.165900 0.001440 -0.072670 
#    y 0.001440 2.081670 0.061330 
#    z -0.072670 0.061330 2.216260 
# 
# From -- ./inp_files/443851.got.cif
#   From: 2010.05.17/outbox.cif.g08.bks.cpg/sg2_222_cif.got.tgz:443851.got - 2010.06.03 11:33:40.
