data_PCOD9014696
_publ_section_title
;
Structure prediction by ZEFSAII (Michael W. Deem and Ramdas Pophale) SiO2 
 PCOD9014696
Probable space group: P -1
;
_chemical_formula_sum "Si O2"
_cell_formula_units_Z 16
_cell_length_a 15.949177
_cell_length_b 8.380388
_cell_length_c 12.420504
_cell_angle_alpha 92.289828
_cell_angle_beta 25.578956
_cell_angle_gamma 88.000015
_cell_volume 706.446857
_symmetry_space_group_name_H-M "P -1"
_symmetry_group_IT_number 2
_symmetry_cell_setting 'triclinic'
loop_
_space_group_symop_operation_xyz
x,y,z
-x,-y,-z
loop_
_atom_site_type_symbol
_atom_site_label
_atom_site_fract_x
_atom_site_fract_y
_atom_site_fract_z
Si Si1 0.620184 0.609324 0.295210
Si Si2 0.795975 0.726592 0.497368
Si Si3 0.108051 0.820254 0.385136
Si Si4 0.678736 0.115760 0.651806
Si Si5 0.130453 0.242328 0.829740
Si Si6 0.286108 0.328864 0.184511
Si Si7 0.735183 0.138486 0.338787
Si Si8 0.230972 0.601918 0.080954
O O1 0.500000 0.500000 0.500000
O O2 0.810335 0.646289 0.140412
O O3 0.480165 0.780217 0.444873
O O4 0.650555 0.511795 0.146898
O O5 0.784601 0.704486 0.381251
O O6 0.681553 0.650743 0.724095
O O7 0.021643 0.654552 0.264309
O O8 0.735754 0.920769 0.590735
O O9 0.208122 0.805059 0.384008
O O10 0.256414 0.771920 0.111285
O O11 0.927908 0.721632 0.583319
O O12 0.000000 0.000000 0.500000
O O13 0.744549 0.157503 0.457643
O O14 0.451387 0.189294 0.940105
O O15 0.221598 0.053092 0.739158
O O16 0.898622 0.230137 0.096466
O O17 0.266627 0.490536 0.142882
#
# Coordination Sequence:
#
# PCOD9014696 Si02
#       8
#     2   2   2   2   2   2   2   2
#     4  12  26  46  66 101 144 180 229 283 349 406
#     4  10  21  41  68  99 132 176 224 277 343 404
#     4  11  23  42  68  99 134 183 223 274 350 405
#     4  11  22  41  70 100 130 174 228 280 336 410
#     4  10  24  46  73  96 135 186 230 285 338 403
#     4  11  23  43  66  99 142 164 224 287 336 405
#     4  10  23  46  71 102 130 178 243 281 334 411
#     4  11  24  44  65 101 140 177 222 283 342 405
#
# _framework density 22.648554000000001
#
# number of rings (size 3 to 8) (size 9 to 14) (size 15 to 20)
#    0.000    1.250    3.750    3.000    1.750    3.500 
#    4.500    0.000    0.000    0.000    0.000    0.000 
#    0.000    0.000    0.000    0.000    0.000    0.000 
#
# Total GULP energy -89270.791286 kJ/mol
# GULP energy per Si atom -5579.424455 kJ/mol
# Density = 2.259701 g / cm^3
# Si number density = 22.648554 Si / 1000 Ang^3
#
#
#
# Elastic Constant Matrix: (Units=GPa)
#
#
# Indices 1 2 3 4 5 6 
#
# 1 100.8468 32.3793 25.3061 -10.1229 19.1287 8.9647
# 2 32.3793 58.6031 23.2087 8.4919 10.5373 -14.2896
# 3 25.3061 23.2087 86.0783 17.9144 12.2332 -2.6385
# 4 -10.1229 8.4919 17.9144 26.7515 -6.9587 -4.6381
# 5 19.1287 10.5373 12.2332 -6.9587 45.0399 4.6219
# 6 8.9647 -14.2896 -2.6385 -4.6381 4.6219 34.9362
#
#
#
# Elastic Compliance Matrix: (Units=1/GPa)
#
#
# Indices 1 2 3 4 5 6 
#
# 1 0.016254 -0.010449 -0.004326 0.010891 -0.000861 -0.007212
# 2 -0.010449 0.029289 -0.001297 -0.011360 -0.005228 0.013747
# 3 -0.004326 -0.001297 0.016712 -0.013487 -0.004549 0.000653
# 4 0.010891 -0.011360 -0.013487 0.056504 0.010669 -0.002369
# 5 -0.000861 -0.005228 -0.004549 0.010669 0.027130 -0.004434
# 6 -0.007212 0.013747 0.000653 -0.002369 -0.004434 0.036418
#
#
# Mechanical properties :
#
#
# Convention : Reuss Voigt Hill
#
# Bulk Modulus (GPa) = 33.21036 45.25736 39.23386
# Shear Modulus (GPa) = 22.27278 32.32112 27.29695
#
# Velocity S-wave (km/s) = 3.13934 3.78176 3.47542
# Velocity P-wave (km/s) = 5.27596 6.25258 5.78492
#
# Compressibility (1/GPa) = 0.03011108
#
# Stress axis : x y z
#
# Youngs Moduli (GPa) = 61.52254 34.14276 59.83604
#
# Poissons Ratio (x) = 0.35676 0.25888
# Poissons Ratio (y) = 0.64286 0.07758
# Poissons Ratio (z) = 0.26617 0.04427
#
# Static dielectric constant tensor:
#      x y z
#    x 1.878470 0.017360 0.020320 
#    y 0.017360 1.803500 0.005240 
#    z 0.020320 0.005240 1.909240 
# 
# From -- ./inp_files/447456.got.cif
#   From: 2010.05.17/outbox.cif.g08.bks.cpg/sg2_224_cif.got.tgz:447456.got - 2010.06.03 11:33:40.
