data_PCOD9014635
_publ_section_title
;
Structure prediction by ZEFSAII (Michael W. Deem and Ramdas Pophale) SiO2 
 PCOD9014635
Probable space group: P -1
;
_chemical_formula_sum "Si O2"
_cell_formula_units_Z 16
_cell_length_a 15.491369
_cell_length_b 9.345679
_cell_length_c 18.962922
_cell_angle_alpha 136.089055
_cell_angle_beta 27.185535
_cell_angle_gamma 135.943601
_cell_volume 843.263290
_symmetry_space_group_name_H-M "P -1"
_symmetry_group_IT_number 2
_symmetry_cell_setting 'triclinic'
loop_
_space_group_symop_operation_xyz
x,y,z
-x,-y,-z
loop_
_atom_site_type_symbol
_atom_site_label
_atom_site_fract_x
_atom_site_fract_y
_atom_site_fract_z
Si Si1 0.922596 0.822698 0.049758
Si Si2 0.656781 0.223379 0.967137
Si Si3 0.477874 0.245536 0.911522
Si Si4 0.910669 0.438716 0.465463
Si Si5 0.958842 0.403772 0.916713
Si Si6 0.881128 0.184555 0.656173
Si Si7 0.474795 0.364840 0.799016
Si Si8 0.960096 0.981533 0.814174
O O1 0.695183 0.740123 0.168440
O O2 0.016220 0.617675 0.904389
O O3 0.969411 0.929910 0.129000
O O4 0.000000 0.000000 0.000000
O O5 0.738188 0.301700 0.013350
O O6 0.837459 0.218514 0.782478
O O7 0.562207 0.407091 0.072338
O O8 0.500000 0.000000 0.000000
O O9 0.661796 0.159188 0.773997
O O10 0.466462 0.231244 0.829498
O O11 0.500000 0.500000 0.000000
O O12 0.274480 0.112001 0.044736
O O13 0.682104 0.408625 0.627898
O O14 0.000000 0.500000 0.500000
O O15 0.999341 0.613097 0.403499
O O16 0.956202 0.215937 0.335477
O O17 0.033205 0.188870 0.784950
O O18 0.000000 0.500000 0.000000
O O19 0.000000 0.000000 0.500000
#
# Coordination Sequence:
#
# PCOD9014635 Si02
#       8
#     2   2   2   2   2   2   2   2
#     4  10  21  41  68  96 120 168 232 279 324 399
#     4  11  22  38  67  95 129 171 222 276 330 394
#     4  12  20  39  64  95 125 174 224 262 334 403
#     4  12  25  40  61  95 138 176 215 273 337 394
#     4   9  22  38  61  96 125 162 215 268 332 391
#     4  12  26  39  61 100 141 171 219 279 338 391
#     4  11  22  39  63  94 128 169 225 270 326 406
#     4  11  22  40  69  91 130 178 219 275 331 398
#
# _framework density 18.973908000000002
#
# number of rings (size 3 to 8) (size 9 to 14) (size 15 to 20)
#    0.000    1.000    5.000    1.500    5.250    1.500 
#    0.000    0.000    0.000    0.750    0.000    0.000 
#    0.000    0.000    0.000    0.000    0.000    0.000 
#
# Total GULP energy -89131.338839 kJ/mol
# GULP energy per Si atom -5570.708677 kJ/mol
# Density = 1.893072 g / cm^3
# Si number density = 18.973908 Si / 1000 Ang^3
#
#
#
# Elastic Constant Matrix: (Units=GPa)
#
#
# Indices 1 2 3 4 5 6 
#
# 1 100.7647 49.2704 26.4374 12.2819 -12.0554 3.8952
# 2 49.2704 140.6268 62.2103 20.7389 -2.4580 -9.0587
# 3 26.4374 62.2103 130.0920 9.9807 -20.0865 -4.1483
# 4 12.2819 20.7389 9.9807 37.8538 -4.7069 -7.4965
# 5 -12.0554 -2.4580 -20.0865 -4.7069 26.2343 0.1607
# 6 3.8952 -9.0587 -4.1483 -7.4965 0.1607 41.9833
#
#
#
# Elastic Compliance Matrix: (Units=1/GPa)
#
#
# Indices 1 2 3 4 5 6 
#
# 1 0.013010 -0.004585 0.000463 -0.001619 0.005628 -0.002461
# 2 -0.004585 0.011564 -0.005118 -0.003854 -0.005644 0.001748
# 3 0.000463 -0.005118 0.011301 0.000748 0.008519 0.000070
# 4 -0.001619 -0.003854 0.000748 0.030418 0.004895 0.004805
# 5 0.005628 -0.005644 0.008519 0.004895 0.047578 -0.000206
# 6 -0.002461 0.001748 0.000070 0.004805 -0.000206 0.025290
#
#
# Mechanical properties :
#
#
# Convention : Reuss Voigt Hill
#
# Bulk Modulus (GPa) = 57.48681 71.92443 64.70562
# Shear Modulus (GPa) = 30.59266 36.78530 33.68898
#
# Velocity S-wave (km/s) = 4.01977 4.40788 4.21829
# Velocity P-wave (km/s) = 7.20474 7.99345 7.60932
#
# Compressibility (1/GPa) = 0.01739530
#
# Stress axis : x y z
#
# Youngs Moduli (GPa) = 76.86329 86.47680 88.49095
#
# Poissons Ratio (x) = 0.39645 -0.04098
# Poissons Ratio (y) = 0.35238 0.45292
# Poissons Ratio (z) = -0.03560 0.44261
#
# Static dielectric constant tensor:
#      x y z
#    x 1.625970 -0.120350 0.044060 
#    y -0.120350 1.600010 0.035260 
#    z 0.044060 0.035260 1.642160 
# 
# From -- ./inp_files/202069.got.cif
#   From: 2010.05.17/outbox.cif.g08.bks.cpg/sg2_102_cif.got.tgz:202069.got - 2010.06.03 11:33:40.
