data_PCOD9014078
_publ_section_title
;
Structure prediction by ZEFSAII (Michael W. Deem and Ramdas Pophale) SiO2 
 PCOD9014078
Probable space group: P -1
;
_chemical_formula_sum "Si O2"
_cell_formula_units_Z 16
_cell_length_a 8.746177
_cell_length_b 5.934886
_cell_length_c 20.988153
_cell_angle_alpha 51.351972
_cell_angle_beta 125.972133
_cell_angle_gamma 123.374313
_cell_volume 659.018725
_symmetry_space_group_name_H-M "P -1"
_symmetry_group_IT_number 2
_symmetry_cell_setting 'triclinic'
loop_
_space_group_symop_operation_xyz
x,y,z
-x,-y,-z
loop_
_atom_site_type_symbol
_atom_site_label
_atom_site_fract_x
_atom_site_fract_y
_atom_site_fract_z
Si Si1 0.662444 0.637379 0.067679
Si Si2 0.600271 0.410640 0.868394
Si Si3 0.583018 0.071995 0.317951
Si Si4 0.897236 0.857146 0.377705
Si Si5 0.315743 0.840872 0.527055
Si Si6 0.921582 0.178465 0.205624
Si Si7 0.708546 0.289249 0.783167
Si Si8 0.008312 0.134440 0.088374
O O1 0.545325 0.703038 0.088767
O O2 0.780739 0.388612 0.149841
O O3 0.824686 0.948956 0.033150
O O4 0.500000 0.500000 0.000000
O O5 0.605863 0.222046 0.839204
O O6 0.515348 0.673170 0.772412
O O7 0.822623 0.542900 0.929360
O O8 0.799086 0.103001 0.337792
O O9 0.443694 0.779416 0.299582
O O10 0.606714 0.060926 0.400517
O O11 0.773673 0.524933 0.429601
O O12 0.121515 0.932174 0.442419
O O13 0.879332 0.888631 0.291518
O O14 0.500000 0.000000 0.500000
O O15 0.147124 0.374556 0.239696
O O16 0.921322 0.118157 0.141251
O O17 0.850092 0.080423 0.845464
#
# Coordination Sequence:
#
# PCOD9014078 Si02
#       8
#     2   2   2   2   2   2   2   2
#     4  11  24  42  68 103 135 173 223 279 336 395
#     4  10  21  41  66  96 132 175 225 270 331 404
#     4  11  22  42  68  95 131 179 224 275 335 396
#     4  11  25  44  66  96 135 175 226 275 339 397
#     4  11  28  45  64  98 137 177 223 286 334 387
#     4  10  22  44  69  99 134 179 226 274 334 409
#     4   9  21  39  67 101 127 176 229 272 330 397
#     4   9  22  39  64  96 133 175 221 273 331 397
#
# _framework density 24.278521000000001
#
# number of rings (size 3 to 8) (size 9 to 14) (size 15 to 20)
#    0.000    1.750    1.250    1.125   10.500    1.500 
#    2.250    5.625    0.000    0.000    0.000    0.000 
#    0.000    0.000    0.000    0.000    0.000    0.000 
#
# Total GULP energy -89470.844252 kJ/mol
# GULP energy per Si atom -5591.927766 kJ/mol
# Density = 2.422326 g / cm^3
# Si number density = 24.278521 Si / 1000 Ang^3
#
#
#
# Elastic Constant Matrix: (Units=GPa)
#
#
# Indices 1 2 3 4 5 6 
#
# 1 155.0997 48.3436 53.3781 13.2231 7.9401 6.0186
# 2 48.3436 107.3387 56.1544 23.6658 18.9976 18.9288
# 3 53.3781 56.1544 121.4957 25.7210 18.4675 16.1236
# 4 13.2231 23.6658 25.7210 44.7530 10.7673 6.6931
# 5 7.9401 18.9976 18.4675 10.7673 25.1258 15.9903
# 6 6.0186 18.9288 16.1236 6.6931 15.9903 36.2015
#
#
#
# Elastic Compliance Matrix: (Units=1/GPa)
#
#
# Indices 1 2 3 4 5 6 
#
# 1 0.008065 -0.002580 -0.002608 0.000185 0.000719 0.000818
# 2 -0.002580 0.014448 -0.003849 -0.003261 -0.003926 -0.003074
# 3 -0.002608 -0.003849 0.012527 -0.003435 -0.003354 -0.001017
# 4 0.000185 -0.003261 -0.003435 0.027660 -0.007937 0.001596
# 5 0.000719 -0.003926 -0.003354 -0.007937 0.063003 -0.022934
# 6 0.000818 -0.003074 -0.001017 0.001596 -0.022934 0.039383
#
#
# Mechanical properties :
#
#
# Convention : Reuss Voigt Hill
#
# Bulk Modulus (GPa) = 58.94051 77.74294 68.34172
# Shear Modulus (GPa) = 26.48096 36.28659 31.38377
#
# Velocity S-wave (km/s) = 3.30618 3.87019 3.59925
# Velocity P-wave (km/s) = 6.23730 7.21540 6.74411
#
# Compressibility (1/GPa) = 0.01696626
#
# Stress axis : x y z
#
# Youngs Moduli (GPa) = 123.99483 69.21338 79.82557
#
# Poissons Ratio (x) = 0.17860 0.20815
# Poissons Ratio (y) = 0.31996 0.30725
# Poissons Ratio (z) = 0.32333 0.26640
#
# Static dielectric constant tensor:
#      x y z
#    x 1.934940 0.019110 0.000310 
#    y 0.019110 1.978190 -0.025720 
#    z 0.000310 -0.025720 1.960680 
# 
# From -- ./inp_files/139323.got.cif
#   From: 2010.05.17/outbox.cif.g08.bks.cpg/sg2_70_cif.got.tgz:139323.got - 2010.06.03 11:33:40.
