data_PCOD9014630
_publ_section_title
;
Structure prediction by ZEFSAII (Michael W. Deem and Ramdas Pophale) SiO2 
 PCOD9014630
Probable space group: P -1
;
_chemical_formula_sum "Si O2"
_cell_formula_units_Z 16
_cell_length_a 14.497078
_cell_length_b 11.673466
_cell_length_c 13.554800
_cell_angle_alpha 118.184334
_cell_angle_beta 149.764382
_cell_angle_gamma 41.710774
_cell_volume 658.680291
_symmetry_space_group_name_H-M "P -1"
_symmetry_group_IT_number 2
_symmetry_cell_setting 'triclinic'
loop_
_space_group_symop_operation_xyz
x,y,z
-x,-y,-z
loop_
_atom_site_type_symbol
_atom_site_label
_atom_site_fract_x
_atom_site_fract_y
_atom_site_fract_z
Si Si1 0.507849 0.791259 0.324047
Si Si2 0.571519 0.560571 0.790825
Si Si3 0.453964 0.790746 0.603955
Si Si4 0.804516 0.733194 0.399363
Si Si5 0.925107 0.503359 0.767488
Si Si6 0.640840 0.444386 0.212643
Si Si7 0.922300 0.147002 0.855684
Si Si8 0.279658 0.101694 0.002270
O O1 0.656333 0.819975 0.405090
O O2 0.697437 0.666392 0.542705
O O3 0.525814 0.646367 0.223343
O O4 0.175726 0.998052 0.108337
O O5 0.379855 0.733532 0.601646
O O6 0.438647 0.610739 0.795657
O O7 0.674903 0.366955 0.763920
O O8 0.845446 0.505942 0.025042
O O9 0.744050 0.589160 0.735279
O O10 0.548286 0.874025 0.774703
O O11 0.211541 0.906199 0.343939
O O12 0.000000 0.500000 0.500000
O O13 0.023894 0.723234 0.563424
O O14 0.544680 0.860952 0.133329
O O15 0.096004 0.275091 0.820602
O O16 0.500000 0.500000 0.000000
O O17 0.070973 0.146961 0.904803
#
# Coordination Sequence:
#
# PCOD9014630 Si02
#       8
#     2   2   2   2   2   2   2   2
#     4  10  24  41  67  98 130 170 230 271 338 400
#     4  11  22  40  65 100 135 173 222 273 337 398
#     4  11  22  38  67 102 142 168 215 273 341 410
#     4   9  21  45  64  88 126 175 226 270 321 385
#     4  11  21  41  64 102 138 173 210 275 344 407
#     4  11  24  41  64  88 132 180 219 279 325 382
#     4  11  22  40  68 104 133 173 218 275 343 399
#     4  10  21  41  68  95 137 173 217 272 339 394
#
# _framework density 24.290996
#
# number of rings (size 3 to 8) (size 9 to 14) (size 15 to 20)
#    0.000    1.500    2.500    2.625    3.500    2.500 
#    0.000    5.000    2.750    0.000    0.000    0.000 
#    0.000    0.000    0.000    0.000    0.000    0.000 
#
# Total GULP energy -89375.562485 kJ/mol
# GULP energy per Si atom -5585.972655 kJ/mol
# Density = 2.423571 g / cm^3
# Si number density = 24.290996 Si / 1000 Ang^3
#
#
#
# Elastic Constant Matrix: (Units=GPa)
#
#
# Indices 1 2 3 4 5 6 
#
# 1 169.1015 3.3410 50.2325 -2.0388 13.0687 22.3249
# 2 3.3410 31.2855 4.3582 -2.4248 -3.7515 14.1736
# 3 50.2325 4.3582 109.0662 -6.0471 -7.1325 15.1999
# 4 -2.0388 -2.4248 -6.0471 37.4551 6.1417 -7.8413
# 5 13.0687 -3.7515 -7.1325 6.1417 48.3043 -4.4482
# 6 22.3249 14.1736 15.1999 -7.8413 -4.4482 23.5424
#
#
#
# Elastic Compliance Matrix: (Units=1/GPa)
#
#
# Indices 1 2 3 4 5 6 
#
# 1 0.008058 0.002935 -0.002907 -0.001120 -0.003019 -0.008475
# 2 0.002935 0.045867 0.001139 -0.003500 0.000414 -0.032220
# 3 -0.002907 0.001139 0.011272 0.000419 0.002055 -0.004679
# 4 -0.001120 -0.003500 0.000419 0.029454 -0.002526 0.012232
# 5 -0.003019 0.000414 0.002055 -0.002526 0.022610 0.004718
# 6 -0.008475 -0.032220 -0.004679 0.012232 0.004718 0.077897
#
#
# Mechanical properties :
#
#
# Convention : Reuss Voigt Hill
#
# Bulk Modulus (GPa) = 14.80814 47.25740 31.03277
# Shear Modulus (GPa) = 23.21973 38.62846 30.92410
#
# Velocity S-wave (km/s) = 3.09512 3.99211 3.57188
# Velocity P-wave (km/s) = 4.34538 6.38327 5.46024
#
# Compressibility (1/GPa) = 0.06753044
#
# Stress axis : x y z
#
# Youngs Moduli (GPa) = 124.10276 21.80212 88.71739
#
# Poissons Ratio (x) = -0.06399 0.25790
# Poissons Ratio (y) = -0.36425 -0.10103
# Poissons Ratio (z) = 0.36076 -0.02483
#
# Static dielectric constant tensor:
#      x y z
#    x 1.953630 0.029700 0.005410 
#    y 0.029700 2.046630 -0.086320 
#    z 0.005410 -0.086320 1.866550 
# 
# From -- ./inp_files/476570.got.cif
#   From: 2010.05.17/outbox.cif.g08.bks.cpg/sg2_239_cif.got.tgz:476570.got - 2010.06.03 11:33:40.
