data_PCOD9014950
_publ_section_title
;
Structure prediction by ZEFSAII (Michael W. Deem and Ramdas Pophale) SiO2 
 PCOD9014950
Probable space group: P -1
;
_chemical_formula_sum "Si O2"
_cell_formula_units_Z 14
_cell_length_a 20.590815
_cell_length_b 12.479885
_cell_length_c 16.290747
_cell_angle_alpha 31.102439
_cell_angle_beta 160.586183
_cell_angle_gamma 156.422572
_cell_volume 555.517548
_symmetry_space_group_name_H-M "P -1"
_symmetry_group_IT_number 2
_symmetry_cell_setting 'triclinic'
loop_
_space_group_symop_operation_xyz
x,y,z
-x,-y,-z
loop_
_atom_site_type_symbol
_atom_site_label
_atom_site_fract_x
_atom_site_fract_y
_atom_site_fract_z
Si Si1 0.082202 0.071312 0.144806
Si Si2 0.502515 0.248705 0.177351
Si Si3 0.296544 0.529056 0.891369
Si Si4 0.943601 0.339809 0.923319
Si Si5 0.244656 0.459869 0.554410
Si Si6 0.260321 0.858629 0.748002
Si Si7 0.512473 0.276803 0.627537
O O1 0.364769 0.185194 0.425764
O O2 0.040633 0.266360 0.009041
O O3 0.000000 0.000000 0.000000
O O4 0.892984 0.782639 0.152341
O O5 0.625931 0.303960 0.377381
O O6 0.244964 0.945547 0.068571
O O7 0.500000 0.500000 0.000000
O O8 0.658700 0.301288 0.247199
O O9 0.562992 0.601598 0.186619
O O10 0.196802 0.593481 0.806232
O O11 0.810445 0.448607 0.652892
O O12 0.192349 0.576872 0.113965
O O13 0.979416 0.216223 0.439707
O O14 0.353571 0.049489 0.655892
O O15 0.500000 0.000000 0.000000
O O16 0.500000 0.500000 0.500000
#
# Coordination Sequence:
#
# PCOD9014950 Si02
#       7
#     2   2   2   2   2   2   2
#     4  11  23  42  73 111 143 188 251 298 355 438
#     4  10  21  41  70 105 147 188 241 300 353 435
#     4  11  26  45  72 111 140 192 252 293 363 433
#     4  11  21  44  71 109 147 197 233 295 382 418
#     4  11  23  43  78 105 148 192 237 305 356 435
#     4  12  26  49  72 107 148 195 242 299 375 426
#     4  10  25  44  71 103 150 191 235 299 368 431
#
# _framework density 25.201725
#
# number of rings (size 3 to 8) (size 9 to 14) (size 15 to 20)
#    0.000    1.143    4.286    2.143    8.000    4.000 
#    0.000    2.143    0.000    0.000    0.000    0.000 
#    0.000    0.000    0.000    0.000    0.000    0.000 
#
# Total GULP energy -78399.358432 kJ/mol
# GULP energy per Si atom -5599.954174 kJ/mol
# Density = 2.514436 g / cm^3
# Si number density = 25.201725 Si / 1000 Ang^3
#
#
#
# Elastic Constant Matrix: (Units=GPa)
#
#
# Indices 1 2 3 4 5 6 
#
# 1 77.7799 21.7467 30.1271 4.7759 -7.4028 12.3817
# 2 21.7467 98.1908 35.9968 16.3261 -4.9185 22.4568
# 3 30.1271 35.9968 151.7843 25.3563 -23.4678 4.4150
# 4 4.7759 16.3261 25.3563 41.7325 -5.2976 6.0282
# 5 -7.4028 -4.9185 -23.4678 -5.2976 45.9657 3.2798
# 6 12.3817 22.4568 4.4150 6.0282 3.2798 43.3773
#
#
#
# Elastic Compliance Matrix: (Units=1/GPa)
#
#
# Indices 1 2 3 4 5 6 
#
# 1 0.014877 -0.001761 -0.002416 0.001107 0.001340 -0.003344
# 2 -0.001761 0.013124 -0.002108 -0.002813 0.000127 -0.005696
# 3 -0.002416 -0.002108 0.008699 -0.003940 0.003288 0.001194
# 4 0.001107 -0.002813 -0.003940 0.027838 0.001247 -0.002422
# 5 0.001340 0.000127 0.003288 0.001247 0.024005 -0.002771
# 6 -0.003344 -0.005696 0.001194 -0.002422 -0.002771 0.027381
#
#
# Mechanical properties :
#
#
# Convention : Reuss Voigt Hill
#
# Bulk Modulus (GPa) = 41.44114 55.94403 48.69258
# Shear Modulus (GPa) = 36.62027 42.20739 39.41383
#
# Velocity S-wave (km/s) = 3.81607 4.09685 3.95895
# Velocity P-wave (km/s) = 5.99133 6.68024 6.34514
#
# Compressibility (1/GPa) = 0.02413061
#
# Stress axis : x y z
#
# Youngs Moduli (GPa) = 67.21867 76.19805 114.95139
#
# Poissons Ratio (x) = 0.13422 0.27768
# Poissons Ratio (y) = 0.11840 0.24226
# Poissons Ratio (z) = 0.16237 0.16059
#
# Static dielectric constant tensor:
#      x y z
#    x 2.271530 -0.670580 0.139510 
#    y -0.670580 4.073780 -0.333490 
#    z 0.139510 -0.333490 2.076500 
# 
# From -- ./inp_files/579310.got.cif
#   From: 2010.05.17/outbox.cif.g08.bks.cpg/sg2_290_cif.got.tgz:579310.got - 2010.06.03 11:33:40.
