data_PCOD9014133
_publ_section_title
;
Structure prediction by ZEFSAII (Michael W. Deem and Ramdas Pophale) SiO2 
 PCOD9014133
Probable space group: P -1
;
_chemical_formula_sum "Si O2"
_cell_formula_units_Z 12
_cell_length_a 10.583022
_cell_length_b 5.621023
_cell_length_c 8.918136
_cell_angle_alpha 105.205474
_cell_angle_beta 72.711985
_cell_angle_gamma 113.112801
_cell_volume 459.440426
_symmetry_space_group_name_H-M "P -1"
_symmetry_group_IT_number 2
_symmetry_cell_setting 'triclinic'
loop_
_space_group_symop_operation_xyz
x,y,z
-x,-y,-z
loop_
_atom_site_type_symbol
_atom_site_label
_atom_site_fract_x
_atom_site_fract_y
_atom_site_fract_z
Si Si1 0.244061 0.759728 0.320876
Si Si2 0.994089 0.691288 0.171779
Si Si3 0.801169 0.976993 0.045981
Si Si4 0.642988 0.358428 0.020998
Si Si5 0.473291 0.266226 0.353333
Si Si6 0.238612 0.689656 0.645680
O O1 0.100889 0.683269 0.265297
O O2 0.218891 0.627140 0.468621
O O3 0.316252 0.067084 0.382153
O O4 0.362328 0.707945 0.164523
O O5 0.731193 0.667933 0.038789
O O6 0.069752 0.964993 0.106537
O O7 0.000000 0.500000 0.000000
O O8 0.838911 0.576912 0.277620
O O9 0.709859 0.142372 0.026261
O O10 0.829369 0.112883 0.221832
O O11 0.515267 0.330381 0.174641
O O12 0.500000 0.500000 0.500000
O O13 0.596564 0.165758 0.354681
#
# Coordination Sequence:
#
# PCOD9014133 Si02
#       6
#     2   2   2   2   2   2
#     4  11  22  40  67 102 134 177 226 281 341 407
#     4   9  20  41  66  98 136 177 225 279 339 405
#     4   9  20  42  66  95 133 178 222 275 336 401
#     4  10  22  41  66  97 133 176 225 277 335 402
#     4  11  24  43  65  98 137 181 227 281 340 407
#     4  10  21  41  66  98 136 179 225 281 339 404
#
# _framework density 26.118728999999998
#
# number of rings (size 3 to 8) (size 9 to 14) (size 15 to 20)
#    0.000    2.000    0.000    3.500    0.000    4.000 
#    0.000   44.167    0.000    0.000    0.000    0.000 
#    0.000    0.000    0.000    0.000    0.000    0.000 
#
# Total GULP energy -66973.792378 kJ/mol
# GULP energy per Si atom -5581.149365 kJ/mol
# Density = 2.605928 g / cm^3
# Si number density = 26.118729 Si / 1000 Ang^3
#
#
#
# Elastic Constant Matrix: (Units=GPa)
#
#
# Indices 1 2 3 4 5 6 
#
# 1 100.2978 26.9679 29.0851 7.6782 10.5187 -12.0242
# 2 26.9679 164.6166 36.8165 -13.3802 6.5931 -5.6806
# 3 29.0851 36.8165 187.7519 -19.7874 17.5447 -9.3473
# 4 7.6782 -13.3802 -19.7874 53.4228 0.6177 6.5426
# 5 10.5187 6.5931 17.5447 0.6177 45.8745 5.0896
# 6 -12.0242 -5.6806 -9.3473 6.5426 5.0896 33.9288
#
#
#
# Elastic Compliance Matrix: (Units=1/GPa)
#
#
# Indices 1 2 3 4 5 6 
#
# 1 0.011849 -0.001633 -0.001399 -0.003155 -0.002405 0.004510
# 2 -0.001633 0.006676 -0.000861 0.001587 -0.000282 0.000038
# 3 -0.001399 -0.000861 0.006181 0.002182 -0.002054 0.000950
# 4 -0.003155 0.001587 0.002182 0.020901 -0.000148 -0.004259
# 5 -0.002405 -0.000282 -0.002054 -0.000148 0.023733 -0.004997
# 6 0.004510 0.000038 0.000950 -0.004259 -0.004997 0.032911
#
#
# Mechanical properties :
#
#
# Convention : Reuss Voigt Hill
#
# Bulk Modulus (GPa) = 59.09456 70.93393 65.01424
# Shear Modulus (GPa) = 43.22416 50.63167 46.92792
#
# Velocity S-wave (km/s) = 4.07247 4.40764 4.24337
# Velocity P-wave (km/s) = 6.69237 7.28836 6.99672
#
# Compressibility (1/GPa) = 0.01692203
#
# Stress axis : x y z
#
# Youngs Moduli (GPa) = 84.39315 149.78387 161.78881
#
# Poissons Ratio (x) = 0.24457 0.22628
# Poissons Ratio (y) = 0.13780 0.13927
# Poissons Ratio (z) = 0.11803 0.12893
#
# Static dielectric constant tensor:
#      x y z
#    x 2.328200 0.039530 -0.019610 
#    y 0.039530 2.108700 -0.000920 
#    z -0.019610 -0.000920 2.048940 
# 
# From -- ./inp_files/296661.got.cif
#   From: 2010.05.17/outbox.cif.g08.bks.cpg/sg2_149_cif.got.tgz:296661.got - 2010.06.03 11:33:40.
