data_PCOD9014643
_publ_section_title
;
Structure prediction by ZEFSAII (Michael W. Deem and Ramdas Pophale) SiO2 
 PCOD9014643
Probable space group: P -1
;
_chemical_formula_sum "Si O2"
_cell_formula_units_Z 14
_cell_length_a 10.718764
_cell_length_b 6.636203
_cell_length_c 17.686532
_cell_angle_alpha 84.471537
_cell_angle_beta 147.076992
_cell_angle_gamma 111.048376
_cell_volume 583.642943
_symmetry_space_group_name_H-M "P -1"
_symmetry_group_IT_number 2
_symmetry_cell_setting 'triclinic'
loop_
_space_group_symop_operation_xyz
x,y,z
-x,-y,-z
loop_
_atom_site_type_symbol
_atom_site_label
_atom_site_fract_x
_atom_site_fract_y
_atom_site_fract_z
Si Si1 0.239242 0.098491 0.688944
Si Si2 0.281492 0.253459 0.484724
Si Si3 0.979900 0.639524 0.057189
Si Si4 0.848664 0.642308 0.751466
Si Si5 0.412418 0.010561 0.040285
Si Si6 0.433785 0.958372 0.649903
Si Si7 0.412569 0.602198 0.763318
O O1 0.312077 0.066630 0.643260
O O2 0.209051 0.323483 0.674698
O O3 0.500354 0.150545 0.865457
O O4 0.995269 0.861130 0.606970
O O5 0.551659 0.489751 0.642175
O O6 0.212654 0.319857 0.366499
O O7 0.357891 0.045248 0.531314
O O8 0.023720 0.519653 0.158761
O O9 0.246031 0.897403 0.183698
O O10 0.000000 0.500000 0.000000
O O11 0.709661 0.641504 0.909106
O O12 0.093770 0.898621 0.890778
O O13 0.500000 0.000000 0.000000
O O14 0.570258 0.256700 0.156622
O O15 0.347357 0.708977 0.652955
#
# Coordination Sequence:
#
# PCOD9014643 Si02
#       7
#     2   2   2   2   2   2   2
#     4  11  21  41  67 101 127 173 224 272 327 385
#     4  10  22  40  66  91 139 180 212 265 328 402
#     4  11  19  40  69  98 130 168 220 280 324 383
#     4  10  21  41  68  96 129 177 219 265 338 383
#     4  11  22  42  69  97 131 170 221 277 326 383
#     4  10  22  38  65  96 132 177 220 263 330 389
#     4  11  23  38  70 101 130 167 225 277 330 377
#
# _framework density 23.987268
#
# number of rings (size 3 to 8) (size 9 to 14) (size 15 to 20)
#    0.000    1.429    4.286    1.714    0.000    1.143 
#    0.000    0.000    9.429    4.286    0.000    0.000 
#    0.000    0.000    0.000    0.000    0.000    0.000 
#
# Total GULP energy -78070.086755 kJ/mol
# GULP energy per Si atom -5576.434768 kJ/mol
# Density = 2.393267 g / cm^3
# Si number density = 23.987268 Si / 1000 Ang^3
#
#
#
# Elastic Constant Matrix: (Units=GPa)
#
#
# Indices 1 2 3 4 5 6 
#
# 1 83.4833 54.5747 38.6343 -6.0099 10.3324 12.0369
# 2 54.5747 106.3437 36.8263 -5.8120 -17.2585 6.4820
# 3 38.6343 36.8263 143.7966 -11.3189 11.8784 13.5952
# 4 -6.0099 -5.8120 -11.3189 50.6181 20.0795 4.8011
# 5 10.3324 -17.2585 11.8784 20.0795 41.2405 -3.8100
# 6 12.0369 6.4820 13.5952 4.8011 -3.8100 33.9609
#
#
#
# Elastic Compliance Matrix: (Units=1/GPa)
#
#
# Indices 1 2 3 4 5 6 
#
# 1 0.026680 -0.015681 0.000152 0.009911 -0.019046 -0.010062
# 2 -0.015681 0.020966 -0.003931 -0.008253 0.018441 0.006365
# 3 0.000152 -0.003931 0.009333 0.004940 -0.007196 -0.004546
# 4 0.009911 -0.008253 0.004940 0.031555 -0.023743 -0.011040
# 5 -0.019046 0.018441 -0.007196 -0.023743 0.051781 0.015277
# 6 -0.010062 0.006365 -0.004546 -0.011040 0.015277 0.036891
#
#
# Mechanical properties :
#
#
# Convention : Reuss Voigt Hill
#
# Bulk Modulus (GPa) = 55.37046 65.96603 60.66825
# Shear Modulus (GPa) = 22.50767 38.73645 30.62206
#
# Velocity S-wave (km/s) = 3.06652 4.02291 3.57683
# Velocity P-wave (km/s) = 5.97256 7.00989 6.51191
#
# Compressibility (1/GPa) = 0.01806017
#
# Stress axis : x y z
#
# Youngs Moduli (GPa) = 37.48078 47.69676 107.14523
#
# Poissons Ratio (x) = 0.74792 -0.01632
# Poissons Ratio (y) = 0.58773 0.42119
# Poissons Ratio (z) = -0.00571 0.18750
#
# Static dielectric constant tensor:
#      x y z
#    x 1.943660 0.067260 -0.036980 
#    y 0.067260 2.010170 -0.022820 
#    z -0.036980 -0.022820 1.993330 
# 
# From -- ./inp_files/82678.got.cif
#   From: 2010.05.17/outbox.cif.g08.bks.cpg/sg2_42_cif.got.tgz:82678.got - 2010.06.03 11:33:40.
