data_PCOD9014741
_publ_section_title
;
Structure prediction by ZEFSAII (Michael W. Deem and Ramdas Pophale) SiO2 
 PCOD9014741
Probable space group: P -1
;
_chemical_formula_sum "Si O2"
_cell_formula_units_Z 12
_cell_length_a 10.320192
_cell_length_b 8.453675
_cell_length_c 16.526550
_cell_angle_alpha 139.082847
_cell_angle_beta 28.876212
_cell_angle_gamma 137.823396
_cell_volume 441.452504
_symmetry_space_group_name_H-M "P -1"
_symmetry_group_IT_number 2
_symmetry_cell_setting 'triclinic'
loop_
_space_group_symop_operation_xyz
x,y,z
-x,-y,-z
loop_
_atom_site_type_symbol
_atom_site_label
_atom_site_fract_x
_atom_site_fract_y
_atom_site_fract_z
Si Si1 0.367308 0.417120 0.913939
Si Si2 0.378314 0.044499 0.995290
Si Si3 0.626910 0.768485 0.492745
Si Si4 0.420418 0.529679 0.751196
Si Si5 0.033249 0.761802 0.797433
Si Si6 0.949188 0.292571 0.562371
O O1 0.276090 0.455694 0.887581
O O2 0.664658 0.358223 0.717509
O O3 0.427377 0.687543 0.029647
O O4 0.152383 0.243751 0.023884
O O5 0.383134 0.798906 0.847804
O O6 0.084269 0.104981 0.161074
O O7 0.500000 0.000000 0.000000
O O8 0.500000 0.500000 0.500000
O O9 0.694219 0.683635 0.333853
O O10 0.356426 0.876778 0.675066
O O11 0.865819 0.990176 0.486389
O O12 0.758220 0.597500 0.601006
O O13 0.010416 0.471335 0.676118
#
# Coordination Sequence:
#
# PCOD9014741 Si02
#       6
#     2   2   2   2   2   2
#     4  10  21  41  69 102 128 180 224 278 345 397
#     4   9  19  39  70 102 129 175 224 277 340 398
#     4  11  27  43  66 101 136 183 230 277 341 407
#     4  10  23  43  69  97 138 174 230 280 338 408
#     4  10  23  44  72  97 137 175 231 283 337 403
#     4  10  22  43  70  93 135 180 226 275 341 402
#
# _framework density 27.182994000000001
#
# number of rings (size 3 to 8) (size 9 to 14) (size 15 to 20)
#    0.000    2.000    0.000    2.500    7.000    4.000 
#    0.000    2.500    0.000    3.000    0.000    0.000 
#    0.000    0.000    0.000    0.000    0.000    0.000 
#
# Total GULP energy -67024.120325 kJ/mol
# GULP energy per Si atom -5585.343360 kJ/mol
# Density = 2.712112 g / cm^3
# Si number density = 27.182994 Si / 1000 Ang^3
#
#
#
# Elastic Constant Matrix: (Units=GPa)
#
#
# Indices 1 2 3 4 5 6 
#
# 1 112.7185 56.6033 45.2252 -2.7588 -3.2269 12.1016
# 2 56.6033 181.3176 57.8951 14.3356 14.7119 38.2315
# 3 45.2252 57.8951 116.5552 23.3956 6.6691 10.5352
# 4 -2.7588 14.3356 23.3956 37.2020 -0.1034 2.8260
# 5 -3.2269 14.7119 6.6691 -0.1034 36.1423 9.7389
# 6 12.1016 38.2315 10.5352 2.8260 9.7389 37.1706
#
#
#
# Elastic Compliance Matrix: (Units=1/GPa)
#
#
# Indices 1 2 3 4 5 6 
#
# 1 0.012464 -0.002900 -0.004489 0.004957 0.003426 -0.001077
# 2 -0.002900 0.008868 -0.002212 -0.001713 -0.001578 -0.007006
# 3 -0.004489 -0.002212 0.012994 -0.007752 -0.002253 0.001233
# 4 0.004957 -0.001713 -0.007752 0.032861 0.002911 -0.000915
# 5 0.003426 -0.001578 -0.002253 0.002911 0.030978 -0.007192
# 6 -0.001077 -0.007006 0.001233 -0.000915 -0.007192 0.036064
#
#
# Mechanical properties :
#
#
# Convention : Reuss Voigt Hill
#
# Bulk Modulus (GPa) = 66.12690 81.11537 73.62114
# Shear Modulus (GPa) = 31.55119 38.82750 35.18934
#
# Velocity S-wave (km/s) = 3.41059 3.78348 3.60187
# Velocity P-wave (km/s) = 6.31577 6.99940 6.66635
#
# Compressibility (1/GPa) = 0.01512244
#
# Stress axis : x y z
#
# Youngs Moduli (GPa) = 80.22856 112.77035 76.96087
#
# Poissons Ratio (x) = 0.32709 0.34550
# Poissons Ratio (y) = 0.23270 0.17022
# Poissons Ratio (z) = 0.36017 0.24943
#
# Static dielectric constant tensor:
#      x y z
#    x 2.194380 -0.018590 -0.029620 
#    y -0.018590 2.134650 0.053110 
#    z -0.029620 0.053110 2.128360 
# 
# From -- ./inp_files/566249.got.cif
#   From: 2010.05.17/outbox.cif.g08.bks.cpg/sg2_284_cif.got.tgz:566249.got - 2010.06.03 11:33:40.
