data_PCOD9014200
_publ_section_title
;
Structure prediction by ZEFSAII (Michael W. Deem and Ramdas Pophale) SiO2 
 PCOD9014200
Probable space group: P -1
;
_chemical_formula_sum "Si O2"
_cell_formula_units_Z 15
_cell_length_a 11.784264
_cell_length_b 12.562475
_cell_length_c 5.324757
_cell_angle_alpha 92.018477
_cell_angle_beta 116.658326
_cell_angle_gamma 58.636642
_cell_volume 580.880075
_symmetry_space_group_name_H-M "P -1"
_symmetry_group_IT_number 2
_symmetry_cell_setting 'triclinic'
loop_
_space_group_symop_operation_xyz
x,y,z
-x,-y,-z
loop_
_atom_site_type_symbol
_atom_site_label
_atom_site_fract_x
_atom_site_fract_y
_atom_site_fract_z
Si Si1 0.500000 0.000000 0.000000
Si Si2 0.783612 0.886226 0.639897
Si Si3 0.637415 0.130298 0.890937
Si Si4 0.297572 0.637479 0.535791
Si Si5 0.892732 0.617812 0.726315
Si Si6 0.810125 0.491684 0.268277
Si Si7 0.431218 0.371618 0.350798
Si Si8 0.086205 0.860749 0.944271
O O1 0.344161 0.087427 0.684736
O O2 0.551368 0.104235 0.016610
O O3 0.826243 0.753655 0.799324
O O4 0.708795 0.001272 0.777113
O O5 0.941004 0.864426 0.688816
O O6 0.517754 0.249972 0.608010
O O7 0.778829 0.146072 0.086106
O O8 0.240772 0.604233 0.724758
O O9 0.373377 0.504329 0.446712
O O10 0.434421 0.655521 0.712381
O O11 0.169382 0.750951 0.236221
O O12 0.786392 0.582680 0.483190
O O13 0.010425 0.601134 0.625076
O O14 0.000000 0.500000 0.000000
O O15 0.713424 0.589831 0.957591
O O16 0.000000 0.000000 0.000000
#
# Coordination Sequence:
#
# PCOD9014200 Si02
#       8
#     1   2   2   2   2   2   2   2
#     4  12  28  42  66 106 136 186 226 278 354 414
#     4  11  25  45  68  98 137 179 232 286 342 416
#     4  10  25  46  69 100 140 182 227 288 346 415
#     4  10  21  41  67 103 134 176 228 286 343 408
#     4  11  26  43  65  97 136 182 227 284 342 406
#     4  11  23  39  67  99 131 181 231 280 341 412
#     4  10  22  41  69  98 141 176 224 287 346 407
#     4   9  20  44  72  95 134 182 225 288 344 400
#
# _framework density 25.822887999999999
#
# number of rings (size 3 to 8) (size 9 to 14) (size 15 to 20)
#    0.000    1.600    0.000    3.200    5.600    4.800 
#    0.000   10.667    0.000    0.000    0.000    0.000 
#    0.000    0.000    0.000    0.000    0.000    0.000 
#
# Total GULP energy -83660.348245 kJ/mol
# GULP energy per Si atom -5577.356550 kJ/mol
# Density = 2.576411 g / cm^3
# Si number density = 25.822888 Si / 1000 Ang^3
#
#
#
# Elastic Constant Matrix: (Units=GPa)
#
#
# Indices 1 2 3 4 5 6 
#
# 1 110.1616 11.2208 5.3136 -6.6936 24.6417 23.7529
# 2 11.2208 155.1192 20.3619 -36.9702 1.7237 3.5043
# 3 5.3136 20.3619 68.8803 -15.3889 20.7202 7.3357
# 4 -6.6936 -36.9702 -15.3889 45.0956 12.7870 -2.5584
# 5 24.6417 1.7237 20.7202 12.7870 42.5399 -2.2442
# 6 23.7529 3.5043 7.3357 -2.5584 -2.2442 44.0848
#
#
#
# Elastic Compliance Matrix: (Units=1/GPa)
#
#
# Indices 1 2 3 4 5 6 
#
# 1 0.014248 0.000449 0.005623 0.007819 -0.013830 -0.008898
# 2 0.000449 0.008286 0.000256 0.007788 -0.003096 -0.000649
# 3 0.005623 0.000256 0.023866 0.014333 -0.019579 -0.007186
# 4 0.007819 0.007788 0.014333 0.041225 -0.024538 -0.006074
# 5 -0.013830 -0.003096 -0.019579 -0.024538 0.049191 0.012036
# 6 -0.008898 -0.000649 -0.007186 -0.006074 0.012036 0.028986
#
#
# Mechanical properties :
#
#
# Convention : Reuss Voigt Hill
#
# Bulk Modulus (GPa) = 16.93294 45.32820 31.13057
# Shear Modulus (GPa) = 28.93027 46.16171 37.54599
#
# Velocity S-wave (km/s) = 3.35077 4.23262 3.81725
# Velocity P-wave (km/s) = 4.64131 6.44037 5.61338
#
# Compressibility (1/GPa) = 0.05905650
#
# Stress axis : x y z
#
# Youngs Moduli (GPa) = 70.18604 120.68944 41.90121
#
# Poissons Ratio (x) = -0.05424 -0.23560
# Poissons Ratio (y) = -0.03154 -0.01075
# Poissons Ratio (z) = -0.39463 -0.03096
#
# Static dielectric constant tensor:
#      x y z
#    x 2.233440 -0.022310 -0.044650 
#    y -0.022310 2.036280 0.035190 
#    z -0.044650 0.035190 1.973490 
# 
# From -- ./inp_files/69743.got.cif
#   From: 2010.05.17/outbox.cif.g08.bks.cpg/sg2_35_cif.got.tgz:69743.got - 2010.06.03 11:33:40.
