data_PCOD9014686
_publ_section_title
;
Structure prediction by ZEFSAII (Michael W. Deem and Ramdas Pophale) SiO2 
 PCOD9014686
Probable space group: P -1
;
_chemical_formula_sum "Si O2"
_cell_formula_units_Z 15
_cell_length_a 8.496912
_cell_length_b 17.054972
_cell_length_c 7.541285
_cell_angle_alpha 38.731997
_cell_angle_beta 98.343271
_cell_angle_gamma 112.657696
_cell_volume 607.712080
_symmetry_space_group_name_H-M "P -1"
_symmetry_group_IT_number 2
_symmetry_cell_setting 'triclinic'
loop_
_space_group_symop_operation_xyz
x,y,z
-x,-y,-z
loop_
_atom_site_type_symbol
_atom_site_label
_atom_site_fract_x
_atom_site_fract_y
_atom_site_fract_z
Si Si1 0.669661 0.200317 0.318099
Si Si2 0.618922 0.490148 0.191749
Si Si3 0.465312 0.813303 0.279746
Si Si4 0.218523 0.946741 0.930947
Si Si5 0.283142 0.055787 0.363447
Si Si6 0.997446 0.602329 0.163512
Si Si7 0.135796 0.255895 0.828271
Si Si8 0.500000 0.500000 0.500000
O O1 0.621179 0.213057 0.490619
O O2 0.490802 0.152342 0.261563
O O3 0.731428 0.078811 0.509179
O O4 0.823762 0.338339 0.021035
O O5 0.553129 0.333074 0.535532
O O6 0.827187 0.539173 0.118248
O O7 0.587629 0.573773 0.199886
O O8 0.500000 0.500000 0.000000
O O9 0.665992 0.927105 0.141121
O O10 0.352034 0.875423 0.044164
O O11 0.202902 0.013224 0.623756
O O12 0.032149 0.830021 0.176578
O O13 0.206776 0.145032 0.088171
O O14 0.967643 0.717421 0.069518
O O15 0.000000 0.500000 0.500000
O O16 0.299014 0.402012 0.544582
#
# Coordination Sequence:
#
# PCOD9014686 Si02
#       8
#     2   2   2   2   2   2   2   1
#     4  10  23  40  68  99 135 177 231 288 354 414
#     4  11  27  46  68 103 145 189 235 299 353 424
#     4  10  24  42  66  99 142 177 228 293 362 417
#     4  10  21  41  68  98 134 182 223 290 355 413
#     4  10  22  39  69  99 134 175 234 287 346 418
#     4  11  25  42  71 104 143 191 241 287 359 436
#     4  11  23  41  71 102 136 183 235 293 345 426
#     4  10  28  44  68 102 142 188 234 286 360 422
#
# _framework density 24.682741
#
# number of rings (size 3 to 8) (size 9 to 14) (size 15 to 20)
#    0.000    1.600    1.333    1.200   11.200    4.800 
#    0.000    1.333    0.000    0.000    0.000    0.000 
#    0.000    0.000    0.000    0.000    0.000    0.000 
#
# Total GULP energy -83658.574719 kJ/mol
# GULP energy per Si atom -5577.238315 kJ/mol
# Density = 2.462656 g / cm^3
# Si number density = 24.682741 Si / 1000 Ang^3
#
#
#
# Elastic Constant Matrix: (Units=GPa)
#
#
# Indices 1 2 3 4 5 6 
#
# 1 79.2006 19.7475 38.5265 -10.2891 -23.0936 26.9216
# 2 19.7475 36.5643 17.1063 -3.5788 -12.8946 29.8631
# 3 38.5265 17.1063 73.1877 -2.8256 -6.2936 23.2371
# 4 -10.2891 -3.5788 -2.8256 43.2748 3.1342 -17.9967
# 5 -23.0936 -12.8946 -6.2936 3.1342 61.3064 -13.6963
# 6 26.9216 29.8631 23.2371 -17.9967 -13.6963 51.8123
#
#
#
# Elastic Compliance Matrix: (Units=1/GPa)
#
#
# Indices 1 2 3 4 5 6 
#
# 1 0.020361 -0.002213 -0.008636 0.002386 0.005492 -0.003150
# 2 -0.002213 0.057062 -0.001587 -0.010125 0.004044 -0.033475
# 3 -0.008636 -0.001587 0.019899 -0.002859 -0.002558 -0.005191
# 4 0.002386 -0.010125 -0.002859 0.029360 0.000602 0.016235
# 5 0.005492 0.004044 -0.002558 0.000602 0.019217 0.001251
# 6 -0.003150 -0.033475 -0.005191 0.016235 0.001251 0.048529
#
#
# Mechanical properties :
#
#
# Convention : Reuss Voigt Hill
#
# Bulk Modulus (GPa) = 13.80287 37.74593 25.77440
# Shear Modulus (GPa) = 20.53806 38.85020 29.69413
#
# Velocity S-wave (km/s) = 2.88771 3.97165 3.47224
# Velocity P-wave (km/s) = 4.08935 6.02973 5.15172
#
# Compressibility (1/GPa) = 0.07244872
#
# Stress axis : x y z
#
# Youngs Moduli (GPa) = 49.11279 17.52483 50.25472
#
# Poissons Ratio (x) = 0.03878 0.43402
# Poissons Ratio (y) = 0.10868 0.07976
# Poissons Ratio (z) = 0.42416 0.02781
#
# Static dielectric constant tensor:
#      x y z
#    x 1.881430 -0.052500 -0.111070 
#    y -0.052500 2.040620 -0.111360 
#    z -0.111070 -0.111360 1.954500 
# 
# From -- ./inp_files/221591.got.cif
#   From: 2010.05.17/outbox.cif.g08.bks.cpg/sg2_111_cif.got.tgz:221591.got - 2010.06.03 11:33:40.
