data_PCOD9014274
_publ_section_title
;
Structure prediction by ZEFSAII (Michael W. Deem and Ramdas Pophale) SiO2 
 PCOD9014274
Probable space group: P -1
;
_chemical_formula_sum "Si O2"
_cell_formula_units_Z 12
_cell_length_a 20.848513
_cell_length_b 14.750244
_cell_length_c 7.960659
_cell_angle_alpha 42.723556
_cell_angle_beta 125.302692
_cell_angle_gamma 157.392265
_cell_volume 589.400602
_symmetry_space_group_name_H-M "P -1"
_symmetry_group_IT_number 2
_symmetry_cell_setting 'triclinic'
loop_
_space_group_symop_operation_xyz
x,y,z
-x,-y,-z
loop_
_atom_site_type_symbol
_atom_site_label
_atom_site_fract_x
_atom_site_fract_y
_atom_site_fract_z
Si Si1 0.071555 0.739575 0.184886
Si Si2 0.252989 0.418567 0.974503
Si Si3 0.552989 0.276010 0.681258
Si Si4 0.565569 0.737884 0.191560
Si Si5 0.297210 0.719125 0.859185
Si Si6 0.861288 0.871004 0.156704
O O1 0.000000 0.500000 0.500000
O O2 0.903931 0.531497 0.100076
O O3 0.252397 0.991410 0.009552
O O4 0.109117 0.926143 0.107178
O O5 0.400744 0.542237 0.096360
O O6 0.317714 0.665558 0.791582
O O7 0.205635 0.314237 0.853378
O O8 0.054262 0.107183 0.184507
O O9 0.417076 0.129224 0.811252
O O10 0.704475 0.615046 0.402919
O O11 0.442954 0.057557 0.650701
O O12 0.659384 0.317964 0.874839
O O13 0.500000 0.500000 0.500000
#
# Coordination Sequence:
#
# PCOD9014274 Si02
#       6
#     2   2   2   2   2   2
#     4  11  25  42  62  93 132 164 203 258 315 368
#     4   9  22  40  62  94 118 163 210 256 304 368
#     4  10  21  41  67  92 121 164 212 257 307 364
#     4  11  23  40  64  94 125 166 207 254 312 372
#     4   9  22  42  61  93 122 163 206 262 301 368
#     4  10  21  42  66  91 121 167 211 256 306 367
#
# _framework density 20.359667000000002
#
# number of rings (size 3 to 8) (size 9 to 14) (size 15 to 20)
#    0.000    2.000    1.667    0.000    4.667    5.333 
#   24.000    0.000    0.000    0.000    0.000    0.000 
#    0.000    0.000    0.000    0.000    0.000    0.000 
#
# Total GULP energy -66904.861005 kJ/mol
# GULP energy per Si atom -5575.405084 kJ/mol
# Density = 2.031333 g / cm^3
# Si number density = 20.359667 Si / 1000 Ang^3
#
#
#
# Elastic Constant Matrix: (Units=GPa)
#
#
# Indices 1 2 3 4 5 6 
#
# 1 101.5142 82.4241 36.9435 -12.0825 -4.7155 21.5271
# 2 82.4241 130.2048 41.6227 -16.2842 6.1644 14.1764
# 3 36.9435 41.6227 85.1181 -22.3790 0.4430 20.0272
# 4 -12.0825 -16.2842 -22.3790 21.1330 4.8216 3.5438
# 5 -4.7155 6.1644 0.4430 4.8216 24.8926 -6.0669
# 6 21.5271 14.1764 20.0272 3.5438 -6.0669 43.0125
#
#
#
# Elastic Compliance Matrix: (Units=1/GPa)
#
#
# Indices 1 2 3 4 5 6 
#
# 1 0.023196 -0.013780 -0.002326 -0.000518 0.006732 -0.004992
# 2 -0.013780 0.018012 -0.000768 0.007226 -0.008575 -0.000487
# 3 -0.002326 -0.000768 0.023333 0.027026 -0.009057 -0.012951
# 4 -0.000518 0.007226 0.027026 0.091601 -0.026444 -0.025983
# 5 0.006732 -0.008575 -0.009057 -0.026444 0.052071 0.013198
# 6 -0.004992 -0.000487 -0.012951 -0.025983 0.013198 0.035941
#
#
# Mechanical properties :
#
#
# Convention : Reuss Voigt Hill
#
# Bulk Modulus (GPa) = 32.47447 70.97976 51.72711
# Shear Modulus (GPa) = 17.35115 28.19740 22.77428
#
# Velocity S-wave (km/s) = 2.92247 3.72555 3.34817
# Velocity P-wave (km/s) = 5.23190 7.31060 6.35679
#
# Compressibility (1/GPa) = 0.03079342
#
# Stress axis : x y z
#
# Youngs Moduli (GPa) = 43.11160 55.51966 42.85718
#
# Poissons Ratio (x) = 0.76507 0.09967
# Poissons Ratio (y) = 0.59408 0.03290
# Poissons Ratio (z) = 0.10026 0.04263
#
# Static dielectric constant tensor:
#      x y z
#    x 1.767970 -0.019740 0.008740 
#    y -0.019740 1.713330 -0.021200 
#    z 0.008740 -0.021200 1.734990 
# 
# From -- ./inp_files/145587.got.cif
#   From: 2010.05.17/outbox.cif.g08.bks.cpg/sg2_73_cif.got.tgz:145587.got - 2010.06.03 11:33:40.
