data_PCOD9014474
_publ_section_title
;
Structure prediction by ZEFSAII (Michael W. Deem and Ramdas Pophale) SiO2 
 PCOD9014474
Probable space group: P -1
;
_chemical_formula_sum "Si O2"
_cell_formula_units_Z 16
_cell_length_a 24.442233
_cell_length_b 7.994610
_cell_length_c 8.934424
_cell_angle_alpha 75.152917
_cell_angle_beta 142.667079
_cell_angle_gamma 131.988867
_cell_volume 622.599693
_symmetry_space_group_name_H-M "P -1"
_symmetry_group_IT_number 2
_symmetry_cell_setting 'triclinic'
loop_
_space_group_symop_operation_xyz
x,y,z
-x,-y,-z
loop_
_atom_site_type_symbol
_atom_site_label
_atom_site_fract_x
_atom_site_fract_y
_atom_site_fract_z
Si Si1 0.899858 0.627614 0.245666
Si Si2 0.828152 0.190153 0.702853
Si Si3 0.373577 0.724982 0.433579
Si Si4 0.171838 0.948552 0.583883
Si Si5 0.536842 0.621779 0.717428
Si Si6 0.972808 0.138527 0.212786
Si Si7 0.765221 0.564845 0.494988
Si Si8 0.468683 0.136927 0.770500
O O1 0.952889 0.670003 0.519619
O O2 0.727940 0.344081 0.899134
O O3 0.006382 0.688185 0.348743
O O4 0.926842 0.874678 0.220214
O O5 0.788590 0.099721 0.464775
O O6 0.705729 0.135242 0.507802
O O7 0.000000 0.500000 0.000000
O O8 0.837455 0.041329 0.871820
O O9 0.457336 0.678556 0.576889
O O10 0.258285 0.490069 0.367242
O O11 0.475165 0.029260 0.659844
O O12 0.195447 0.177742 0.520559
O O13 0.287913 0.092463 0.935931
O O14 0.500000 0.500000 0.500000
O O15 0.491598 0.380247 0.765648
O O16 0.098489 0.319984 0.316955
O O17 0.604262 0.285157 0.135316
#
# Coordination Sequence:
#
# PCOD9014474 Si02
#       8
#     2   2   2   2   2   2   2   2
#     4  10  22  39  66  99 134 181 226 277 340 410
#     4  12  24  42  67 100 140 179 226 287 340 404
#     4  12  24  43  71  99 135 180 227 278 350 403
#     4  10  22  42  67  99 134 182 234 273 345 406
#     4  11  27  45  71 100 139 180 227 284 344 403
#     4  10  22  39  66  95 137 177 227 282 338 400
#     4  10  21  41  68 100 135 178 228 287 335 403
#     4  11  25  43  69 103 136 175 232 284 336 409
#
# _framework density 25.698695000000001
#
# number of rings (size 3 to 8) (size 9 to 14) (size 15 to 20)
#    0.000    1.250    0.000    5.625    8.750    5.500 
#    2.250    1.250    0.000    0.000    0.000    0.000 
#    0.000    0.000    0.000    0.000    0.000    0.000 
#
# Total GULP energy -89562.414485 kJ/mol
# GULP energy per Si atom -5597.650905 kJ/mol
# Density = 2.564020 g / cm^3
# Si number density = 25.698695 Si / 1000 Ang^3
#
#
#
# Elastic Constant Matrix: (Units=GPa)
#
#
# Indices 1 2 3 4 5 6 
#
# 1 157.8951 21.5613 60.3552 -23.5384 11.2825 -20.2410
# 2 21.5613 81.6124 13.4038 -13.7424 17.8563 -8.2960
# 3 60.3552 13.4038 147.7727 -22.3208 4.5089 -12.0663
# 4 -23.5384 -13.7424 -22.3208 35.7972 -4.4299 -2.8219
# 5 11.2825 17.8563 4.5089 -4.4299 50.1940 -2.5821
# 6 -20.2410 -8.2960 -12.0663 -2.8219 -2.5821 39.6646
#
#
#
# Elastic Compliance Matrix: (Units=1/GPa)
#
#
# Indices 1 2 3 4 5 6 
#
# 1 0.008496 -0.000586 -0.002486 0.003986 -0.000937 0.003679
# 2 -0.000586 0.014479 0.000024 0.004857 -0.004449 0.002792
# 3 -0.002486 0.000024 0.008481 0.003814 0.000208 0.001601
# 4 0.003986 0.004857 0.003814 0.035395 0.000505 0.006761
# 5 -0.000937 -0.004449 0.000208 0.000505 0.021747 0.000106
# 6 0.003679 0.002792 0.001601 0.006761 0.000106 0.028648
#
#
# Mechanical properties :
#
#
# Convention : Reuss Voigt Hill
#
# Bulk Modulus (GPa) = 39.43340 64.21342 51.82341
# Shear Modulus (GPa) = 37.93710 44.59516 41.26613
#
# Velocity S-wave (km/s) = 3.84634 4.17022 4.01155
# Velocity P-wave (km/s) = 5.92483 6.94471 6.45494
#
# Compressibility (1/GPa) = 0.02535921
#
# Stress axis : x y z
#
# Youngs Moduli (GPa) = 117.69624 69.06461 117.91150
#
# Poissons Ratio (x) = 0.04049 0.29312
# Poissons Ratio (y) = 0.06900 -0.00277
# Poissons Ratio (z) = 0.29259 -0.00162
#
# Static dielectric constant tensor:
#      x y z
#    x 1.942270 -0.014210 -0.037870 
#    y -0.014210 2.248260 0.019540 
#    z -0.037870 0.019540 1.945960 
# 
# From -- ./inp_files/292556.got.cif
#   From: 2010.05.17/outbox.cif.g08.bks.cpg/sg2_147_cif.got.tgz:292556.got - 2010.06.03 11:33:40.
