data_PCOD9014441
_publ_section_title
;
Structure prediction by ZEFSAII (Michael W. Deem and Ramdas Pophale) SiO2 
 PCOD9014441
Probable space group: P -1
;
_chemical_formula_sum "Si O2"
_cell_formula_units_Z 16
_cell_length_a 11.365714
_cell_length_b 19.819778
_cell_length_c 5.878982
_cell_angle_alpha 53.107222
_cell_angle_beta 59.420846
_cell_angle_gamma 42.578245
_cell_volume 711.155364
_symmetry_space_group_name_H-M "P -1"
_symmetry_group_IT_number 2
_symmetry_cell_setting 'triclinic'
loop_
_space_group_symop_operation_xyz
x,y,z
-x,-y,-z
loop_
_atom_site_type_symbol
_atom_site_label
_atom_site_fract_x
_atom_site_fract_y
_atom_site_fract_z
Si Si1 0.972729 0.242204 0.851256
Si Si2 0.882329 0.967629 0.111359
Si Si3 0.854138 0.555765 0.338635
Si Si4 0.762064 0.886407 0.785401
Si Si5 0.579302 0.688566 0.680735
Si Si6 0.563283 0.435700 0.817217
Si Si7 0.890850 0.656022 0.723766
Si Si8 0.434599 0.902016 0.136433
O O1 0.774383 0.349271 0.806768
O O2 0.001741 0.134837 0.965366
O O3 0.091659 0.255254 0.545117
O O4 0.062434 0.217486 0.059068
O O5 0.819997 0.927314 0.448945
O O6 0.702908 0.072168 0.970220
O O7 0.000000 0.000000 0.000000
O O8 0.668751 0.615281 0.513714
O O9 0.000000 0.500000 0.500000
O O10 0.923756 0.459630 0.289928
O O11 0.860382 0.643422 0.036407
O O12 0.665585 0.983894 0.867088
O O13 0.612729 0.873488 0.916311
O O14 0.734448 0.670238 0.714199
O O15 0.467982 0.811214 0.456459
O O16 0.495727 0.640144 0.979296
O O17 0.500000 0.500000 0.500000
O O18 0.500000 0.500000 0.000000
#
# Coordination Sequence:
#
# PCOD9014441 Si02
#       8
#     2   2   2   2   2   2   2   2
#     4  11  26  45  73 103 143 196 246 312 384 448
#     4  11  27  43  71 103 147 194 241 304 380 466
#     4   9  21  36  65  97 133 173 232 304 369 436
#     4  10  23  46  69 102 142 176 244 313 369 441
#     4  11  24  42  72 100 138 190 243 304 376 443
#     4  12  32  52  74 110 161 205 256 312 383 465
#     4  10  21  41  67  98 133 176 247 306 375 437
#     4  10  23  44  71 105 134 184 242 307 370 442
#
# _framework density 22.498598999999999
#
# number of rings (size 3 to 8) (size 9 to 14) (size 15 to 20)
#    0.000    1.500    1.250    1.125   14.000    2.000 
#    0.000    0.000    0.000    0.000    0.000    0.000 
#    0.000    0.000    0.000    0.000    0.000    0.000 
#
# Total GULP energy -89297.984203 kJ/mol
# GULP energy per Si atom -5581.124013 kJ/mol
# Density = 2.244739 g / cm^3
# Si number density = 22.498599 Si / 1000 Ang^3
#
#
#
# Elastic Constant Matrix: (Units=GPa)
#
#
# Indices 1 2 3 4 5 6 
#
# 1 155.7593 61.2332 60.9519 -19.9102 -13.6385 -16.1452
# 2 61.2332 70.5813 36.5221 -14.4506 0.8739 -22.1230
# 3 60.9519 36.5221 135.8079 -24.7022 1.8878 -17.3999
# 4 -19.9102 -14.4506 -24.7022 36.3645 -2.4885 2.2409
# 5 -13.6385 0.8739 1.8878 -2.4885 43.9784 -12.9089
# 6 -16.1452 -22.1230 -17.3999 2.2409 -12.9089 33.7691
#
#
#
# Elastic Compliance Matrix: (Units=1/GPa)
#
#
# Indices 1 2 3 4 5 6 
#
# 1 0.011124 -0.008037 -0.002626 0.001370 0.003820 0.000070
# 2 -0.008037 0.026832 -0.001040 0.004816 0.001208 0.013342
# 3 -0.002626 -0.001040 0.010067 0.004802 -0.000106 0.002891
# 4 0.001370 0.004816 0.004802 0.033336 0.003610 0.005452
# 5 0.003820 0.001208 -0.000106 0.003610 0.027923 0.012998
# 6 0.000070 0.013342 0.002891 0.005452 0.012998 0.044483
#
#
# Mechanical properties :
#
#
# Convention : Reuss Voigt Hill
#
# Bulk Modulus (GPa) = 40.62352 75.50700 58.06526
# Shear Modulus (GPa) = 26.97196 36.38515 31.67856
#
# Velocity S-wave (km/s) = 3.46617 4.02583 3.75643
# Velocity P-wave (km/s) = 5.84074 7.43259 6.68422
#
# Compressibility (1/GPa) = 0.02461628
#
# Stress axis : x y z
#
# Youngs Moduli (GPa) = 89.89338 37.26941 99.33393
#
# Poissons Ratio (x) = 0.29953 0.26089
# Poissons Ratio (y) = 0.72247 0.10332
# Poissons Ratio (z) = 0.23609 0.03876
#
# Static dielectric constant tensor:
#      x y z
#    x 1.901310 0.066920 -0.024790 
#    y 0.066920 1.901460 0.025500 
#    z -0.024790 0.025500 1.886730 
# 
# From -- ./inp_files/82966.got.cif
#   From: 2010.05.17/outbox.cif.g08.bks.cpg/sg2_42_cif.got.tgz:82966.got - 2010.06.03 11:33:40.
