data_PCOD9014818
_publ_section_title
;
Structure prediction by ZEFSAII (Michael W. Deem and Ramdas Pophale) SiO2 
 PCOD9014818
Probable space group: P -1
;
_chemical_formula_sum "Si O2"
_cell_formula_units_Z 12
_cell_length_a 9.888237
_cell_length_b 15.710249
_cell_length_c 9.368845
_cell_angle_alpha 32.383747
_cell_angle_beta 43.919307
_cell_angle_gamma 43.998854
_cell_volume 515.972673
_symmetry_space_group_name_H-M "P -1"
_symmetry_group_IT_number 2
_symmetry_cell_setting 'triclinic'
loop_
_space_group_symop_operation_xyz
x,y,z
-x,-y,-z
loop_
_atom_site_type_symbol
_atom_site_label
_atom_site_fract_x
_atom_site_fract_y
_atom_site_fract_z
Si Si1 0.416398 0.154917 0.650590
Si Si2 0.561421 0.219154 0.753036
Si Si3 0.012990 0.141101 0.593498
Si Si4 0.471693 0.631824 0.961316
Si Si5 0.019852 0.783397 0.155937
Si Si6 0.769486 0.621767 0.007152
O O1 0.528647 0.201474 0.635593
O O2 0.503025 0.204338 0.368707
O O3 0.175766 0.260070 0.694008
O O4 0.426308 0.961518 0.930892
O O5 0.372799 0.354855 0.778464
O O6 0.781372 0.242411 0.582650
O O7 0.181802 0.202565 0.299484
O O8 0.032079 0.948571 0.830375
O O9 0.033895 0.169203 0.705946
O O10 0.500000 0.500000 0.000000
O O11 0.637378 0.588356 0.022527
O O12 0.245173 0.659926 0.152919
O O13 0.000000 0.500000 0.000000
#
# Coordination Sequence:
#
# PCOD9014818 Si02
#       6
#     2   2   2   2   2   2
#     4  10  23  43  68  96 124 160 210 264 311 362
#     4  10  23  43  68  96 124 160 210 264 311 362
#     4  10  21  41  69  94 119 161 214 262 308 363
#     4  12  27  42  62  93 130 170 207 252 313 378
#     4  10  21  41  69  94 119 161 214 262 308 363
#     4  12  27  42  62  93 130 170 207 252 313 378
#
# _framework density 23.257045999999999
#
# number of rings (size 3 to 8) (size 9 to 14) (size 15 to 20)
#    0.000    1.333    3.333    1.000    4.667    4.000 
#    0.000    5.000    0.000    0.000    0.000    0.000 
#    0.000    0.000    0.000    0.000    0.000    0.000 
#
# Total GULP energy -67129.259816 kJ/mol
# GULP energy per Si atom -5594.104985 kJ/mol
# Density = 2.320411 g / cm^3
# Si number density = 23.257046 Si / 1000 Ang^3
#
#
#
# Elastic Constant Matrix: (Units=GPa)
#
#
# Indices 1 2 3 4 5 6 
#
# 1 86.2837 18.9241 5.9245 0.4379 -6.4025 -29.1200
# 2 18.9241 99.7567 0.0918 18.2557 -6.0895 -26.6477
# 3 5.9245 0.0918 57.4180 8.6623 -4.9405 -6.7778
# 4 0.4379 18.2557 8.6623 26.4106 -4.4226 -5.0462
# 5 -6.4025 -6.0895 -4.9405 -4.4226 32.7489 3.6731
# 6 -29.1200 -26.6477 -6.7778 -5.0462 3.6731 34.4104
#
#
#
# Elastic Compliance Matrix: (Units=1/GPa)
#
#
# Indices 1 2 3 4 5 6 
#
# 1 0.016516 0.000344 -0.000235 0.002647 0.002003 0.014371
# 2 0.000344 0.014424 0.002568 -0.008660 0.000777 0.010614
# 3 -0.000235 0.002568 0.019155 -0.006905 0.001901 0.004347
# 4 0.002647 -0.008660 -0.006905 0.046878 0.004128 0.000607
# 5 0.002003 0.000777 0.001901 0.004128 0.031931 -0.000132
# 6 0.014371 0.010614 0.004347 0.000607 -0.000132 0.050401
#
#
# Mechanical properties :
#
#
# Convention : Reuss Voigt Hill
#
# Bulk Modulus (GPa) = 18.03513 32.59325 25.31419
# Shear Modulus (GPa) = 25.98294 33.28185 29.63239
#
# Velocity S-wave (km/s) = 3.34609 3.78702 3.57336
# Velocity P-wave (km/s) = 4.76445 5.75906 5.28520
#
# Compressibility (1/GPa) = 0.05544736
#
# Stress axis : x y z
#
# Youngs Moduli (GPa) = 60.54885 69.32694 52.20666
#
# Poissons Ratio (x) = -0.02384 0.01228
# Poissons Ratio (y) = -0.02082 -0.13405
# Poissons Ratio (z) = 0.01425 -0.17801
#
# Static dielectric constant tensor:
#      x y z
#    x 1.789030 -0.040670 0.028150 
#    y -0.040670 1.888380 -0.071390 
#    z 0.028150 -0.071390 1.946430 
# 
# From -- ./inp_files/401601.got.cif
#   From: 2010.05.17/outbox.cif.g08.bks.cpg/sg2_201_cif.got.tgz:401601.got - 2010.06.03 11:33:40.
