data_PCOD9014653
_publ_section_title
;
Structure prediction by ZEFSAII (Michael W. Deem and Ramdas Pophale) SiO2 
 PCOD9014653
Probable space group: P -1
;
_chemical_formula_sum "Si O2"
_cell_formula_units_Z 16
_cell_length_a 6.665700
_cell_length_b 11.406387
_cell_length_c 15.771564
_cell_angle_alpha 55.270762
_cell_angle_beta 59.547952
_cell_angle_gamma 96.738023
_cell_volume 696.180309
_symmetry_space_group_name_H-M "P -1"
_symmetry_group_IT_number 2
_symmetry_cell_setting 'triclinic'
loop_
_space_group_symop_operation_xyz
x,y,z
-x,-y,-z
loop_
_atom_site_type_symbol
_atom_site_label
_atom_site_fract_x
_atom_site_fract_y
_atom_site_fract_z
Si Si1 0.696040 0.159245 0.059704
Si Si2 0.296342 0.717923 0.751144
Si Si3 0.761495 0.734268 0.195869
Si Si4 0.741343 0.413046 0.376358
Si Si5 0.156914 0.636134 0.334496
Si Si6 0.645920 0.970430 0.316679
Si Si7 0.326157 0.549457 0.962541
Si Si8 0.870051 0.048802 0.817300
O O1 0.688753 0.313222 0.035837
O O2 0.601378 0.020948 0.212294
O O3 0.469320 0.082698 0.062992
O O4 0.016488 0.234589 0.935908
O O5 0.254123 0.651561 0.692070
O O6 0.439644 0.643083 0.808141
O O7 0.423504 0.920797 0.651316
O O8 0.991393 0.624161 0.901882
O O9 0.641179 0.542523 0.338363
O O10 0.493883 0.731562 0.226719
O O11 0.968129 0.887833 0.153924
O O12 0.546867 0.236286 0.543463
O O13 0.037163 0.533561 0.313317
O O14 0.077275 0.774076 0.302449
O O15 0.000000 0.500000 0.500000
O O16 0.965497 0.019850 0.238334
O O17 0.500000 0.500000 0.000000
#
# Coordination Sequence:
#
# PCOD9014653 Si02
#       8
#     2   2   2   2   2   2   2   2
#     4  11  23  42  65 101 133 171 226 276 343 399
#     4  10  22  42  64 102 130 174 225 273 338 402
#     4  11  24  42  66  97 133 177 225 284 327 399
#     4  11  23  43  66 101 134 177 229 273 335 403
#     4  11  24  43  68  96 138 182 227 274 335 401
#     4  11  24  41  69  93 140 177 216 282 335 397
#     4  10  21  41  68  96 136 176 217 277 340 399
#     4  11  23  40  64  97 132 176 225 272 343 395
#
# _framework density 22.982552999999999
#
# number of rings (size 3 to 8) (size 9 to 14) (size 15 to 20)
#    0.000    1.250    1.250    4.500    0.000    7.000 
#    0.000    0.000    0.000    6.750    0.000    0.000 
#    0.000    0.000    0.000    0.000    0.000    0.000 
#
# Total GULP energy -89442.377777 kJ/mol
# GULP energy per Si atom -5590.148611 kJ/mol
# Density = 2.293024 g / cm^3
# Si number density = 22.982553 Si / 1000 Ang^3
#
#
#
# Elastic Constant Matrix: (Units=GPa)
#
#
# Indices 1 2 3 4 5 6 
#
# 1 158.8000 55.7068 31.9903 4.9969 1.0783 -4.3950
# 2 55.7068 111.9774 17.5933 -9.8082 13.5829 2.6525
# 3 31.9903 17.5933 72.5782 -12.3014 9.6030 -8.4497
# 4 4.9969 -9.8082 -12.3014 34.2700 -2.6024 5.0887
# 5 1.0783 13.5829 9.6030 -2.6024 33.8190 -8.1493
# 6 -4.3950 2.6525 -8.4497 5.0887 -8.1493 33.9946
#
#
#
# Elastic Compliance Matrix: (Units=1/GPa)
#
#
# Indices 1 2 3 4 5 6 
#
# 1 0.008752 -0.004505 -0.003572 -0.003915 0.002683 0.001824
# 2 -0.004505 0.012264 0.000039 0.004290 -0.005292 -0.003440
# 3 -0.003572 0.000039 0.017109 0.006092 -0.003819 0.001960
# 4 -0.003915 0.004290 0.006092 0.033739 -0.001896 -0.004832
# 5 0.002683 -0.005292 -0.003819 -0.001896 0.034567 0.008381
# 6 0.001824 -0.003440 0.001960 -0.004832 0.008381 0.033140
#
#
# Mechanical properties :
#
#
# Convention : Reuss Voigt Hill
#
# Bulk Modulus (GPa) = 45.34790 61.54848 53.44819
# Shear Modulus (GPa) = 30.67530 36.28774 33.48152
#
# Velocity S-wave (km/s) = 3.65735 3.97788 3.82098
# Velocity P-wave (km/s) = 6.13263 6.92363 6.54010
#
# Compressibility (1/GPa) = 0.02205174
#
# Stress axis : x y z
#
# Youngs Moduli (GPa) = 114.25395 81.53736 58.44778
#
# Poissons Ratio (x) = 0.36729 0.20877
# Poissons Ratio (y) = 0.51466 -0.00230
# Poissons Ratio (z) = 0.40811 -0.00321
#
# Static dielectric constant tensor:
#      x y z
#    x 1.899300 0.025040 0.023020 
#    y 0.025040 1.886140 0.004420 
#    z 0.023020 0.004420 1.890200 
# 
# From -- ./inp_files/549417.got.cif
#   From: 2010.05.17/outbox.cif.g08.bks.cpg/sg2_275_cif.got.tgz:549417.got - 2010.06.03 11:33:40.
