data_PCOD9014971
_publ_section_title
;
Structure prediction by ZEFSAII (Michael W. Deem and Ramdas Pophale) SiO2 
 PCOD9014971
Probable space group: P -1
;
_chemical_formula_sum "Si O2"
_cell_formula_units_Z 16
_cell_length_a 7.631322
_cell_length_b 12.346153
_cell_length_c 13.594937
_cell_angle_alpha 138.067926
_cell_angle_beta 125.646762
_cell_angle_gamma 74.196650
_cell_volume 664.203402
_symmetry_space_group_name_H-M "P -1"
_symmetry_group_IT_number 2
_symmetry_cell_setting 'triclinic'
loop_
_space_group_symop_operation_xyz
x,y,z
-x,-y,-z
loop_
_atom_site_type_symbol
_atom_site_label
_atom_site_fract_x
_atom_site_fract_y
_atom_site_fract_z
Si Si1 0.710090 0.134463 0.705412
Si Si2 0.476648 0.969784 0.218374
Si Si3 0.931207 0.317738 0.408835
Si Si4 0.275368 0.541040 0.200143
Si Si5 0.470486 0.387881 0.316123
Si Si6 0.159511 0.202597 0.812074
Si Si7 0.065175 0.722363 0.397055
Si Si8 0.269654 0.018876 0.988028
O O1 0.662356 0.124327 0.797909
O O2 0.703414 0.303536 0.760496
O O3 0.936079 0.090008 0.717340
O O4 0.500000 0.000000 0.500000
O O5 0.621427 0.855813 0.142542
O O6 0.683435 0.139129 0.427365
O O7 0.306243 0.000184 0.103174
O O8 0.673000 0.308386 0.338720
O O9 0.026761 0.314983 0.548203
O O10 0.921777 0.147409 0.229046
O O11 0.000000 0.500000 0.500000
O O12 0.481669 0.514044 0.313131
O O13 0.105437 0.561174 0.245030
O O14 0.196139 0.381193 0.996302
O O15 0.500000 0.500000 0.500000
O O16 0.264609 0.214782 0.108998
O O17 0.096244 0.211130 0.682703
O O18 0.500000 0.000000 0.000000
#
# Coordination Sequence:
#
# PCOD9014971 Si02
#       8
#     2   2   2   2   2   2   2   2
#     4  11  24  41  66 103 132 172 225 273 333 406
#     4  12  22  44  72  96 133 179 226 274 338 403
#     4  11  24  41  64  97 133 171 224 281 332 397
#     4  11  23  43  67  97 134 175 222 280 336 398
#     4  11  21  43  69  89 126 182 220 261 339 401
#     4  11  25  41  69  98 134 176 220 278 340 400
#     4  11  21  41  65  90 137 176 211 273 348 393
#     4  10  21  41  70  92 130 179 224 270 335 403
#
# _framework density 24.089003999999999
#
# number of rings (size 3 to 8) (size 9 to 14) (size 15 to 20)
#    0.000    1.000    6.250    3.375    0.000    3.500 
#    0.000    0.625    0.000    0.000    0.000    0.000 
#    0.000    0.000    0.000    0.000    0.000    0.000 
#
# Total GULP energy -89343.774542 kJ/mol
# GULP energy per Si atom -5583.985909 kJ/mol
# Density = 2.403418 g / cm^3
# Si number density = 24.089004 Si / 1000 Ang^3
#
#
#
# Elastic Constant Matrix: (Units=GPa)
#
#
# Indices 1 2 3 4 5 6 
#
# 1 48.5143 26.2884 22.8163 8.7282 -15.3095 21.3443
# 2 26.2884 163.5956 41.2509 -10.2765 -13.2634 33.4587
# 3 22.8163 41.2509 127.2290 4.7036 -34.6942 24.9339
# 4 8.7282 -10.2765 4.7036 36.2858 -4.7230 -6.0597
# 5 -15.3095 -13.2634 -34.6942 -4.7230 26.2591 1.4668
# 6 21.3443 33.4587 24.9339 -6.0597 1.4668 40.9472
#
#
#
# Elastic Compliance Matrix: (Units=1/GPa)
#
#
# Indices 1 2 3 4 5 6 
#
# 1 0.044289 -0.000835 0.008807 -0.012440 0.036525 -0.030917
# 2 -0.000835 0.007923 -0.000384 0.002033 0.003689 -0.005637
# 3 0.008807 -0.000384 0.017488 -0.003557 0.028326 -0.016467
# 4 -0.012440 0.002033 -0.003557 0.032861 -0.005689 0.012056
# 5 0.036525 0.003689 0.028326 -0.005689 0.100085 -0.043729
# 6 -0.030917 -0.005637 -0.016467 0.012056 -0.043729 0.058521
#
#
# Mechanical properties :
#
#
# Convention : Reuss Voigt Hill
#
# Bulk Modulus (GPa) = 11.78172 57.78336 34.78254
# Shear Modulus (GPa) = 18.22935 37.29728 27.76332
#
# Velocity S-wave (km/s) = 2.75389 3.93913 3.39858
# Velocity P-wave (km/s) = 3.87472 6.68794 5.46543
#
# Compressibility (1/GPa) = 0.08487724
#
# Stress axis : x y z
#
# Youngs Moduli (GPa) = 22.57888 126.21282 57.18241
#
# Poissons Ratio (x) = 0.10535 -0.50361
# Poissons Ratio (y) = 0.01885 0.02195
# Poissons Ratio (z) = -0.19885 0.04845
#
# Static dielectric constant tensor:
#      x y z
#    x 1.564930 -0.056790 -0.107720 
#    y -0.056790 1.990980 -0.037030 
#    z -0.107720 -0.037030 1.980640 
# 
# From -- ./inp_files/499543.got.cif
#   From: 2010.05.17/outbox.cif.g08.bks.cpg/sg2_250_cif.got.tgz:499543.got - 2010.06.03 11:33:40.
