data_PCOD9014468
_publ_section_title
;
Structure prediction by ZEFSAII (Michael W. Deem and Ramdas Pophale) SiO2 
 PCOD9014468
Probable space group: P -1
;
_chemical_formula_sum "Si O2"
_cell_formula_units_Z 16
_cell_length_a 11.808142
_cell_length_b 5.070629
_cell_length_c 14.076279
_cell_angle_alpha 111.208135
_cell_angle_beta 67.437324
_cell_angle_gamma 76.616919
_cell_volume 655.056996
_symmetry_space_group_name_H-M "P -1"
_symmetry_group_IT_number 2
_symmetry_cell_setting 'triclinic'
loop_
_space_group_symop_operation_xyz
x,y,z
-x,-y,-z
loop_
_atom_site_type_symbol
_atom_site_label
_atom_site_fract_x
_atom_site_fract_y
_atom_site_fract_z
Si Si1 0.177530 0.444751 0.548807
Si Si2 0.288327 0.246285 0.852570
Si Si3 0.779589 0.289643 0.238722
Si Si4 0.485963 0.525888 0.151209
Si Si5 0.926684 0.239987 0.886290
Si Si6 0.728412 0.520760 0.677999
Si Si7 0.998346 0.874379 0.361192
Si Si8 0.312235 0.930872 0.094721
O O1 0.241010 0.559166 0.630277
O O2 0.263822 0.356195 0.413116
O O3 0.124478 0.197667 0.570917
O O4 0.046146 0.763819 0.603172
O O5 0.243056 0.441849 0.794609
O O6 0.420481 0.289180 0.848718
O O7 0.310316 0.893955 0.782196
O O8 0.162860 0.439292 0.988785
O O9 0.931875 0.007863 0.148438
O O10 0.395604 0.569243 0.278635
O O11 0.380857 0.656169 0.114833
O O12 0.589679 0.173240 0.041513
O O13 0.958140 0.301216 0.776696
O O14 0.828485 0.066309 0.889499
O O15 0.875178 0.253054 0.625282
O O16 0.702967 0.774406 0.801706
#
# Coordination Sequence:
#
# PCOD9014468 Si02
#       8
#     2   2   2   2   2   2   2   2
#     4  11  26  42  66  95 136 172 224 269 323 383
#     4  11  25  42  67  92 132 174 220 267 321 385
#     4  11  23  43  62  94 131 173 221 273 312 377
#     4  10  24  42  64  98 131 172 218 266 329 395
#     4  10  21  41  68 100 127 167 210 272 344 388
#     4  12  23  39  69  93 133 179 213 264 336 394
#     4  11  23  41  64 103 136 166 210 276 333 399
#     4  10  22  42  65 101 133 164 213 276 330 402
#
# _framework density 24.425353999999999
#
# number of rings (size 3 to 8) (size 9 to 14) (size 15 to 20)
#    0.000    1.250    1.250    4.875    3.500    4.000 
#    0.000    1.250    0.000    0.000    0.000    0.000 
#    0.000    0.000    0.000    0.000    0.000    0.000 
#
# Total GULP energy -89647.064193 kJ/mol
# GULP energy per Si atom -5602.941512 kJ/mol
# Density = 2.436976 g / cm^3
# Si number density = 24.425354 Si / 1000 Ang^3
#
#
#
# Elastic Constant Matrix: (Units=GPa)
#
#
# Indices 1 2 3 4 5 6 
#
# 1 84.5911 0.6027 28.9990 -1.8470 3.8246 14.0380
# 2 0.6027 59.1493 26.6511 -6.7230 4.1024 4.0034
# 3 28.9990 26.6511 101.0644 -20.4071 8.4257 13.7624
# 4 -1.8470 -6.7230 -20.4071 45.4366 8.6183 5.9148
# 5 3.8246 4.1024 8.4257 8.6183 33.9456 -3.8756
# 6 14.0380 4.0034 13.7624 5.9148 -3.8756 29.4418
#
#
#
# Elastic Compliance Matrix: (Units=1/GPa)
#
#
# Indices 1 2 3 4 5 6 
#
# 1 0.014046 0.002004 -0.003610 0.000279 -0.001634 -0.005553
# 2 0.002004 0.019569 -0.005089 0.001268 -0.001848 -0.001736
# 3 -0.003610 -0.005089 0.015313 0.007964 -0.005610 -0.007083
# 4 0.000279 0.001268 0.007964 0.029331 -0.010905 -0.011356
# 5 -0.001634 -0.001848 -0.005610 -0.010905 0.035224 0.010480
# 6 -0.005553 -0.001736 -0.007083 -0.011356 0.010480 0.043821
#
#
# Mechanical properties :
#
#
# Convention : Reuss Voigt Hill
#
# Bulk Modulus (GPa) = 28.13884 39.70115 33.92000
# Shear Modulus (GPa) = 27.39131 34.33492 30.86312
#
# Velocity S-wave (km/s) = 3.35241 3.75335 3.55853
# Velocity P-wave (km/s) = 5.15075 5.92223 5.54991
#
# Compressibility (1/GPa) = 0.03553806
#
# Stress axis : x y z
#
# Youngs Moduli (GPa) = 71.19212 51.10209 65.30463
#
# Poissons Ratio (x) = -0.10243 0.23577
# Poissons Ratio (y) = -0.14270 0.33234
# Poissons Ratio (z) = 0.25702 0.26007
#
# Static dielectric constant tensor:
#      x y z
#    x 1.921780 -0.011540 -0.017830 
#    y -0.011540 1.932610 0.021180 
#    z -0.017830 0.021180 1.988570 
# 
# From -- ./inp_files/511239.got.cif
#   From: 2010.05.17/outbox.cif.g08.bks.cpg/sg2_256_cif.got.tgz:511239.got - 2010.06.03 11:33:40.
