data_PCOD9014012
_publ_section_title
;
Structure prediction by ZEFSAII (Michael W. Deem and Ramdas Pophale) SiO2 
 PCOD9014012
Probable space group: P -1
;
_chemical_formula_sum "Si O2"
_cell_formula_units_Z 16
_cell_length_a 9.356254
_cell_length_b 23.761304
_cell_length_c 8.681161
_cell_angle_alpha 138.022384
_cell_angle_beta 83.481384
_cell_angle_gamma 128.328297
_cell_volume 758.680288
_symmetry_space_group_name_H-M "P -1"
_symmetry_group_IT_number 2
_symmetry_cell_setting 'triclinic'
loop_
_space_group_symop_operation_xyz
x,y,z
-x,-y,-z
loop_
_atom_site_type_symbol
_atom_site_label
_atom_site_fract_x
_atom_site_fract_y
_atom_site_fract_z
Si Si1 0.492576 0.905716 0.227293
Si Si2 0.723548 0.366204 0.303780
Si Si3 0.499063 0.411732 0.233029
Si Si4 0.336037 0.496125 0.941980
Si Si5 0.297692 0.932535 0.101878
Si Si6 0.025725 0.912533 0.351560
Si Si7 0.737871 0.363651 0.666408
Si Si8 0.219120 0.796629 0.544607
O O1 0.301036 0.840627 0.987142
O O2 0.500000 0.000000 0.500000
O O3 0.773167 0.012078 0.388112
O O4 0.388824 0.771207 0.036731
O O5 0.600939 0.389156 0.289599
O O6 0.719313 0.360576 0.478017
O O7 0.000000 0.500000 0.500000
O O8 0.500000 0.500000 0.500000
O O9 0.653054 0.497872 0.233030
O O10 0.225505 0.250561 0.905278
O O11 0.064873 0.354504 0.756348
O O12 0.500000 0.500000 0.000000
O O13 0.416268 0.628797 0.243844
O O14 0.138367 0.920343 0.199391
O O15 0.584526 0.091399 0.382814
O O16 0.220919 0.877431 0.824730
O O17 0.000000 0.000000 0.500000
O O18 0.671442 0.238527 0.471021
O O19 0.000000 0.500000 0.000000
#
# Coordination Sequence:
#
# PCOD9014012 Si02
#       8
#     2   2   2   2   2   2   2   2
#     4  10  23  40  65  96 135 177 225 286 340 406
#     4  12  24  42  70 102 134 181 240 286 341 412
#     4  12  27  44  71  98 139 185 227 291 347 414
#     4  11  25  43  64  98 139 175 225 284 352 412
#     4  10  22  40  68  91 129 175 223 281 337 412
#     4  11  24  43  65  99 139 173 230 285 351 408
#     4  10  22  40  64  94 135 174 223 284 338 408
#     4  10  21  41  66  94 126 176 227 272 340 413
#
# _framework density 21.089251999999998
#
# number of rings (size 3 to 8) (size 9 to 14) (size 15 to 20)
#    0.000    1.250    2.500    3.000    7.000    4.000 
#    0.000    0.000    0.000    4.500    0.000    0.000 
#    0.000    0.000    0.000    0.000    0.000    0.000 
#
# Total GULP energy -89109.149759 kJ/mol
# GULP energy per Si atom -5569.321860 kJ/mol
# Density = 2.104125 g / cm^3
# Si number density = 21.089252 Si / 1000 Ang^3
#
#
#
# Elastic Constant Matrix: (Units=GPa)
#
#
# Indices 1 2 3 4 5 6 
#
# 1 161.7959 21.4274 27.2708 4.5458 -21.1760 -13.7256
# 2 21.4274 59.8852 -3.4230 -7.0237 -12.3373 -7.5928
# 3 27.2708 -3.4230 68.1194 9.3188 -16.3822 1.2127
# 4 4.5458 -7.0237 9.3188 39.4505 9.8077 1.3270
# 5 -21.1760 -12.3373 -16.3822 9.8077 44.8682 0.5570
# 6 -13.7256 -7.5928 1.2127 1.3270 0.5570 32.6594
#
#
#
# Elastic Compliance Matrix: (Units=1/GPa)
#
#
# Indices 1 2 3 4 5 6 
#
# 1 0.007438 -0.002133 -0.002396 -0.001337 0.002308 0.002734
# 2 -0.002133 0.019238 0.002693 0.001717 0.004850 0.003323
# 3 -0.002396 0.002693 0.018335 -0.005407 0.007498 -0.000970
# 4 -0.001337 0.001717 -0.005407 0.029235 -0.008511 -0.001004
# 5 0.002308 0.004850 0.007498 -0.008511 0.029287 0.001665
# 6 0.002734 0.003323 -0.000970 -0.001004 0.001665 0.032589
#
#
# Mechanical properties :
#
#
# Convention : Reuss Voigt Hill
#
# Bulk Modulus (GPa) = 24.19065 42.26119 33.22592
# Shear Modulus (GPa) = 32.55754 39.69733 36.12743
#
# Velocity S-wave (km/s) = 3.93338 4.34331 4.14342
# Velocity P-wave (km/s) = 5.66782 6.72571 6.21930
#
# Compressibility (1/GPa) = 0.04133829
#
# Stress axis : x y z
#
# Youngs Moduli (GPa) = 134.43591 51.98131 54.54118
#
# Poissons Ratio (x) = 0.11089 0.13068
# Poissons Ratio (y) = 0.28678 -0.14687
# Poissons Ratio (z) = 0.32211 -0.13998
#
# Static dielectric constant tensor:
#      x y z
#    x 1.737860 -0.022840 0.010840 
#    y -0.022840 1.826150 -0.030470 
#    z 0.010840 -0.030470 1.798310 
# 
# From -- ./inp_files/226645.got.cif
#   From: 2010.05.17/outbox.cif.g08.bks.cpg/sg2_114_cif.got.tgz:226645.got - 2010.06.03 11:33:40.
