data_PCOD9014962
_publ_section_title
;
Structure prediction by ZEFSAII (Michael W. Deem and Ramdas Pophale) SiO2 
 PCOD9014962
Probable space group: P -1
;
_chemical_formula_sum "Si O2"
_cell_formula_units_Z 16
_cell_length_a 17.194383
_cell_length_b 6.312185
_cell_length_c 9.036652
_cell_angle_alpha 95.284301
_cell_angle_beta 90.558460
_cell_angle_gamma 47.101818
_cell_volume 713.547853
_symmetry_space_group_name_H-M "P -1"
_symmetry_group_IT_number 2
_symmetry_cell_setting 'triclinic'
loop_
_space_group_symop_operation_xyz
x,y,z
-x,-y,-z
loop_
_atom_site_type_symbol
_atom_site_label
_atom_site_fract_x
_atom_site_fract_y
_atom_site_fract_z
Si Si1 0.086464 0.495439 0.916798
Si Si2 0.119733 0.851856 0.782306
Si Si3 0.001732 0.437278 0.666620
Si Si4 0.385720 0.451150 0.441134
Si Si5 0.224859 0.006859 0.301301
Si Si6 0.728979 0.097934 0.028916
Si Si7 0.581941 0.274134 0.289292
Si Si8 0.273352 0.285452 0.545313
O O1 0.072130 0.766515 0.889353
O O2 0.097989 0.373755 0.745366
O O3 0.197685 0.251382 0.983209
O O4 0.000000 0.500000 0.000000
O O5 0.198352 0.857569 0.882824
O O6 0.190833 0.600214 0.642838
O O7 0.025484 0.156310 0.711629
O O8 0.897072 0.759384 0.737847
O O9 0.000000 0.500000 0.500000
O O10 0.472668 0.351813 0.314527
O O11 0.420480 0.514493 0.592107
O O12 0.368269 0.242854 0.469847
O O13 0.271011 0.751808 0.401714
O O14 0.231474 0.215695 0.406589
O O15 0.287887 0.844743 0.141344
O O16 0.621773 0.265470 0.128999
O O17 0.672766 0.958293 0.344052
#
# Coordination Sequence:
#
# PCOD9014962 Si02
#       8
#     2   2   2   2   2   2   2   2
#     4  11  23  44  61  93 130 169 218 264 313 385
#     4  11  24  40  73  93 126 178 220 253 328 385
#     4  11  24  40  63  94 134 170 214 267 316 383
#     4  10  22  41  66  98 121 174 211 267 320 388
#     4  11  25  41  60  94 136 163 210 273 322 369
#     4  11  23  43  63  95 131 170 209 270 321 385
#     4  10  21  41  70  91 130 162 219 265 322 378
#     4  11  21  41  67  96 125 165 220 264 314 389
#
# _framework density 22.423162999999999
#
# number of rings (size 3 to 8) (size 9 to 14) (size 15 to 20)
#    0.000    1.250    3.750    1.875    3.500    6.500 
#    0.000    0.625    0.000    0.000    0.000    0.000 
#    0.000    0.000    0.000    0.000    0.000    0.000 
#
# Total GULP energy -89144.504756 kJ/mol
# GULP energy per Si atom -5571.531547 kJ/mol
# Density = 2.237213 g / cm^3
# Si number density = 22.423163 Si / 1000 Ang^3
#
#
#
# Elastic Constant Matrix: (Units=GPa)
#
#
# Indices 1 2 3 4 5 6 
#
# 1 78.7161 24.1793 24.4384 -2.9503 -28.5474 5.9068
# 2 24.1793 59.9872 18.5207 -0.5826 -11.5793 -2.2745
# 3 24.4384 18.5207 128.2334 9.1473 -15.9153 7.6702
# 4 -2.9503 -0.5826 9.1473 31.1600 -4.9670 -4.1114
# 5 -28.5474 -11.5793 -15.9153 -4.9670 33.9642 -3.0368
# 6 5.9068 -2.2745 7.6702 -4.1114 -3.0368 30.5257
#
#
#
# Elastic Compliance Matrix: (Units=1/GPa)
#
#
# Indices 1 2 3 4 5 6 
#
# 1 0.020567 -0.004872 -0.001516 0.004518 0.015413 -0.001820
# 2 -0.004872 0.019801 -0.001943 0.001269 0.002226 0.003299
# 3 -0.001516 -0.001943 0.008909 -0.002843 0.001615 -0.002312
# 4 0.004518 0.001269 -0.002843 0.035482 0.008585 0.005568
# 5 0.015413 0.002226 0.001615 0.008585 0.045388 0.002449
# 6 -0.001820 0.003299 -0.002312 0.005568 0.002449 0.034932
#
#
# Mechanical properties :
#
#
# Convention : Reuss Voigt Hill
#
# Bulk Modulus (GPa) = 30.66071 44.57927 37.61999
# Shear Modulus (GPa) = 25.95885 32.44987 29.20436
#
# Velocity S-wave (km/s) = 3.40616 3.80828 3.61282
# Velocity P-wave (km/s) = 5.40117 6.26589 5.84953
#
# Compressibility (1/GPa) = 0.03261503
#
# Stress axis : x y z
#
# Youngs Moduli (GPa) = 48.62194 50.50290 112.23976
#
# Poissons Ratio (x) = 0.24603 0.17021
# Poissons Ratio (y) = 0.23687 0.21808
# Poissons Ratio (z) = 0.07373 0.09813
#
# Static dielectric constant tensor:
#      x y z
#    x 1.889490 0.002830 -0.059130 
#    y 0.002830 1.901550 0.020690 
#    z -0.059130 0.020690 1.888910 
# 
# From -- ./inp_files/48358.got.cif
#   From: 2010.05.17/outbox.cif.g08.bks.cpg/sg2_25_cif.got.tgz:48358.got - 2010.06.03 11:33:40.
