data_PCOD9014127
_publ_section_title
;
Structure prediction by ZEFSAII (Michael W. Deem and Ramdas Pophale) SiO2 
 PCOD9014127
Probable space group: P -1
;
_chemical_formula_sum "Si O2"
_cell_formula_units_Z 16
_cell_length_a 15.871381
_cell_length_b 21.770557
_cell_length_c 13.233049
_cell_angle_alpha 158.097188
_cell_angle_beta 35.533861
_cell_angle_gamma 156.446263
_cell_volume 660.563752
_symmetry_space_group_name_H-M "P -1"
_symmetry_group_IT_number 2
_symmetry_cell_setting 'triclinic'
loop_
_space_group_symop_operation_xyz
x,y,z
-x,-y,-z
loop_
_atom_site_type_symbol
_atom_site_label
_atom_site_fract_x
_atom_site_fract_y
_atom_site_fract_z
Si Si1 0.393531 0.245561 0.257759
Si Si2 0.067955 0.807868 0.744018
Si Si3 0.529477 0.043274 0.916395
Si Si4 0.262686 0.661006 0.424709
Si Si5 0.709617 0.658908 0.299431
Si Si6 0.408070 0.097101 0.696737
Si Si7 0.246536 0.310455 0.989883
Si Si8 0.145224 0.960652 0.418702
O O1 0.500000 0.500000 0.500000
O O2 0.280179 0.211726 0.417947
O O3 0.241853 0.042528 0.008587
O O4 0.549970 0.237657 0.139570
O O5 0.107183 0.650881 0.499192
O O6 0.162942 0.902836 0.682646
O O7 0.837128 0.696170 0.828371
O O8 0.327124 0.791791 0.669370
O O9 0.735901 0.108190 0.789200
O O10 0.500000 0.000000 0.000000
O O11 0.494939 0.832963 0.403841
O O12 0.169000 0.400489 0.135458
O O13 0.935134 0.754740 0.240960
O O14 0.713113 0.786652 0.397847
O O15 0.526341 0.364596 0.028035
O O16 0.500000 0.000000 0.500000
O O17 0.125120 0.040008 0.665405
O O18 0.500000 0.500000 0.000000
#
# Coordination Sequence:
#
# PCOD9014127 Si02
#       8
#     2   2   2   2   2   2   2   2
#     4  11  21  38  68  94 128 178 226 270 341 416
#     4  10  22  39  64  94 129 178 234 274 337 414
#     4  11  23  42  64  97 139 169 226 291 338 399
#     4  10  22  39  67  94 132 176 225 284 336 402
#     4  11  21  38  69  94 131 179 229 275 334 419
#     4  10  21  41  66  98 133 176 230 278 337 411
#     4  12  22  39  63  94 135 173 224 284 341 398
#     4  11  23  39  64 100 133 177 228 284 346 391
#
# _framework density 24.221734999999999
#
# number of rings (size 3 to 8) (size 9 to 14) (size 15 to 20)
#    0.000    1.250    6.250    0.375    0.000    0.000 
#    4.500    1.250    5.500    0.000    0.000    0.000 
#    0.000    0.000    0.000    0.000    0.000    0.000 
#
# Total GULP energy -89241.825188 kJ/mol
# GULP energy per Si atom -5577.614074 kJ/mol
# Density = 2.416661 g / cm^3
# Si number density = 24.221735 Si / 1000 Ang^3
#
#
#
# Elastic Constant Matrix: (Units=GPa)
#
#
# Indices 1 2 3 4 5 6 
#
# 1 72.9805 26.5868 28.5115 -2.5399 -18.4264 -0.8597
# 2 26.5868 135.3562 20.7718 -24.4371 -6.2660 -3.2379
# 3 28.5115 20.7718 93.3942 -11.7936 -31.0282 4.7903
# 4 -2.5399 -24.4371 -11.7936 34.9223 -6.9624 1.5070
# 5 -18.4264 -6.2660 -31.0282 -6.9624 46.0330 -13.1256
# 6 -0.8597 -3.2379 4.7903 1.5070 -13.1256 33.8802
#
#
#
# Elastic Compliance Matrix: (Units=1/GPa)
#
#
# Indices 1 2 3 4 5 6 
#
# 1 0.017220 -0.002757 -0.003255 -0.000906 0.004922 0.002581
# 2 -0.002757 0.009188 0.000052 0.006493 0.001473 0.001083
# 3 -0.003255 0.000052 0.016304 0.007487 0.011300 0.001662
# 4 -0.000906 0.006493 0.007487 0.037929 0.012019 0.002508
# 5 0.004922 0.001473 0.011300 0.012019 0.036869 0.012417
# 6 0.002581 0.001083 0.001662 0.002508 0.012417 0.034149
#
#
# Mechanical properties :
#
#
# Convention : Reuss Voigt Hill
#
# Bulk Modulus (GPa) = 32.47669 50.38568 41.43118
# Shear Modulus (GPa) = 28.76163 38.02447 33.39305
#
# Velocity S-wave (km/s) = 3.44965 3.96643 3.71703
# Velocity P-wave (km/s) = 5.41331 6.46713 5.96354
#
# Compressibility (1/GPa) = 0.03079132
#
# Stress axis : x y z
#
# Youngs Moduli (GPa) = 58.07187 108.84014 61.33563
#
# Poissons Ratio (x) = 0.30005 0.19966
# Poissons Ratio (y) = 0.16009 -0.00318
# Poissons Ratio (z) = 0.18904 -0.00565
#
# Static dielectric constant tensor:
#      x y z
#    x 2.700170 0.098500 0.238580 
#    y 0.098500 2.061530 -0.022260 
#    z 0.238580 -0.022260 2.014950 
# 
# From -- ./inp_files/539298.got.cif
#   From: 2010.05.17/outbox.cif.g08.bks.cpg/sg2_270_cif.got.tgz:539298.got - 2010.06.03 11:33:40.
