data_PCOD9014040
_publ_section_title
;
Structure prediction by ZEFSAII (Michael W. Deem and Ramdas Pophale) SiO2 
 PCOD9014040
Probable space group: P -1
;
_chemical_formula_sum "Si O2"
_cell_formula_units_Z 14
_cell_length_a 24.444653
_cell_length_b 5.372080
_cell_length_c 27.090918
_cell_angle_alpha 117.665764
_cell_angle_beta 170.060759
_cell_angle_gamma 60.291968
_cell_volume 526.555674
_symmetry_space_group_name_H-M "P -1"
_symmetry_group_IT_number 2
_symmetry_cell_setting 'triclinic'
loop_
_space_group_symop_operation_xyz
x,y,z
-x,-y,-z
loop_
_atom_site_type_symbol
_atom_site_label
_atom_site_fract_x
_atom_site_fract_y
_atom_site_fract_z
Si Si1 0.415639 0.622624 0.736998
Si Si2 0.087314 0.765849 0.169155
Si Si3 0.283657 0.128874 0.240015
Si Si4 0.899602 0.847895 0.611134
Si Si5 0.844599 0.138652 0.264997
Si Si6 0.331425 0.747080 0.780138
Si Si7 0.206405 0.207771 0.987929
O O1 0.218201 0.441833 0.512977
O O2 0.392670 0.547749 0.767443
O O3 0.749344 0.597759 0.001775
O O4 0.216459 0.958437 0.589888
O O5 0.216918 0.469778 0.226187
O O6 0.343627 0.967311 0.418621
O O7 0.016358 0.674432 0.152556
O O8 0.762581 0.916094 0.863478
O O9 0.000000 0.000000 0.000000
O O10 0.139562 0.783101 0.770791
O O11 0.060456 0.961649 0.810693
O O12 0.567207 0.080817 0.320103
O O13 0.725278 0.359763 0.224698
O O14 0.623858 0.909014 0.054003
O O15 0.000000 0.000000 0.500000
#
# Coordination Sequence:
#
# PCOD9014040 Si02
#       7
#     2   2   2   2   2   2   2
#     4  10  22  38  60  82 119 160 200 252 305 357
#     4  10  22  39  63  92 126 160 196 242 298 343
#     4  10  21  41  66  95 123 157 198 245 289 349
#     4  11  24  39  62  86 120 164 206 246 304 355
#     4   9  19  37  57  83 118 149 202 262 302 361
#     4   9  17  35  59  82 113 153 197 257 311 351
#     4  11  24  41  58  90 126 158 201 247 288 362
#
# _framework density 26.587883999999999
#
# number of rings (size 3 to 8) (size 9 to 14) (size 15 to 20)
#    0.000    2.000    1.429    1.286    2.000    2.857 
#    0.000    6.429    0.000    0.000    0.000    0.000 
#    0.000    0.000    0.000    0.000    0.000    0.000 
#
# Total GULP energy -78247.639236 kJ/mol
# GULP energy per Si atom -5589.117088 kJ/mol
# Density = 2.652737 g / cm^3
# Si number density = 26.587884 Si / 1000 Ang^3
#
#
#
# Elastic Constant Matrix: (Units=GPa)
#
#
# Indices 1 2 3 4 5 6 
#
# 1 184.9676 13.7343 46.7171 15.8953 -11.0518 -3.0367
# 2 13.7343 34.2367 23.1132 18.9089 -9.1760 10.7201
# 3 46.7171 23.1132 113.0085 26.3052 -13.5647 -2.7138
# 4 15.8953 18.9089 26.3052 43.2670 2.0308 -1.9237
# 5 -11.0518 -9.1760 -13.5647 2.0308 42.2651 6.4085
# 6 -3.0367 10.7201 -2.7138 -1.9237 6.4085 25.0625
#
#
#
# Elastic Compliance Matrix: (Units=1/GPa)
#
#
# Indices 1 2 3 4 5 6 
#
# 1 0.006103 -0.000579 -0.002141 -0.000699 0.000739 0.000513
# 2 -0.000579 0.063515 -0.005108 -0.026848 0.018534 -0.034591
# 3 -0.002141 -0.005108 0.012089 -0.004322 0.002059 0.002376
# 4 -0.000699 -0.026848 -0.004322 0.039040 -0.011846 0.016956
# 5 0.000739 0.018534 0.002059 -0.011846 0.031626 -0.016611
# 6 0.000513 -0.034591 0.002376 0.016956 -0.016611 0.060564
#
#
# Mechanical properties :
#
#
# Convention : Reuss Voigt Hill
#
# Bulk Modulus (GPa) = 15.13982 55.48243 35.31113
# Shear Modulus (GPa) = 19.95147 38.69547 29.32347
#
# Velocity S-wave (km/s) = 2.74231 3.81908 3.32458
# Velocity P-wave (km/s) = 3.96656 6.35296 5.29593
#
# Compressibility (1/GPa) = 0.06605097
#
# Stress axis : x y z
#
# Youngs Moduli (GPa) = 163.86286 15.74432 82.72261
#
# Poissons Ratio (x) = 0.00912 0.17707
# Poissons Ratio (y) = 0.09496 0.42251
# Poissons Ratio (z) = 0.35075 0.08042
#
# Static dielectric constant tensor:
#      x y z
#    x 2.121780 0.072110 -0.042790 
#    y 0.072110 2.086250 -0.106040 
#    z -0.042790 -0.106040 2.168410 
# 
# From -- ./inp_files/9497.got.cif
#   From: 2010.05.17/outbox.cif.g08.bks.cpg/sg2_5_cif.got.tgz:9497.got - 2010.06.03 11:33:40.
