data_PCOD9014591
_publ_section_title
;
Structure prediction by ZEFSAII (Michael W. Deem and Ramdas Pophale) SiO2 
 PCOD9014591
Probable space group: P -1
;
_chemical_formula_sum "Si O2"
_cell_formula_units_Z 12
_cell_length_a 11.793372
_cell_length_b 11.099523
_cell_length_c 8.486051
_cell_angle_alpha 140.192538
_cell_angle_beta 42.307738
_cell_angle_gamma 118.392632
_cell_volume 467.510561
_symmetry_space_group_name_H-M "P -1"
_symmetry_group_IT_number 2
_symmetry_cell_setting 'triclinic'
loop_
_space_group_symop_operation_xyz
x,y,z
-x,-y,-z
loop_
_atom_site_type_symbol
_atom_site_label
_atom_site_fract_x
_atom_site_fract_y
_atom_site_fract_z
Si Si1 0.265724 0.687694 0.293093
Si Si2 0.571635 0.147736 0.461117
Si Si3 0.795927 0.885321 0.595272
Si Si4 0.545357 0.278783 0.173260
Si Si5 0.194015 0.289515 0.916989
Si Si6 0.914621 0.854665 0.775043
O O1 0.363267 0.677721 0.347035
O O2 0.107669 0.872744 0.639102
O O3 0.407425 0.711124 0.047290
O O4 0.170483 0.519720 0.175269
O O5 0.402204 0.224208 0.613202
O O6 0.500000 0.000000 0.500000
O O7 0.749722 0.027268 0.094628
O O8 0.626443 0.800821 0.715544
O O9 0.874958 0.799780 0.257820
O O10 0.923016 0.801366 0.524886
O O11 0.710952 0.116996 0.902641
O O12 0.500000 0.500000 0.500000
O O13 0.139582 0.246143 0.108884
#
# Coordination Sequence:
#
# PCOD9014591 Si02
#       6
#     2   2   2   2   2   2
#     4  12  24  42  71 109 141 184 241 290 364 423
#     4  10  21  41  68  93 133 186 233 283 340 415
#     4  11  24  46  74 100 147 185 238 296 349 421
#     4  11  22  43  70 103 139 188 243 287 341 425
#     4  11  23  46  72 103 142 190 236 294 348 427
#     4  11  25  44  70 105 146 186 226 299 364 416
#
# _framework density 25.667871999999999
#
# number of rings (size 3 to 8) (size 9 to 14) (size 15 to 20)
#    0.000    1.000    1.667    7.500    0.000    1.333 
#    0.000    1.667    0.000    0.000    0.000    0.000 
#    0.000    0.000    0.000    0.000    0.000    0.000 
#
# Total GULP energy -66872.735659 kJ/mol
# GULP energy per Si atom -5572.727972 kJ/mol
# Density = 2.560945 g / cm^3
# Si number density = 25.667872 Si / 1000 Ang^3
#
#
#
# Elastic Constant Matrix: (Units=GPa)
#
#
# Indices 1 2 3 4 5 6 
#
# 1 132.3610 25.9882 19.0285 -2.8911 15.8773 -18.5397
# 2 25.9882 98.8647 33.5677 4.3467 19.1493 -17.2246
# 3 19.0285 33.5677 89.1160 0.0065 14.2991 8.2476
# 4 -2.8911 4.3467 0.0065 47.1737 4.8191 -1.8535
# 5 15.8773 19.1493 14.2991 4.8191 23.7910 -11.0779
# 6 -18.5397 -17.2246 8.2476 -1.8535 -11.0779 35.7595
#
#
#
# Elastic Compliance Matrix: (Units=1/GPa)
#
#
# Indices 1 2 3 4 5 6 
#
# 1 0.008796 -0.000620 -0.001526 0.001042 -0.002911 0.003766
# 2 -0.000620 0.013965 -0.004874 -0.000579 -0.005011 0.005947
# 3 -0.001526 -0.004874 0.015736 0.000913 -0.009150 -0.009556
# 4 0.001042 -0.000579 0.000913 0.021851 -0.005438 -0.000501
# 5 -0.002911 -0.005011 -0.009150 -0.005438 0.062675 0.017322
# 6 0.003766 0.005947 -0.009556 -0.000501 0.017322 0.040326
#
#
# Mechanical properties :
#
#
# Convention : Reuss Voigt Hill
#
# Bulk Modulus (GPa) = 40.88973 53.05672 46.97322
# Shear Modulus (GPa) = 26.94833 37.46200 32.20517
#
# Velocity S-wave (km/s) = 3.24371 3.82447 3.54600
# Velocity P-wave (km/s) = 5.47666 6.34172 5.92500
#
# Compressibility (1/GPa) = 0.02445602
#
# Stress axis : x y z
#
# Youngs Moduli (GPa) = 113.69303 71.60861 63.54991
#
# Poissons Ratio (x) = 0.04438 0.09698
# Poissons Ratio (y) = 0.07046 0.30976
# Poissons Ratio (z) = 0.17351 0.34904
#
# Static dielectric constant tensor:
#      x y z
#    x 2.066130 -0.052190 0.105860 
#    y -0.052190 2.007660 0.033730 
#    z 0.105860 0.033730 2.219460 
# 
# From -- ./inp_files/250922.got.cif
#   From: 2010.05.17/outbox.cif.g08.bks.cpg/sg2_126_cif.got.tgz:250922.got - 2010.06.03 11:33:40.
