data_PCOD9014853
_publ_section_title
;
Structure prediction by ZEFSAII (Michael W. Deem and Ramdas Pophale) SiO2 
 PCOD9014853
Probable space group: P -1
;
_chemical_formula_sum "Si O2"
_cell_formula_units_Z 16
_cell_length_a 8.118585
_cell_length_b 12.208081
_cell_length_c 8.822610
_cell_angle_alpha 84.792258
_cell_angle_beta 61.492717
_cell_angle_gamma 111.965938
_cell_volume 672.599668
_symmetry_space_group_name_H-M "P -1"
_symmetry_group_IT_number 2
_symmetry_cell_setting 'triclinic'
loop_
_space_group_symop_operation_xyz
x,y,z
-x,-y,-z
loop_
_atom_site_type_symbol
_atom_site_label
_atom_site_fract_x
_atom_site_fract_y
_atom_site_fract_z
Si Si1 0.481019 0.216705 0.245255
Si Si2 0.791338 0.550418 0.490729
Si Si3 0.933550 0.379675 0.938131
Si Si4 0.959139 0.772835 0.575456
Si Si5 0.294919 0.105353 0.846744
Si Si6 0.465770 0.313364 0.540289
Si Si7 0.007242 0.831058 0.885060
Si Si8 0.635784 0.051192 0.778100
O O1 0.678135 0.301292 0.040354
O O2 0.570199 0.273635 0.364714
O O3 0.263843 0.223697 0.320270
O O4 0.424023 0.073539 0.274268
O O5 0.631088 0.403052 0.581742
O O6 0.642396 0.610892 0.496483
O O7 0.906176 0.630801 0.578062
O O8 0.953177 0.578529 0.278243
O O9 0.005416 0.286004 0.001752
O O10 0.000000 0.500000 0.000000
O O11 0.063330 0.821319 0.688014
O O12 0.111477 0.862026 0.363251
O O13 0.282001 0.186041 0.704766
O O14 0.536488 0.134855 0.746384
O O15 0.167158 0.958541 0.885690
O O16 0.205027 0.151150 0.019180
O O17 0.500000 0.000000 0.000000
#
# Coordination Sequence:
#
# PCOD9014853 Si02
#       8
#     2   2   2   2   2   2   2   2
#     4  11  23  41  68  99 139 178 236 276 353 405
#     4  10  22  43  68  97 137 181 233 280 342 416
#     4  12  23  44  75 102 136 186 239 285 339 427
#     4  11  26  43  69 102 144 179 228 295 348 413
#     4  11  24  42  73  97 145 180 235 291 340 420
#     4  10  21  41  69  96 132 188 229 281 343 409
#     4  11  25  45  68 108 138 183 232 288 354 405
#     4  12  25  42  67 101 141 185 229 283 354 415
#
# _framework density 23.788292999999999
#
# number of rings (size 3 to 8) (size 9 to 14) (size 15 to 20)
#    0.000    1.000    3.750    2.625    1.750    3.000 
#    0.000    6.250    0.000    0.000    0.000    0.000 
#    0.000    0.000    0.000    0.000    0.000    0.000 
#
# Total GULP energy -89384.911539 kJ/mol
# GULP energy per Si atom -5586.556971 kJ/mol
# Density = 2.373415 g / cm^3
# Si number density = 23.788293 Si / 1000 Ang^3
#
#
#
# Elastic Constant Matrix: (Units=GPa)
#
#
# Indices 1 2 3 4 5 6 
#
# 1 73.6092 37.6067 22.5536 6.2649 -23.5461 -2.1631
# 2 37.6067 143.0643 30.1657 10.2705 -8.5167 -11.5373
# 3 22.5536 30.1657 81.8415 23.0740 -15.4477 3.8187
# 4 6.2649 10.2705 23.0740 40.2089 0.6754 -3.6124
# 5 -23.5461 -8.5167 -15.4477 0.6754 33.8264 -6.4569
# 6 -2.1631 -11.5373 3.8187 -3.6124 -6.4569 24.7887
#
#
#
# Elastic Compliance Matrix: (Units=1/GPa)
#
#
# Indices 1 2 3 4 5 6 
#
# 1 0.020505 -0.003910 -0.001516 -0.001237 0.013286 0.003484
# 2 -0.003910 0.008811 -0.002592 0.000217 -0.000938 0.003946
# 3 -0.001516 -0.002592 0.017582 -0.009643 0.005760 -0.003952
# 4 -0.001237 0.000217 -0.009643 0.031048 -0.004929 0.004719
# 5 0.013286 -0.000938 0.005760 -0.004929 0.043287 0.010393
# 6 0.003484 0.003946 -0.003952 0.004719 0.010393 0.046485
#
#
# Mechanical properties :
#
#
# Convention : Reuss Voigt Hill
#
# Bulk Modulus (GPa) = 32.40195 53.24077 42.82136
# Shear Modulus (GPa) = 25.76763 33.64407 29.70585
#
# Velocity S-wave (km/s) = 3.29478 3.76481 3.53761
# Velocity P-wave (km/s) = 5.30327 6.42869 5.89291
#
# Compressibility (1/GPa) = 0.03086234
#
# Stress axis : x y z
#
# Youngs Moduli (GPa) = 48.76919 113.49319 56.87548
#
# Poissons Ratio (x) = 0.44373 0.08620
# Poissons Ratio (y) = 0.19068 0.14745
# Poissons Ratio (z) = 0.07392 0.29423
#
# Static dielectric constant tensor:
#      x y z
#    x 1.995270 0.024170 0.012060 
#    y 0.024170 1.905350 -0.002830 
#    z 0.012060 -0.002830 1.968490 
# 
# From -- ./inp_files/188325.got.cif
#   From: 2010.05.17/outbox.cif.g08.bks.cpg/sg2_95_cif.got.tgz:188325.got - 2010.06.03 11:33:40.
