data_PCOD9014167
_publ_section_title
;
Structure prediction by ZEFSAII (Michael W. Deem and Ramdas Pophale) SiO2 
 PCOD9014167
Probable space group: P -1
;
_chemical_formula_sum "Si O2"
_cell_formula_units_Z 15
_cell_length_a 6.994201
_cell_length_b 16.308746
_cell_length_c 8.767957
_cell_angle_alpha 117.524428
_cell_angle_beta 66.156519
_cell_angle_gamma 135.549008
_cell_volume 616.649174
_symmetry_space_group_name_H-M "P -1"
_symmetry_group_IT_number 2
_symmetry_cell_setting 'triclinic'
loop_
_space_group_symop_operation_xyz
x,y,z
-x,-y,-z
loop_
_atom_site_type_symbol
_atom_site_label
_atom_site_fract_x
_atom_site_fract_y
_atom_site_fract_z
Si Si1 0.387959 0.780998 0.819784
Si Si2 0.225411 0.262276 0.422951
Si Si3 0.165790 0.415698 0.745954
Si Si4 0.500000 0.500000 0.000000
Si Si5 0.918944 0.507717 0.705427
Si Si6 0.220113 0.847324 0.194350
Si Si7 0.804560 0.865160 0.374389
Si Si8 0.594549 0.110364 0.416267
O O1 0.582494 0.747354 0.749031
O O2 0.427850 0.847985 0.707794
O O3 0.080953 0.650680 0.804212
O O4 0.412639 0.859215 0.015754
O O5 0.300581 0.387968 0.549967
O O6 0.253890 0.217160 0.534902
O O7 0.910548 0.175744 0.396036
O O8 0.355222 0.504072 0.898739
O O9 0.029372 0.460183 0.739059
O O10 0.943162 0.283273 0.785507
O O11 0.614611 0.447560 0.805151
O O12 0.000000 0.500000 0.500000
O O13 0.989998 0.851302 0.198847
O O14 0.400303 0.964462 0.346463
O O15 0.537154 0.846166 0.397685
O O16 0.000000 0.000000 0.500000
#
# Coordination Sequence:
#
# PCOD9014167 Si02
#       8
#     2   2   2   1   2   2   2   2
#     4  11  23  42  63  99 143 181 232 293 356 422
#     4  10  22  40  65  97 134 180 232 280 350 437
#     4  11  25  47  69 105 141 182 246 298 359 430
#     4  12  26  48  76 104 140 196 240 302 368 420
#     4  12  27  49  76 106 145 191 243 307 364 431
#     4  10  21  41  66  99 144 180 228 303 347 424
#     4   8  18  36  60  87 128 172 222 278 328 409
#     4  10  21  41  67  99 138 187 234 277 362 432
#
# _framework density 24.325016000000002
#
# number of rings (size 3 to 8) (size 9 to 14) (size 15 to 20)
#    0.000    1.600    1.333    2.400    0.000   10.667 
#    0.000    4.000    0.000    0.000    0.000    0.000 
#    0.000    0.000    0.000    0.000    0.000    0.000 
#
# Total GULP energy -83539.323782 kJ/mol
# GULP energy per Si atom -5569.288252 kJ/mol
# Density = 2.426965 g / cm^3
# Si number density = 24.325016 Si / 1000 Ang^3
#
#
#
# Elastic Constant Matrix: (Units=GPa)
#
#
# Indices 1 2 3 4 5 6 
#
# 1 143.9660 12.7883 61.0814 -1.9371 -10.5008 -16.5292
# 2 12.7883 85.7484 2.1494 -2.0594 6.0888 -16.1779
# 3 61.0814 2.1494 141.1225 10.3429 -25.3662 -2.6925
# 4 -1.9371 -2.0594 10.3429 17.7056 -0.2050 4.5597
# 5 -10.5008 6.0888 -25.3662 -0.2050 33.2819 5.3100
# 6 -16.5292 -16.1779 -2.6925 4.5597 5.3100 36.2227
#
#
#
# Elastic Compliance Matrix: (Units=1/GPa)
#
#
# Indices 1 2 3 4 5 6 
#
# 1 0.009148 -0.000496 -0.004207 0.002507 -0.000762 0.003436
# 2 -0.000496 0.013210 -0.000605 0.000194 -0.004022 0.006194
# 3 -0.004207 -0.000605 0.010617 -0.006223 0.007102 -0.001659
# 4 0.002507 0.000194 -0.006223 0.062102 -0.002540 -0.006677
# 5 -0.000762 -0.004022 0.007102 -0.002540 0.037011 -0.006722
# 6 0.003436 0.006194 -0.001659 -0.006677 -0.006722 0.033644
#
#
# Mechanical properties :
#
#
# Convention : Reuss Voigt Hill
#
# Bulk Modulus (GPa) = 44.72735 58.09724 51.41229
# Shear Modulus (GPa) = 27.20334 37.09657 32.14995
#
# Velocity S-wave (km/s) = 3.34777 3.90941 3.63944
# Velocity P-wave (km/s) = 5.77674 6.65684 6.23235
#
# Compressibility (1/GPa) = 0.02235768
#
# Stress axis : x y z
#
# Youngs Moduli (GPa) = 109.31650 75.70061 94.18748
#
# Poissons Ratio (x) = 0.03756 0.39625
# Poissons Ratio (y) = 0.05424 0.05702
# Poissons Ratio (z) = 0.45989 0.04583
#
# Static dielectric constant tensor:
#      x y z
#    x 1.991070 0.086610 -0.076270 
#    y 0.086610 1.964450 -0.068230 
#    z -0.076270 -0.068230 2.064110 
# 
# From -- ./inp_files/135628.got.cif
#   From: 2010.05.17/outbox.cif.g08.bks.cpg/sg2_68_cif.got.tgz:135628.got - 2010.06.03 11:33:40.
