data_PCOD9014860
_publ_section_title
;
Structure prediction by ZEFSAII (Michael W. Deem and Ramdas Pophale) SiO2 
 PCOD9014860
Probable space group: P -1
;
_chemical_formula_sum "Si O2"
_cell_formula_units_Z 14
_cell_length_a 13.712140
_cell_length_b 5.397129
_cell_length_c 17.868700
_cell_angle_alpha 86.516609
_cell_angle_beta 154.773090
_cell_angle_gamma 92.032415
_cell_volume 561.977481
_symmetry_space_group_name_H-M "P -1"
_symmetry_group_IT_number 2
_symmetry_cell_setting 'triclinic'
loop_
_space_group_symop_operation_xyz
x,y,z
-x,-y,-z
loop_
_atom_site_type_symbol
_atom_site_label
_atom_site_fract_x
_atom_site_fract_y
_atom_site_fract_z
Si Si1 0.377899 0.937341 0.283007
Si Si2 0.927474 0.088127 0.364415
Si Si3 0.034335 0.320503 0.956380
Si Si4 0.237000 0.770972 0.473976
Si Si5 0.162021 0.443935 0.882921
Si Si6 0.440821 0.917160 0.061269
Si Si7 0.333496 0.359540 0.634433
O O1 0.567782 0.115709 0.442730
O O2 0.534791 0.752723 0.344356
O O3 0.209427 0.098195 0.107870
O O4 0.210588 0.799940 0.224347
O O5 0.665859 0.017288 0.174220
O O6 0.062720 0.959835 0.391706
O O7 0.000000 0.000000 0.500000
O O8 0.055225 0.348215 0.448261
O O9 0.118806 0.469296 0.941074
O O10 0.000000 0.500000 0.000000
O O11 0.364436 0.647995 0.637577
O O12 0.083941 0.587547 0.325067
O O13 0.293879 0.679912 0.938062
O O14 0.294028 0.173246 0.969988
O O15 0.553388 0.785934 0.215784
#
# Coordination Sequence:
#
# PCOD9014860 Si02
#       7
#     2   2   2   2   2   2   2
#     4  10  21  41  69  97 129 174 236 273 343 405
#     4   9  23  41  70  98 133 181 238 273 336 403
#     4  11  23  43  71 100 127 183 231 284 335 416
#     4  11  25  42  68 101 141 178 220 289 345 403
#     4  12  28  44  68 104 145 179 224 287 350 396
#     4  11  25  45  69 100 139 186 233 277 335 412
#     4  10  21  43  69  99 132 181 232 282 334 411
#
# _framework density 24.912032
#
# number of rings (size 3 to 8) (size 9 to 14) (size 15 to 20)
#    0.000    1.429    1.429    2.571   12.000    2.857 
#    0.000    2.857    0.000    0.000    0.000    0.000 
#    0.000    0.000    0.000    0.000    0.000    0.000 
#
# Total GULP energy -78097.747410 kJ/mol
# GULP energy per Si atom -5578.410529 kJ/mol
# Density = 2.485533 g / cm^3
# Si number density = 24.912032 Si / 1000 Ang^3
#
#
#
# Elastic Constant Matrix: (Units=GPa)
#
#
# Indices 1 2 3 4 5 6 
#
# 1 60.3701 25.0391 36.0923 14.1851 15.9479 20.3107
# 2 25.0391 109.9195 61.9278 19.6445 15.2789 21.3389
# 3 36.0923 61.9278 162.3193 38.2136 28.1659 12.1052
# 4 14.1851 19.6445 38.2136 54.5005 11.1624 7.8159
# 5 15.9479 15.2789 28.1659 11.1624 39.3085 9.6499
# 6 20.3107 21.3389 12.1052 7.8159 9.6499 36.9814
#
#
#
# Elastic Compliance Matrix: (Units=1/GPa)
#
#
# Indices 1 2 3 4 5 6 
#
# 1 0.023589 -0.000830 -0.003142 -0.001344 -0.004139 -0.010084
# 2 -0.000830 0.012792 -0.004095 -0.000715 -0.000175 -0.005388
# 3 -0.003142 -0.004095 0.009855 -0.004258 -0.003653 0.002716
# 4 -0.001344 -0.000715 -0.004258 0.022620 -0.002137 -0.001679
# 5 -0.004139 -0.000175 -0.003653 -0.002137 0.031438 -0.004182
# 6 -0.010084 -0.005388 0.002716 -0.001679 -0.004182 0.036245
#
#
# Mechanical properties :
#
#
# Convention : Reuss Voigt Hill
#
# Bulk Modulus (GPa) = 33.22085 64.30303 48.76194
# Shear Modulus (GPa) = 30.73006 40.12808 35.42907
#
# Velocity S-wave (km/s) = 3.51599 4.01782 3.77525
# Velocity P-wave (km/s) = 5.46325 6.88418 6.21446
#
# Compressibility (1/GPa) = 0.03010158
#
# Stress axis : x y z
#
# Youngs Moduli (GPa) = 42.39292 78.17388 101.46755
#
# Poissons Ratio (x) = 0.06491 0.31878
# Poissons Ratio (y) = 0.03520 0.41554
# Poissons Ratio (z) = 0.13319 0.32014
#
# Static dielectric constant tensor:
#      x y z
#    x 1.961640 -0.046730 -0.053860 
#    y -0.046730 2.063480 0.057650 
#    z -0.053860 0.057650 2.116650 
# 
# From -- ./inp_files/53099.got.cif
#   From: 2010.05.17/outbox.cif.g08.bks.cpg/sg2_27_cif.got.tgz:53099.got - 2010.06.03 11:33:40.
