data_PCOD9014750
_publ_section_title
;
Structure prediction by ZEFSAII (Michael W. Deem and Ramdas Pophale) SiO2 
 PCOD9014750
Probable space group: P -1
;
_chemical_formula_sum "Si O2"
_cell_formula_units_Z 14
_cell_length_a 14.364398
_cell_length_b 11.619689
_cell_length_c 9.528966
_cell_angle_alpha 53.518006
_cell_angle_beta 117.206536
_cell_angle_gamma 148.045141
_cell_volume 672.624415
_symmetry_space_group_name_H-M "P -1"
_symmetry_group_IT_number 2
_symmetry_cell_setting 'triclinic'
loop_
_space_group_symop_operation_xyz
x,y,z
-x,-y,-z
loop_
_atom_site_type_symbol
_atom_site_label
_atom_site_fract_x
_atom_site_fract_y
_atom_site_fract_z
Si Si1 0.745497 0.309221 0.526450
Si Si2 0.567002 0.701074 0.500649
Si Si3 0.916057 0.059078 0.937332
Si Si4 0.463244 0.388743 0.907375
Si Si5 0.140055 0.842422 0.453857
Si Si6 0.287763 0.597004 0.850374
Si Si7 0.494111 0.048473 0.801426
O O1 0.673080 0.342806 0.334995
O O2 0.768658 0.195971 0.526073
O O3 0.065340 0.427652 0.477072
O O4 0.630948 0.148375 0.701317
O O5 0.500000 0.500000 0.500000
O O6 0.502793 0.558878 0.703234
O O7 0.490697 0.764019 0.338773
O O8 0.764687 0.975757 0.481224
O O9 0.081340 0.331903 0.908268
O O10 0.853650 0.043944 0.754634
O O11 0.000000 0.000000 0.000000
O O12 0.500000 0.500000 0.000000
O O13 0.589366 0.386852 0.000009
O O14 0.254290 0.123525 0.948060
O O15 0.317159 0.779705 0.815480
O O16 0.500000 0.000000 0.000000
#
# Coordination Sequence:
#
# PCOD9014750 Si02
#       7
#     2   2   2   2   2   2   2
#     4  10  22  41  74 102 130 171 232 291 339 396
#     4  12  26  45  64  98 142 183 221 278 351 412
#     4  11  22  36  66 105 135 169 225 282 338 401
#     4  12  22  40  70 100 136 177 223 278 342 407
#     4  10  21  41  69 103 132 171 233 286 335 408
#     4  11  22  42  70 100 136 174 231 282 334 411
#     4  12  26  44  67  98 138 181 229 281 352 407
#
# _framework density 20.813991999999999
#
# number of rings (size 3 to 8) (size 9 to 14) (size 15 to 20)
#    0.000    0.857    4.286    3.000    2.000    0.000 
#    2.571    1.429    0.000    0.000    0.000    0.000 
#    0.000    0.000    0.000    0.000    0.000    0.000 
#
# Total GULP energy -77970.194953 kJ/mol
# GULP energy per Si atom -5569.299639 kJ/mol
# Density = 2.076662 g / cm^3
# Si number density = 20.813992 Si / 1000 Ang^3
#
#
#
# Elastic Constant Matrix: (Units=GPa)
#
#
# Indices 1 2 3 4 5 6 
#
# 1 36.5872 43.5823 37.1534 7.4056 10.6151 -2.9511
# 2 43.5823 178.6955 42.2994 -2.2358 -17.6479 -12.0523
# 3 37.1534 42.2994 159.2366 10.1567 4.2125 0.7595
# 4 7.4056 -2.2358 10.1567 27.6608 1.8602 -1.9357
# 5 10.6151 -17.6479 4.2125 1.8602 28.7174 -8.3046
# 6 -2.9511 -12.0523 0.7595 -1.9357 -8.3046 40.4040
#
#
#
# Elastic Compliance Matrix: (Units=1/GPa)
#
#
# Indices 1 2 3 4 5 6 
#
# 1 0.079283 -0.022059 -0.010361 -0.017019 -0.043216 -0.010293
# 2 -0.022059 0.012982 0.000832 0.005907 0.017392 0.006104
# 3 -0.010361 0.000832 0.008424 -0.000465 0.003122 -0.000047
# 4 -0.017019 0.005907 -0.000465 0.041079 0.008559 0.004255
# 5 -0.043216 0.017392 0.003122 0.008559 0.065027 0.015749
# 6 -0.010293 0.006104 -0.000047 0.004255 0.015749 0.029261
#
#
# Mechanical properties :
#
#
# Convention : Reuss Voigt Hill
#
# Bulk Modulus (GPa) = 26.65710 68.95440 47.80575
# Shear Modulus (GPa) = 16.03929 36.12205 26.08067
#
# Velocity S-wave (km/s) = 2.77898 4.17042 3.54366
# Velocity P-wave (km/s) = 4.80958 7.50937 6.30566
#
# Compressibility (1/GPa) = 0.03751345
#
# Stress axis : x y z
#
# Youngs Moduli (GPa) = 12.61312 77.02765 118.71426
#
# Poissons Ratio (x) = 1.69915 1.22997
# Poissons Ratio (y) = 0.27823 -0.09880
# Poissons Ratio (z) = 0.13068 -0.06411
#
# Static dielectric constant tensor:
#      x y z
#    x 1.808680 0.022880 0.080480 
#    y 0.022880 1.862610 0.044400 
#    z 0.080480 0.044400 1.870410 
# 
# From -- ./inp_files/332925.got.cif
#   From: 2010.05.17/outbox.cif.g08.bks.cpg/sg2_167_cif.got.tgz:332925.got - 2010.06.03 11:33:40.
