data_PCOD9014219
_publ_section_title
;
Structure prediction by ZEFSAII (Michael W. Deem and Ramdas Pophale) SiO2 
 PCOD9014219
Probable space group: P -1
;
_chemical_formula_sum "Si O2"
_cell_formula_units_Z 15
_cell_length_a 5.532064
_cell_length_b 11.205051
_cell_length_c 11.062105
_cell_angle_alpha 72.548294
_cell_angle_beta 91.135648
_cell_angle_gamma 113.616445
_cell_volume 595.397172
_symmetry_space_group_name_H-M "P -1"
_symmetry_group_IT_number 2
_symmetry_cell_setting 'triclinic'
loop_
_space_group_symop_operation_xyz
x,y,z
-x,-y,-z
loop_
_atom_site_type_symbol
_atom_site_label
_atom_site_fract_x
_atom_site_fract_y
_atom_site_fract_z
Si Si1 0.500000 0.000000 0.000000
Si Si2 0.646387 0.649811 0.898800
Si Si3 0.053423 0.758602 0.202506
Si Si4 0.722686 0.198139 0.138599
Si Si5 0.106851 0.120817 0.628910
Si Si6 0.670344 0.363780 0.571687
Si Si7 0.774684 0.107530 0.415630
Si Si8 0.584313 0.486032 0.305350
O O1 0.277486 0.845348 0.084150
O O2 0.592975 0.044337 0.128716
O O3 0.483546 0.735702 0.917541
O O4 0.591409 0.621301 0.763129
O O5 0.961276 0.720181 0.907336
O O6 0.500000 0.500000 0.000000
O O7 0.159764 0.691169 0.328132
O O8 0.973995 0.869122 0.237522
O O9 0.791270 0.626475 0.200031
O O10 0.715388 0.193882 0.286216
O O11 0.405101 0.228430 0.587431
O O12 0.949300 0.170960 0.514947
O O13 0.076963 0.972322 0.632227
O O14 0.739491 0.429567 0.419195
O O15 0.596622 0.465927 0.625052
O O16 0.500000 0.000000 0.500000
#
# Coordination Sequence:
#
# PCOD9014219 Si02
#       8
#     1   2   2   2   2   2   2   2
#     4  12  28  50  72 106 148 204 260 304 378 452
#     4  12  29  52  78 111 150 199 259 318 379 451
#     4  11  24  44  71 105 146 200 246 314 367 459
#     4  12  30  49  80 110 149 205 252 316 384 451
#     4  10  22  39  68 102 150 184 245 306 381 452
#     4  10  21  41  67 106 140 189 237 311 380 444
#     4  11  24  42  69 106 149 190 243 313 381 459
#     4  10  24  42  73 105 145 189 250 308 381 446
#
# _framework density 25.193265
#
# number of rings (size 3 to 8) (size 9 to 14) (size 15 to 20)
#    0.000    1.067    0.000    4.800   13.067    0.533 
#    0.000    0.000    0.000    0.000    0.000    0.000 
#    0.000    0.000    0.000    0.000    0.000    0.000 
#
# Total GULP energy -83676.918685 kJ/mol
# GULP energy per Si atom -5578.461246 kJ/mol
# Density = 2.513592 g / cm^3
# Si number density = 25.193265 Si / 1000 Ang^3
#
#
#
# Elastic Constant Matrix: (Units=GPa)
#
#
# Indices 1 2 3 4 5 6 
#
# 1 97.5303 48.5166 11.0966 -0.4350 0.1622 14.1852
# 2 48.5166 101.1158 17.1581 25.1604 -2.9339 25.0189
# 3 11.0966 17.1581 64.6450 0.3515 -9.7408 3.6498
# 4 -0.4350 25.1604 0.3515 41.5312 7.5442 4.3706
# 5 0.1622 -2.9339 -9.7408 7.5442 29.6704 -2.6700
# 6 14.1852 25.0189 3.6498 4.3706 -2.6700 54.5317
#
#
#
# Elastic Compliance Matrix: (Units=1/GPa)
#
#
# Indices 1 2 3 4 5 6 
#
# 1 0.014519 -0.008191 -0.000711 0.005653 -0.002610 -0.000552
# 2 -0.008191 0.018438 -0.002623 -0.011322 0.003429 -0.005078
# 3 -0.000711 -0.002623 0.017053 0.000429 0.005276 0.000471
# 4 0.005653 -0.011322 0.000429 0.032606 -0.009244 0.000630
# 5 -0.002610 0.003429 0.005276 -0.009244 0.038263 0.001367
# 6 -0.000552 -0.005078 0.000471 0.000630 0.001367 0.020796
#
#
# Mechanical properties :
#
#
# Convention : Reuss Voigt Hill
#
# Bulk Modulus (GPa) = 37.09179 46.31485 41.70332
# Shear Modulus (GPa) = 28.78329 37.58132 33.18230
#
# Velocity S-wave (km/s) = 3.38376 3.86647 3.63314
# Velocity P-wave (km/s) = 5.47917 6.19326 5.84713
#
# Compressibility (1/GPa) = 0.02696014
#
# Stress axis : x y z
#
# Youngs Moduli (GPa) = 68.87659 54.23520 58.63927
#
# Poissons Ratio (x) = 0.44426 0.04168
# Poissons Ratio (y) = 0.56419 0.15380
# Poissons Ratio (z) = 0.04896 0.14225
#
# Static dielectric constant tensor:
#      x y z
#    x 1.942300 -0.013930 -0.031550 
#    y -0.013930 1.953150 0.002810 
#    z -0.031550 0.002810 2.055690 
# 
# From -- ./inp_files/362808.got.cif
#   From: 2010.05.17/outbox.cif.g08.bks.cpg/sg2_182_cif.got.tgz:362808.got - 2010.06.03 11:33:40.
