data_PCOD9014837
_publ_section_title
;
Structure prediction by ZEFSAII (Michael W. Deem and Ramdas Pophale) SiO2 
 PCOD9014837
Probable space group: P -1
;
_chemical_formula_sum "Si O2"
_cell_formula_units_Z 14
_cell_length_a 6.303430
_cell_length_b 21.318609
_cell_length_c 5.526714
_cell_angle_alpha 113.917610
_cell_angle_beta 74.060728
_cell_angle_gamma 119.727062
_cell_volume 587.023120
_symmetry_space_group_name_H-M "P -1"
_symmetry_group_IT_number 2
_symmetry_cell_setting 'triclinic'
loop_
_space_group_symop_operation_xyz
x,y,z
-x,-y,-z
loop_
_atom_site_type_symbol
_atom_site_label
_atom_site_fract_x
_atom_site_fract_y
_atom_site_fract_z
Si Si1 0.910118 0.534889 0.867864
Si Si2 0.676590 0.209609 0.002549
Si Si3 0.777893 0.668131 0.987431
Si Si4 0.398037 0.037541 0.895278
Si Si5 0.429351 0.567543 0.536515
Si Si6 0.030499 0.064996 0.401366
Si Si7 0.434263 0.228125 0.609177
O O1 0.845661 0.606340 0.004849
O O2 0.656709 0.463915 0.755167
O O3 0.164276 0.565435 0.682750
O O4 0.000000 0.500000 0.000000
O O5 0.555827 0.225475 0.309456
O O6 0.963576 0.260046 0.026028
O O7 0.597520 0.119172 0.872777
O O8 0.587916 0.229865 0.805748
O O9 0.636456 0.637144 0.727432
O O10 0.621873 0.699094 0.246792
O O11 0.200279 0.060468 0.123097
O O12 0.245669 0.967697 0.656738
O O13 0.500000 0.000000 0.000000
O O14 0.500000 0.500000 0.500000
O O15 0.180805 0.149964 0.584593
O O16 0.000000 0.000000 0.500000
#
# Coordination Sequence:
#
# PCOD9014837 Si02
#       7
#     2   2   2   2   2   2   2
#     4  10  22  48  76 107 138 180 245 295 358 444
#     4  11  26  49  69 110 153 191 251 308 367 439
#     4  11  25  47  74 108 146 196 238 302 373 440
#     4  10  23  40  70 101 137 193 250 307 359 430
#     4   9  21  46  70 104 135 183 230 288 363 436
#     4  10  21  41  69  95 138 192 248 302 357 427
#     4  11  26  49  71 105 153 197 247 310 369 430
#
# _framework density 23.849146999999999
#
# number of rings (size 3 to 8) (size 9 to 14) (size 15 to 20)
#    0.000    1.714    1.429    0.857    2.000    6.286 
#   33.429    0.000    0.000    0.000    0.000    0.000 
#    0.000    0.000    0.000    0.000    0.000    0.000 
#
# Total GULP energy -78077.908783 kJ/mol
# GULP energy per Si atom -5576.993484 kJ/mol
# Density = 2.379486 g / cm^3
# Si number density = 23.849147 Si / 1000 Ang^3
#
#
#
# Elastic Constant Matrix: (Units=GPa)
#
#
# Indices 1 2 3 4 5 6 
#
# 1 153.5946 55.9421 67.4579 27.5670 30.6934 7.1541
# 2 55.9421 102.9865 40.9895 32.1955 -0.9605 14.8409
# 3 67.4579 40.9895 128.9189 23.7996 10.7622 1.8254
# 4 27.5670 32.1955 23.7996 41.1192 2.6791 9.5509
# 5 30.6934 -0.9605 10.7622 2.6791 63.5801 7.9356
# 6 7.1541 14.8409 1.8254 9.5509 7.9356 56.3935
#
#
#
# Elastic Compliance Matrix: (Units=1/GPa)
#
#
# Indices 1 2 3 4 5 6 
#
# 1 0.010803 -0.003976 -0.003661 -0.001885 -0.004672 0.000771
# 2 -0.003976 0.015421 -0.001544 -0.008120 0.003076 -0.002561
# 3 -0.003661 -0.001544 0.010660 -0.002734 -0.000070 0.000999
# 4 -0.001885 -0.008120 -0.002734 0.034292 0.000226 -0.003375
# 5 -0.004672 0.003076 -0.000070 0.000226 0.018387 -0.002840
# 6 0.000771 -0.002561 0.000999 -0.003375 -0.002840 0.019248
#
#
# Mechanical properties :
#
#
# Convention : Reuss Voigt Hill
#
# Bulk Modulus (GPa) = 53.99447 79.36433 66.67940
# Shear Modulus (GPa) = 37.49597 46.95924 42.22761
#
# Velocity S-wave (km/s) = 3.96942 4.44217 4.21243
# Velocity P-wave (km/s) = 6.61041 7.72401 7.18881
#
# Compressibility (1/GPa) = 0.01852042
#
# Stress axis : x y z
#
# Youngs Moduli (GPa) = 92.56648 64.84763 93.80960
#
# Poissons Ratio (x) = 0.25787 0.34348
# Poissons Ratio (y) = 0.36809 0.14482
# Poissons Ratio (z) = 0.33893 0.10011
#
# Static dielectric constant tensor:
#      x y z
#    x 1.895370 0.068200 -0.093300 
#    y 0.068200 1.936090 -0.122500 
#    z -0.093300 -0.122500 2.115350 
# 
# From -- ./inp_files/8140.got.cif
#   From: 2010.05.17/outbox.cif.g08.bks.cpg/sg2_5_cif.got.tgz:8140.got - 2010.06.03 11:33:40.
