data_PCOD9014222
_publ_section_title
;
Structure prediction by ZEFSAII (Michael W. Deem and Ramdas Pophale) SiO2 
 PCOD9014222
Probable space group: P -1
;
_chemical_formula_sum "Si O2"
_cell_formula_units_Z 13
_cell_length_a 12.309574
_cell_length_b 9.445912
_cell_length_c 12.866850
_cell_angle_alpha 92.168829
_cell_angle_beta 148.077919
_cell_angle_gamma 65.849288
_cell_volume 553.859199
_symmetry_space_group_name_H-M "P -1"
_symmetry_group_IT_number 2
_symmetry_cell_setting 'triclinic'
loop_
_space_group_symop_operation_xyz
x,y,z
-x,-y,-z
loop_
_atom_site_type_symbol
_atom_site_label
_atom_site_fract_x
_atom_site_fract_y
_atom_site_fract_z
Si Si1 0.500000 0.500000 0.000000
Si Si2 0.352003 0.983270 0.472590
Si Si3 0.034504 0.596097 0.754991
Si Si4 0.104770 0.679737 0.535948
Si Si5 0.921716 0.177936 0.709714
Si Si6 0.594855 0.753611 0.216333
Si Si7 0.079696 0.354754 0.966162
O O1 0.845613 0.260407 0.315739
O O2 0.658662 0.531606 0.051053
O O3 0.261257 0.864106 0.395698
O O4 0.500000 0.000000 0.500000
O O5 0.060240 0.213566 0.261917
O O6 0.598282 0.864562 0.757680
O O7 0.776728 0.682852 0.468173
O O8 0.064740 0.458208 0.856976
O O9 0.157016 0.721619 0.467195
O O10 0.373534 0.433917 0.780387
O O11 0.799503 0.741627 0.300512
O O12 0.892070 0.311674 0.778694
O O13 0.262864 0.964500 0.963461
O O14 0.000000 0.500000 0.000000
#
# Coordination Sequence:
#
# PCOD9014222 Si02
#       7
#     1   2   2   2   2   2   2
#     4  10  22  40  72 104 144 188 220 292 360 430
#     4  12  27  48  69 102 142 191 248 300 353 426
#     4  11  22  47  68 103 150 183 239 295 357 425
#     4  10  21  41  67 108 145 184 232 285 362 436
#     4  12  25  44  74 104 141 192 239 295 364 419
#     4  10  21  41  70 102 147 186 226 292 360 435
#     4  12  26  48  73 104 141 186 246 305 349 429
#
# _framework density 23.471668999999999
#
# number of rings (size 3 to 8) (size 9 to 14) (size 15 to 20)
#    0.000    0.923    4.615    2.308    0.000    1.231 
#    2.769    3.077    0.000    0.000    0.000    0.000 
#    0.000    0.000    0.000    0.000    0.000    0.000 
#
# Total GULP energy -72387.370835 kJ/mol
# GULP energy per Si atom -5568.259295 kJ/mol
# Density = 2.341825 g / cm^3
# Si number density = 23.471669 Si / 1000 Ang^3
#
#
#
# Elastic Constant Matrix: (Units=GPa)
#
#
# Indices 1 2 3 4 5 6 
#
# 1 108.4383 75.8598 38.8499 19.0304 -0.2290 25.0338
# 2 75.8598 126.6917 32.4398 22.4513 -8.9452 35.8965
# 3 38.8499 32.4398 92.1456 5.4998 -4.9450 16.1568
# 4 19.0304 22.4513 5.4998 42.2154 0.4334 7.8686
# 5 -0.2290 -8.9452 -4.9450 0.4334 31.3449 -4.6740
# 6 25.0338 35.8965 16.1568 7.8686 -4.6740 32.4047
#
#
#
# Elastic Compliance Matrix: (Units=1/GPa)
#
#
# Indices 1 2 3 4 5 6 
#
# 1 0.017695 -0.008883 -0.004070 -0.002373 -0.003268 -0.001696
# 2 -0.008883 0.017050 -0.000005 -0.003081 0.003231 -0.010808
# 3 -0.004070 -0.000005 0.013203 0.000733 0.001536 -0.003390
# 4 -0.002373 -0.003081 0.000733 0.026650 -0.001417 -0.001795
# 5 -0.003268 0.003231 0.001536 -0.001417 0.033565 0.003365
# 6 -0.001696 -0.010808 -0.003390 -0.001795 0.003365 0.046754
#
#
# Mechanical properties :
#
#
# Convention : Reuss Voigt Hill
#
# Bulk Modulus (GPa) = 45.38659 69.06385 57.22522
# Shear Modulus (GPa) = 26.57083 33.20141 29.88612
#
# Velocity S-wave (km/s) = 3.36823 3.76511 3.57218
# Velocity P-wave (km/s) = 5.87413 6.95626 6.43797
#
# Compressibility (1/GPa) = 0.02203294
#
# Stress axis : x y z
#
# Youngs Moduli (GPa) = 56.51246 58.65156 75.74040
#
# Poissons Ratio (x) = 0.52101 0.30824
# Poissons Ratio (y) = 0.50201 0.00036
# Poissons Ratio (z) = 0.22998 0.00028
#
# Static dielectric constant tensor:
#      x y z
#    x 2.132920 -0.544850 -0.297020 
#    y -0.544850 3.135440 0.734990 
#    z -0.297020 0.734990 2.376880 
# 
# From -- ./inp_files/514246.got.cif
#   From: 2010.05.17/outbox.cif.g08.bks.cpg/sg2_258_cif.got.tgz:514246.got - 2010.06.03 11:33:40.
