data_PCOD9014294
_publ_section_title
;
Structure prediction by ZEFSAII (Michael W. Deem and Ramdas Pophale) SiO2 
 PCOD9014294
Probable space group: P -1
;
_chemical_formula_sum "Si O2"
_cell_formula_units_Z 15
_cell_length_a 7.306988
_cell_length_b 4.813483
_cell_length_c 18.570688
_cell_angle_alpha 61.201413
_cell_angle_beta 88.319492
_cell_angle_gamma 111.606871
_cell_volume 514.750531
_symmetry_space_group_name_H-M "P -1"
_symmetry_group_IT_number 2
_symmetry_cell_setting 'triclinic'
loop_
_space_group_symop_operation_xyz
x,y,z
-x,-y,-z
loop_
_atom_site_type_symbol
_atom_site_label
_atom_site_fract_x
_atom_site_fract_y
_atom_site_fract_z
Si Si1 0.269519 0.975438 0.289607
Si Si2 0.793602 0.133568 0.533769
Si Si3 0.857215 0.307275 0.348433
Si Si4 0.500000 0.500000 0.500000
Si Si5 0.389688 0.269107 0.681915
Si Si6 0.873204 0.739381 0.097875
Si Si7 0.354192 0.837085 0.927543
Si Si8 0.755766 0.781818 0.883076
O O1 0.241394 0.058652 0.362712
O O2 0.078450 0.608512 0.319678
O O3 0.469115 0.917048 0.272785
O O4 0.259729 0.252746 0.198033
O O5 0.812383 0.073348 0.453212
O O6 0.620481 0.262672 0.521826
O O7 0.000000 0.500000 0.500000
O O8 0.804182 0.024969 0.321483
O O9 0.705316 0.490561 0.311010
O O10 0.471553 0.487006 0.413528
O O11 0.320882 0.179796 0.899075
O O12 0.793224 0.353345 0.114712
O O13 0.031590 0.884728 0.141997
O O14 0.000000 0.000000 0.000000
O O15 0.575522 0.867445 0.905671
O O16 0.268486 0.566505 0.029884
#
# Coordination Sequence:
#
# PCOD9014294 Si02
#       8
#     2   2   2   1   2   2   2   2
#     4  10  22  40  62  94 125 160 206 257 311 365
#     4   8  16  34  57  83 115 154 200 247 297 355
#     4  10  22  42  63  86 122 166 208 254 305 364
#     4   8  16  32  56  80 108 150 196 238 286 350
#     4  10  22  40  62  89 122 162 207 254 306 364
#     4  10  21  41  67  93 122 163 207 246 301 372
#     4  10  23  42  66  92 123 164 206 249 303 369
#     4  10  22  39  64  93 126 161 204 255 308 365
#
# _framework density 29.140328
#
# number of rings (size 3 to 8) (size 9 to 14) (size 15 to 20)
#    0.000    2.400    0.000    1.600    0.000   13.867 
#    0.000   30.667    0.000    0.000    0.000    0.000 
#    0.000    0.000    0.000    0.000    0.000    0.000 
#
# Total GULP energy -83832.360003 kJ/mol
# GULP energy per Si atom -5588.824000 kJ/mol
# Density = 2.907400 g / cm^3
# Si number density = 29.140328 Si / 1000 Ang^3
#
#
#
# Elastic Constant Matrix: (Units=GPa)
#
#
# Indices 1 2 3 4 5 6 
#
# 1 103.3069 47.5726 19.5250 -0.6686 3.0915 7.8520
# 2 47.5726 99.5579 33.5050 2.0422 3.1231 -4.8800
# 3 19.5250 33.5050 183.0391 22.4537 -0.1585 13.5294
# 4 -0.6686 2.0422 22.4537 26.9186 16.6707 0.2518
# 5 3.0915 3.1231 -0.1585 16.6707 39.0290 -4.7650
# 6 7.8520 -4.8800 13.5294 0.2518 -4.7650 57.2108
#
#
#
# Elastic Compliance Matrix: (Units=1/GPa)
#
#
# Indices 1 2 3 4 5 6 
#
# 1 0.012802 -0.006108 -0.000341 0.002164 -0.001738 -0.002352
# 2 -0.006108 0.013826 -0.002198 0.001107 -0.000804 0.002466
# 3 -0.000341 -0.002198 0.006959 -0.007701 0.003341 -0.001474
# 4 0.002164 0.001107 -0.007701 0.059540 -0.025820 -0.000794
# 5 -0.001738 -0.000804 0.003341 -0.025820 0.037182 0.002591
# 6 -0.002352 0.002466 -0.001474 -0.000794 0.002591 0.018580
#
#
# Mechanical properties :
#
#
# Convention : Reuss Voigt Hill
#
# Bulk Modulus (GPa) = 61.37481 65.23435 63.30458
# Shear Modulus (GPa) = 29.13539 43.65178 36.39358
#
# Velocity S-wave (km/s) = 3.16544 3.87458 3.53782
# Velocity P-wave (km/s) = 5.87091 6.51547 6.20157
#
# Compressibility (1/GPa) = 0.01629333
#
# Stress axis : x y z
#
# Youngs Moduli (GPa) = 78.11554 72.32797 143.70749
#
# Poissons Ratio (x) = 0.44175 0.04896
# Poissons Ratio (y) = 0.47709 0.31588
# Poissons Ratio (z) = 0.02661 0.15898
#
# Static dielectric constant tensor:
#      x y z
#    x 2.179500 0.148810 -0.045690 
#    y 0.148810 2.313910 -0.054560 
#    z -0.045690 -0.054560 2.340760 
# 
# From -- ./inp_files/192788.got.cif
#   From: 2010.05.17/outbox.cif.g08.bks.cpg/sg2_97_cif.got.tgz:192788.got - 2010.06.03 11:33:40.
