data_PCOD9014881
_publ_section_title
;
Structure prediction by ZEFSAII (Michael W. Deem and Ramdas Pophale) SiO2 
 PCOD9014881
Probable space group: P -1
;
_chemical_formula_sum "Si O2"
_cell_formula_units_Z 16
_cell_length_a 13.603670
_cell_length_b 8.922650
_cell_length_c 11.829290
_cell_angle_alpha 128.229184
_cell_angle_beta 47.658819
_cell_angle_gamma 124.369587
_cell_volume 806.260566
_symmetry_space_group_name_H-M "P -1"
_symmetry_group_IT_number 2
_symmetry_cell_setting 'triclinic'
loop_
_space_group_symop_operation_xyz
x,y,z
-x,-y,-z
loop_
_atom_site_type_symbol
_atom_site_label
_atom_site_fract_x
_atom_site_fract_y
_atom_site_fract_z
Si Si1 0.804001 0.667142 0.582268
Si Si2 0.734895 0.180399 0.659021
Si Si3 0.940451 0.654333 0.048435
Si Si4 0.616176 0.580475 0.281199
Si Si5 0.443473 0.570594 0.192531
Si Si6 0.963709 0.561382 0.730983
Si Si7 0.392425 0.234564 0.389391
Si Si8 0.003991 0.918265 0.694647
O O1 0.679343 0.596909 0.733964
O O2 0.733015 0.683592 0.525277
O O3 0.901778 0.517354 0.436886
O O4 0.904259 0.871007 0.641595
O O5 0.627471 0.255085 0.700627
O O6 0.831136 0.374004 0.734900
O O7 0.843707 0.090760 0.464394
O O8 0.648389 0.997387 0.713015
O O9 0.776068 0.597178 0.158413
O O10 0.994821 0.874831 0.155866
O O11 0.977266 0.643305 0.884148
O O12 0.000000 0.500000 0.000000
O O13 0.558461 0.627552 0.227161
O O14 0.528536 0.362290 0.283211
O O15 0.591259 0.719698 0.468404
O O16 0.500000 0.500000 0.000000
O O17 0.954178 0.733302 0.731915
#
# Coordination Sequence:
#
# PCOD9014881 Si02
#       8
#     2   2   2   2   2   2   2   2
#     4  10  21  41  69  98 127 174 217 270 327 388
#     4  11  21  41  69  99 125 172 221 265 329 383
#     4  12  26  43  64  98 135 174 216 274 332 380
#     4  10  23  44  61  94 133 171 218 266 323 388
#     4  11  22  42  67  94 132 171 216 270 324 388
#     4  11  22  40  67  96 138 166 222 272 323 388
#     4  10  22  41  67  92 133 171 220 266 321 394
#     4  11  22  42  67  98 132 169 224 267 324 391
#
# _framework density 19.8447
#
# number of rings (size 3 to 8) (size 9 to 14) (size 15 to 20)
#    0.000    1.250    3.750    2.625    1.750    1.500 
#    2.250    1.875    0.000    0.000    0.000    0.000 
#    0.000    0.000    0.000    0.000    0.000    0.000 
#
# Total GULP energy -89378.781758 kJ/mol
# GULP energy per Si atom -5586.173860 kJ/mol
# Density = 1.979953 g / cm^3
# Si number density = 19.844700 Si / 1000 Ang^3
#
#
#
# Elastic Constant Matrix: (Units=GPa)
#
#
# Indices 1 2 3 4 5 6 
#
# 1 102.8091 13.4431 27.5949 5.5716 1.6470 6.5492
# 2 13.4431 86.1194 16.7821 21.7418 -0.7997 20.4844
# 3 27.5949 16.7821 85.7484 7.3901 15.7455 10.0174
# 4 5.5716 21.7418 7.3901 31.0036 2.2814 -0.2267
# 5 1.6470 -0.7997 15.7455 2.2814 30.3936 -4.2956
# 6 6.5492 20.4844 10.0174 -0.2267 -4.2956 24.5126
#
#
#
# Elastic Compliance Matrix: (Units=1/GPa)
#
#
# Indices 1 2 3 4 5 6 
#
# 1 0.010795 -0.000631 -0.003395 -0.000775 0.001105 -0.000783
# 2 -0.000631 0.018780 -0.000450 -0.013029 -0.000457 -0.015542
# 3 -0.003395 -0.000450 0.015357 -0.002154 -0.008542 -0.006510
# 4 -0.000775 -0.013029 -0.002154 0.042179 -0.000619 0.012257
# 5 0.001105 -0.000457 -0.008542 -0.000619 0.038766 0.010366
# 6 -0.000783 -0.015542 -0.006510 0.012257 0.010366 0.058582
#
#
# Mechanical properties :
#
#
# Convention : Reuss Voigt Hill
#
# Bulk Modulus (GPa) = 27.79360 43.36857 35.58108
# Shear Modulus (GPa) = 24.34214 31.63909 27.99062
#
# Velocity S-wave (km/s) = 3.50613 3.99724 3.75971
# Velocity P-wave (km/s) = 5.51603 6.57308 6.06762
#
# Compressibility (1/GPa) = 0.03597950
#
# Stress axis : x y z
#
# Youngs Moduli (GPa) = 92.63797 53.24861 65.11575
#
# Poissons Ratio (x) = 0.03362 0.22106
# Poissons Ratio (y) = 0.05849 0.02929
# Poissons Ratio (z) = 0.31450 0.02395
#
# Static dielectric constant tensor:
#      x y z
#    x 1.707160 -0.003790 0.013230 
#    y -0.003790 1.720380 -0.009190 
#    z 0.013230 -0.009190 1.685670 
# 
# From -- ./inp_files/202542.got.cif
#   From: 2010.05.17/outbox.cif.g08.bks.cpg/sg2_102_cif.got.tgz:202542.got - 2010.06.03 11:33:40.
