data_PCOD9014029
_publ_section_title
;
Structure prediction by ZEFSAII (Michael W. Deem and Ramdas Pophale) SiO2 
 PCOD9014029
Probable space group: P -1
;
_chemical_formula_sum "Si O2"
_cell_formula_units_Z 16
_cell_length_a 19.264405
_cell_length_b 22.553923
_cell_length_c 8.927587
_cell_angle_alpha 128.906776
_cell_angle_beta 42.077787
_cell_angle_gamma 162.269900
_cell_volume 730.014854
_symmetry_space_group_name_H-M "P -1"
_symmetry_group_IT_number 2
_symmetry_cell_setting 'triclinic'
loop_
_space_group_symop_operation_xyz
x,y,z
-x,-y,-z
loop_
_atom_site_type_symbol
_atom_site_label
_atom_site_fract_x
_atom_site_fract_y
_atom_site_fract_z
Si Si1 0.758572 0.879505 0.602516
Si Si2 0.489280 0.156016 0.856922
Si Si3 0.031579 0.867047 0.563316
Si Si4 0.760274 0.213192 0.719758
Si Si5 0.677948 0.363913 0.618372
Si Si6 0.069893 0.914294 0.918763
Si Si7 0.591586 0.167268 0.214696
Si Si8 0.497381 0.553896 0.447057
O O1 0.493797 0.640114 0.632918
O O2 0.886680 0.996060 0.424898
O O3 0.662616 0.888257 0.859900
O O4 0.000000 0.000000 0.500000
O O5 0.628066 0.183635 0.770007
O O6 0.721997 0.361149 0.709745
O O7 0.242791 0.970142 0.830850
O O8 0.972152 0.826525 0.770513
O O9 0.768046 0.651805 0.554844
O O10 0.317784 0.013345 0.321121
O O11 0.078309 0.411204 0.466015
O O12 0.539115 0.992574 0.737710
O O13 0.791069 0.271063 0.929049
O O14 0.692742 0.303385 0.380151
O O15 0.342490 0.158529 0.838907
O O16 0.796846 0.751668 0.191882
O O17 0.500000 0.500000 0.500000
#
# Coordination Sequence:
#
# PCOD9014029 Si02
#       8
#     2   2   2   2   2   2   2   2
#     4  12  22  44  67  92 129 173 213 270 328 381
#     4  10  21  41  66  94 134 171 216 264 318 387
#     4  11  23  44  66  95 137 165 218 271 323 391
#     4  11  21  41  69  93 132 172 217 263 324 384
#     4   9  21  42  63  93 134 165 218 264 319 381
#     4   9  22  42  66  96 133 170 211 274 318 386
#     4  10  23  41  66  98 130 170 215 270 320 385
#     4  12  24  43  70  97 128 173 221 266 330 392
#
# _framework density 21.917361
#
# number of rings (size 3 to 8) (size 9 to 14) (size 15 to 20)
#    0.750    0.750    3.750    1.125    0.000    3.000 
#    9.000    0.000    0.000    0.000    0.000    0.000 
#    0.000    0.000    0.000    0.000    0.000    0.000 
#
# Total GULP energy -89246.436731 kJ/mol
# GULP energy per Si atom -5577.902296 kJ/mol
# Density = 2.186748 g / cm^3
# Si number density = 21.917361 Si / 1000 Ang^3
#
#
#
# Elastic Constant Matrix: (Units=GPa)
#
#
# Indices 1 2 3 4 5 6 
#
# 1 98.0762 45.3675 29.6997 2.0668 22.3386 -3.0680
# 2 45.3675 81.4427 13.9234 -3.2398 18.2860 -9.4226
# 3 29.6997 13.9234 73.9782 -12.9554 20.7335 -7.9073
# 4 2.0668 -3.2398 -12.9554 28.2523 3.6353 9.6441
# 5 22.3386 18.2860 20.7335 3.6353 32.6635 0.5859
# 6 -3.0680 -9.4226 -7.9073 9.6441 0.5859 22.7273
#
#
#
# Elastic Compliance Matrix: (Units=1/GPa)
#
#
# Indices 1 2 3 4 5 6 
#
# 1 0.015929 -0.007605 -0.004792 -0.003439 -0.003192 -0.001128
# 2 -0.007605 0.018578 0.002809 0.002630 -0.007396 0.006728
# 3 -0.004792 0.002809 0.020698 0.010581 -0.012675 0.003556
# 4 -0.003439 0.002630 0.010581 0.047513 -0.010846 -0.015574
# 5 -0.003192 -0.007396 -0.012675 -0.010846 0.046272 -0.004498
# 6 -0.001128 0.006728 0.003556 -0.015574 -0.004498 0.054599
#
#
# Mechanical properties :
#
#
# Convention : Reuss Voigt Hill
#
# Bulk Modulus (GPa) = 27.75461 47.94203 37.84832
# Shear Modulus (GPa) = 21.29699 27.69571 24.49635
#
# Velocity S-wave (km/s) = 3.12058 3.55863 3.34678
# Velocity P-wave (km/s) = 5.06704 6.22950 5.67809
#
# Compressibility (1/GPa) = 0.03603005
#
# Stress axis : x y z
#
# Youngs Moduli (GPa) = 62.77764 53.82659 48.31355
#
# Poissons Ratio (x) = 0.40934 0.23152
# Poissons Ratio (y) = 0.47741 -0.13571
# Poissons Ratio (z) = 0.30083 -0.15120
#
# Static dielectric constant tensor:
#      x y z
#    x 1.879480 -0.018700 -0.022020 
#    y -0.018700 1.835760 0.021200 
#    z -0.022020 0.021200 1.874690 
# 
# From -- ./inp_files/337746.got.cif
#   From: 2010.05.17/outbox.cif.g08.bks.cpg/sg2_169_cif.got.tgz:337746.got - 2010.06.03 11:33:40.
