data_PCOD9014565
_publ_section_title
;
Structure prediction by ZEFSAII (Michael W. Deem and Ramdas Pophale) SiO2 
 PCOD9014565
Probable space group: P -1
;
_chemical_formula_sum "Si O2"
_cell_formula_units_Z 16
_cell_length_a 18.942514
_cell_length_b 10.487503
_cell_length_c 16.889621
_cell_angle_alpha 134.166029
_cell_angle_beta 156.174157
_cell_angle_gamma 33.343812
_cell_volume 709.798758
_symmetry_space_group_name_H-M "P -1"
_symmetry_group_IT_number 2
_symmetry_cell_setting 'triclinic'
loop_
_space_group_symop_operation_xyz
x,y,z
-x,-y,-z
loop_
_atom_site_type_symbol
_atom_site_label
_atom_site_fract_x
_atom_site_fract_y
_atom_site_fract_z
Si Si1 0.766099 0.725507 0.226665
Si Si2 0.699370 0.384479 0.041608
Si Si3 0.173188 0.880064 0.303924
Si Si4 0.592509 0.919825 0.430367
Si Si5 0.725270 0.498578 0.297009
Si Si6 0.323831 0.208161 0.012485
Si Si7 0.216414 0.387754 0.344833
Si Si8 0.454962 0.583020 0.619623
O O1 0.779862 0.505737 0.133358
O O2 0.738575 0.818407 0.150675
O O3 0.002210 0.644734 0.469209
O O4 0.537282 0.927526 0.133694
O O5 0.721331 0.421989 0.172582
O O6 0.421404 0.531546 0.809050
O O7 0.888588 0.096523 0.094992
O O8 0.259359 0.777095 0.436835
O O9 0.310645 0.647094 0.287610
O O10 0.275797 0.000511 0.435688
O O11 0.584914 0.778440 0.293082
O O12 0.732560 0.732211 0.567718
O O13 0.345984 0.165918 0.319858
O O14 0.065493 0.397970 0.869945
O O15 0.455197 0.308425 0.193163
O O16 0.346646 0.489185 0.514287
#
# Coordination Sequence:
#
# PCOD9014565 Si02
#       8
#     2   2   2   2   2   2   2   2
#     4  11  24  42  61  93 128 168 214 264 307 382
#     4  11  24  39  66  92 122 169 219 258 319 371
#     4  10  21  45  64  96 131 165 213 264 318 374
#     4  10  21  41  68  91 131 164 210 268 311 371
#     4  11  23  39  62  94 122 162 214 268 308 368
#     4  11  24  40  65  92 129 174 210 252 330 378
#     4  10  22  43  63  97 128 167 210 262 319 377
#     4  10  24  41  66  95 133 167 207 265 318 382
#
# _framework density 22.541599999999999
#
# number of rings (size 3 to 8) (size 9 to 14) (size 15 to 20)
#    0.000    1.500    2.500    1.125    5.250    3.000 
#    0.000    6.875    0.000    0.000    0.000    0.000 
#    0.000    0.000    0.000    0.000    0.000    0.000 
#
# Total GULP energy -89299.541817 kJ/mol
# GULP energy per Si atom -5581.221364 kJ/mol
# Density = 2.249029 g / cm^3
# Si number density = 22.541600 Si / 1000 Ang^3
#
#
#
# Elastic Constant Matrix: (Units=GPa)
#
#
# Indices 1 2 3 4 5 6 
#
# 1 71.8359 5.4555 -4.0394 -9.6143 -2.6188 9.5931
# 2 5.4555 102.0230 45.4195 -28.2455 20.3363 -6.1547
# 3 -4.0394 45.4195 247.7415 -52.9722 94.3184 20.0104
# 4 -9.6143 -28.2455 -52.9722 48.1173 -26.3527 7.2025
# 5 -2.6188 20.3363 94.3184 -26.3527 45.8147 2.4710
# 6 9.5931 -6.1547 20.0104 7.2025 2.4710 29.0407
#
#
#
# Elastic Compliance Matrix: (Units=1/GPa)
#
#
# Indices 1 2 3 4 5 6 
#
# 1 0.016329 -0.000600 0.001919 0.007452 0.002014 -0.008863
# 2 -0.000600 0.011980 -0.001592 0.005228 0.000800 0.002470
# 3 0.001919 -0.001592 0.022381 0.002468 -0.043120 -0.013336
# 4 0.007452 0.005228 0.002468 0.039081 0.016266 -0.014131
# 5 0.002014 0.000800 -0.043120 0.016266 0.118901 0.015065
# 6 -0.008863 0.002470 -0.013336 -0.014131 0.015065 0.049298
#
#
# Mechanical properties :
#
#
# Convention : Reuss Voigt Hill
#
# Bulk Modulus (GPa) = 19.94381 57.25241 38.59811
# Shear Modulus (GPa) = 18.16657 49.57887 33.87272
#
# Velocity S-wave (km/s) = 2.84194 4.69491 3.88064
# Velocity P-wave (km/s) = 4.43121 7.40562 6.10241
#
# Compressibility (1/GPa) = 0.05014087
#
# Stress axis : x y z
#
# Youngs Moduli (GPa) = 61.24259 83.47571 44.68102
#
# Poissons Ratio (x) = 0.05011 -0.08573
# Poissons Ratio (y) = 0.03676 0.07115
# Poissons Ratio (z) = -0.11751 0.13293
#
# Static dielectric constant tensor:
#      x y z
#    x 1.861320 0.001660 0.012640 
#    y 0.001660 1.879880 -0.039250 
#    z 0.012640 -0.039250 1.837930 
# 
# From -- ./inp_files/515720.got.cif
#   From: 2010.05.17/outbox.cif.g08.bks.cpg/sg2_258_cif.got.tgz:515720.got - 2010.06.03 11:33:40.
