data_PCOD9014618
_publ_section_title
;
Structure prediction by ZEFSAII (Michael W. Deem and Ramdas Pophale) SiO2 
 PCOD9014618
Probable space group: P -1
;
_chemical_formula_sum "Si O2"
_cell_formula_units_Z 16
_cell_length_a 8.816836
_cell_length_b 15.037693
_cell_length_c 8.641849
_cell_angle_alpha 80.669937
_cell_angle_beta 70.630996
_cell_angle_gamma 130.525332
_cell_volume 698.483272
_symmetry_space_group_name_H-M "P -1"
_symmetry_group_IT_number 2
_symmetry_cell_setting 'triclinic'
loop_
_space_group_symop_operation_xyz
x,y,z
-x,-y,-z
loop_
_atom_site_type_symbol
_atom_site_label
_atom_site_fract_x
_atom_site_fract_y
_atom_site_fract_z
Si Si1 0.028085 0.559098 0.731251
Si Si2 0.764218 0.649372 0.318411
Si Si3 0.422937 0.248440 0.532459
Si Si4 0.114537 0.673711 0.010123
Si Si5 0.061802 0.754873 0.496896
Si Si6 0.575699 0.031817 0.145059
Si Si7 0.060407 0.955642 0.860292
Si Si8 0.158831 0.153306 0.342673
O O1 0.291928 0.636733 0.560330
O O2 0.964004 0.619382 0.635655
O O3 0.865987 0.400914 0.853980
O O4 0.067132 0.614733 0.874027
O O5 0.500000 0.500000 0.500000
O O6 0.708025 0.732451 0.319800
O O7 0.882059 0.638482 0.146666
O O8 0.960036 0.719061 0.368887
O O9 0.382776 0.253466 0.361419
O O10 0.284419 0.096407 0.650624
O O11 0.359087 0.837574 0.875227
O O12 0.970658 0.804875 0.602463
O O13 0.353851 0.891523 0.351227
O O14 0.822669 0.082502 0.089925
O O15 0.500000 0.000000 0.000000
O O16 0.836528 0.852797 0.843036
O O17 0.000000 0.000000 0.000000
O O18 0.000000 0.000000 0.500000
#
# Coordination Sequence:
#
# PCOD9014618 Si02
#       8
#     2   2   2   2   2   2   2   2
#     4  11  24  45  68 103 133 180 232 280 346 410
#     4  11  22  45  69  93 137 185 223 278 342 413
#     4  10  21  41  68  95 132 179 223 277 339 409
#     4  11  25  42  70  96 142 175 225 285 345 403
#     4  11  24  44  71 101 132 176 235 278 345 408
#     4  12  25  41  68 104 139 172 226 292 343 391
#     4  11  23  39  63  98 138 174 224 276 340 409
#     4   9  22  39  64  98 131 175 218 273 341 405
#
# _framework density 22.906776000000001
#
# number of rings (size 3 to 8) (size 9 to 14) (size 15 to 20)
#    0.000    1.250    3.750    1.500    7.000    1.500 
#    2.250    0.625    5.500    0.000    0.000    0.000 
#    0.000    0.000    0.000    0.000    0.000    0.000 
#
# Total GULP energy -89311.958271 kJ/mol
# GULP energy per Si atom -5581.997392 kJ/mol
# Density = 2.285464 g / cm^3
# Si number density = 22.906776 Si / 1000 Ang^3
#
#
#
# Elastic Constant Matrix: (Units=GPa)
#
#
# Indices 1 2 3 4 5 6 
#
# 1 96.5431 13.1019 18.5592 -0.6873 13.0756 -30.2107
# 2 13.1019 65.8378 5.1061 -5.7115 1.1044 -19.9860
# 3 18.5592 5.1061 50.7787 3.0233 2.1077 -10.6808
# 4 -0.6873 -5.7115 3.0233 45.6703 -5.7002 4.9232
# 5 13.0756 1.1044 2.1077 -5.7002 28.6938 -8.3952
# 6 -30.2107 -19.9860 -10.6808 4.9232 -8.3952 31.6886
#
#
#
# Elastic Compliance Matrix: (Units=1/GPa)
#
#
# Indices 1 2 3 4 5 6 
#
# 1 0.015512 0.001349 -0.002622 -0.001331 -0.003051 0.014154
# 2 0.001349 0.019245 0.000347 0.001255 0.003006 0.014142
# 3 -0.002622 0.000347 0.021879 -0.001946 0.000831 0.005616
# 4 -0.001331 0.001255 -0.001946 0.023078 0.004233 -0.003597
# 5 -0.003051 0.003006 0.000831 0.004233 0.039565 0.009091
# 6 0.014154 0.014142 0.005616 -0.003597 0.009091 0.058830
#
#
# Mechanical properties :
#
#
# Convention : Reuss Voigt Hill
#
# Bulk Modulus (GPa) = 18.25366 31.85491 25.05429
# Shear Modulus (GPa) = 25.22400 32.97004 29.09702
#
# Velocity S-wave (km/s) = 3.32197 3.79794 3.56790
# Velocity P-wave (km/s) = 4.76445 5.75926 5.28531
#
# Compressibility (1/GPa) = 0.05478352
#
# Stress axis : x y z
#
# Youngs Moduli (GPa) = 64.46653 51.96162 45.70498
#
# Poissons Ratio (x) = -0.07008 0.11984
# Poissons Ratio (y) = -0.08695 -0.01586
# Poissons Ratio (z) = 0.16904 -0.01803
#
# Static dielectric constant tensor:
#      x y z
#    x 1.897610 -0.019600 0.037140 
#    y -0.019600 1.880680 -0.008740 
#    z 0.037140 -0.008740 2.009860 
# 
# From -- ./inp_files/206867.got.cif
#   From: 2010.05.17/outbox.cif.g08.bks.cpg/sg2_104_cif.got.tgz:206867.got - 2010.06.03 11:33:40.
