data_PCOD9014975
_publ_section_title
;
Structure prediction by ZEFSAII (Michael W. Deem and Ramdas Pophale) SiO2 
 PCOD9014975
Probable space group: P -1
;
_chemical_formula_sum "Si O2"
_cell_formula_units_Z 12
_cell_length_a 8.094839
_cell_length_b 8.402572
_cell_length_c 13.421439
_cell_angle_alpha 141.840178
_cell_angle_beta 54.134687
_cell_angle_gamma 113.771442
_cell_volume 454.060787
_symmetry_space_group_name_H-M "P -1"
_symmetry_group_IT_number 2
_symmetry_cell_setting 'triclinic'
loop_
_space_group_symop_operation_xyz
x,y,z
-x,-y,-z
loop_
_atom_site_type_symbol
_atom_site_label
_atom_site_fract_x
_atom_site_fract_y
_atom_site_fract_z
Si Si1 0.912855 0.130842 0.406769
Si Si2 0.673850 0.643166 0.248966
Si Si3 0.738294 0.038205 0.936636
Si Si4 0.309277 0.161998 0.935539
Si Si5 0.384298 0.685904 0.549074
Si Si6 0.312758 0.720947 0.248331
O O1 0.782858 0.357613 0.498821
O O2 0.871105 0.176484 0.561278
O O3 0.826057 0.854701 0.279266
O O4 0.137501 0.089174 0.262370
O O5 0.759442 0.344330 0.084838
O O6 0.567204 0.744304 0.439892
O O7 0.497735 0.651327 0.230138
O O8 0.788783 0.898425 0.954595
O O9 0.500000 0.000000 0.000000
O O10 0.559059 0.143623 0.815341
O O11 0.264120 0.927347 0.767263
O O12 0.244865 0.466323 0.093713
O O13 0.500000 0.500000 0.500000
#
# Coordination Sequence:
#
# PCOD9014975 Si02
#       6
#     2   2   2   2   2   2
#     4  11  24  44  68 100 131 179 225 264 330 404
#     4  11  20  43  69  96 133 178 217 272 330 397
#     4  12  26  43  67  97 139 176 222 276 328 385
#     4  11  21  40  68  97 136 169 218 276 333 384
#     4  11  21  40  71 100 132 169 220 279 333 389
#     4  10  21  41  70  92 133 180 214 270 338 394
#
# _framework density 26.428182
#
# number of rings (size 3 to 8) (size 9 to 14) (size 15 to 20)
#    0.000    1.000    6.667    1.500    0.000    1.333 
#    0.000    0.833    0.000    0.000    0.000    0.000 
#    0.000    0.000    0.000    0.000    0.000    0.000 
#
# Total GULP energy -66958.168318 kJ/mol
# GULP energy per Si atom -5579.847360 kJ/mol
# Density = 2.636803 g / cm^3
# Si number density = 26.428182 Si / 1000 Ang^3
#
#
#
# Elastic Constant Matrix: (Units=GPa)
#
#
# Indices 1 2 3 4 5 6 
#
# 1 56.9905 48.8075 21.9711 -14.0278 -8.8707 -11.1459
# 2 48.8075 134.3367 53.9292 -10.3820 -16.5617 -5.0909
# 3 21.9711 53.9292 172.8816 -45.6876 -11.7208 23.4487
# 4 -14.0278 -10.3820 -45.6876 55.5902 21.0286 6.9044
# 5 -8.8707 -16.5617 -11.7208 21.0286 24.8010 -1.7344
# 6 -11.1459 -5.0909 23.4487 6.9044 -1.7344 33.0683
#
#
#
# Elastic Compliance Matrix: (Units=1/GPa)
#
#
# Indices 1 2 3 4 5 6 
#
# 1 0.028401 -0.009194 -0.000953 0.003046 0.001564 0.008279
# 2 -0.009194 0.014031 -0.005730 -0.009648 0.011957 0.005766
# 3 -0.000953 -0.005730 0.012995 0.015886 -0.012502 -0.014391
# 4 0.003046 -0.009648 0.015886 0.048291 -0.040464 -0.023929
# 5 0.001564 0.011957 -0.012502 -0.040464 0.078932 0.023821
# 6 0.008279 0.005766 -0.014391 -0.023929 0.023821 0.050369
#
#
# Mechanical properties :
#
#
# Convention : Reuss Voigt Hill
#
# Bulk Modulus (GPa) = 42.24027 68.18051 55.21039
# Shear Modulus (GPa) = 18.33761 38.65864 28.49813
#
# Velocity S-wave (km/s) = 2.63699 3.82878 3.28735
# Velocity P-wave (km/s) = 5.02885 6.73799 5.94516
#
# Compressibility (1/GPa) = 0.02367409
#
# Stress axis : x y z
#
# Youngs Moduli (GPa) = 35.21058 71.26830 76.95016
#
# Poissons Ratio (x) = 0.65523 0.07335
# Poissons Ratio (y) = 0.32372 0.44089
# Poissons Ratio (z) = 0.03357 0.40834
#
# Static dielectric constant tensor:
#      x y z
#    x 2.337300 -0.079860 0.030120 
#    y -0.079860 2.094910 0.019500 
#    z 0.030120 0.019500 2.079170 
# 
# From -- ./inp_files/269294.got.cif
#   From: 2010.05.17/outbox.cif.g08.bks.cpg/sg2_135_cif.got.tgz:269294.got - 2010.06.03 11:33:40.
