data_PCOD9014927
_publ_section_title
;
Structure prediction by ZEFSAII (Michael W. Deem and Ramdas Pophale) SiO2 
 PCOD9014927
Probable space group: P -1
;
_chemical_formula_sum "Si O2"
_cell_formula_units_Z 13
_cell_length_a 7.890241
_cell_length_b 11.688455
_cell_length_c 8.565752
_cell_angle_alpha 57.838777
_cell_angle_beta 76.806162
_cell_angle_gamma 112.786388
_cell_volume 512.234695
_symmetry_space_group_name_H-M "P -1"
_symmetry_group_IT_number 2
_symmetry_cell_setting 'triclinic'
loop_
_space_group_symop_operation_xyz
x,y,z
-x,-y,-z
loop_
_atom_site_type_symbol
_atom_site_label
_atom_site_fract_x
_atom_site_fract_y
_atom_site_fract_z
Si Si1 0.431081 0.324733 0.718716
Si Si2 0.013344 0.305851 0.380976
Si Si3 0.663357 0.191419 0.899716
Si Si4 0.603183 0.949900 0.639777
Si Si5 0.668975 0.767363 0.512963
Si Si6 0.000000 0.500000 0.500000
Si Si7 0.686257 0.567490 0.048296
O O1 0.500000 0.500000 0.500000
O O2 0.639626 0.327504 0.714495
O O3 0.305587 0.183607 0.709748
O O4 0.315010 0.309303 0.917136
O O5 0.195263 0.302341 0.433208
O O6 0.999470 0.442522 0.362957
O O7 0.786279 0.117833 0.573583
O O8 0.090673 0.347126 0.154271
O O9 0.920255 0.303288 0.727976
O O10 0.500000 0.000000 0.000000
O O11 0.580371 0.178411 0.101456
O O12 0.500000 0.000000 0.500000
O O13 0.720693 0.892935 0.551097
O O14 0.409955 0.608056 0.712927
O O15 0.500000 0.500000 0.000000
#
# Coordination Sequence:
#
# PCOD9014927 Si02
#       7
#     2   2   2   2   2   1   2
#     4  10  21  41  74 105 147 189 249 311 376 443
#     4  11  23  44  70 103 141 198 247 301 373 447
#     4  12  24  46  72 106 153 200 243 313 375 450
#     4  12  26  48  68 105 155 197 247 312 379 444
#     4  10  21  41  70 101 140 185 250 304 368 443
#     4  12  24  44  76 102 150 192 256 290 392 432
#     4   9  18  39  67 100 134 185 240 298 362 428
#
# _framework density 25.378990999999999
#
# number of rings (size 3 to 8) (size 9 to 14) (size 15 to 20)
#    0.000    1.231    1.538    6.923    0.000    0.000 
#    8.308    3.077    0.000    0.000    0.000    0.000 
#    0.000    0.000    0.000    0.000    0.000    0.000 
#
# Total GULP energy -72437.919986 kJ/mol
# GULP energy per Si atom -5572.147691 kJ/mol
# Density = 2.532123 g / cm^3
# Si number density = 25.378991 Si / 1000 Ang^3
#
#
#
# Elastic Constant Matrix: (Units=GPa)
#
#
# Indices 1 2 3 4 5 6 
#
# 1 52.3881 10.1868 24.1532 11.8377 8.0202 -9.0868
# 2 10.1868 171.7714 50.1940 34.6510 -10.8766 -14.6546
# 3 24.1532 50.1940 144.4809 27.2387 -19.4811 -1.9519
# 4 11.8377 34.6510 27.2387 60.2787 -3.1022 -6.0119
# 5 8.0202 -10.8766 -19.4811 -3.1022 35.1836 5.3624
# 6 -9.0868 -14.6546 -1.9519 -6.0119 5.3624 38.3735
#
#
#
# Elastic Compliance Matrix: (Units=1/GPa)
#
#
# Indices 1 2 3 4 5 6 
#
# 1 0.024461 0.000504 -0.004936 -0.002686 -0.009400 0.006626
# 2 0.000504 0.007197 -0.001905 -0.003132 0.000441 0.002219
# 3 -0.004936 -0.001905 0.009609 -0.002226 0.006057 -0.002603
# 4 -0.002686 -0.003132 -0.002226 0.020042 -0.000003 0.001195
# 5 -0.009400 0.000441 0.006057 -0.000003 0.035069 -0.006650
# 6 0.006626 0.002219 -0.002603 0.001195 -0.006650 0.029460
#
#
# Mechanical properties :
#
#
# Convention : Reuss Voigt Hill
#
# Bulk Modulus (GPa) = 34.97227 59.74539 47.35883
# Shear Modulus (GPa) = 33.77362 45.70761 39.74062
#
# Velocity S-wave (km/s) = 3.65193 4.24843 3.96142
# Velocity P-wave (km/s) = 5.62068 6.90347 6.29484
#
# Compressibility (1/GPa) = 0.02859408
#
# Stress axis : x y z
#
# Youngs Moduli (GPa) = 40.88095 138.93957 104.06464
#
# Poissons Ratio (x) = -0.06996 0.51364
# Poissons Ratio (y) = -0.02058 0.19822
# Poissons Ratio (z) = 0.20178 0.26464
#
# Static dielectric constant tensor:
#      x y z
#    x 1.680150 -0.127130 0.271070 
#    y -0.127130 1.994790 0.106520 
#    z 0.271070 0.106520 1.874630 
# 
# From -- ./inp_files/184966.got.cif
#   From: 2010.05.17/outbox.cif.g08.bks.cpg/sg2_93_cif.got.tgz:184966.got - 2010.06.03 11:33:40.
