data_PCOD9014905
_publ_section_title
;
Structure prediction by ZEFSAII (Michael W. Deem and Ramdas Pophale) SiO2 
 PCOD9014905
Probable space group: P -1
;
_chemical_formula_sum "Si O2"
_cell_formula_units_Z 14
_cell_length_a 8.738701
_cell_length_b 18.833423
_cell_length_c 13.785665
_cell_angle_alpha 149.503336
_cell_angle_beta 143.597941
_cell_angle_gamma 31.777278
_cell_volume 583.695859
_symmetry_space_group_name_H-M "P -1"
_symmetry_group_IT_number 2
_symmetry_cell_setting 'triclinic'
loop_
_space_group_symop_operation_xyz
x,y,z
-x,-y,-z
loop_
_atom_site_type_symbol
_atom_site_label
_atom_site_fract_x
_atom_site_fract_y
_atom_site_fract_z
Si Si1 0.841262 0.800529 0.018682
Si Si2 0.937970 0.173889 0.207928
Si Si3 0.003728 0.956300 0.562572
Si Si4 0.351401 0.159029 0.238411
Si Si5 0.315295 0.482368 0.970917
Si Si6 0.084211 0.243015 0.575298
Si Si7 0.325046 0.469389 0.170175
O O1 0.045124 0.882837 0.220066
O O2 0.829141 0.755176 0.849250
O O3 0.406546 0.696602 0.843775
O O4 0.983110 0.646345 0.979536
O O5 0.019094 0.180020 0.368643
O O6 0.157721 0.208310 0.293986
O O7 0.483186 0.041458 0.929397
O O8 0.000000 0.000000 0.000000
O O9 0.359205 0.823155 0.596058
O O10 0.817226 0.888673 0.441189
O O11 0.000000 0.000000 0.500000
O O12 0.291795 0.321085 0.760027
O O13 0.500000 0.500000 0.000000
O O14 0.442183 0.489115 0.148479
O O15 0.776346 0.396951 0.640732
O O16 0.000000 0.500000 0.000000
#
# Coordination Sequence:
#
# PCOD9014905 Si02
#       7
#     2   2   2   2   2   2   2
#     4   9  20  42  70  93 138 197 246 287 381 426
#     4  12  26  44  72 110 148 192 258 311 360 449
#     4  10  21  41  69  99 138 188 240 301 372 436
#     4   9  22  40  69  93 137 192 249 291 360 427
#     4  11  24  45  76 105 152 194 246 311 378 444
#     4  11  26  44  72 111 145 197 250 306 381 453
#     4  10  25  46  69 103 151 199 235 305 382 437
#
# _framework density 23.985094
#
# number of rings (size 3 to 8) (size 9 to 14) (size 15 to 20)
#    0.857    0.857    0.000    3.000    4.000    4.571 
#    0.000    7.857    0.000    0.000    0.000    0.000 
#    0.000    0.000    0.000    0.000    0.000    0.000 
#
# Total GULP energy -78087.814195 kJ/mol
# GULP energy per Si atom -5577.701014 kJ/mol
# Density = 2.393050 g / cm^3
# Si number density = 23.985094 Si / 1000 Ang^3
#
#
#
# Elastic Constant Matrix: (Units=GPa)
#
#
# Indices 1 2 3 4 5 6 
#
# 1 149.3360 37.8212 52.3832 -6.2139 0.8861 13.1697
# 2 37.8212 95.3527 28.4528 4.9311 -6.2732 17.1253
# 3 52.3832 28.4528 102.4972 8.5345 -0.6067 14.8560
# 4 -6.2139 4.9311 8.5345 20.3716 12.5475 -1.1705
# 5 0.8861 -6.2732 -0.6067 12.5475 50.2904 1.7542
# 6 13.1697 17.1253 14.8560 -1.1705 1.7542 41.7161
#
#
#
# Elastic Compliance Matrix: (Units=1/GPa)
#
#
# Indices 1 2 3 4 5 6 
#
# 1 0.009311 -0.002863 -0.004572 0.006872 -0.002296 0.000153
# 2 -0.002863 0.013269 -0.001056 -0.005953 0.003334 -0.004474
# 3 -0.004572 -0.001056 0.013582 -0.008458 0.002338 -0.003296
# 4 0.006872 -0.005953 -0.008458 0.067625 -0.018046 0.005943
# 5 -0.002296 0.003334 0.002338 -0.018046 0.024977 -0.003033
# 6 0.000153 -0.004474 -0.003296 0.005943 -0.003033 0.027228
#
#
# Mechanical properties :
#
#
# Convention : Reuss Voigt Hill
#
# Bulk Modulus (GPa) = 52.13801 64.94446 58.54123
# Shear Modulus (GPa) = 27.87573 37.71086 32.79330
#
# Velocity S-wave (km/s) = 3.41282 3.96948 3.70163
# Velocity P-wave (km/s) = 6.10857 6.93865 6.53680
#
# Compressibility (1/GPa) = 0.01917987
#
# Stress axis : x y z
#
# Youngs Moduli (GPa) = 107.39861 75.36367 73.62746
#
# Poissons Ratio (x) = 0.21576 0.33661
# Poissons Ratio (y) = 0.30748 0.07777
# Poissons Ratio (z) = 0.49101 0.07960
#
# Static dielectric constant tensor:
#      x y z
#    x 2.032410 -0.018210 0.054110 
#    y -0.018210 1.965440 0.029940 
#    z 0.054110 0.029940 1.933260 
# 
# From -- ./inp_files/507354.got.cif
#   From: 2010.05.17/outbox.cif.g08.bks.cpg/sg2_254_cif.got.tgz:507354.got - 2010.06.03 11:33:40.
