data_PCOD9014499
_publ_section_title
;
Structure prediction by ZEFSAII (Michael W. Deem and Ramdas Pophale) SiO2 
 PCOD9014499
Probable space group: P -1
;
_chemical_formula_sum "Si O2"
_cell_formula_units_Z 13
_cell_length_a 12.620221
_cell_length_b 20.739061
_cell_length_c 8.293965
_cell_angle_alpha 44.358765
_cell_angle_beta 120.154448
_cell_angle_gamma 152.592292
_cell_volume 636.781041
_symmetry_space_group_name_H-M "P -1"
_symmetry_group_IT_number 2
_symmetry_cell_setting 'triclinic'
loop_
_space_group_symop_operation_xyz
x,y,z
-x,-y,-z
loop_
_atom_site_type_symbol
_atom_site_label
_atom_site_fract_x
_atom_site_fract_y
_atom_site_fract_z
Si Si1 0.128595 0.341472 0.476477
Si Si2 0.505673 0.498620 0.257243
Si Si3 0.565827 0.968320 0.743002
Si Si4 0.500000 0.000000 0.000000
Si Si5 0.136448 0.545939 0.262139
Si Si6 0.717731 0.778164 0.668059
Si Si7 0.325657 0.677712 0.528286
O O1 0.291475 0.425747 0.293081
O O2 0.298301 0.407502 0.627824
O O3 0.095926 0.427472 0.340472
O O4 0.846830 0.115909 0.659231
O O5 0.360921 0.316561 0.394671
O O6 0.666486 0.660454 0.960504
O O7 0.500000 0.000000 0.500000
O O8 0.563395 0.014522 0.833664
O O9 0.357504 0.751223 0.984711
O O10 0.552709 0.144342 0.740934
O O11 0.204377 0.563368 0.469500
O O12 0.890693 0.447300 0.281060
O O13 0.529428 0.738155 0.630901
O O14 0.000000 0.000000 0.500000
#
# Coordination Sequence:
#
# PCOD9014499 Si02
#       7
#     2   2   2   1   2   2   2
#     4  11  23  47  67  96 142 176 227 287 346 411
#     4  10  26  44  68  97 135 188 226 281 343 407
#     4  11  26  41  68 106 137 179 230 284 350 421
#     4  10  22  42  70  98 138 182 216 294 346 408
#     4  10  22  41  69  96 136 177 221 287 351 411
#     4  11  25  44  70 100 135 181 235 282 331 422
#     4  10  21  41  68 102 131 179 229 279 353 408
#
# _framework density 20.415181
#
# number of rings (size 3 to 8) (size 9 to 14) (size 15 to 20)
#    0.000    1.538    3.077    0.000    6.462    4.308 
#    2.769    3.077    0.000    0.000    0.000    0.000 
#    0.000    0.000    0.000    0.000    0.000    0.000 
#
# Total GULP energy -72373.126107 kJ/mol
# GULP energy per Si atom -5567.163547 kJ/mol
# Density = 2.036872 g / cm^3
# Si number density = 20.415181 Si / 1000 Ang^3
#
#
#
# Elastic Constant Matrix: (Units=GPa)
#
#
# Indices 1 2 3 4 5 6 
#
# 1 90.6186 29.8483 23.3370 -27.7373 -1.5542 19.2434
# 2 29.8483 77.6677 35.1673 -21.8704 -7.2193 32.9092
# 3 23.3370 35.1673 81.2098 -26.3979 -10.2887 6.6607
# 4 -27.7373 -21.8704 -26.3979 25.4997 -4.6688 -6.5665
# 5 -1.5542 -7.2193 -10.2887 -4.6688 29.3102 -6.2046
# 6 19.2434 32.9092 6.6607 -6.5665 -6.2046 24.2776
#
#
#
# Elastic Compliance Matrix: (Units=1/GPa)
#
#
# Indices 1 2 3 4 5 6 
#
# 1 0.019813 0.006106 0.001475 0.024602 0.003423 -0.016858
# 2 0.006106 0.045548 -0.010562 0.019336 -0.001542 -0.058848
# 3 0.001475 -0.010562 0.025091 0.025346 0.013848 0.016659
# 4 0.024602 0.019336 0.025346 0.110196 0.029261 -0.015381
# 5 0.003423 -0.001542 0.013848 0.029261 0.046708 0.015430
# 6 -0.016858 -0.058848 0.016659 -0.015381 0.015430 0.129536
#
#
# Mechanical properties :
#
#
# Convention : Reuss Voigt Hill
#
# Bulk Modulus (GPa) = 11.83571 47.35569 29.59570
# Shear Modulus (GPa) = 12.16499 26.56039 19.36269
#
# Velocity S-wave (km/s) = 2.44371 3.61087 3.08303
# Velocity P-wave (km/s) = 3.71112 6.37426 5.21553
#
# Compressibility (1/GPa) = 0.08449010
#
# Stress axis : x y z
#
# Youngs Moduli (GPa) = 50.47246 21.95498 39.85553
#
# Poissons Ratio (x) = -0.13407 -0.05880
# Poissons Ratio (y) = -0.30820 0.42096
# Poissons Ratio (z) = -0.07446 0.23189
#
# Static dielectric constant tensor:
#      x y z
#    x 1.722610 -0.017550 -0.026410 
#    y -0.017550 1.753260 0.003280 
#    z -0.026410 0.003280 1.697410 
# 
# From -- ./inp_files/251242.got.cif
#   From: 2010.05.17/outbox.cif.g08.bks.cpg/sg2_126_cif.got.tgz:251242.got - 2010.06.03 11:33:40.
