data_PCOD9014960
_publ_section_title
;
Structure prediction by ZEFSAII (Michael W. Deem and Ramdas Pophale) SiO2 
 PCOD9014960
Probable space group: P -1
;
_chemical_formula_sum "Si O2"
_cell_formula_units_Z 16
_cell_length_a 19.887249
_cell_length_b 8.877454
_cell_length_c 20.415647
_cell_angle_alpha 130.721628
_cell_angle_beta 158.900930
_cell_angle_gamma 38.900754
_cell_volume 770.304277
_symmetry_space_group_name_H-M "P -1"
_symmetry_group_IT_number 2
_symmetry_cell_setting 'triclinic'
loop_
_space_group_symop_operation_xyz
x,y,z
-x,-y,-z
loop_
_atom_site_type_symbol
_atom_site_label
_atom_site_fract_x
_atom_site_fract_y
_atom_site_fract_z
Si Si1 0.200974 0.255980 0.484247
Si Si2 0.775171 0.285498 0.895825
Si Si3 0.103293 0.152555 0.650918
Si Si4 0.931190 0.508193 0.015000
Si Si5 0.428095 0.987612 0.359524
Si Si6 0.585341 0.090358 0.883887
Si Si7 0.461915 0.883015 0.005517
Si Si8 0.247569 0.632177 0.951957
O O1 0.343644 0.154634 0.653249
O O2 0.092882 0.549133 0.458365
O O3 0.979144 0.259218 0.269637
O O4 0.391456 0.072292 0.550040
O O5 0.750134 0.457385 0.862776
O O6 0.576475 0.249401 0.713040
O O7 0.808178 0.357441 0.018618
O O8 0.000000 0.000000 0.000000
O O9 0.342259 0.067740 0.804291
O O10 0.000000 0.000000 0.500000
O O11 0.205092 0.106567 0.804795
O O12 0.802372 0.792630 0.001488
O O13 0.000000 0.500000 0.000000
O O14 0.177944 0.264521 0.199376
O O15 0.500000 0.000000 0.500000
O O16 0.546093 0.194000 0.950582
O O17 0.658681 0.210270 0.932844
O O18 0.559541 0.651597 0.979014
#
# Coordination Sequence:
#
# PCOD9014960 Si02
#       8
#     2   2   2   2   2   2   2   2
#     4  11  23  41  67  93 131 176 219 265 326 398
#     4  10  21  41  70  90 128 177 209 268 330 385
#     4  10  23  41  65  96 131 170 227 268 319 391
#     4  11  23  42  64  96 132 167 215 273 329 381
#     4  11  23  42  67  97 127 171 222 265 328 397
#     4  12  24  43  66  96 140 171 215 277 331 378
#     4  10  25  40  66  98 132 177 218 275 328 381
#     4  11  23  44  68  95 132 176 222 260 332 398
#
# _framework density 20.771011999999999
#
# number of rings (size 3 to 8) (size 9 to 14) (size 15 to 20)
#    0.000    1.250    2.500    3.375    7.000    3.000 
#    2.250    1.250    0.000    0.000    0.000    0.000 
#    0.000    0.000    0.000    0.000    0.000    0.000 
#
# Total GULP energy -89209.800610 kJ/mol
# GULP energy per Si atom -5575.612538 kJ/mol
# Density = 2.072374 g / cm^3
# Si number density = 20.771012 Si / 1000 Ang^3
#
#
#
# Elastic Constant Matrix: (Units=GPa)
#
#
# Indices 1 2 3 4 5 6 
#
# 1 105.5796 25.8797 14.5655 -1.8848 -27.1563 0.3201
# 2 25.8797 91.5864 25.6789 -3.9560 0.2293 -2.6778
# 3 14.5655 25.6789 88.4568 -5.2124 -15.9904 5.9672
# 4 -1.8848 -3.9560 -5.2124 33.2747 2.3556 3.8740
# 5 -27.1563 0.2293 -15.9904 2.3556 32.8212 3.6341
# 6 0.3201 -2.6778 5.9672 3.8740 3.6341 35.0503
#
#
#
# Elastic Compliance Matrix: (Units=1/GPa)
#
#
# Indices 1 2 3 4 5 6 
#
# 1 0.013421 -0.004253 0.001311 -0.000168 0.011995 -0.001896
# 2 -0.004253 0.013481 -0.004425 0.000825 -0.006089 0.002362
# 3 0.001311 -0.004425 0.014238 0.001632 0.008358 -0.003821
# 4 -0.000168 0.000825 0.001632 0.030888 -0.001179 -0.003505
# 5 0.011995 -0.006089 0.008358 -0.001179 0.045319 -0.006566
# 6 -0.001896 0.002362 -0.003821 -0.003505 -0.006566 0.030447
#
#
# Mechanical properties :
#
#
# Convention : Reuss Voigt Hill
#
# Bulk Modulus (GPa) = 37.86822 46.43011 42.14917
# Shear Modulus (GPa) = 29.18334 34.86251 32.02292
#
# Velocity S-wave (km/s) = 3.75240 4.10130 3.93072
# Velocity P-wave (km/s) = 6.08645 6.69547 6.39821
#
# Compressibility (1/GPa) = 0.02640737
#
# Stress axis : x y z
#
# Youngs Moduli (GPa) = 74.50965 74.17912 70.23217
#
# Poissons Ratio (x) = 0.31546 -0.09207
# Poissons Ratio (y) = 0.31687 0.31076
# Poissons Ratio (z) = -0.09768 0.32823
#
# Static dielectric constant tensor:
#      x y z
#    x 1.799770 -0.006070 0.049080 
#    y -0.006070 1.772270 -0.010450 
#    z 0.049080 -0.010450 1.789470 
# 
# From -- ./inp_files/601201.got.cif
#   From: 2010.05.17/outbox.cif.g08.bks.cpg/sg2_301_cif.got.tgz:601201.got - 2010.06.03 11:33:40.
