data_PCOD9014584
_publ_section_title
;
Structure prediction by ZEFSAII (Michael W. Deem and Ramdas Pophale) SiO2 
 PCOD9014584
Probable space group: P -1
;
_chemical_formula_sum "Si O2"
_cell_formula_units_Z 14
_cell_length_a 11.641468
_cell_length_b 18.624316
_cell_length_c 9.491486
_cell_angle_alpha 43.880615
_cell_angle_beta 48.827346
_cell_angle_gamma 25.242207
_cell_volume 608.159397
_symmetry_space_group_name_H-M "P -1"
_symmetry_group_IT_number 2
_symmetry_cell_setting 'triclinic'
loop_
_space_group_symop_operation_xyz
x,y,z
-x,-y,-z
loop_
_atom_site_type_symbol
_atom_site_label
_atom_site_fract_x
_atom_site_fract_y
_atom_site_fract_z
Si Si1 0.391530 0.223582 0.953680
Si Si2 0.018036 0.800498 0.054837
Si Si3 0.163254 0.802056 0.656175
Si Si4 0.000801 0.109049 0.767334
Si Si5 0.819403 0.691600 0.311244
Si Si6 0.512948 0.376315 0.602852
Si Si7 0.731839 0.926605 0.638069
O O1 0.272692 0.274289 0.822614
O O2 0.347948 0.371582 0.806743
O O3 0.279392 0.192718 0.184464
O O4 0.712697 0.018600 0.982785
O O5 0.099275 0.763114 0.205123
O O6 0.994506 0.696795 0.172293
O O7 0.197656 0.757646 0.855428
O O8 0.445817 0.651432 0.558356
O O9 0.969074 0.826854 0.698263
O O10 0.000000 0.000000 0.500000
O O11 0.226126 0.047103 0.588200
O O12 0.811733 0.185394 0.683865
O O13 0.000000 0.000000 0.000000
O O14 0.000000 0.500000 0.500000
O O15 0.545182 0.871306 0.363734
O O16 0.500000 0.500000 0.500000
#
# Coordination Sequence:
#
# PCOD9014584 Si02
#       7
#     2   2   2   2   2   2   2
#     4  11  20  42  68  89 127 177 222 262 323 404
#     4  11  20  40  66  92 124 169 230 257 314 395
#     4  11  18  40  72  92 118 182 226 254 317 406
#     4  11  23  43  65  97 131 171 220 271 320 397
#     4  11  23  38  64 102 132 160 220 286 323 371
#     4  11  25  42  65  97 138 166 215 279 343 378
#     4  10  21  41  68  93 125 180 226 255 328 395
#
# _framework density 23.02028
#
# number of rings (size 3 to 8) (size 9 to 14) (size 15 to 20)
#    0.000    1.143    5.714    1.714    2.000    2.286 
#    2.571    3.571    0.000    0.000    0.000    0.000 
#    0.000    0.000    0.000    0.000    0.000    0.000 
#
# Total GULP energy -78018.156306 kJ/mol
# GULP energy per Si atom -5572.725450 kJ/mol
# Density = 2.296789 g / cm^3
# Si number density = 23.020280 Si / 1000 Ang^3
#
#
#
# Elastic Constant Matrix: (Units=GPa)
#
#
# Indices 1 2 3 4 5 6 
#
# 1 79.5728 5.2680 32.2448 -0.6373 -21.2855 17.0933
# 2 5.2680 49.9463 57.4533 -2.6135 -6.3941 11.1083
# 3 32.2448 57.4533 165.1345 19.6743 -32.5617 17.6149
# 4 -0.6373 -2.6135 19.6743 34.8036 13.3940 -0.6505
# 5 -21.2855 -6.3941 -32.5617 13.3940 57.2671 -9.4568
# 6 17.0933 11.1083 17.6149 -0.6505 -9.4568 28.4343
#
#
#
# Elastic Compliance Matrix: (Units=1/GPa)
#
#
# Indices 1 2 3 4 5 6 
#
# 1 0.016258 0.004574 -0.003456 0.001326 0.002887 -0.008429
# 2 0.004574 0.043402 -0.018954 0.017777 -0.010197 -0.010948
# 3 -0.003456 -0.018954 0.016839 -0.014805 0.009971 0.002028
# 4 0.001326 0.017777 -0.014805 0.044935 -0.016976 -0.003189
# 5 0.002887 -0.010197 0.009971 -0.016976 0.027853 0.004946
# 6 -0.008429 -0.010948 0.002028 -0.003189 0.004946 0.044829
#
#
# Mechanical properties :
#
#
# Convention : Reuss Voigt Hill
#
# Bulk Modulus (GPa) = 24.49392 53.84289 39.16840
# Shear Modulus (GPa) = 20.54265 37.41351 28.97808
#
# Velocity S-wave (km/s) = 2.99050 4.03580 3.55182
# Velocity P-wave (km/s) = 4.75262 6.71990 5.81998
#
# Compressibility (1/GPa) = 0.04082647
#
# Stress axis : x y z
#
# Youngs Moduli (GPa) = 61.50782 23.04051 59.38732
#
# Poissons Ratio (x) = -0.10538 0.20522
# Poissons Ratio (y) = -0.28132 1.12564
# Poissons Ratio (z) = 0.21254 0.43672
#
# Static dielectric constant tensor:
#      x y z
#    x 2.019860 -0.095680 -0.082770 
#    y -0.095680 2.050640 0.091800 
#    z -0.082770 0.091800 2.088500 
# 
# From -- ./inp_files/158108.got.cif
#   From: 2010.05.17/outbox.cif.g08.bks.cpg/sg2_80_cif.got.tgz:158108.got - 2010.06.03 11:33:40.
