data_PCOD9014417
_publ_section_title
;
Structure prediction by ZEFSAII (Michael W. Deem and Ramdas Pophale) SiO2 
 PCOD9014417
Probable space group: P -1
;
_chemical_formula_sum "Si O2"
_cell_formula_units_Z 16
_cell_length_a 6.151498
_cell_length_b 8.595704
_cell_length_c 21.247878
_cell_angle_alpha 130.098716
_cell_angle_beta 62.855991
_cell_angle_gamma 99.877543
_cell_volume 752.312644
_symmetry_space_group_name_H-M "P -1"
_symmetry_group_IT_number 2
_symmetry_cell_setting 'triclinic'
loop_
_space_group_symop_operation_xyz
x,y,z
-x,-y,-z
loop_
_atom_site_type_symbol
_atom_site_label
_atom_site_fract_x
_atom_site_fract_y
_atom_site_fract_z
Si Si1 0.967584 0.079272 0.729401
Si Si2 0.814006 0.929163 0.949085
Si Si3 0.686225 0.717588 0.638703
Si Si4 0.271961 0.371830 0.930260
Si Si5 0.293866 0.467060 0.092920
Si Si6 0.789313 0.923738 0.432397
Si Si7 0.186720 0.935440 0.789548
Si Si8 0.942971 0.684941 0.470264
O O1 0.135394 0.130280 0.663154
O O2 0.846124 0.298370 0.832736
O O3 0.111778 0.942425 0.729021
O O4 0.778911 0.935628 0.692954
O O5 0.843463 0.683925 0.890630
O O6 0.953687 0.957177 0.872953
O O7 0.500000 0.000000 0.000000
O O8 0.000000 0.000000 0.000000
O O9 0.416163 0.746430 0.713842
O O10 0.868749 0.527779 0.597460
O O11 0.719311 0.683515 0.549796
O O12 0.444142 0.504608 0.905385
O O13 0.285783 0.147303 0.843721
O O14 0.348634 0.357955 0.989690
O O15 0.000000 0.500000 0.000000
O O16 0.866907 0.734751 0.421396
O O17 0.500000 0.000000 0.500000
O O18 0.924027 0.119583 0.479952
#
# Coordination Sequence:
#
# PCOD9014417 Si02
#       8
#     2   2   2   2   2   2   2   2
#     4  11  24  39  65 101 127 177 238 287 345 431
#     4  12  29  47  68 103 145 192 244 306 373 431
#     4  10  22  42  65 101 134 181 232 285 363 430
#     4  11  21  40  69  90 127 181 228 285 351 422
#     4  11  24  41  65  96 131 178 237 285 358 413
#     4  10  21  41  67  97 133 174 226 282 358 426
#     4  12  24  42  70  98 141 184 240 297 358 438
#     4   9  21  42  68  94 139 179 220 289 358 436
#
# _framework density 21.267754
#
# number of rings (size 3 to 8) (size 9 to 14) (size 15 to 20)
#    0.000    1.250    3.750    1.500    3.500    3.000 
#    0.000    3.750    0.000    0.000    0.000    0.000 
#    0.000    0.000    0.000    0.000    0.000    0.000 
#
# Total GULP energy -89108.577232 kJ/mol
# GULP energy per Si atom -5569.286077 kJ/mol
# Density = 2.121935 g / cm^3
# Si number density = 21.267754 Si / 1000 Ang^3
#
#
#
# Elastic Constant Matrix: (Units=GPa)
#
#
# Indices 1 2 3 4 5 6 
#
# 1 66.6455 30.2220 42.1881 -17.7416 -18.7296 -0.6630
# 2 30.2220 102.5089 27.6096 -11.5758 -6.2502 -0.9251
# 3 42.1881 27.6096 100.8329 -18.7438 -21.3965 -7.3277
# 4 -17.7416 -11.5758 -18.7438 40.5248 -4.2226 4.1036
# 5 -18.7296 -6.2502 -21.3965 -4.2226 32.0612 0.7980
# 6 -0.6630 -0.9251 -7.3277 4.1036 0.7980 30.2524
#
#
#
# Elastic Compliance Matrix: (Units=1/GPa)
#
#
# Indices 1 2 3 4 5 6 
#
# 1 0.026495 -0.004511 -0.005787 0.009139 0.012003 -0.002515
# 2 -0.004511 0.011450 -0.001436 0.000510 -0.001292 -0.000132
# 3 -0.005787 -0.001436 0.015284 0.004587 0.007076 0.002722
# 4 0.009139 0.000510 0.004587 0.032635 0.012884 -0.003440
# 5 0.012003 -0.001292 0.007076 0.012884 0.044394 -0.000981
# 6 -0.002515 -0.000132 0.002722 -0.003440 -0.000981 0.034148
#
#
# Mechanical properties :
#
#
# Convention : Reuss Voigt Hill
#
# Bulk Modulus (GPa) = 33.60336 52.22517 42.91426
# Shear Modulus (GPa) = 25.27866 31.89887 28.58877
#
# Velocity S-wave (km/s) = 3.45134 3.87702 3.67035
# Velocity P-wave (km/s) = 5.63176 6.68214 6.17931
#
# Compressibility (1/GPa) = 0.02975893
#
# Stress axis : x y z
#
# Youngs Moduli (GPa) = 37.74292 87.33736 65.42827
#
# Poissons Ratio (x) = 0.39402 0.37864
# Poissons Ratio (y) = 0.17028 0.09398
# Poissons Ratio (z) = 0.21842 0.12545
#
# Static dielectric constant tensor:
#      x y z
#    x 1.944830 0.010820 -0.018480 
#    y 0.010820 1.756680 -0.017210 
#    z -0.018480 -0.017210 1.762070 
# 
# From -- ./inp_files/217801.got.cif
#   From: 2010.05.17/outbox.cif.g08.bks.cpg/sg2_109_cif.got.tgz:217801.got - 2010.06.03 11:33:40.
