data_PCOD9014868
_publ_section_title
;
Structure prediction by ZEFSAII (Michael W. Deem and Ramdas Pophale) SiO2 
 PCOD9014868
Probable space group: P -1
;
_chemical_formula_sum "Si O2"
_cell_formula_units_Z 16
_cell_length_a 18.251876
_cell_length_b 11.697394
_cell_length_c 9.012699
_cell_angle_alpha 38.817009
_cell_angle_beta 142.701871
_cell_angle_gamma 146.739869
_cell_volume 600.701782
_symmetry_space_group_name_H-M "P -1"
_symmetry_group_IT_number 2
_symmetry_cell_setting 'triclinic'
loop_
_space_group_symop_operation_xyz
x,y,z
-x,-y,-z
loop_
_atom_site_type_symbol
_atom_site_label
_atom_site_fract_x
_atom_site_fract_y
_atom_site_fract_z
Si Si1 0.556736 0.850792 0.279980
Si Si2 0.807895 0.260964 0.838162
Si Si3 0.328443 0.082570 0.278891
Si Si4 0.761021 0.555607 0.851119
Si Si5 0.957834 0.402599 0.362560
Si Si6 0.223852 0.113379 0.650250
Si Si7 0.844967 0.736734 0.135413
Si Si8 0.653117 0.482269 0.352049
O O1 0.643463 0.946226 0.477188
O O2 0.411907 0.597708 0.312766
O O3 0.660620 0.864658 0.304381
O O4 0.500000 0.000000 0.000000
O O5 0.941689 0.434893 0.773660
O O6 0.730156 0.373571 0.666668
O O7 0.691240 0.084606 0.708432
O O8 0.846934 0.129334 0.146353
O O9 0.479414 0.315329 0.248372
O O10 0.179682 0.074809 0.054065
O O11 0.846479 0.772067 0.663151
O O12 0.793347 0.658974 0.963724
O O13 0.811494 0.388705 0.108720
O O14 0.998763 0.223023 0.617227
O O15 0.000000 0.500000 0.500000
O O16 0.298188 0.286382 0.730560
O O17 0.725087 0.536004 0.251016
#
# Coordination Sequence:
#
# PCOD9014868 Si02
#       8
#     2   2   2   2   2   2   2   2
#     4  12  27  41  69 111 144 181 226 289 361 412
#     4  11  26  43  70 106 140 182 238 280 343 419
#     4  12  22  41  68 106 142 176 231 287 354 416
#     4  11  23  45  70  96 146 188 230 283 345 416
#     4   9  23  47  71  95 136 188 242 280 334 412
#     4  12  24  44  71 105 146 178 229 289 353 420
#     4  10  21  41  69  97 133 187 232 276 343 406
#     4  11  23  41  67 105 143 181 220 289 357 400
#
# _framework density 26.635514000000001
#
# number of rings (size 3 to 8) (size 9 to 14) (size 15 to 20)
#    0.000    1.000    3.750    2.625    7.000    0.500 
#    0.000    6.250    0.000    0.000    0.000    0.000 
#    0.000    0.000    0.000    0.000    0.000    0.000 
#
# Total GULP energy -89568.963191 kJ/mol
# GULP energy per Si atom -5598.060199 kJ/mol
# Density = 2.657489 g / cm^3
# Si number density = 26.635514 Si / 1000 Ang^3
#
#
#
# Elastic Constant Matrix: (Units=GPa)
#
#
# Indices 1 2 3 4 5 6 
#
# 1 116.9975 23.2291 53.2603 -1.5063 -5.0219 -1.4028
# 2 23.2291 85.9841 34.7369 -12.8401 -4.5037 -6.4504
# 3 53.2603 34.7369 181.3815 -7.1287 -0.5902 -6.5159
# 4 -1.5063 -12.8401 -7.1287 40.6701 -4.2494 2.1735
# 5 -5.0219 -4.5037 -0.5902 -4.2494 63.9799 -3.0480
# 6 -1.4028 -6.4504 -6.5159 2.1735 -3.0480 35.5874
#
#
#
# Elastic Compliance Matrix: (Units=1/GPa)
#
#
# Indices 1 2 3 4 5 6 
#
# 1 0.010122 -0.001731 -0.002672 -0.000561 0.000596 -0.000319
# 2 -0.001731 0.013649 -0.001878 0.003934 0.001160 0.001921
# 3 -0.002672 -0.001878 0.006700 0.000420 -0.000217 0.000737
# 4 -0.000561 0.003934 0.000420 0.026121 0.001940 -0.000661
# 5 0.000596 0.001160 -0.000217 0.001940 0.015954 0.001442
# 6 -0.000319 0.001921 0.000737 -0.000661 0.001442 0.028734
#
#
# Mechanical properties :
#
#
# Convention : Reuss Voigt Hill
#
# Bulk Modulus (GPa) = 55.84311 67.42396 61.63354
# Shear Modulus (GPa) = 41.73184 46.25659 43.99421
#
# Velocity S-wave (km/s) = 3.96254 4.17184 4.06854
# Velocity P-wave (km/s) = 6.47664 6.96951 6.72759
#
# Compressibility (1/GPa) = 0.01790731
#
# Stress axis : x y z
#
# Youngs Moduli (GPa) = 98.79566 73.26554 149.25728
#
# Poissons Ratio (x) = 0.12686 0.39883
# Poissons Ratio (y) = 0.17106 0.28032
# Poissons Ratio (z) = 0.26399 0.13760
#
# Static dielectric constant tensor:
#      x y z
#    x 2.017730 0.018990 -0.025690 
#    y 0.018990 2.111610 -0.022770 
#    z -0.025690 -0.022770 2.152840 
# 
# From -- ./inp_files/332795.got.cif
#   From: 2010.05.17/outbox.cif.g08.bks.cpg/sg2_167_cif.got.tgz:332795.got - 2010.06.03 11:33:40.
