data_PCOD9014924
_publ_section_title
;
Structure prediction by ZEFSAII (Michael W. Deem and Ramdas Pophale) SiO2 
 PCOD9014924
Probable space group: P -1
;
_chemical_formula_sum "Si O2"
_cell_formula_units_Z 16
_cell_length_a 12.800003
_cell_length_b 7.354360
_cell_length_c 20.085178
_cell_angle_alpha 36.748497
_cell_angle_beta 143.036410
_cell_angle_gamma 119.424986
_cell_volume 619.185510
_symmetry_space_group_name_H-M "P -1"
_symmetry_group_IT_number 2
_symmetry_cell_setting 'triclinic'
loop_
_space_group_symop_operation_xyz
x,y,z
-x,-y,-z
loop_
_atom_site_type_symbol
_atom_site_label
_atom_site_fract_x
_atom_site_fract_y
_atom_site_fract_z
Si Si1 0.010341 0.633720 0.393015
Si Si2 0.346708 0.361670 0.442066
Si Si3 0.036869 0.650387 0.880451
Si Si4 0.670930 0.670641 0.112524
Si Si5 0.073558 0.268864 0.878972
Si Si6 0.707752 0.524449 0.775346
Si Si7 0.537476 0.745194 0.805227
Si Si8 0.439015 0.228935 0.733074
O O1 0.824458 0.675854 0.243138
O O2 0.000000 0.500000 0.500000
O O3 0.221136 0.365830 0.558839
O O4 0.011317 0.996919 0.282231
O O5 0.500000 0.500000 0.500000
O O6 0.336284 0.362481 0.357148
O O7 0.140303 0.597459 0.296037
O O8 0.408108 0.000915 0.610285
O O9 0.048984 0.378045 0.910729
O O10 0.855716 0.686040 0.823407
O O11 0.263594 0.498185 0.057222
O O12 0.810276 0.552977 0.153384
O O13 0.566159 0.456135 0.151550
O O14 0.502412 0.006578 0.897993
O O15 0.167733 0.873664 0.032799
O O16 0.503374 0.528442 0.689594
O O17 0.554801 0.988429 0.801259
#
# Coordination Sequence:
#
# PCOD9014924 Si02
#       8
#     2   2   2   2   2   2   2   2
#     4  12  30  47  66 100 148 184 227 283 346 410
#     4  11  19  32  61 105 134 162 219 286 343 391
#     4  11  23  44  69 100 137 181 221 282 346 399
#     4  11  26  45  71  99 138 183 234 281 341 406
#     4  10  21  41  70  99 133 173 232 288 334 399
#     4  10  21  41  70 101 137 173 228 287 337 405
#     4  12  23  40  73 105 131 181 234 285 336 405
#     4  11  24  47  72 101 138 179 230 289 341 405
#
# _framework density 25.840398
#
# number of rings (size 3 to 8) (size 9 to 14) (size 15 to 20)
#    0.000    1.000    3.750    4.125    5.250    3.500 
#    0.000    2.500    0.000    0.000    0.000    0.000 
#    0.000    0.000    0.000    0.000    0.000    0.000 
#
# Total GULP energy -89415.595821 kJ/mol
# GULP energy per Si atom -5588.474739 kJ/mol
# Density = 2.578158 g / cm^3
# Si number density = 25.840398 Si / 1000 Ang^3
#
#
#
# Elastic Constant Matrix: (Units=GPa)
#
#
# Indices 1 2 3 4 5 6 
#
# 1 101.1753 35.4949 33.7464 -11.4987 -7.2886 32.9344
# 2 35.4949 86.5876 21.6683 5.5091 4.0033 19.6046
# 3 33.7464 21.6683 159.2458 5.1493 -12.1350 4.0873
# 4 -11.4987 5.5091 5.1493 45.6587 7.9903 -7.5005
# 5 -7.2886 4.0033 -12.1350 7.9903 43.3267 0.5358
# 6 32.9344 19.6046 4.0873 -7.5005 0.5358 51.6019
#
#
#
# Elastic Compliance Matrix: (Units=1/GPa)
#
#
# Indices 1 2 3 4 5 6 
#
# 1 0.015019 -0.004159 -0.002390 0.003029 0.001775 -0.007395
# 2 -0.004159 0.014501 -0.001051 -0.002892 -0.001761 -0.003173
# 3 -0.002390 -0.001051 0.007093 -0.001426 0.001931 0.001135
# 4 0.003029 -0.002892 -0.001426 0.024371 -0.004153 0.002864
# 5 0.001775 -0.001761 0.001931 -0.004153 0.024867 -0.001478
# 6 -0.007395 -0.003173 0.001135 0.002864 -0.001478 0.025646
#
#
# Mechanical properties :
#
#
# Convention : Reuss Voigt Hill
#
# Bulk Modulus (GPa) = 46.70008 58.75865 52.72937
# Shear Modulus (GPa) = 37.35943 45.19075 41.27509
#
# Velocity S-wave (km/s) = 3.80646 4.18645 4.00097
# Velocity P-wave (km/s) = 6.11806 6.79389 6.46481
#
# Compressibility (1/GPa) = 0.02141324
#
# Stress axis : x y z
#
# Youngs Moduli (GPa) = 66.58137 68.96114 140.98142
#
# Poissons Ratio (x) = 0.28683 0.33691
# Poissons Ratio (y) = 0.27693 0.14817
# Poissons Ratio (z) = 0.15911 0.07248
#
# Static dielectric constant tensor:
#      x y z
#    x 2.129510 -0.035230 0.062170 
#    y -0.035230 2.070890 0.086610 
#    z 0.062170 0.086610 2.085110 
# 
# From -- ./inp_files/611738.got.cif
#   From: 2010.05.17/outbox.cif.g08.bks.cpg/sg2_306_cif.got.tgz:611738.got - 2010.06.03 11:33:40.
