data_PCOD9014313
_publ_section_title
;
Structure prediction by ZEFSAII (Michael W. Deem and Ramdas Pophale) SiO2 
 PCOD9014313
Probable space group: P -1
;
_chemical_formula_sum "Si O2"
_cell_formula_units_Z 14
_cell_length_a 21.966830
_cell_length_b 5.076007
_cell_length_c 6.542083
_cell_angle_alpha 72.653101
_cell_angle_beta 56.216901
_cell_angle_gamma 88.921175
_cell_volume 568.703244
_symmetry_space_group_name_H-M "P -1"
_symmetry_group_IT_number 2
_symmetry_cell_setting 'triclinic'
loop_
_space_group_symop_operation_xyz
x,y,z
-x,-y,-z
loop_
_atom_site_type_symbol
_atom_site_label
_atom_site_fract_x
_atom_site_fract_y
_atom_site_fract_z
Si Si1 0.922473 0.518984 0.753977
Si Si2 0.926253 0.914303 0.025333
Si Si3 0.434399 0.121070 0.699202
Si Si4 0.272697 0.982903 0.878134
Si Si5 0.817677 0.461180 0.598920
Si Si6 0.463464 0.634922 0.224621
Si Si7 0.705252 0.392031 0.460798
O O1 0.940658 0.774164 0.817621
O O2 0.858411 0.581205 0.706400
O O3 0.000000 0.500000 0.500000
O O4 0.898162 0.209383 0.975969
O O5 0.875512 0.651435 0.294227
O O6 0.000000 0.000000 0.000000
O O7 0.352230 0.956453 0.839969
O O8 0.438678 0.415868 0.507607
O O9 0.466270 0.156539 0.859470
O O10 0.500000 0.000000 0.500000
O O11 0.275267 0.308171 0.757643
O O12 0.270969 0.827526 0.696135
O O13 0.207643 0.855243 0.187688
O O14 0.745278 0.450262 0.591850
O O15 0.382626 0.701893 0.314265
O O16 0.500000 0.500000 0.000000
#
# Coordination Sequence:
#
# PCOD9014313 Si02
#       7
#     2   2   2   2   2   2   2
#     4  12  27  49  78 113 147 189 240 294 359 429
#     4  12  27  49  78 114 144 185 247 293 351 439
#     4  10  21  41  67  93 136 181 237 299 346 417
#     4  11  26  47  69 103 147 191 242 298 365 422
#     4  12  28  46  79 102 155 189 237 297 369 418
#     4  10  23  40  68 100 133 185 245 297 354 421
#     4  11  26  47  67 106 146 189 245 297 357 439
#
# _framework density 24.617407
#
# number of rings (size 3 to 8) (size 9 to 14) (size 15 to 20)
#    0.000    0.857    2.857    2.571    2.000    6.286 
#    0.000    0.000    0.000    0.000    0.000    0.000 
#    0.000    0.000    0.000    0.000    0.000    0.000 
#
# Total GULP energy -78004.389154 kJ/mol
# GULP energy per Si atom -5571.742082 kJ/mol
# Density = 2.456138 g / cm^3
# Si number density = 24.617407 Si / 1000 Ang^3
#
#
#
# Elastic Constant Matrix: (Units=GPa)
#
#
# Indices 1 2 3 4 5 6 
#
# 1 183.6475 40.9474 44.1316 17.6795 21.3829 39.2921
# 2 40.9474 121.3745 37.9322 8.0854 -3.5605 20.1634
# 3 44.1316 37.9322 122.8247 -32.7801 -11.5787 17.8360
# 4 17.6795 8.0854 -32.7801 49.9159 16.1190 6.6667
# 5 21.3829 -3.5605 -11.5787 16.1190 36.6398 2.0709
# 6 39.2921 20.1634 17.8360 6.6667 2.0709 31.2152
#
#
#
# Elastic Compliance Matrix: (Units=1/GPa)
#
#
# Indices 1 2 3 4 5 6 
#
# 1 0.008784 -0.000719 -0.002767 -0.002217 -0.004630 -0.008230
# 2 -0.000719 0.010377 -0.003304 -0.003902 0.002283 -0.003228
# 3 -0.002767 -0.003304 0.013845 0.010860 0.001156 -0.004690
# 4 -0.002217 -0.003902 0.010860 0.032651 -0.009609 -0.007230
# 5 -0.004630 0.002283 0.001156 -0.009609 0.034615 0.003448
# 6 -0.008230 -0.003228 -0.004690 -0.007230 0.003448 0.048476
#
#
# Mechanical properties :
#
#
# Convention : Reuss Voigt Hill
#
# Bulk Modulus (GPa) = 51.47869 74.87434 63.17652
# Shear Modulus (GPa) = 29.62027 43.87653 36.74840
#
# Velocity S-wave (km/s) = 3.47252 4.22635 3.86784
# Velocity P-wave (km/s) = 6.08562 7.36867 6.75766
#
# Compressibility (1/GPa) = 0.01942551
#
# Stress axis : x y z
#
# Youngs Moduli (GPa) = 113.84261 96.36391 72.23040
#
# Poissons Ratio (x) = 0.06933 0.19987
# Poissons Ratio (y) = 0.08191 0.23863
# Poissons Ratio (z) = 0.31501 0.31836
#
# Static dielectric constant tensor:
#      x y z
#    x 1.976390 0.028800 0.003460 
#    y 0.028800 2.194560 0.096630 
#    z 0.003460 0.096630 2.002720 
# 
# From -- ./inp_files/114418.got.cif
#   From: 2010.05.17/outbox.cif.g08.bks.cpg/sg2_58_cif.got.tgz:114418.got - 2010.06.03 11:33:40.
