data_PCOD9014361
_publ_section_title
;
Structure prediction by ZEFSAII (Michael W. Deem and Ramdas Pophale) SiO2 
 PCOD9014361
Probable space group: P -1
;
_chemical_formula_sum "Si O2"
_cell_formula_units_Z 16
_cell_length_a 11.286359
_cell_length_b 9.402786
_cell_length_c 14.610297
_cell_angle_alpha 113.035827
_cell_angle_beta 33.480730
_cell_angle_gamma 101.172250
_cell_volume 759.802239
_symmetry_space_group_name_H-M "P -1"
_symmetry_group_IT_number 2
_symmetry_cell_setting 'triclinic'
loop_
_space_group_symop_operation_xyz
x,y,z
-x,-y,-z
loop_
_atom_site_type_symbol
_atom_site_label
_atom_site_fract_x
_atom_site_fract_y
_atom_site_fract_z
Si Si1 0.147688 0.995668 0.812606
Si Si2 0.690977 0.551355 0.449366
Si Si3 0.599170 0.868988 0.700179
Si Si4 0.816923 0.195631 0.939024
Si Si5 0.153057 0.733819 0.600213
Si Si6 0.763779 0.930125 0.791337
Si Si7 0.104642 0.476862 0.028796
Si Si8 0.519459 0.850512 0.283035
O O1 0.156984 0.830225 0.715745
O O2 0.384950 0.025307 0.687543
O O3 0.027801 0.132017 0.852747
O O4 0.000000 0.000000 0.000000
O O5 0.500000 0.500000 0.500000
O O6 0.648694 0.735137 0.555310
O O7 0.745451 0.448362 0.481989
O O8 0.904924 0.505360 0.235770
O O9 0.780440 0.861343 0.661117
O O10 0.545439 0.049118 0.741990
O O11 0.382424 0.840970 0.883332
O O12 0.775521 0.381931 0.996768
O O13 0.853763 0.084475 0.797176
O O14 0.315640 0.796075 0.443447
O O15 0.905511 0.792128 0.732393
O O16 0.500000 0.000000 0.000000
O O17 0.274137 0.305716 0.893067
O O18 0.000000 0.500000 0.000000
#
# Coordination Sequence:
#
# PCOD9014361 Si02
#       8
#     2   2   2   2   2   2   2   2
#     4  11  20  36  65  98 132 174 218 274 341 405
#     4  12  27  43  67 104 141 173 223 280 343 404
#     4  11  24  44  70  97 134 178 228 279 330 400
#     4  10  21  41  67  95 133 175 221 277 334 397
#     4  11  25  42  66  97 139 178 227 278 333 402
#     4   9  23  45  74  94 131 181 235 273 335 393
#     4  12  25  42  65 100 140 176 217 276 344 406
#     4  12  24  39  67 101 135 175 224 273 346 400
#
# _framework density 21.058112999999999
#
# number of rings (size 3 to 8) (size 9 to 14) (size 15 to 20)
#    0.000    1.000    2.500    4.125    7.000    1.000 
#    0.000    0.625    0.000    0.000    0.000    0.000 
#    0.000    0.000    0.000    0.000    0.000    0.000 
#
# Total GULP energy -89364.424521 kJ/mol
# GULP energy per Si atom -5585.276533 kJ/mol
# Density = 2.101018 g / cm^3
# Si number density = 21.058113 Si / 1000 Ang^3
#
#
#
# Elastic Constant Matrix: (Units=GPa)
#
#
# Indices 1 2 3 4 5 6 
#
# 1 104.8463 39.3631 16.5696 12.8153 -6.5978 -3.1887
# 2 39.3631 129.2994 31.8765 10.1142 0.5715 -21.1570
# 3 16.5696 31.8765 94.0833 -1.2555 0.9285 -6.8453
# 4 12.8153 10.1142 -1.2555 43.9800 0.4768 1.0133
# 5 -6.5978 0.5715 0.9285 0.4768 26.6610 12.2888
# 6 -3.1887 -21.1570 -6.8453 1.0133 12.2888 19.9030
#
#
#
# Elastic Compliance Matrix: (Units=1/GPa)
#
#
# Indices 1 2 3 4 5 6 
#
# 1 0.011800 -0.004230 -0.001228 -0.002413 0.006201 -0.006735
# 2 -0.004230 0.012726 -0.002183 -0.002070 -0.009550 0.018101
# 3 -0.001228 -0.002183 0.011814 0.001156 -0.001921 0.002673
# 4 -0.002413 -0.002070 0.001156 0.024031 0.000769 -0.003887
# 5 0.006201 -0.009550 -0.001921 0.000769 0.061286 -0.047698
# 6 -0.006735 0.018101 0.002673 -0.003887 -0.047698 0.098974
#
#
# Mechanical properties :
#
#
# Convention : Reuss Voigt Hill
#
# Bulk Modulus (GPa) = 47.49069 55.98303 51.73686
# Shear Modulus (GPa) = 20.58178 34.13680 27.35929
#
# Velocity S-wave (km/s) = 3.12970 4.03063 3.60839
# Velocity P-wave (km/s) = 5.97170 6.95011 6.47940
#
# Compressibility (1/GPa) = 0.02105676
#
# Stress axis : x y z
#
# Youngs Moduli (GPa) = 84.74291 78.57944 84.64709
#
# Poissons Ratio (x) = 0.33241 0.10398
# Poissons Ratio (y) = 0.35848 0.18479
# Poissons Ratio (z) = 0.10410 0.17154
#
# Static dielectric constant tensor:
#      x y z
#    x 1.822180 -0.003850 -0.007180 
#    y -0.003850 1.787860 0.017370 
#    z -0.007180 0.017370 1.791990 
# 
# From -- ./inp_files/329400.got.cif
#   From: 2010.05.17/outbox.cif.g08.bks.cpg/sg2_165_cif.got.tgz:329400.got - 2010.06.03 11:33:40.
