data_PCOD9014454
_publ_section_title
;
Structure prediction by ZEFSAII (Michael W. Deem and Ramdas Pophale) SiO2 
 PCOD9014454
Probable space group: P -1
;
_chemical_formula_sum "Si O2"
_cell_formula_units_Z 14
_cell_length_a 7.284509
_cell_length_b 15.060168
_cell_length_c 14.563881
_cell_angle_alpha 30.702532
_cell_angle_beta 133.853812
_cell_angle_gamma 135.826585
_cell_volume 555.297187
_symmetry_space_group_name_H-M "P -1"
_symmetry_group_IT_number 2
_symmetry_cell_setting 'triclinic'
loop_
_space_group_symop_operation_xyz
x,y,z
-x,-y,-z
loop_
_atom_site_type_symbol
_atom_site_label
_atom_site_fract_x
_atom_site_fract_y
_atom_site_fract_z
Si Si1 0.390439 0.642452 0.956565
Si Si2 0.063742 0.642086 0.031397
Si Si3 0.732275 0.004528 0.457731
Si Si4 0.835652 0.605353 0.263017
Si Si5 0.390493 0.429862 0.424685
Si Si6 0.836054 0.219948 0.619868
Si Si7 0.065835 0.030442 0.720374
O O1 0.245905 0.451287 0.024260
O O2 0.329964 0.804626 0.737385
O O3 0.690373 0.665590 0.074124
O O4 0.229855 0.646265 0.991853
O O5 0.149172 0.505938 0.247868
O O6 0.145453 0.847910 0.914595
O O7 0.803334 0.973924 0.613720
O O8 0.473163 0.865107 0.442352
O O9 0.000000 0.000000 0.500000
O O10 0.609262 0.518529 0.341673
O O11 0.922671 0.429491 0.427217
O O12 0.076186 0.759803 0.260889
O O13 0.500000 0.500000 0.500000
O O14 0.280034 0.208467 0.588674
O O15 0.993933 0.103572 0.726146
#
# Coordination Sequence:
#
# PCOD9014454 Si02
#       7
#     2   2   2   2   2   2   2
#     4  10  21  41  67  99 129 175 233 272 327 398
#     4  10  22  39  68 102 133 168 229 282 318 401
#     4  12  23  42  71  98 129 181 229 275 332 402
#     4  10  23  45  66  94 140 180 217 279 333 400
#     4  11  22  43  71  99 132 179 225 268 338 401
#     4  11  25  43  64  97 139 179 217 278 344 389
#     4  12  23  43  67 103 135 173 223 280 333 393
#
# _framework density 25.211725999999999
#
# number of rings (size 3 to 8) (size 9 to 14) (size 15 to 20)
#    0.000    1.143    4.286    2.143    2.000    1.143 
#    2.571    1.429    0.000    0.000    0.000    0.000 
#    0.000    0.000    0.000    0.000    0.000    0.000 
#
# Total GULP energy -78379.998783 kJ/mol
# GULP energy per Si atom -5598.571342 kJ/mol
# Density = 2.515434 g / cm^3
# Si number density = 25.211726 Si / 1000 Ang^3
#
#
#
# Elastic Constant Matrix: (Units=GPa)
#
#
# Indices 1 2 3 4 5 6 
#
# 1 65.1722 26.7342 24.6593 -11.4825 -3.2323 1.4633
# 2 26.7342 165.5370 32.7194 -14.5916 16.3752 -0.7794
# 3 24.6593 32.7194 63.2977 -7.1762 18.5223 -8.7816
# 4 -11.4825 -14.5916 -7.1762 38.5951 -0.4322 16.9480
# 5 -3.2323 16.3752 18.5223 -0.4322 28.7742 -0.9160
# 6 1.4633 -0.7794 -8.7816 16.9480 -0.9160 38.2924
#
#
#
# Elastic Compliance Matrix: (Units=1/GPa)
#
#
# Indices 1 2 3 4 5 6 
#
# 1 0.021977 -0.001908 -0.010687 0.006577 0.010342 -0.005993
# 2 -0.001908 0.007254 -0.002039 0.002361 -0.003038 -0.001365
# 3 -0.010687 -0.002039 0.026733 -0.002290 -0.017057 0.007103
# 4 0.006577 0.002361 -0.002290 0.035567 0.000880 -0.016449
# 5 0.010342 -0.003038 -0.017057 0.000880 0.048523 -0.003598
# 6 -0.005993 -0.001365 0.007103 -0.016449 -0.003598 0.035139
#
#
# Mechanical properties :
#
#
# Convention : Reuss Voigt Hill
#
# Bulk Modulus (GPa) = 37.46078 51.35919 44.40999
# Shear Modulus (GPa) = 23.43447 35.12528 29.27988
#
# Velocity S-wave (km/s) = 3.05209 3.73662 3.41157
# Velocity P-wave (km/s) = 5.22600 6.24755 5.75947
#
# Compressibility (1/GPa) = 0.02669459
#
# Stress axis : x y z
#
# Youngs Moduli (GPa) = 45.50213 137.84712 37.40697
#
# Poissons Ratio (x) = 0.26306 0.39979
# Poissons Ratio (y) = 0.08683 0.07627
# Poissons Ratio (z) = 0.48630 0.28108
#
# Static dielectric constant tensor:
#      x y z
#    x 2.125450 0.045850 -0.008910 
#    y 0.045850 2.012300 0.012680 
#    z -0.008910 0.012680 1.967620 
# 
# From -- ./inp_files/256653.got.cif
#   From: 2010.05.17/outbox.cif.g08.bks.cpg/sg2_129_cif.got.tgz:256653.got - 2010.06.03 11:33:40.
