data_PCOD9014296
_publ_section_title
;
Structure prediction by ZEFSAII (Michael W. Deem and Ramdas Pophale) SiO2 
 PCOD9014296
Probable space group: P -1
;
_chemical_formula_sum "Si O2"
_cell_formula_units_Z 11
_cell_length_a 5.872636
_cell_length_b 15.193797
_cell_length_c 16.125522
_cell_angle_alpha 161.968929
_cell_angle_beta 110.745181
_cell_angle_gamma 71.015555
_cell_volume 416.164136
_symmetry_space_group_name_H-M "P -1"
_symmetry_group_IT_number 2
_symmetry_cell_setting 'triclinic'
loop_
_space_group_symop_operation_xyz
x,y,z
-x,-y,-z
loop_
_atom_site_type_symbol
_atom_site_label
_atom_site_fract_x
_atom_site_fract_y
_atom_site_fract_z
Si Si1 0.500000 0.500000 0.500000
Si Si2 0.674801 0.971179 0.185892
Si Si3 0.080796 0.461103 0.276721
Si Si4 0.769934 0.281716 0.769668
Si Si5 0.479715 0.152582 0.767240
Si Si6 0.762347 0.161365 0.088951
O O1 0.281337 0.405399 0.322298
O O2 0.698003 0.366062 0.337905
O O3 0.531606 0.966550 0.248949
O O4 0.892563 0.204201 0.428505
O O5 0.807426 0.687929 0.922745
O O6 0.474320 0.044242 0.153013
O O7 0.830339 0.338129 0.172308
O O8 0.708452 0.141143 0.724961
O O9 0.734006 0.031187 0.473627
O O10 0.563120 0.510387 0.928859
O O11 0.000000 0.500000 0.000000
O O12 0.000000 0.000000 0.000000
#
# Coordination Sequence:
#
# PCOD9014296 Si02
#       6
#     1   2   2   2   2   2
#     4  10  22  42  64  90 126 170 228 286 330 394
#     4  11  25  41  62  98 136 171 222 282 333 398
#     4  11  23  41  64  92 128 173 222 277 339 395
#     4  10  21  41  67  93 126 173 216 262 329 403
#     4  10  22  40  63  96 133 166 215 273 326 395
#     4  11  24  44  69  96 133 183 232 281 341 399
#
# _framework density 26.431878999999999
#
# number of rings (size 3 to 8) (size 9 to 14) (size 15 to 20)
#    0.000    1.455    0.000    4.364    0.000   10.182 
#    0.000    2.727    0.000    0.000    0.000    0.000 
#    0.000    0.000    0.000    0.000    0.000    0.000 
#
# Total GULP energy -61370.428647 kJ/mol
# GULP energy per Si atom -5579.129877 kJ/mol
# Density = 2.637172 g / cm^3
# Si number density = 26.431879 Si / 1000 Ang^3
#
#
#
# Elastic Constant Matrix: (Units=GPa)
#
#
# Indices 1 2 3 4 5 6 
#
# 1 92.0669 27.3360 48.2465 -17.1378 17.8818 25.9506
# 2 27.3360 101.7239 19.2958 -28.9850 4.7111 26.7815
# 3 48.2465 19.2958 169.2543 -19.7310 2.4865 7.1251
# 4 -17.1378 -28.9850 -19.7310 37.5563 12.1856 -9.2410
# 5 17.8818 4.7111 2.4865 12.1856 58.4648 10.2520
# 6 25.9506 26.7815 7.1251 -9.2410 10.2520 41.9613
#
#
#
# Elastic Compliance Matrix: (Units=1/GPa)
#
#
# Indices 1 2 3 4 5 6 
#
# 1 0.016903 -0.000129 -0.003796 0.005373 -0.004827 -0.007364
# 2 -0.000129 0.014607 -0.000130 0.010256 -0.002141 -0.006439
# 3 -0.003796 -0.000130 0.007206 0.002348 0.000077 0.001706
# 4 0.005373 0.010256 0.002348 0.042537 -0.011783 0.001979
# 5 -0.004827 -0.002141 0.000077 -0.011783 0.021835 -0.003592
# 6 -0.007364 -0.006439 0.001706 0.001979 -0.003592 0.033519
#
#
# Mechanical properties :
#
#
# Convention : Reuss Voigt Hill
#
# Bulk Modulus (GPa) = 32.67494 61.42240 47.04867
# Shear Modulus (GPa) = 32.27491 45.47426 38.87458
#
# Velocity S-wave (km/s) = 3.49816 4.15231 3.83919
# Velocity P-wave (km/s) = 5.35770 6.80275 6.12300
#
# Compressibility (1/GPa) = 0.03060450
#
# Stress axis : x y z
#
# Youngs Moduli (GPa) = 59.16279 68.46234 138.77333
#
# Poissons Ratio (x) = 0.00881 0.52680
# Poissons Ratio (y) = 0.00762 0.01810
# Poissons Ratio (z) = 0.22459 0.00893
#
# Static dielectric constant tensor:
#      x y z
#    x 2.263430 -0.006230 0.015880 
#    y -0.006230 1.902620 -0.105120 
#    z 0.015880 -0.105120 1.846780 
# 
# From -- ./inp_files/5992.got.cif
#   From: 2010.05.17/outbox.cif.g08.bks.cpg/sg2_3_cif.got.tgz:5992.got - 2010.06.03 11:33:40.
