data_PCOD9014758
_publ_section_title
;
Structure prediction by ZEFSAII (Michael W. Deem and Ramdas Pophale) SiO2 
 PCOD9014758
Probable space group: P -1
;
_chemical_formula_sum "Si O2"
_cell_formula_units_Z 13
_cell_length_a 11.637969
_cell_length_b 5.293334
_cell_length_c 8.104880
_cell_angle_alpha 82.535969
_cell_angle_beta 108.993238
_cell_angle_gamma 100.408911
_cell_volume 462.978994
_symmetry_space_group_name_H-M "P -1"
_symmetry_group_IT_number 2
_symmetry_cell_setting 'triclinic'
loop_
_space_group_symop_operation_xyz
x,y,z
-x,-y,-z
loop_
_atom_site_type_symbol
_atom_site_label
_atom_site_fract_x
_atom_site_fract_y
_atom_site_fract_z
Si Si1 0.963825 0.519338 0.241802
Si Si2 0.874704 0.836224 0.515706
Si Si3 0.500000 0.000000 0.000000
Si Si4 0.262819 0.230080 0.856241
Si Si5 0.697194 0.547753 0.663574
Si Si6 0.535100 0.227266 0.362426
Si Si7 0.867803 0.174746 0.930238
O O1 0.822326 0.543133 0.212391
O O2 0.068969 0.433215 0.414160
O O3 0.032134 0.789130 0.173448
O O4 0.947990 0.307442 0.108736
O O5 0.786666 0.905432 0.324290
O O6 0.787028 0.809749 0.636705
O O7 0.000000 0.000000 0.500000
O O8 0.456869 0.892094 0.803149
O O9 0.406219 0.223467 0.926004
O O10 0.210888 0.076903 0.009256
O O11 0.651605 0.410097 0.480441
O O12 0.577089 0.606367 0.695063
O O13 0.768411 0.359139 0.817540
O O14 0.500000 0.000000 0.500000
#
# Coordination Sequence:
#
# PCOD9014758 Si02
#       7
#     2   2   1   2   2   2   2
#     4  10  22  42  69 104 145 197 253 320 392 474
#     4  11  23  46  73 114 156 203 262 333 406 476
#     4  12  28  46  78 116 156 210 266 332 396 482
#     4  12  24  44  67 106 151 197 261 316 397 468
#     4  10  24  46  79 112 158 210 267 332 407 481
#     4  11  24  51  78 114 159 214 275 335 403 478
#     4  10  21  41  69 103 143 192 251 319 391 476
#
# _framework density 28.079031000000001
#
# number of rings (size 3 to 8) (size 9 to 14) (size 15 to 20)
#    0.000    1.231    1.538    3.692    0.000    2.462 
#   16.615   11.538    0.000    0.000    0.000    0.000 
#    0.000    0.000    0.000    0.000    0.000    0.000 
#
# Total GULP energy -72386.149939 kJ/mol
# GULP energy per Si atom -5568.165380 kJ/mol
# Density = 2.801512 g / cm^3
# Si number density = 28.079031 Si / 1000 Ang^3
#
#
#
# Elastic Constant Matrix: (Units=GPa)
#
#
# Indices 1 2 3 4 5 6 
#
# 1 141.1698 48.0250 60.4363 -11.9335 25.1879 -23.3902
# 2 48.0250 79.0226 45.9943 -0.3507 -3.2703 -2.8189
# 3 60.4363 45.9943 180.2462 3.6030 16.0981 -8.3898
# 4 -11.9335 -0.3507 3.6030 49.6949 -2.6788 5.8411
# 5 25.1879 -3.2703 16.0981 -2.6788 56.8742 -11.9480
# 6 -23.3902 -2.8189 -8.3898 5.8411 -11.9480 53.1417
#
#
#
# Elastic Compliance Matrix: (Units=1/GPa)
#
#
# Indices 1 2 3 4 5 6 
#
# 1 0.011296 -0.005842 -0.001830 0.002208 -0.004040 0.003222
# 2 -0.005842 0.018134 -0.003083 -0.000697 0.004246 -0.001065
# 3 -0.001830 -0.003083 0.007095 -0.001046 -0.001436 -0.000057
# 4 0.002208 -0.000697 -0.001046 0.020902 -0.000061 -0.001542
# 5 -0.004040 0.004246 -0.001436 -0.000061 0.020621 0.002863
# 6 0.003222 -0.001065 -0.000057 -0.001542 0.002863 0.020984
#
#
# Mechanical properties :
#
#
# Convention : Reuss Voigt Hill
#
# Bulk Modulus (GPa) = 66.60512 78.81663 72.71087
# Shear Modulus (GPa) = 39.82550 48.34103 44.08327
#
# Velocity S-wave (km/s) = 3.77017 4.15373 3.96658
# Velocity P-wave (km/s) = 6.53638 7.15088 6.85052
#
# Compressibility (1/GPa) = 0.01501386
#
# Stress axis : x y z
#
# Youngs Moduli (GPa) = 88.52808 55.14366 140.94537
#
# Poissons Ratio (x) = 0.32216 0.25794
# Poissons Ratio (y) = 0.51720 0.43460
# Poissons Ratio (z) = 0.16201 0.17003
#
# Static dielectric constant tensor:
#      x y z
#    x 2.281050 0.031850 -0.159350 
#    y 0.031850 2.354950 0.094050 
#    z -0.159350 0.094050 2.328940 
# 
# From -- ./inp_files/229044.got.cif
#   From: 2010.05.17/outbox.cif.g08.bks.cpg/sg2_115_cif.got.tgz:229044.got - 2010.06.03 11:33:40.
