data_PCOD9014833
_publ_section_title
;
Structure prediction by ZEFSAII (Michael W. Deem and Ramdas Pophale) SiO2 
 PCOD9014833
Probable space group: P -1
;
_chemical_formula_sum "Si O2"
_cell_formula_units_Z 16
_cell_length_a 27.872890
_cell_length_b 9.085062
_cell_length_c 13.577533
_cell_angle_alpha 144.951518
_cell_angle_beta 25.862148
_cell_angle_gamma 151.807733
_cell_volume 703.061665
_symmetry_space_group_name_H-M "P -1"
_symmetry_group_IT_number 2
_symmetry_cell_setting 'triclinic'
loop_
_space_group_symop_operation_xyz
x,y,z
-x,-y,-z
loop_
_atom_site_type_symbol
_atom_site_label
_atom_site_fract_x
_atom_site_fract_y
_atom_site_fract_z
Si Si1 0.310864 0.335637 0.911173
Si Si2 0.182104 0.412286 0.453039
Si Si3 0.418823 0.407289 0.343553
Si Si4 0.114252 0.834181 0.123109
Si Si5 0.651945 0.420399 0.228730
Si Si6 0.063120 0.351630 0.111582
Si Si7 0.557714 0.310984 0.748863
Si Si8 0.802457 0.292583 0.613280
O O1 0.437235 0.518960 0.852244
O O2 0.361005 0.411793 0.749185
O O3 0.216497 0.456345 0.166142
O O4 0.219698 0.976783 0.917568
O O5 0.297086 0.538713 0.389550
O O6 0.219021 0.675341 0.446261
O O7 0.036101 0.288723 0.697491
O O8 0.162529 0.119181 0.268062
O O9 0.363316 0.456741 0.572637
O O10 0.435279 0.635706 0.352002
O O11 0.311593 0.044054 0.316107
O O12 0.105453 0.563862 0.052195
O O13 0.541181 0.048396 0.231839
O O14 0.802410 0.509189 0.998839
O O15 0.948868 0.361456 0.384255
O O16 0.000000 0.000000 0.000000
O O17 0.500000 0.500000 0.000000
#
# Coordination Sequence:
#
# PCOD9014833 Si02
#       8
#     2   2   2   2   2   2   2   2
#     4  11  23  41  68  97 129 175 233 273 325 395
#     4   9  19  39  66  99 131 166 219 274 329 388
#     4  12  24  42  64  95 143 176 216 275 339 395
#     4   9  20  40  67  96 131 172 215 276 328 387
#     4  12  26  43  64  95 139 180 219 275 337 391
#     4  11  22  43  67  93 139 175 217 271 341 393
#     4  12  24  40  68 102 132 174 226 274 329 402
#     4  10  21  41  69  95 130 177 221 276 327 392
#
# _framework density 22.757605000000002
#
# number of rings (size 3 to 8) (size 9 to 14) (size 15 to 20)
#    0.000    1.250    1.250    6.375    0.000    1.500 
#    0.000    0.625    0.000    0.000    0.000    0.000 
#    0.000    0.000    0.000    0.000    0.000    0.000 
#
# Total GULP energy -89576.085349 kJ/mol
# GULP energy per Si atom -5598.505334 kJ/mol
# Density = 2.270581 g / cm^3
# Si number density = 22.757605 Si / 1000 Ang^3
#
#
#
# Elastic Constant Matrix: (Units=GPa)
#
#
# Indices 1 2 3 4 5 6 
#
# 1 106.8111 61.7398 26.7639 -30.5785 -0.8482 1.3582
# 2 61.7398 130.3230 15.1760 -29.2642 -4.1989 -16.2614
# 3 26.7639 15.1760 71.4999 -21.0227 -4.1077 -1.9912
# 4 -30.5785 -29.2642 -21.0227 37.6750 -2.7140 4.1366
# 5 -0.8482 -4.1989 -4.1077 -2.7140 37.0246 -14.5018
# 6 1.3582 -16.2614 -1.9912 4.1366 -14.5018 32.5963
#
#
#
# Elastic Compliance Matrix: (Units=1/GPa)
#
#
# Indices 1 2 3 4 5 6 
#
# 1 0.015804 -0.006499 -0.002902 0.006640 -0.002589 -0.006072
# 2 -0.006499 0.012945 0.001751 0.005200 0.005224 0.008500
# 3 -0.002902 0.001751 0.017575 0.008794 0.003754 0.002622
# 4 0.006640 0.005200 0.008794 0.041247 0.004613 -0.000327
# 5 -0.002589 0.005224 0.003754 0.004613 0.035387 0.018101
# 6 -0.006072 0.008500 0.002622 -0.000327 0.018101 0.043426
#
#
# Mechanical properties :
#
#
# Convention : Reuss Voigt Hill
#
# Bulk Modulus (GPa) = 32.23354 57.33260 44.78307
# Shear Modulus (GPa) = 26.03846 35.12279 30.58062
#
# Velocity S-wave (km/s) = 3.38622 3.93280 3.66970
# Velocity P-wave (km/s) = 5.42985 6.77274 6.13813
#
# Compressibility (1/GPa) = 0.03102358
#
# Stress axis : x y z
#
# Youngs Moduli (GPa) = 63.27680 77.25109 56.89916
#
# Poissons Ratio (x) = 0.50206 0.16511
# Poissons Ratio (y) = 0.41124 -0.09963
# Poissons Ratio (z) = 0.18361 -0.13526
#
# Static dielectric constant tensor:
#      x y z
#    x 1.827560 -0.019080 0.016090 
#    y -0.019080 1.870920 -0.010920 
#    z 0.016090 -0.010920 1.883730 
# 
# From -- ./inp_files/476408.got.cif
#   From: 2010.05.17/outbox.cif.g08.bks.cpg/sg2_239_cif.got.tgz:476408.got - 2010.06.03 11:33:40.
