data_PCOD9014546
_publ_section_title
;
Structure prediction by ZEFSAII (Michael W. Deem and Ramdas Pophale) SiO2 
 PCOD9014546
Probable space group: P -1
;
_chemical_formula_sum "Si O2"
_cell_formula_units_Z 16
_cell_length_a 7.750493
_cell_length_b 12.945966
_cell_length_c 10.556185
_cell_angle_alpha 79.247966
_cell_angle_beta 78.641455
_cell_angle_gamma 46.386152
_cell_volume 749.913268
_symmetry_space_group_name_H-M "P -1"
_symmetry_group_IT_number 2
_symmetry_cell_setting 'triclinic'
loop_
_space_group_symop_operation_xyz
x,y,z
-x,-y,-z
loop_
_atom_site_type_symbol
_atom_site_label
_atom_site_fract_x
_atom_site_fract_y
_atom_site_fract_z
Si Si1 0.069954 0.020856 0.688911
Si Si2 0.977538 0.325253 0.367122
Si Si3 0.730871 0.990027 0.846760
Si Si4 0.735258 0.221942 0.470893
Si Si5 0.207700 0.493948 0.427273
Si Si6 0.515444 0.965469 0.652621
Si Si7 0.918314 0.519768 0.820418
Si Si8 0.732608 0.752918 0.996167
O O1 0.227688 0.898384 0.587016
O O2 0.260929 0.023010 0.721774
O O3 0.947680 0.983828 0.803800
O O4 0.858958 0.156571 0.603784
O O5 0.263346 0.205640 0.342073
O O6 0.911889 0.455225 0.267389
O O7 0.869230 0.257809 0.360630
O O8 0.884040 0.367934 0.515576
O O9 0.602984 0.022072 0.720754
O O10 0.797501 0.844043 0.914958
O O11 0.529192 0.122183 0.936151
O O12 0.459592 0.362142 0.480624
O O13 0.212921 0.482421 0.278400
O O14 0.000000 0.500000 0.500000
O O15 0.500000 0.000000 0.500000
O O16 0.749791 0.653414 0.910700
O O17 0.077903 0.368080 0.901765
#
# Coordination Sequence:
#
# PCOD9014546 Si02
#       8
#     2   2   2   2   2   2   2   2
#     4  11  22  37  66  97 133 172 203 269 323 403
#     4  11  21  40  63  99 130 171 203 273 333 400
#     4  11  24  43  67  94 129 173 223 272 317 384
#     4  11  21  38  58  98 139 161 205 256 343 395
#     4  10  23  36  63  95 128 166 211 266 331 399
#     4  12  22  40  69 101 137 165 210 265 344 390
#     4  10  21  41  68  89 123 172 221 267 324 379
#     4  10  23  43  66  87 125 178 228 271 316 366
#
# _framework density 21.335801
#
# number of rings (size 3 to 8) (size 9 to 14) (size 15 to 20)
#    0.000    1.250    3.750    2.625    5.250    0.000 
#    0.000    2.500    5.500    3.000    0.000    0.000 
#    0.000    0.000    0.000    0.000    0.000    0.000 
#
# Total GULP energy -89220.054760 kJ/mol
# GULP energy per Si atom -5576.253422 kJ/mol
# Density = 2.128724 g / cm^3
# Si number density = 21.335801 Si / 1000 Ang^3
#
#
#
# Elastic Constant Matrix: (Units=GPa)
#
#
# Indices 1 2 3 4 5 6 
#
# 1 92.0862 30.6537 22.5008 0.0186 -19.8570 -18.0609
# 2 30.6537 93.2610 48.6848 -0.0909 0.9769 -6.3966
# 3 22.5008 48.6848 80.4542 -0.5825 -7.4084 -1.7632
# 4 0.0186 -0.0909 -0.5825 32.9475 8.2939 -0.0995
# 5 -19.8570 0.9769 -7.4084 8.2939 36.1931 3.3072
# 6 -18.0609 -6.3966 -1.7632 -0.0995 3.3072 35.4981
#
#
#
# Elastic Compliance Matrix: (Units=1/GPa)
#
#
# Indices 1 2 3 4 5 6 
#
# 1 0.015551 -0.004336 -0.000830 -0.002129 0.008391 0.006302
# 2 -0.004336 0.017349 -0.009735 0.001189 -0.005197 0.000924
# 3 -0.000830 -0.009735 0.018879 -0.000699 0.003979 -0.001612
# 4 -0.002129 0.001189 -0.000699 0.032560 -0.008805 0.000008
# 5 0.008391 -0.005197 0.003979 -0.008805 0.035185 0.000228
# 6 0.006302 0.000924 -0.001612 0.000008 0.000228 0.031442
#
#
# Mechanical properties :
#
#
# Convention : Reuss Voigt Hill
#
# Bulk Modulus (GPa) = 45.50352 52.16444 48.83398
# Shear Modulus (GPa) = 26.58242 31.85853 29.22048
#
# Velocity S-wave (km/s) = 3.53357 3.86838 3.70476
# Velocity P-wave (km/s) = 6.16618 6.66745 6.42171
#
# Compressibility (1/GPa) = 0.02197632
#
# Stress axis : x y z
#
# Youngs Moduli (GPa) = 64.30251 57.64097 52.96996
#
# Poissons Ratio (x) = 0.24993 0.04397
# Poissons Ratio (y) = 0.27881 0.51567
# Poissons Ratio (z) = 0.05338 0.56115
#
# Static dielectric constant tensor:
#      x y z
#    x 1.437360 -0.264830 -0.218930 
#    y -0.264830 1.542060 -0.198570 
#    z -0.218930 -0.198570 1.687310 
# 
# From -- ./inp_files/397275.got.cif
#   From: 2010.05.17/outbox.cif.g08.bks.cpg/sg2_199_cif.got.tgz:397275.got - 2010.06.03 11:33:40.
