data_PCOD9014309
_publ_section_title
;
Structure prediction by ZEFSAII (Michael W. Deem and Ramdas Pophale) SiO2 
 PCOD9014309
Probable space group: P -1
;
_chemical_formula_sum "Si O2"
_cell_formula_units_Z 14
_cell_length_a 6.263246
_cell_length_b 21.612207
_cell_length_c 6.312082
_cell_angle_alpha 126.767257
_cell_angle_beta 103.709523
_cell_angle_gamma 67.164975
_cell_volume 630.796898
_symmetry_space_group_name_H-M "P -1"
_symmetry_group_IT_number 2
_symmetry_cell_setting 'triclinic'
loop_
_space_group_symop_operation_xyz
x,y,z
-x,-y,-z
loop_
_atom_site_type_symbol
_atom_site_label
_atom_site_fract_x
_atom_site_fract_y
_atom_site_fract_z
Si Si1 0.016875 0.901845 0.805756
Si Si2 0.068371 0.203771 0.035232
Si Si3 0.499964 0.438223 0.562318
Si Si4 0.255705 0.317414 0.076320
Si Si5 0.587892 0.911205 0.419484
Si Si6 0.128702 0.555051 0.027428
Si Si7 0.652324 0.190296 0.648249
O O1 0.254364 0.844008 0.631604
O O2 0.993351 0.848029 0.894942
O O3 0.793138 0.900757 0.614057
O O4 0.000000 0.000000 0.000000
O O5 0.146872 0.284366 0.187115
O O6 0.298033 0.142427 0.862248
O O7 0.851728 0.219727 0.857698
O O8 0.500000 0.500000 0.500000
O O9 0.422390 0.365035 0.303296
O O10 0.737308 0.409648 0.692398
O O11 0.312397 0.492694 0.792045
O O12 0.407261 0.253420 0.801840
O O13 0.045741 0.377325 0.018500
O O14 0.367880 0.890314 0.411338
O O15 0.500000 0.000000 0.500000
O O16 0.000000 0.500000 0.000000
#
# Coordination Sequence:
#
# PCOD9014309 Si02
#       7
#     2   2   2   2   2   2   2
#     4  11  23  43  72  99 133 184 237 281 339 419
#     4  10  24  44  62 101 137 179 225 283 356 401
#     4  11  25  47  75 106 136 185 240 283 349 417
#     4  11  25  48  70  99 154 182 226 299 346 414
#     4  10  21  41  67  93 133 174 227 287 339 419
#     4  11  25  47  74 108 135 183 245 279 346 426
#     4  10  24  44  62 101 138 177 228 285 351 402
#
# _framework density 22.194147000000001
#
# number of rings (size 3 to 8) (size 9 to 14) (size 15 to 20)
#    0.000    1.429    1.429    2.143    2.000    6.857 
#   20.571    0.000    0.000    0.000    0.000    0.000 
#    0.000    0.000    0.000    0.000    0.000    0.000 
#
# Total GULP energy -78009.621716 kJ/mol
# GULP energy per Si atom -5572.115837 kJ/mol
# Density = 2.214363 g / cm^3
# Si number density = 22.194147 Si / 1000 Ang^3
#
#
#
# Elastic Constant Matrix: (Units=GPa)
#
#
# Indices 1 2 3 4 5 6 
#
# 1 112.3469 37.4766 46.7216 -4.7144 -4.8735 36.9389
# 2 37.4766 105.9145 43.2266 -3.8416 3.8514 23.4298
# 3 46.7216 43.2266 89.7681 -4.0676 2.2361 18.8181
# 4 -4.7144 -3.8416 -4.0676 24.0171 11.0837 -0.1540
# 5 -4.8735 3.8514 2.2361 11.0837 53.6796 -3.4301
# 6 36.9389 23.4298 18.8181 -0.1540 -3.4301 57.6892
#
#
#
# Elastic Compliance Matrix: (Units=1/GPa)
#
#
# Indices 1 2 3 4 5 6 
#
# 1 0.013687 -0.001313 -0.005096 0.001159 0.000894 -0.006512
# 2 -0.001313 0.012533 -0.004661 0.001550 -0.001324 -0.002804
# 3 -0.005096 -0.004661 0.016171 0.001511 -0.001126 -0.000182
# 4 0.001159 0.001550 0.001511 0.046925 -0.009907 -0.002329
# 5 0.000894 -0.001324 -0.001126 -0.009907 0.020997 0.001555
# 6 -0.006512 -0.002804 -0.000182 -0.002329 0.001555 0.022788
#
#
# Mechanical properties :
#
#
# Convention : Reuss Voigt Hill
#
# Bulk Modulus (GPa) = 49.37925 62.54212 55.96069
# Shear Modulus (GPa) = 30.86595 39.11751 34.99173
#
# Velocity S-wave (km/s) = 3.73329 4.20279 3.97497
# Velocity P-wave (km/s) = 6.39377 7.19666 6.80707
#
# Compressibility (1/GPa) = 0.02025142
#
# Stress axis : x y z
#
# Youngs Moduli (GPa) = 73.06362 79.79000 61.83894
#
# Poissons Ratio (x) = 0.10477 0.31512
# Poissons Ratio (y) = 0.09593 0.28821
# Poissons Ratio (z) = 0.37232 0.37188
#
# Static dielectric constant tensor:
#      x y z
#    x 1.823810 0.017430 0.011100 
#    y 0.017430 1.848760 -0.006220 
#    z 0.011100 -0.006220 1.871880 
# 
# From -- ./inp_files/7627.got.cif
#   From: 2010.05.17/outbox.cif.g08.bks.cpg/sg2_4_cif.got.tgz:7627.got - 2010.06.03 11:33:40.
