data_PCOD9014235
_publ_section_title
;
Structure prediction by ZEFSAII (Michael W. Deem and Ramdas Pophale) SiO2 
 PCOD9014235
Probable space group: P -1
;
_chemical_formula_sum "Si O2"
_cell_formula_units_Z 16
_cell_length_a 9.709741
_cell_length_b 18.848017
_cell_length_c 13.945271
_cell_angle_alpha 158.990782
_cell_angle_beta 65.073372
_cell_angle_gamma 126.202261
_cell_volume 659.696644
_symmetry_space_group_name_H-M "P -1"
_symmetry_group_IT_number 2
_symmetry_cell_setting 'triclinic'
loop_
_space_group_symop_operation_xyz
x,y,z
-x,-y,-z
loop_
_atom_site_type_symbol
_atom_site_label
_atom_site_fract_x
_atom_site_fract_y
_atom_site_fract_z
Si Si1 0.776815 0.579404 0.508302
Si Si2 0.816802 0.613412 0.013164
Si Si3 0.936516 0.521065 0.149213
Si Si4 0.538725 0.273845 0.016468
Si Si5 0.220355 0.977897 0.872018
Si Si6 0.770850 0.309841 0.337281
Si Si7 0.128090 0.125638 0.470756
Si Si8 0.539870 0.405815 0.670181
O O1 0.000863 0.744064 0.624445
O O2 0.645334 0.482368 0.331905
O O3 0.710407 0.339825 0.288680
O O4 0.765555 0.773464 0.815554
O O5 0.811494 0.714026 0.245724
O O6 0.955936 0.849933 0.202011
O O7 0.922257 0.488239 0.837033
O O8 0.000000 0.500000 0.000000
O O9 0.715547 0.288576 0.941244
O O10 0.937636 0.759465 0.440587
O O11 0.463144 0.367708 0.078136
O O12 0.369170 0.029498 0.812398
O O13 0.270359 0.931425 0.904219
O O14 0.381375 0.552364 0.192947
O O15 0.677638 0.390098 0.540846
O O16 0.000000 0.500000 0.500000
O O17 0.317744 0.167867 0.430759
#
# Coordination Sequence:
#
# PCOD9014235 Si02
#       8
#     2   2   2   2   2   2   2   2
#     4  10  22  44  59  87 127 161 204 260 305 359
#     4  10  21  41  67  88 126 162 200 254 312 361
#     4   9  21  41  62  93 127 156 201 257 304 363
#     4  11  23  40  66  92 124 164 211 250 305 373
#     4  10  22  40  65  85 120 165 205 255 310 354
#     4  10  23  41  58  91 126 158 210 254 306 363
#     4   9  21  43  65  92 120 163 205 249 309 370
#     4  11  23  40  61  95 126 158 207 257 300 368
#
# _framework density 24.253572999999999
#
# number of rings (size 3 to 8) (size 9 to 14) (size 15 to 20)
#    0.000    2.000    1.250    0.750    5.250    2.500 
#    0.000    0.000    0.000    9.000    0.000    0.000 
#    0.000    0.000    0.000    0.000    0.000    0.000 
#
# Total GULP energy -89463.273299 kJ/mol
# GULP energy per Si atom -5591.454581 kJ/mol
# Density = 2.419837 g / cm^3
# Si number density = 24.253573 Si / 1000 Ang^3
#
#
#
# Elastic Constant Matrix: (Units=GPa)
#
#
# Indices 1 2 3 4 5 6 
#
# 1 137.2757 23.2226 34.2818 14.1314 -14.2878 2.8064
# 2 23.2226 91.7139 9.0936 20.9293 0.3878 29.2494
# 3 34.2818 9.0936 43.2847 16.6268 -3.0286 3.5793
# 4 14.1314 20.9293 16.6268 43.2025 -3.7030 -2.0952
# 5 -14.2878 0.3878 -3.0286 -3.7030 26.5213 18.7507
# 6 2.8064 29.2494 3.5793 -2.0952 18.7507 50.5106
#
#
#
# Elastic Compliance Matrix: (Units=1/GPa)
#
#
# Indices 1 2 3 4 5 6 
#
# 1 0.009892 -0.001655 -0.007334 0.000798 0.005352 -0.001025
# 2 -0.001655 0.017230 0.002681 -0.008857 0.007198 -0.013115
# 3 -0.007334 0.002681 0.033364 -0.011843 0.001349 -0.004502
# 4 0.000798 -0.008857 -0.011843 0.031952 -0.001975 0.007982
# 5 0.005352 0.007198 0.001349 -0.001975 0.059176 -0.026611
# 6 -0.001025 -0.013115 -0.004502 0.007982 -0.026611 0.037978
#
#
# Mechanical properties :
#
#
# Convention : Reuss Voigt Hill
#
# Bulk Modulus (GPa) = 20.88975 45.05225 32.97100
# Shear Modulus (GPa) = 22.91848 37.75863 30.33856
#
# Velocity S-wave (km/s) = 3.07734 3.94995 3.54063
# Velocity P-wave (km/s) = 4.61069 6.27842 5.50804
#
# Compressibility (1/GPa) = 0.04787036
#
# Stress axis : x y z
#
# Youngs Moduli (GPa) = 101.09170 58.03796 29.97240
#
# Poissons Ratio (x) = 0.09607 0.21982
# Poissons Ratio (y) = 0.16734 -0.08037
# Poissons Ratio (z) = 0.74141 -0.15563
#
# Static dielectric constant tensor:
#      x y z
#    x 1.902980 0.000730 -0.023000 
#    y 0.000730 1.935640 -0.000240 
#    z -0.023000 -0.000240 1.920600 
# 
# From -- ./inp_files/570616.got.cif
#   From: 2010.05.17/outbox.cif.g08.bks.cpg/sg2_286_cif.got.tgz:570616.got - 2010.06.03 11:33:40.
