data_PCOD9014520
_publ_section_title
;
Structure prediction by ZEFSAII (Michael W. Deem and Ramdas Pophale) SiO2 
 PCOD9014520
Probable space group: P -1
;
_chemical_formula_sum "Si O2"
_cell_formula_units_Z 12
_cell_length_a 12.683118
_cell_length_b 6.924860
_cell_length_c 10.886323
_cell_angle_alpha 54.922230
_cell_angle_beta 146.381431
_cell_angle_gamma 118.449062
_cell_volume 433.220134
_symmetry_space_group_name_H-M "P -1"
_symmetry_group_IT_number 2
_symmetry_cell_setting 'triclinic'
loop_
_space_group_symop_operation_xyz
x,y,z
-x,-y,-z
loop_
_atom_site_type_symbol
_atom_site_label
_atom_site_fract_x
_atom_site_fract_y
_atom_site_fract_z
Si Si1 0.140159 0.193876 0.167342
Si Si2 0.764723 0.314269 0.447165
Si Si3 0.405018 0.400261 0.180513
Si Si4 0.631434 0.083420 0.980965
Si Si5 0.706986 0.336014 0.720163
Si Si6 0.042595 0.235592 0.530480
O O1 0.241130 0.222836 0.122993
O O2 0.231067 0.409111 0.256353
O O3 0.193582 0.942856 0.366008
O O4 0.914712 0.228106 0.934781
O O5 0.539455 0.359033 0.210305
O O6 0.870191 0.535980 0.533943
O O7 0.867205 0.308655 0.417364
O O8 0.310843 0.658285 0.004327
O O9 0.569817 0.366742 0.458971
O O10 0.595797 0.177480 0.772494
O O11 0.500000 0.000000 0.000000
O O12 0.780561 0.872920 0.181843
O O13 0.000000 0.000000 0.500000
#
# Coordination Sequence:
#
# PCOD9014520 Si02
#       6
#     2   2   2   2   2   2
#     4  10  21  41  68 103 148 180 243 296 350 431
#     4  11  24  44  72 107 142 184 248 301 347 442
#     4  11  24  42  75 106 143 189 239 301 364 423
#     4  11  21  44  70 100 144 188 240 294 351 436
#     4  10  23  42  73 104 144 196 233 297 373 417
#     4  11  26  46  74 101 146 194 236 298 371 425
#
# _framework density 27.699545000000001
#
# number of rings (size 3 to 8) (size 9 to 14) (size 15 to 20)
#    0.000    1.333    3.333    2.500    2.333    2.000 
#    0.000    2.500    3.667    0.000    0.000    0.000 
#    0.000    0.000    0.000    0.000    0.000    0.000 
#
# Total GULP energy -67135.417554 kJ/mol
# GULP energy per Si atom -5594.618130 kJ/mol
# Density = 2.763650 g / cm^3
# Si number density = 27.699545 Si / 1000 Ang^3
#
#
#
# Elastic Constant Matrix: (Units=GPa)
#
#
# Indices 1 2 3 4 5 6 
#
# 1 156.0605 44.6729 49.5719 2.6274 27.9031 35.4993
# 2 44.6729 208.0276 44.8540 -24.2680 -7.1461 19.2337
# 3 49.5719 44.8540 117.3176 -10.6689 17.8852 3.0601
# 4 2.6274 -24.2680 -10.6689 48.5673 2.6488 -6.5542
# 5 27.9031 -7.1461 17.8852 2.6488 68.8226 -4.7225
# 6 35.4993 19.2337 3.0601 -6.5542 -4.7225 50.3041
#
#
#
# Elastic Compliance Matrix: (Units=1/GPa)
#
#
# Indices 1 2 3 4 5 6 
#
# 1 0.010174 -0.001249 -0.003298 -0.002664 -0.003789 -0.007205
# 2 -0.001249 0.005843 -0.001678 0.002434 0.001400 -0.000802
# 3 -0.003298 -0.001678 0.010935 0.002158 -0.001595 0.002435
# 4 -0.002664 0.002434 0.002158 0.022932 0.000152 0.003820
# 5 -0.003789 0.001400 -0.001595 0.000152 0.016884 0.003841
# 6 -0.007205 -0.000802 0.002435 0.003820 0.003841 0.025980
#
#
# Mechanical properties :
#
#
# Convention : Reuss Voigt Hill
#
# Bulk Modulus (GPa) = 68.95127 84.40035 76.67581
# Shear Modulus (GPa) = 45.44166 56.35927 50.90047
#
# Velocity S-wave (km/s) = 4.05473 4.51562 4.29137
# Velocity P-wave (km/s) = 6.84600 7.59762 7.23158
#
# Compressibility (1/GPa) = 0.01450300
#
# Stress axis : x y z
#
# Youngs Moduli (GPa) = 98.28888 171.14134 91.45138
#
# Poissons Ratio (x) = 0.21367 0.30164
# Poissons Ratio (y) = 0.12272 0.15342
# Poissons Ratio (z) = 0.32419 0.28711
#
# Static dielectric constant tensor:
#      x y z
#    x 2.282250 -0.066650 -0.040470 
#    y -0.066650 2.203630 0.079660 
#    z -0.040470 0.079660 2.189620 
# 
# From -- ./inp_files/527188.got.cif
#   From: 2010.05.17/outbox.cif.g08.bks.cpg/sg2_264_cif.got.tgz:527188.got - 2010.06.03 11:33:40.
