data_PCOD9014266
_publ_section_title
;
Structure prediction by ZEFSAII (Michael W. Deem and Ramdas Pophale) SiO2 
 PCOD9014266
Probable space group: P -1
;
_chemical_formula_sum "Si O2"
_cell_formula_units_Z 16
_cell_length_a 8.419654
_cell_length_b 11.128828
_cell_length_c 12.185338
_cell_angle_alpha 108.209946
_cell_angle_beta 50.096631
_cell_angle_gamma 124.960721
_cell_volume 715.069231
_symmetry_space_group_name_H-M "P -1"
_symmetry_group_IT_number 2
_symmetry_cell_setting 'triclinic'
loop_
_space_group_symop_operation_xyz
x,y,z
-x,-y,-z
loop_
_atom_site_type_symbol
_atom_site_label
_atom_site_fract_x
_atom_site_fract_y
_atom_site_fract_z
Si Si1 0.467344 0.864353 0.830624
Si Si2 0.997931 0.116536 0.948791
Si Si3 0.712575 0.052925 0.571253
Si Si4 0.209583 0.245384 0.283268
Si Si5 0.218411 0.384231 0.093819
Si Si6 0.897267 0.467347 0.157978
Si Si7 0.523932 0.534156 0.371383
Si Si8 0.581464 0.828522 0.372801
O O1 0.626979 0.828412 0.831361
O O2 0.311706 0.705233 0.792845
O O3 0.654565 0.988114 0.699973
O O4 0.264601 0.903785 0.965874
O O5 0.153379 0.116186 0.777360
O O6 0.143314 0.273931 0.992232
O O7 0.000000 0.000000 0.000000
O O8 0.574467 0.141096 0.635940
O O9 0.985085 0.147680 0.434659
O O10 0.594526 0.914705 0.501353
O O11 0.138954 0.286083 0.210739
O O12 0.369886 0.397068 0.321186
O O13 0.088927 0.478481 0.163150
O O14 0.500000 0.500000 0.000000
O O15 0.799073 0.577120 0.245230
O O16 0.000000 0.500000 0.000000
O O17 0.500000 0.500000 0.500000
O O18 0.468747 0.659325 0.402189
#
# Coordination Sequence:
#
# PCOD9014266 Si02
#       8
#     2   2   2   2   2   2   2   2
#     4  10  21  41  67  91 130 174 218 263 332 401
#     4  11  21  41  66  95 124 170 222 266 321 394
#     4  11  24  41  68  94 135 178 217 265 341 398
#     4  11  24  42  68  97 134 174 220 276 334 393
#     4  11  23  40  66  98 131 169 217 274 333 385
#     4  10  21  41  68  92 129 177 213 263 333 398
#     4  11  24  43  65  96 129 171 223 271 327 394
#     4  11  23  40  67  97 128 173 221 269 330 398
#
# _framework density 22.375457000000001
#
# number of rings (size 3 to 8) (size 9 to 14) (size 15 to 20)
#    0.000    1.250    1.250    6.375    7.000    0.500 
#    2.250    3.750    0.000    0.000    0.000    0.000 
#    0.000    0.000    0.000    0.000    0.000    0.000 
#
# Total GULP energy -89419.124263 kJ/mol
# GULP energy per Si atom -5588.695266 kJ/mol
# Density = 2.232453 g / cm^3
# Si number density = 22.375457 Si / 1000 Ang^3
#
#
#
# Elastic Constant Matrix: (Units=GPa)
#
#
# Indices 1 2 3 4 5 6 
#
# 1 123.7109 33.1967 28.2649 0.5158 -14.8181 -29.5268
# 2 33.1967 82.8586 4.8736 -1.2906 -9.6963 -26.7358
# 3 28.2649 4.8736 91.9019 -5.8281 -3.4215 -14.7487
# 4 0.5158 -1.2906 -5.8281 34.6070 -1.8910 -4.1156
# 5 -14.8181 -9.6963 -3.4215 -1.8910 41.1399 -4.0529
# 6 -29.5268 -26.7358 -14.7487 -4.1156 -4.0529 34.9568
#
#
#
# Elastic Compliance Matrix: (Units=1/GPa)
#
#
# Indices 1 2 3 4 5 6 
#
# 1 0.011409 -0.001140 -0.001851 0.000748 0.004569 0.008602
# 2 -0.001140 0.017791 0.002144 0.003074 0.005535 0.014552
# 3 -0.001851 0.002144 0.012535 0.003008 0.001601 0.005905
# 4 0.000748 0.003074 0.003008 0.030679 0.003469 0.008267
# 5 0.004569 0.005535 0.001601 0.003469 0.028783 0.012514
# 6 0.008602 0.014552 0.005905 0.008267 0.012514 0.051917
#
#
# Mechanical properties :
#
#
# Convention : Reuss Voigt Hill
#
# Bulk Modulus (GPa) = 24.97501 47.90466 36.43983
# Shear Modulus (GPa) = 29.73452 37.61648 33.67550
#
# Velocity S-wave (km/s) = 3.64935 4.10463 3.88367
# Velocity P-wave (km/s) = 5.37987 6.62721 6.03585
#
# Compressibility (1/GPa) = 0.04004002
#
# Stress axis : x y z
#
# Youngs Moduli (GPa) = 87.64733 56.20965 79.77911
#
# Poissons Ratio (x) = 0.06410 0.14763
# Poissons Ratio (y) = 0.09995 -0.17102
# Poissons Ratio (z) = 0.16219 -0.12049
#
# Static dielectric constant tensor:
#      x y z
#    x 1.853610 0.003460 -0.055570 
#    y 0.003460 1.840650 -0.014590 
#    z -0.055570 -0.014590 1.811320 
# 
# From -- ./inp_files/392717.got.cif
#   From: 2010.05.17/outbox.cif.g08.bks.cpg/sg2_197_cif.got.tgz:392717.got - 2010.06.03 11:33:40.
