data_PCOD9014305
_publ_section_title
;
Structure prediction by ZEFSAII (Michael W. Deem and Ramdas Pophale) SiO2 
 PCOD9014305
Probable space group: P -1
;
_chemical_formula_sum "Si O2"
_cell_formula_units_Z 14
_cell_length_a 5.959386
_cell_length_b 15.556036
_cell_length_c 24.710031
_cell_angle_alpha 20.231523
_cell_angle_beta 103.414301
_cell_angle_gamma 91.539647
_cell_volume 634.591781
_symmetry_space_group_name_H-M "P -1"
_symmetry_group_IT_number 2
_symmetry_cell_setting 'triclinic'
loop_
_space_group_symop_operation_xyz
x,y,z
-x,-y,-z
loop_
_atom_site_type_symbol
_atom_site_label
_atom_site_fract_x
_atom_site_fract_y
_atom_site_fract_z
Si Si1 0.268323 0.920061 0.026475
Si Si2 0.620728 0.669263 0.652475
Si Si3 0.745420 0.872204 0.209088
Si Si4 0.265522 0.648424 0.446870
Si Si5 0.827900 0.546772 0.126698
Si Si6 0.434738 0.764334 0.709761
Si Si7 0.008252 0.311117 0.061168
O O1 0.432300 0.560599 0.241947
O O2 0.500000 0.000000 0.000000
O O3 0.137759 0.083353 0.865356
O O4 0.000000 0.000000 0.000000
O O5 0.477425 0.747118 0.657428
O O6 0.942090 0.509879 0.783775
O O7 0.559307 0.946482 0.448473
O O8 0.679375 0.619221 0.353055
O O9 0.972543 0.777039 0.324119
O O10 0.464932 0.189927 0.020354
O O11 0.500000 0.500000 0.500000
O O12 0.198395 0.950159 0.294030
O O13 0.831508 0.249787 0.290158
O O14 0.869252 0.649484 0.010692
O O15 0.682774 0.479557 0.925344
O O16 0.000000 0.500000 0.000000
#
# Coordination Sequence:
#
# PCOD9014305 Si02
#       7
#     2   2   2   2   2   2   2
#     4  12  27  45  69 103 149 185 226 302 367 419
#     4  10  22  40  67  98 127 176 237 276 347 430
#     4  11  23  43  70  97 129 183 249 285 345 433
#     4  11  23  42  73  96 129 188 243 287 345 425
#     4  11  19  41  72  94 133 183 233 296 348 423
#     4  10  21  41  67  93 130 179 229 283 344 422
#     4  11  24  41  61 100 141 175 229 298 362 410
#
# _framework density 22.061425
#
# number of rings (size 3 to 8) (size 9 to 14) (size 15 to 20)
#    0.000    1.143    4.286    2.143    2.000    1.714 
#    2.571    0.000    0.000    0.000    0.000    0.000 
#    0.000    0.000    0.000    0.000    0.000    0.000 
#
# Total GULP energy -78072.213075 kJ/mol
# GULP energy per Si atom -5576.586648 kJ/mol
# Density = 2.201121 g / cm^3
# Si number density = 22.061425 Si / 1000 Ang^3
#
#
#
# Elastic Constant Matrix: (Units=GPa)
#
#
# Indices 1 2 3 4 5 6 
#
# 1 89.6510 19.7659 22.7491 -10.7896 -6.2739 6.8304
# 2 19.7659 66.8705 23.1672 -21.4375 -3.9792 0.4126
# 3 22.7491 23.1672 111.3347 -29.1312 -20.6169 8.0805
# 4 -10.7896 -21.4375 -29.1312 36.2791 12.3059 -11.8475
# 5 -6.2739 -3.9792 -20.6169 12.3059 32.2834 -10.4628
# 6 6.8304 0.4126 8.0805 -11.8475 -10.4628 31.0258
#
#
#
# Elastic Compliance Matrix: (Units=1/GPa)
#
#
# Indices 1 2 3 4 5 6 
#
# 1 0.012448 -0.003180 -0.001777 -0.000465 0.000323 -0.002304
# 2 -0.003180 0.020039 -0.001007 0.012291 -0.001942 0.004735
# 3 -0.001777 -0.001007 0.012376 0.007684 0.005100 0.001835
# 4 -0.000465 0.012291 0.007684 0.047867 -0.007476 0.013695
# 5 0.000323 -0.001942 0.005100 -0.007476 0.039896 0.009226
# 6 -0.002304 0.004735 0.001835 0.013695 0.009226 0.040538
#
#
# Mechanical properties :
#
#
# Convention : Reuss Voigt Hill
#
# Bulk Modulus (GPa) = 30.36179 44.35785 37.35982
# Shear Modulus (GPa) = 25.50108 33.39595 29.44852
#
# Velocity S-wave (km/s) = 3.40356 3.89494 3.65751
# Velocity P-wave (km/s) = 5.40721 6.35434 5.89981
#
# Compressibility (1/GPa) = 0.03293613
#
# Stress axis : x y z
#
# Youngs Moduli (GPa) = 80.33155 49.90328 80.80019
#
# Poissons Ratio (x) = 0.15868 0.14355
# Poissons Ratio (y) = 0.25544 0.08138
# Poissons Ratio (z) = 0.14272 0.05026
#
# Static dielectric constant tensor:
#      x y z
#    x 0.617540 0.006910 0.731070 
#    y 0.006910 1.831840 -0.038280 
#    z 0.731070 -0.038280 1.443300 
# 
# From -- ./inp_files/65625.got.cif
#   From: 2010.05.17/outbox.cif.g08.bks.cpg/sg2_33_cif.got.tgz:65625.got - 2010.06.03 11:33:40.
