data_PCOD9014482
_publ_section_title
;
Structure prediction by ZEFSAII (Michael W. Deem and Ramdas Pophale) SiO2 
 PCOD9014482
Probable space group: P -1
;
_chemical_formula_sum "Si O2"
_cell_formula_units_Z 16
_cell_length_a 8.386867
_cell_length_b 14.795882
_cell_length_c 6.762682
_cell_angle_alpha 101.208447
_cell_angle_beta 96.422903
_cell_angle_gamma 74.110612
_cell_volume 790.198962
_symmetry_space_group_name_H-M "P -1"
_symmetry_group_IT_number 2
_symmetry_cell_setting 'triclinic'
loop_
_space_group_symop_operation_xyz
x,y,z
-x,-y,-z
loop_
_atom_site_type_symbol
_atom_site_label
_atom_site_fract_x
_atom_site_fract_y
_atom_site_fract_z
Si Si1 0.489536 0.252609 0.081691
Si Si2 0.770368 0.080345 0.947559
Si Si3 0.056428 0.814492 0.307540
Si Si4 0.558500 0.580766 0.164688
Si Si5 0.675615 0.342676 0.478078
Si Si6 0.946685 0.891992 0.727000
Si Si7 0.893932 0.724105 0.909014
Si Si8 0.115504 0.537862 0.683297
O O1 0.589580 0.288877 0.284463
O O2 0.300849 0.264966 0.123079
O O3 0.588544 0.145294 0.994903
O O4 0.487651 0.322252 0.925299
O O5 0.850411 0.131409 0.807297
O O6 0.795051 0.972835 0.831531
O O7 0.888762 0.081736 0.153965
O O8 0.191528 0.734188 0.408788
O O9 0.954110 0.884107 0.489662
O O10 0.943114 0.764721 0.138707
O O11 0.460990 0.598346 0.364955
O O12 0.755227 0.544816 0.215524
O O13 0.500000 0.500000 0.000000
O O14 0.769132 0.409320 0.402632
O O15 0.943335 0.790388 0.774723
O O16 0.000664 0.616650 0.842505
O O17 0.000000 0.500000 0.500000
#
# Coordination Sequence:
#
# PCOD9014482 Si02
#       8
#     2   2   2   2   2   2   2   2
#     4  12  25  43  64  95 132 168 211 264 317 376
#     4  10  21  41  68 101 124 168 216 257 317 383
#     4  11  20  41  69  93 127 167 212 263 316 377
#     4  12  26  42  65  92 126 169 215 263 311 374
#     4  12  23  44  67  91 127 168 212 265 315 375
#     4  10  21  42  70  94 131 167 210 263 318 383
#     4  11  26  42  62  96 131 167 212 264 320 377
#     4  12  26  44  66  94 129 171 214 263 321 377
#
# _framework density 20.248066000000001
#
# number of rings (size 3 to 8) (size 9 to 14) (size 15 to 20)
#    0.000    0.750    5.000    3.000    3.500    2.000 
#    0.000    0.625    0.000    0.000    0.000    0.000 
#    0.000    0.000    0.000    0.000    0.000    0.000 
#
# Total GULP energy -89526.198257 kJ/mol
# GULP energy per Si atom -5595.387391 kJ/mol
# Density = 2.020198 g / cm^3
# Si number density = 20.248066 Si / 1000 Ang^3
#
#
#
# Elastic Constant Matrix: (Units=GPa)
#
#
# Indices 1 2 3 4 5 6 
#
# 1 77.6439 9.4980 21.2301 14.5672 7.3219 -15.8750
# 2 9.4980 66.5726 14.5006 15.6528 2.1305 -30.1166
# 3 21.2301 14.5006 102.2774 20.5314 5.5693 -4.0339
# 4 14.5672 15.6528 20.5314 36.8994 -11.2130 -6.5114
# 5 7.3219 2.1305 5.5693 -11.2130 34.6857 5.3407
# 6 -15.8750 -30.1166 -4.0339 -6.5114 5.3407 30.3400
#
#
#
# Elastic Compliance Matrix: (Units=1/GPa)
#
#
# Indices 1 2 3 4 5 6 
#
# 1 0.018713 0.008210 -0.001848 -0.009821 -0.010004 0.017349
# 2 0.008210 0.035850 -0.001391 -0.015243 -0.014645 0.039004
# 3 -0.001848 -0.001391 0.011781 -0.006513 -0.003275 -0.001603
# 4 -0.009821 -0.015243 -0.006513 0.044721 0.020854 -0.015208
# 5 -0.010004 -0.014645 -0.003275 0.020854 0.042688 -0.023246
# 6 0.017349 0.039004 -0.001603 -0.015208 -0.023246 0.081369
#
#
# Mechanical properties :
#
#
# Convention : Reuss Voigt Hill
#
# Bulk Modulus (GPa) = 13.10846 37.43903 25.27374
# Shear Modulus (GPa) = 19.95133 33.80271 26.87702
#
# Velocity S-wave (km/s) = 3.14243 4.09030 3.64728
# Velocity P-wave (km/s) = 4.43333 6.39044 5.49964
#
# Compressibility (1/GPa) = 0.07628664
#
# Stress axis : x y z
#
# Youngs Moduli (GPa) = 53.43781 27.89369 84.88412
#
# Poissons Ratio (x) = -0.22902 0.15686
# Poissons Ratio (y) = -0.43875 0.11811
# Poissons Ratio (z) = 0.09875 0.03881
#
# Static dielectric constant tensor:
#      x y z
#    x 1.689790 -0.016220 -0.016820 
#    y -0.016220 1.739790 0.003170 
#    z -0.016820 0.003170 1.703290 
# 
# From -- ./inp_files/38147.got.cif
#   From: 2010.05.17/outbox.cif.g08.bks.cpg/sg2_20_cif.got.tgz:38147.got - 2010.06.03 11:33:40.
