data_PCOD9014117
_publ_section_title
;
Structure prediction by ZEFSAII (Michael W. Deem and Ramdas Pophale) SiO2 
 PCOD9014117
Probable space group: P -1
;
_chemical_formula_sum "Si O2"
_cell_formula_units_Z 16
_cell_length_a 8.835540
_cell_length_b 12.693821
_cell_length_c 19.515707
_cell_angle_alpha 29.144424
_cell_angle_beta 47.556765
_cell_angle_gamma 50.192115
_cell_volume 778.740656
_symmetry_space_group_name_H-M "P -1"
_symmetry_group_IT_number 2
_symmetry_cell_setting 'triclinic'
loop_
_space_group_symop_operation_xyz
x,y,z
-x,-y,-z
loop_
_atom_site_type_symbol
_atom_site_label
_atom_site_fract_x
_atom_site_fract_y
_atom_site_fract_z
Si Si1 0.833908 0.106836 0.149325
Si Si2 0.702236 0.895973 0.039753
Si Si3 0.378927 0.564009 0.615776
Si Si4 0.762404 0.475235 0.071518
Si Si5 0.448424 0.907985 0.888126
Si Si6 0.274441 0.706947 0.423283
Si Si7 0.888103 0.705914 0.457778
Si Si8 0.531451 0.230746 0.394123
O O1 0.761802 0.320053 0.094503
O O2 0.700076 0.117616 0.115412
O O3 0.802574 0.896922 0.323320
O O4 0.080273 0.090373 0.070356
O O5 0.680368 0.645822 0.206891
O O6 0.690754 0.026689 0.040012
O O7 0.500000 0.000000 0.000000
O O8 0.238249 0.624938 0.557461
O O9 0.599182 0.480072 0.557965
O O10 0.380290 0.754150 0.563756
O O11 0.668088 0.355485 0.231634
O O12 0.615714 0.700033 0.973031
O O13 0.000000 0.500000 0.000000
O O14 0.578280 0.107524 0.721753
O O15 0.060093 0.791291 0.404389
O O16 0.701018 0.643836 0.595771
O O17 0.000000 0.500000 0.500000
O O18 0.500000 0.000000 0.500000
#
# Coordination Sequence:
#
# PCOD9014117 Si02
#       8
#     2   2   2   2   2   2   2   2
#     4  12  25  45  66 101 142 181 235 291 351 424
#     4  11  23  42  70 101 136 182 238 290 350 418
#     4  10  21  41  66  97 138 177 220 289 345 406
#     4  12  26  47  72  96 144 193 231 284 356 427
#     4  11  25  42  70 101 135 184 235 294 351 413
#     4  10  22  41  68  99 133 175 232 285 350 411
#     4  12  25  42  73 100 136 182 233 289 355 415
#     4  12  25  44  69 102 141 179 231 286 349 425
#
# _framework density 20.545991999999998
#
# number of rings (size 3 to 8) (size 9 to 14) (size 15 to 20)
#    0.000    0.750    2.500    6.000    5.250    1.000 
#    0.000    1.875    0.000    0.000    0.000    0.000 
#    0.000    0.000    0.000    0.000    0.000    0.000 
#
# Total GULP energy -89455.711750 kJ/mol
# GULP energy per Si atom -5590.981984 kJ/mol
# Density = 2.049923 g / cm^3
# Si number density = 20.545992 Si / 1000 Ang^3
#
#
#
# Elastic Constant Matrix: (Units=GPa)
#
#
# Indices 1 2 3 4 5 6 
#
# 1 106.2729 40.8923 34.5683 16.3530 4.7564 19.1644
# 2 40.8923 121.1572 37.3330 4.1395 -6.7398 20.5658
# 3 34.5683 37.3330 107.0594 9.1899 0.0543 1.7758
# 4 16.3530 4.1395 9.1899 41.3279 -5.5827 -5.0275
# 5 4.7564 -6.7398 0.0543 -5.5827 30.8084 5.9611
# 6 19.1644 20.5658 1.7758 -5.0275 5.9611 43.6492
#
#
#
# Elastic Compliance Matrix: (Units=1/GPa)
#
#
# Indices 1 2 3 4 5 6 
#
# 1 0.013119 -0.002778 -0.002742 -0.005223 -0.002690 -0.004574
# 2 -0.002778 0.011011 -0.002928 0.000637 0.003789 -0.004293
# 3 -0.002742 -0.002928 0.011297 -0.000987 -0.000827 0.002123
# 4 -0.005223 0.000637 -0.000987 0.027656 0.005084 0.004524
# 5 -0.002690 0.003789 -0.000827 0.005084 0.035562 -0.004842
# 6 -0.004574 -0.004293 0.002123 0.004524 -0.004842 0.028037
#
#
# Mechanical properties :
#
#
# Convention : Reuss Voigt Hill
#
# Bulk Modulus (GPa) = 53.96115 62.23075 58.09595
# Shear Modulus (GPa) = 33.38745 37.93683 35.66214
#
# Velocity S-wave (km/s) = 4.03551 4.30168 4.17072
# Velocity P-wave (km/s) = 6.93069 7.41801 7.17848
#
# Compressibility (1/GPa) = 0.01853185
#
# Stress axis : x y z
#
# Youngs Moduli (GPa) = 76.22277 90.81457 88.51913
#
# Poissons Ratio (x) = 0.25227 0.24271
# Poissons Ratio (y) = 0.21174 0.25921
# Poissons Ratio (z) = 0.20899 0.26593
#
# Static dielectric constant tensor:
#      x y z
#    x 1.756910 0.010340 -0.006620 
#    y 0.010340 1.730790 -0.003720 
#    z -0.006620 -0.003720 1.729650 
# 
# From -- ./inp_files/184335.got.cif
#   From: 2010.05.17/outbox.cif.g08.bks.cpg/sg2_93_cif.got.tgz:184335.got - 2010.06.03 11:33:40.
