data_PCOD9014297
_publ_section_title
;
Structure prediction by ZEFSAII (Michael W. Deem and Ramdas Pophale) SiO2 
 PCOD9014297
Probable space group: P -1
;
_chemical_formula_sum "Si O2"
_cell_formula_units_Z 16
_cell_length_a 14.338283
_cell_length_b 18.147357
_cell_length_c 6.456697
_cell_angle_alpha 119.058573
_cell_angle_beta 75.322113
_cell_angle_gamma 148.586198
_cell_volume 715.974064
_symmetry_space_group_name_H-M "P -1"
_symmetry_group_IT_number 2
_symmetry_cell_setting 'triclinic'
loop_
_space_group_symop_operation_xyz
x,y,z
-x,-y,-z
loop_
_atom_site_type_symbol
_atom_site_label
_atom_site_fract_x
_atom_site_fract_y
_atom_site_fract_z
Si Si1 0.281700 0.554107 0.744087
Si Si2 0.112966 0.876022 0.340108
Si Si3 0.174664 0.588180 0.233396
Si Si4 0.545824 0.474731 0.750901
Si Si5 0.493495 0.241273 0.465927
Si Si6 0.714820 0.143163 0.503275
Si Si7 0.763188 0.667670 0.511865
Si Si8 0.957260 0.301370 0.222970
O O1 0.463928 0.729886 0.763640
O O2 0.321484 0.489443 0.709613
O O3 0.115660 0.419408 0.478239
O O4 0.213892 0.560456 0.975323
O O5 0.202071 0.868285 0.418001
O O6 0.966578 0.816248 0.487232
O O7 0.282458 0.061209 0.410843
O O8 0.021774 0.758645 0.033896
O O9 0.359779 0.711669 0.442912
O O10 0.171615 0.682781 0.303149
O O11 0.996613 0.416239 0.227097
O O12 0.549906 0.380107 0.679339
O O13 0.731901 0.643950 0.745015
O O14 0.366221 0.355852 0.536865
O O15 0.500000 0.500000 0.000000
O O16 0.755604 0.148663 0.248278
O O17 0.500000 0.000000 0.500000
#
# Coordination Sequence:
#
# PCOD9014297 Si02
#       8
#     2   2   2   2   2   2   2   2
#     4  10  21  42  67  94 123 173 217 266 317 381
#     4  12  25  43  64  97 137 170 211 268 323 385
#     4  11  22  43  67  89 129 170 225 269 311 383
#     4  10  22  41  71  97 123 165 214 268 319 390
#     4  10  24  40  65  98 130 168 210 263 331 380
#     4  12  26  42  61  98 133 174 218 269 323 373
#     4  10  21  41  67  93 127 161 215 262 320 384
#     4  11  24  41  66  92 127 177 218 267 315 381
#
# _framework density 22.347178
#
# number of rings (size 3 to 8) (size 9 to 14) (size 15 to 20)
#    0.000    1.250    3.750    1.125    5.250    5.000 
#    0.000    0.625    0.000    0.000    0.000    0.000 
#    0.000    0.000    0.000    0.000    0.000    0.000 
#
# Total GULP energy -89418.271036 kJ/mol
# GULP energy per Si atom -5588.641940 kJ/mol
# Density = 2.229632 g / cm^3
# Si number density = 22.347178 Si / 1000 Ang^3
#
#
#
# Elastic Constant Matrix: (Units=GPa)
#
#
# Indices 1 2 3 4 5 6 
#
# 1 71.3652 16.8497 -8.8944 -9.0402 -1.2320 8.3569
# 2 16.8497 177.4367 21.9072 -30.0396 1.9142 14.2240
# 3 -8.8944 21.9072 51.9640 -26.2549 -12.8466 2.4686
# 4 -9.0402 -30.0396 -26.2549 31.3083 7.0161 -7.9377
# 5 -1.2320 1.9142 -12.8466 7.0161 28.2810 -5.1726
# 6 8.3569 14.2240 2.4686 -7.9377 -5.1726 37.7562
#
#
#
# Elastic Compliance Matrix: (Units=1/GPa)
#
#
# Indices 1 2 3 4 5 6 
#
# 1 0.017031 -0.000782 0.009563 0.011363 0.002058 -0.001429
# 2 -0.000782 0.006974 -0.000459 0.006282 -0.002538 -0.001451
# 3 0.009563 -0.000459 0.041862 0.036011 0.011342 0.004444
# 4 0.011363 0.006282 0.036011 0.073599 -0.000333 0.008191
# 5 0.002058 -0.002538 0.011342 -0.000333 0.041847 0.005422
# 6 -0.001429 -0.001451 0.004444 0.008191 0.005422 0.029523
#
#
# Mechanical properties :
#
#
# Convention : Reuss Voigt Hill
#
# Bulk Modulus (GPa) = 12.11953 40.05455 26.08704
# Shear Modulus (GPa) = 22.55348 37.52933 30.04140
#
# Velocity S-wave (km/s) = 3.18029 4.10247 3.67045
# Velocity P-wave (km/s) = 4.34979 6.35633 5.44627
#
# Compressibility (1/GPa) = 0.08251143
#
# Stress axis : x y z
#
# Youngs Moduli (GPa) = 58.71582 143.39166 23.88816
#
# Poissons Ratio (x) = 0.11211 -0.22844
# Poissons Ratio (y) = 0.04591 0.01095
# Poissons Ratio (z) = -0.56148 0.06575
#
# Static dielectric constant tensor:
#      x y z
#    x 1.822080 0.031460 0.027030 
#    y 0.031460 1.872070 -0.020000 
#    z 0.027030 -0.020000 1.869950 
# 
# From -- ./inp_files/47155.got.cif
#   From: 2010.05.17/outbox.cif.g08.bks.cpg/sg2_24_cif.got.tgz:47155.got - 2010.06.03 11:33:40.
