data_PCOD9014290
_publ_section_title
;
Structure prediction by ZEFSAII (Michael W. Deem and Ramdas Pophale) SiO2 
 PCOD9014290
Probable space group: P -1
;
_chemical_formula_sum "Si O2"
_cell_formula_units_Z 16
_cell_length_a 16.795829
_cell_length_b 18.932263
_cell_length_c 12.515737
_cell_angle_alpha 38.155941
_cell_angle_beta 23.816331
_cell_angle_gamma 26.103253
_cell_volume 693.075896
_symmetry_space_group_name_H-M "P -1"
_symmetry_group_IT_number 2
_symmetry_cell_setting 'triclinic'
loop_
_space_group_symop_operation_xyz
x,y,z
-x,-y,-z
loop_
_atom_site_type_symbol
_atom_site_label
_atom_site_fract_x
_atom_site_fract_y
_atom_site_fract_z
Si Si1 0.338035 0.176071 0.942757
Si Si2 0.724330 0.635266 0.748384
Si Si3 0.621928 0.289719 0.459616
Si Si4 0.763991 0.922541 0.007007
Si Si5 0.701318 0.911843 0.460179
Si Si6 0.278583 0.681734 0.107066
Si Si7 0.857755 0.348633 0.466265
Si Si8 0.404601 0.742452 0.218501
O O1 0.534939 0.198220 0.641941
O O2 0.169208 0.193372 0.031089
O O3 0.122908 0.305131 0.144855
O O4 0.500000 0.000000 0.000000
O O5 0.740606 0.760974 0.600094
O O6 0.000000 0.500000 0.500000
O O7 0.463196 0.703125 0.913305
O O8 0.662145 0.613786 0.970652
O O9 0.417804 0.465296 0.446907
O O10 0.576738 0.308046 0.622623
O O11 0.945572 0.181198 0.163136
O O12 0.677102 0.088394 0.881156
O O13 0.504348 0.971791 0.328376
O O14 0.019067 0.829672 0.174443
O O15 0.500000 0.000000 0.500000
O O16 0.128645 0.679032 0.392812
O O17 0.500000 0.500000 0.000000
O O18 0.837155 0.233860 0.569823
#
# Coordination Sequence:
#
# PCOD9014290 Si02
#       8
#     2   2   2   2   2   2   2   2
#     4  12  23  41  67  94 135 177 221 265 343 406
#     4  10  22  43  70 100 131 184 225 271 347 403
#     4  12  24  41  65 101 135 176 223 280 335 399
#     4  11  24  43  65  95 135 180 219 272 344 402
#     4  11  26  46  70 101 133 171 234 285 331 404
#     4  11  24  45  72  94 133 181 221 277 347 401
#     4  11  25  42  65 101 135 171 229 282 333 403
#     4  10  21  41  67  92 137 179 219 271 337 402
#
# _framework density 23.085494000000001
#
# number of rings (size 3 to 8) (size 9 to 14) (size 15 to 20)
#    0.000    1.000    3.750    2.625    3.500    2.500 
#    2.250    0.000    0.000    0.000    0.000    0.000 
#    0.000    0.000    0.000    0.000    0.000    0.000 
#
# Total GULP energy -89320.925734 kJ/mol
# GULP energy per Si atom -5582.557858 kJ/mol
# Density = 2.303295 g / cm^3
# Si number density = 23.085494 Si / 1000 Ang^3
#
#
#
# Elastic Constant Matrix: (Units=GPa)
#
#
# Indices 1 2 3 4 5 6 
#
# 1 94.8130 16.1855 23.0232 2.6250 -14.6676 4.5156
# 2 16.1855 41.0237 9.1202 12.0308 -15.6075 -6.4820
# 3 23.0232 9.1202 105.7468 29.5617 -17.9157 4.8108
# 4 2.6250 12.0308 29.5617 30.5946 6.4460 -8.9945
# 5 -14.6676 -15.6075 -17.9157 6.4460 50.2204 3.0471
# 6 4.5156 -6.4820 4.8108 -8.9945 3.0471 34.1964
#
#
#
# Elastic Compliance Matrix: (Units=1/GPa)
#
#
# Indices 1 2 3 4 5 6 
#
# 1 0.012208 -0.005141 -0.003006 0.003374 0.000543 -0.001324
# 2 -0.005141 0.038614 0.008227 -0.026772 0.016974 -0.001713
# 3 -0.003006 0.008227 0.019593 -0.027266 0.012721 -0.009105
# 4 0.003374 -0.026772 -0.027266 0.081969 -0.028945 0.022454
# 5 0.000543 0.016974 0.012721 -0.028945 0.034164 -0.009301
# 6 -0.001324 -0.001713 -0.009105 0.022454 -0.009301 0.037109
#
#
# Mechanical properties :
#
#
# Convention : Reuss Voigt Hill
#
# Bulk Modulus (GPa) = 14.16912 37.58237 25.87574
# Shear Modulus (GPa) = 20.24129 35.88594 28.06361
#
# Velocity S-wave (km/s) = 2.96429 3.94697 3.49038
# Velocity P-wave (km/s) = 4.22694 6.08986 5.24182
#
# Compressibility (1/GPa) = 0.07057602
#
# Stress axis : x y z
#
# Youngs Moduli (GPa) = 81.91251 25.89741 51.03898
#
# Poissons Ratio (x) = 0.13313 0.15341
# Poissons Ratio (y) = 0.42109 -0.41990
# Poissons Ratio (z) = 0.24621 -0.21306
#
# Static dielectric constant tensor:
#      x y z
#    x 1.934830 0.001360 0.076040 
#    y 0.001360 1.841650 0.067350 
#    z 0.076040 0.067350 2.070910 
# 
# From -- ./inp_files/456937.got.cif
#   From: 2010.05.17/outbox.cif.g08.bks.cpg/sg2_229_cif.got.tgz:456937.got - 2010.06.03 11:33:40.
