data_PCOD9014680
_publ_section_title
;
Structure prediction by ZEFSAII (Michael W. Deem and Ramdas Pophale) SiO2 
 PCOD9014680
Probable space group: P -1
;
_chemical_formula_sum "Si O2"
_cell_formula_units_Z 16
_cell_length_a 8.199748
_cell_length_b 26.459923
_cell_length_c 8.460721
_cell_angle_alpha 43.210360
_cell_angle_beta 146.350438
_cell_angle_gamma 136.233192
_cell_volume 663.412574
_symmetry_space_group_name_H-M "P -1"
_symmetry_group_IT_number 2
_symmetry_cell_setting 'triclinic'
loop_
_space_group_symop_operation_xyz
x,y,z
-x,-y,-z
loop_
_atom_site_type_symbol
_atom_site_label
_atom_site_fract_x
_atom_site_fract_y
_atom_site_fract_z
Si Si1 0.582021 0.780570 0.122995
Si Si2 0.920883 0.304536 0.293903
Si Si3 0.634609 0.999721 0.286607
Si Si4 0.426187 0.247550 0.299950
Si Si5 0.021766 0.437213 0.851189
Si Si6 0.983203 0.944945 0.959573
Si Si7 0.303131 0.827091 0.088398
Si Si8 0.382412 0.600138 0.687066
O O1 0.532231 0.799332 0.220776
O O2 0.779666 0.722605 0.371996
O O3 0.229066 0.744540 0.868544
O O4 0.749098 0.860927 0.989879
O O5 0.639628 0.278443 0.249403
O O6 0.990292 0.393017 0.092239
O O7 0.901812 0.976646 0.651170
O O8 0.702785 0.091022 0.170983
O O9 0.500000 0.000000 0.000000
O O10 0.330128 0.942226 0.250127
O O11 0.519807 0.172894 0.603943
O O12 0.561521 0.318823 0.367760
O O13 0.053526 0.224562 0.049751
O O14 0.131352 0.530186 0.734185
O O15 0.730568 0.405829 0.572115
O O16 0.293073 0.417173 0.018145
O O17 0.000000 0.000000 0.000000
#
# Coordination Sequence:
#
# PCOD9014680 Si02
#       8
#     2   2   2   2   2   2   2   2
#     4  12  26  44  71  95 135 180 229 286 336 411
#     4  12  26  42  66 103 136 177 222 283 341 403
#     4  12  28  46  72 101 140 183 229 296 364 419
#     4  12  26  42  66 101 141 174 223 281 347 404
#     4  10  21  41  69  97 132 174 229 266 332 409
#     4  12  26  48  72 102 134 180 243 293 348 418
#     4  12  26  45  70  96 134 184 230 278 343 419
#     4  10  21  41  68  98 131 178 219 277 328 411
#
# _framework density 24.117719000000001
#
# number of rings (size 3 to 8) (size 9 to 14) (size 15 to 20)
#    0.000    0.500    1.250    7.500    7.000    0.500 
#    0.000    0.000    0.000    7.500    0.000    0.000 
#    0.000    0.000    0.000    0.000    0.000    0.000 
#
# Total GULP energy -89294.408033 kJ/mol
# GULP energy per Si atom -5580.900502 kJ/mol
# Density = 2.406283 g / cm^3
# Si number density = 24.117719 Si / 1000 Ang^3
#
#
#
# Elastic Constant Matrix: (Units=GPa)
#
#
# Indices 1 2 3 4 5 6 
#
# 1 67.1412 21.1600 26.8123 -9.5819 8.4353 27.6085
# 2 21.1600 66.1815 28.7672 -12.2249 -1.2131 8.0746
# 3 26.8123 28.7672 134.0695 0.1965 7.0433 14.4929
# 4 -9.5819 -12.2249 0.1965 43.4090 15.7299 -4.8193
# 5 8.4353 -1.2131 7.0433 15.7299 36.3018 -1.4264
# 6 27.6085 8.0746 14.4929 -4.8193 -1.4264 33.5138
#
#
#
# Elastic Compliance Matrix: (Units=1/GPa)
#
#
# Indices 1 2 3 4 5 6 
#
# 1 0.027463 -0.004582 -0.001823 0.005999 -0.009577 -0.020277
# 2 -0.004582 0.018613 -0.003256 0.004191 0.000554 0.001324
# 3 -0.001823 -0.003256 0.008758 -0.001214 -0.000926 -0.001715
# 4 0.005999 0.004191 -0.001214 0.030554 -0.014322 -0.001643
# 5 -0.009577 0.000554 -0.000926 -0.014322 0.036477 0.007649
# 6 -0.020277 0.001324 -0.001715 -0.001643 0.007649 0.047054
#
#
# Mechanical properties :
#
#
# Convention : Reuss Voigt Hill
#
# Bulk Modulus (GPa) = 28.15895 46.76348 37.46121
# Shear Modulus (GPa) = 24.99020 35.35511 30.17266
#
# Velocity S-wave (km/s) = 3.22246 3.83291 3.54087
# Velocity P-wave (km/s) = 5.05437 6.24660 5.68184
#
# Compressibility (1/GPa) = 0.03551269
#
# Stress axis : x y z
#
# Youngs Moduli (GPa) = 36.41236 53.72611 114.18381
#
# Poissons Ratio (x) = 0.24616 0.20815
# Poissons Ratio (y) = 0.16683 0.37177
# Poissons Ratio (z) = 0.06638 0.17493
#
# Static dielectric constant tensor:
#      x y z
#    x 1.984110 -0.015570 -0.070370 
#    y -0.015570 1.955810 -0.040090 
#    z -0.070370 -0.040090 1.912500 
# 
# From -- ./inp_files/223533.got.cif
#   From: 2010.05.17/outbox.cif.g08.bks.cpg/sg2_112_cif.got.tgz:223533.got - 2010.06.03 11:33:40.
