data_PCOD9014674
_publ_section_title
;
Structure prediction by ZEFSAII (Michael W. Deem and Ramdas Pophale) SiO2 
 PCOD9014674
Probable space group: P -1
;
_chemical_formula_sum "Si O2"
_cell_formula_units_Z 14
_cell_length_a 7.649764
_cell_length_b 19.546436
_cell_length_c 6.064472
_cell_angle_alpha 116.456671
_cell_angle_beta 104.197250
_cell_angle_gamma 41.297271
_cell_volume 529.601509
_symmetry_space_group_name_H-M "P -1"
_symmetry_group_IT_number 2
_symmetry_cell_setting 'triclinic'
loop_
_space_group_symop_operation_xyz
x,y,z
-x,-y,-z
loop_
_atom_site_type_symbol
_atom_site_label
_atom_site_fract_x
_atom_site_fract_y
_atom_site_fract_z
Si Si1 0.239349 0.577357 0.881670
Si Si2 0.062573 0.066785 0.553904
Si Si3 0.447061 0.869141 0.087751
Si Si4 0.096940 0.186639 0.058710
Si Si5 0.751388 0.529743 0.660443
Si Si6 0.709548 0.233838 0.337998
Si Si7 0.786389 0.648195 0.134096
O O1 0.298047 0.529490 0.586904
O O2 0.500000 0.500000 0.000000
O O3 0.104060 0.701618 0.995750
O O4 0.017842 0.590596 0.936100
O O5 0.160346 0.087360 0.814352
O O6 0.797119 0.188076 0.545064
O O7 0.275900 0.990852 0.313567
O O8 0.000000 0.000000 0.500000
O O9 0.602594 0.778864 0.211605
O O10 0.640868 0.842452 0.920372
O O11 0.285355 0.849274 0.905507
O O12 0.929607 0.220889 0.276055
O O13 0.585985 0.638746 0.600077
O O14 0.046864 0.413158 0.679172
O O15 0.657960 0.607817 0.960720
#
# Coordination Sequence:
#
# PCOD9014674 Si02
#       7
#     2   2   2   2   2   2   2
#     4  11  22  38  63 100 141 176 222 275 340 408
#     4  12  25  47  71  95 135 181 227 287 342 399
#     4  10  23  46  68  99 137 175 224 286 336 403
#     4  11  25  43  67 102 132 178 227 277 341 404
#     4  10  21  41  68  97 136 183 217 280 336 404
#     4  11  24  45  69 100 134 177 228 276 344 405
#     4   9  21  41  64  98 137 174 230 270 336 411
#
# _framework density 26.434971000000001
#
# number of rings (size 3 to 8) (size 9 to 14) (size 15 to 20)
#    0.000    1.429    1.429    3.000    0.000    5.143 
#   12.857    0.000    0.000    0.000    0.000    0.000 
#    0.000    0.000    0.000    0.000    0.000    0.000 
#
# Total GULP energy -78081.951976 kJ/mol
# GULP energy per Si atom -5577.282284 kJ/mol
# Density = 2.637480 g / cm^3
# Si number density = 26.434971 Si / 1000 Ang^3
#
#
#
# Elastic Constant Matrix: (Units=GPa)
#
#
# Indices 1 2 3 4 5 6 
#
# 1 129.5849 4.6387 22.6651 -1.0604 -34.7665 9.5919
# 2 4.6387 129.0863 22.9572 -16.9133 8.5731 6.6774
# 3 22.6651 22.9572 84.3457 11.2651 12.1837 -11.7046
# 4 -1.0604 -16.9133 11.2651 32.9324 10.3552 12.6253
# 5 -34.7665 8.5731 12.1837 10.3552 37.2710 -1.5002
# 6 9.5919 6.6774 -11.7046 12.6253 -1.5002 31.2953
#
#
#
# Elastic Compliance Matrix: (Units=1/GPa)
#
#
# Indices 1 2 3 4 5 6 
#
# 1 0.012979 0.000180 -0.006459 0.000729 0.013730 -0.006068
# 2 0.000180 0.011250 -0.005562 0.012963 -0.004605 -0.009986
# 3 -0.006459 -0.005562 0.020179 -0.013965 -0.006817 0.016021
# 4 0.000729 0.012963 -0.013965 0.059318 -0.015541 -0.032888
# 5 0.013730 -0.004605 -0.006817 -0.015541 0.047355 0.002764
# 6 -0.006068 -0.009986 0.016021 -0.032888 0.002764 0.055336
#
#
# Mechanical properties :
#
#
# Convention : Reuss Voigt Hill
#
# Bulk Modulus (GPa) = 48.25186 49.28211 48.76699
# Shear Modulus (GPa) = 21.09616 39.81680 30.45648
#
# Velocity S-wave (km/s) = 2.82802 3.88521 3.39798
# Velocity P-wave (km/s) = 5.38111 6.22975 5.82091
#
# Compressibility (1/GPa) = 0.02072459
#
# Stress axis : x y z
#
# Youngs Moduli (GPa) = 77.04635 88.88589 49.55688
#
# Poissons Ratio (x) = -0.01599 0.32011
# Poissons Ratio (y) = -0.01386 0.27565
# Poissons Ratio (z) = 0.49768 0.49441
#
# Static dielectric constant tensor:
#      x y z
#    x 2.244300 -0.047980 -0.074310 
#    y -0.047980 2.069260 0.002330 
#    z -0.074310 0.002330 2.045080 
# 
# From -- ./inp_files/53783.got.cif
#   From: 2010.05.17/outbox.cif.g08.bks.cpg/sg2_27_cif.got.tgz:53783.got - 2010.06.03 11:33:40.
