data_PCOD9014292
_publ_section_title
;
Structure prediction by ZEFSAII (Michael W. Deem and Ramdas Pophale) SiO2 
 PCOD9014292
Probable space group: P -1
;
_chemical_formula_sum "Si O2"
_cell_formula_units_Z 14
_cell_length_a 17.554105
_cell_length_b 6.635908
_cell_length_c 11.253715
_cell_angle_alpha 49.061525
_cell_angle_beta 44.079304
_cell_angle_gamma 74.049523
_cell_volume 639.232867
_symmetry_space_group_name_H-M "P -1"
_symmetry_group_IT_number 2
_symmetry_cell_setting 'triclinic'
loop_
_space_group_symop_operation_xyz
x,y,z
-x,-y,-z
loop_
_atom_site_type_symbol
_atom_site_label
_atom_site_fract_x
_atom_site_fract_y
_atom_site_fract_z
Si Si1 0.428915 0.181193 0.559214
Si Si2 0.972412 0.240116 0.365701
Si Si3 0.809758 0.791707 0.240463
Si Si4 0.800646 0.499604 0.129506
Si Si5 0.389761 0.247918 0.846397
Si Si6 0.760461 0.363639 0.646675
Si Si7 0.176677 0.032993 0.595959
O O1 0.291569 0.083055 0.719255
O O2 0.432974 0.177965 0.698357
O O3 0.499737 0.508321 0.311436
O O4 0.500000 0.000000 0.500000
O O5 0.892365 0.358822 0.491002
O O6 0.899500 0.103282 0.380789
O O7 0.000000 0.000000 0.500000
O O8 0.095901 0.465291 0.093468
O O9 0.855888 0.728950 0.087386
O O10 0.741959 0.473754 0.495379
O O11 0.882668 0.944143 0.217334
O O12 0.702327 0.597052 0.142669
O O13 0.758408 0.183206 0.357138
O O14 0.325097 0.952925 0.101320
O O15 0.755468 0.624593 0.634065
#
# Coordination Sequence:
#
# PCOD9014292 Si02
#       7
#     2   2   2   2   2   2   2
#     4  10  21  41  67  93 119 165 211 248 319 368
#     4  12  24  40  63  94 126 168 209 251 311 364
#     4   9  22  40  63  92 125 160 207 254 311 364
#     4  11  21  40  65  88 127 169 206 251 308 366
#     4  10  22  41  64  91 130 157 206 264 300 371
#     4  10  23  42  58  97 126 161 208 255 311 361
#     4  10  22  40  60  88 127 162 208 252 303 369
#
# _framework density 21.901251999999999
#
# number of rings (size 3 to 8) (size 9 to 14) (size 15 to 20)
#    0.857    0.857    2.857    1.286    0.000    4.571 
#    5.143    0.714    0.000    0.000    0.000    0.000 
#    0.000    0.000    0.000    0.000    0.000    0.000 
#
# Total GULP energy -77937.485055 kJ/mol
# GULP energy per Si atom -5566.963218 kJ/mol
# Density = 2.185140 g / cm^3
# Si number density = 21.901252 Si / 1000 Ang^3
#
#
#
# Elastic Constant Matrix: (Units=GPa)
#
#
# Indices 1 2 3 4 5 6 
#
# 1 41.9629 2.6174 4.4593 -18.6007 9.0345 -3.6230
# 2 2.6174 89.2039 31.1376 -13.3683 2.2574 -17.8445
# 3 4.4593 31.1376 87.9022 -8.2187 3.3035 -17.9558
# 4 -18.6007 -13.3683 -8.2187 27.2192 -4.4679 6.1947
# 5 9.0345 2.2574 3.3035 -4.4679 21.6642 -9.6702
# 6 -3.6230 -17.8445 -17.9558 6.1947 -9.6702 32.3787
#
#
#
# Elastic Compliance Matrix: (Units=1/GPa)
#
#
# Indices 1 2 3 4 5 6 
#
# 1 0.037235 0.002591 -0.000639 0.025290 -0.011891 -0.003149
# 2 0.002591 0.014459 -0.003554 0.006842 0.001832 0.005526
# 3 -0.000639 -0.003554 0.013908 0.000892 0.001339 0.005912
# 4 0.025290 0.006842 0.000892 0.058452 -0.001345 -0.004489
# 5 -0.011891 0.001832 0.001339 -0.001345 0.058555 0.018167
# 6 -0.003149 0.005526 0.005912 -0.004489 0.018167 0.043141
#
#
# Mechanical properties :
#
#
# Convention : Reuss Voigt Hill
#
# Bulk Modulus (GPa) = 16.02551 32.83308 24.42929
# Shear Modulus (GPa) = 20.01984 28.30939 24.16461
#
# Velocity S-wave (km/s) = 3.02668 3.59916 3.32527
# Velocity P-wave (km/s) = 4.42125 5.68295 5.09134
#
# Compressibility (1/GPa) = 0.06240050
#
# Stress axis : x y z
#
# Youngs Moduli (GPa) = 26.85629 69.16036 71.89986
#
# Poissons Ratio (x) = -0.17922 0.04593
# Poissons Ratio (y) = -0.06959 0.25551
# Poissons Ratio (z) = 0.01716 0.24577
#
# Static dielectric constant tensor:
#      x y z
#    x 1.799860 0.004700 -0.028130 
#    y 0.004700 1.874540 -0.027920 
#    z -0.028130 -0.027920 1.825330 
# 
# From -- ./inp_files/467997.got.cif
#   From: 2010.05.17/outbox.cif.g08.bks.cpg/sg2_234_cif.got.tgz:467997.got - 2010.06.03 11:33:40.
