data_PCOD9014108
_publ_section_title
;
Structure prediction by ZEFSAII (Michael W. Deem and Ramdas Pophale) SiO2 
 PCOD9014108
Probable space group: P -1
;
_chemical_formula_sum "Si O2"
_cell_formula_units_Z 16
_cell_length_a 19.980802
_cell_length_b 7.567585
_cell_length_c 5.315958
_cell_angle_alpha 75.513869
_cell_angle_beta 99.270683
_cell_angle_gamma 62.517685
_cell_volume 653.669610
_symmetry_space_group_name_H-M "P -1"
_symmetry_group_IT_number 2
_symmetry_cell_setting 'triclinic'
loop_
_space_group_symop_operation_xyz
x,y,z
-x,-y,-z
loop_
_atom_site_type_symbol
_atom_site_label
_atom_site_fract_x
_atom_site_fract_y
_atom_site_fract_z
Si Si1 0.761088 0.095025 0.133128
Si Si2 0.919727 0.983108 0.414571
Si Si3 0.323462 0.451762 0.854673
Si Si4 0.671825 0.912441 0.321798
Si Si5 0.794068 0.641874 0.871473
Si Si6 0.855525 0.214183 0.803462
Si Si7 0.497826 0.124948 0.205427
Si Si8 0.961803 0.468512 0.238210
O O1 0.714385 0.294543 0.228531
O O2 0.782353 0.187540 0.865873
O O3 0.848684 0.932765 0.359211
O O4 0.709632 0.986794 0.102725
O O5 0.079912 0.940458 0.894971
O O6 0.002500 0.785000 0.624074
O O7 0.882259 0.150758 0.559658
O O8 0.331065 0.301572 0.672380
O O9 0.261659 0.417786 0.988576
O O10 0.412325 0.342070 0.061492
O O11 0.733204 0.852507 0.607479
O O12 0.582770 0.105353 0.257953
O O13 0.836911 0.450431 0.760084
O O14 0.867124 0.613979 0.089031
O O15 0.500000 0.000000 0.500000
O O16 0.500000 0.000000 0.000000
O O17 0.000000 0.500000 0.500000
O O18 0.000000 0.500000 0.000000
#
# Coordination Sequence:
#
# PCOD9014108 Si02
#       8
#     2   2   2   2   2   2   2   2
#     4   9  22  39  65 100 131 173 222 272 323 393
#     4  10  21  42  61  88 133 169 213 277 323 379
#     4  10  22  43  65  97 137 170 224 275 327 399
#     4  11  22  39  71  97 132 180 220 266 342 391
#     4  11  24  40  70  93 128 180 222 267 341 395
#     4   9  22  41  65  92 128 172 217 277 324 387
#     4  10  21  41  66  97 135 172 217 274 327 394
#     4  12  28  42  61  96 135 169 222 283 325 390
#
# _framework density 24.477195999999999
#
# number of rings (size 3 to 8) (size 9 to 14) (size 15 to 20)
#    0.750    1.000    1.250    2.250    3.500    2.500 
#    0.000    0.000    0.000    3.000    0.000    0.000 
#    0.000    0.000    0.000    0.000    0.000    0.000 
#
# Total GULP energy -89283.163122 kJ/mol
# GULP energy per Si atom -5580.197695 kJ/mol
# Density = 2.442148 g / cm^3
# Si number density = 24.477196 Si / 1000 Ang^3
#
#
#
# Elastic Constant Matrix: (Units=GPa)
#
#
# Indices 1 2 3 4 5 6 
#
# 1 139.2389 25.3966 50.6069 -10.3380 25.1171 -22.3460
# 2 25.3966 87.0031 41.9997 5.6743 21.0849 -8.7553
# 3 50.6069 41.9997 136.8761 -7.6002 15.1728 -20.4744
# 4 -10.3380 5.6743 -7.6002 44.0409 -16.9917 7.1262
# 5 25.1171 21.0849 15.1728 -16.9917 40.0075 -6.9246
# 6 -22.3460 -8.7553 -20.4744 7.1262 -6.9246 36.6709
#
#
#
# Elastic Compliance Matrix: (Units=1/GPa)
#
#
# Indices 1 2 3 4 5 6 
#
# 1 0.009451 -0.000065 -0.002457 -0.000547 -0.004574 0.003614
# 2 -0.000065 0.016426 -0.004158 -0.006773 -0.009736 0.001039
# 3 -0.002457 -0.004158 0.009889 0.001651 0.001193 0.002936
# 4 -0.000547 -0.006773 0.001651 0.030359 0.015488 -0.004004
# 5 -0.004574 -0.009736 0.001193 0.015488 0.039112 -0.000070
# 6 0.003614 0.001039 0.002936 -0.004004 -0.000070 0.032124
#
#
# Mechanical properties :
#
#
# Convention : Reuss Voigt Hill
#
# Bulk Modulus (GPa) = 44.62980 66.56939 55.59960
# Shear Modulus (GPa) = 31.60791 40.48484 36.04637
#
# Velocity S-wave (km/s) = 3.59739 4.07133 3.84168
# Velocity P-wave (km/s) = 5.96052 7.02542 6.51476
#
# Compressibility (1/GPa) = 0.02240655
#
# Stress axis : x y z
#
# Youngs Moduli (GPa) = 105.80401 60.88036 101.12566
#
# Poissons Ratio (x) = 0.00394 0.24849
# Poissons Ratio (y) = 0.00685 0.42044
# Poissons Ratio (z) = 0.25998 0.25312
#
# Static dielectric constant tensor:
#      x y z
#    x 2.023190 0.070100 0.030490 
#    y 0.070100 1.995640 -0.004230 
#    z 0.030490 -0.004230 1.933140 
# 
# From -- ./inp_files/116955.got.cif
#   From: 2010.05.17/outbox.cif.g08.bks.cpg/sg2_59_cif.got.tgz:116955.got - 2010.06.03 11:33:40.
