data_PCOD9014074
_publ_section_title
;
Structure prediction by ZEFSAII (Michael W. Deem and Ramdas Pophale) SiO2 
 PCOD9014074
Probable space group: P -1
;
_chemical_formula_sum "Si O2"
_cell_formula_units_Z 16
_cell_length_a 10.454333
_cell_length_b 25.816153
_cell_length_c 20.082182
_cell_angle_alpha 19.167845
_cell_angle_beta 28.354128
_cell_angle_gamma 28.294151
_cell_volume 801.834530
_symmetry_space_group_name_H-M "P -1"
_symmetry_group_IT_number 2
_symmetry_cell_setting 'triclinic'
loop_
_space_group_symop_operation_xyz
x,y,z
-x,-y,-z
loop_
_atom_site_type_symbol
_atom_site_label
_atom_site_fract_x
_atom_site_fract_y
_atom_site_fract_z
Si Si1 0.715430 0.665017 0.663563
Si Si2 0.403403 0.198402 0.298379
Si Si3 0.689597 0.308053 0.637284
Si Si4 0.081309 0.690838 0.062995
Si Si5 0.453416 0.286347 0.632202
Si Si6 0.401983 0.044853 0.115865
Si Si7 0.724124 0.140059 0.479636
Si Si8 0.132271 0.637365 0.746438
O O1 0.659741 0.713252 0.707659
O O2 0.462960 0.771218 0.604028
O O3 0.997109 0.710396 0.461802
O O4 0.790120 0.471098 0.845654
O O5 0.666118 0.258013 0.080176
O O6 0.122792 0.250613 0.318593
O O7 0.500000 0.000000 0.500000
O O8 0.500000 0.500000 0.500000
O O9 0.665568 0.265698 0.622301
O O10 0.858656 0.653910 0.262685
O O11 0.899191 0.843061 0.914233
O O12 0.575764 0.392641 0.394254
O O13 0.480539 0.108706 0.802487
O O14 0.565912 0.178090 0.886938
O O15 0.412982 0.955138 0.289769
O O16 0.811054 0.272429 0.323425
O O17 0.000000 0.000000 0.500000
O O18 0.000000 0.500000 0.000000
#
# Coordination Sequence:
#
# PCOD9014074 Si02
#       8
#     2   2   2   2   2   2   2   2
#     4  12  24  41  68  97 134 170 223 271 325 395
#     4  12  25  41  67  98 125 169 230 271 315 389
#     4  11  20  38  67 102 128 165 222 273 321 389
#     4  11  22  40  67 100 130 173 219 275 326 389
#     4  10  21  41  66  96 132 169 215 268 333 384
#     4  10  22  40  66  92 135 174 211 270 333 381
#     4  11  25  46  60  92 136 177 210 270 343 388
#     4  11  24  44  67  93 128 171 214 273 325 388
#
# _framework density 19.954239999999999
#
# number of rings (size 3 to 8) (size 9 to 14) (size 15 to 20)
#    0.000    1.000    3.750    5.625    1.750    2.500 
#    0.000    5.625    0.000    0.000    0.000    0.000 
#    0.000    0.000    0.000    0.000    0.000    0.000 
#
# Total GULP energy -89271.087205 kJ/mol
# GULP energy per Si atom -5579.442950 kJ/mol
# Density = 1.990882 g / cm^3
# Si number density = 19.954240 Si / 1000 Ang^3
#
#
#
# Elastic Constant Matrix: (Units=GPa)
#
#
# Indices 1 2 3 4 5 6 
#
# 1 62.7465 11.4166 -11.8179 0.4956 -11.6211 -17.4395
# 2 11.4166 80.7503 14.6986 -8.6097 -0.7754 -5.5804
# 3 -11.8179 14.6986 105.7953 -0.1229 -24.0381 0.1902
# 4 0.4956 -8.6097 -0.1229 25.8541 -5.7569 -10.6604
# 5 -11.6211 -0.7754 -24.0381 -5.7569 35.2597 2.8366
# 6 -17.4395 -5.5804 0.1902 -10.6604 2.8366 28.8558
#
#
#
# Elastic Compliance Matrix: (Units=1/GPa)
#
#
# Indices 1 2 3 4 5 6 
#
# 1 0.023894 -0.002369 0.005634 0.007854 0.011683 0.015699
# 2 -0.002369 0.014046 -0.002570 0.005855 -0.001559 0.003618
# 3 0.005634 -0.002570 0.012890 0.002628 0.010797 0.002733
# 4 0.007854 0.005855 0.002628 0.053026 0.011208 0.024350
# 5 0.011683 -0.001559 0.010797 0.011208 0.040820 0.006816
# 6 0.015699 0.003618 0.002733 0.024350 0.006816 0.053150
#
#
# Mechanical properties :
#
#
# Convention : Reuss Voigt Hill
#
# Bulk Modulus (GPa) = 19.14990 30.87630 25.01310
# Shear Modulus (GPa) = 23.38147 33.66022 28.52085
#
# Velocity S-wave (km/s) = 3.42680 4.11161 3.78473
# Velocity P-wave (km/s) = 5.02743 6.16827 5.62684
#
# Compressibility (1/GPa) = 0.05221959
#
# Stress axis : x y z
#
# Youngs Moduli (GPa) = 41.85076 71.19481 77.57917
#
# Poissons Ratio (x) = 0.16867 -0.43707
# Poissons Ratio (y) = 0.09915 0.19938
# Poissons Ratio (z) = -0.23578 0.18298
#
# Static dielectric constant tensor:
#      x y z
#    x 1.556110 -0.098790 -0.076420 
#    y -0.098790 1.658300 -0.012340 
#    z -0.076420 -0.012340 1.720710 
# 
# From -- ./inp_files/563278.got.cif
#   From: 2010.05.17/outbox.cif.g08.bks.cpg/sg2_282_cif.got.tgz:563278.got - 2010.06.03 11:33:40.
