data_PCOD9014888
_publ_section_title
;
Structure prediction by ZEFSAII (Michael W. Deem and Ramdas Pophale) SiO2 
 PCOD9014888
Probable space group: P -1
;
_chemical_formula_sum "Si O2"
_cell_formula_units_Z 14
_cell_length_a 14.594410
_cell_length_b 8.457004
_cell_length_c 9.919900
_cell_angle_alpha 95.499347
_cell_angle_beta 126.839273
_cell_angle_gamma 125.656613
_cell_volume 580.168107
_symmetry_space_group_name_H-M "P -1"
_symmetry_group_IT_number 2
_symmetry_cell_setting 'triclinic'
loop_
_space_group_symop_operation_xyz
x,y,z
-x,-y,-z
loop_
_atom_site_type_symbol
_atom_site_label
_atom_site_fract_x
_atom_site_fract_y
_atom_site_fract_z
Si Si1 0.779958 0.794906 0.249087
Si Si2 0.706977 0.526934 0.410248
Si Si3 0.273548 0.284175 0.288043
Si Si4 0.203570 0.430178 0.995061
Si Si5 0.874235 0.204628 0.830545
Si Si6 0.361921 0.938069 0.179138
Si Si7 0.073803 0.725616 0.677452
O O1 0.654120 0.578662 0.240289
O O2 0.784330 0.988440 0.246059
O O3 0.756681 0.663056 0.084447
O O4 0.000000 0.000000 0.500000
O O5 0.772052 0.716111 0.601085
O O6 0.882415 0.608919 0.534997
O O7 0.540430 0.231156 0.299626
O O8 0.500000 0.500000 0.500000
O O9 0.232361 0.379927 0.159437
O O10 0.152440 0.990713 0.126797
O O11 0.354783 0.741373 0.137404
O O12 0.987083 0.267194 0.800895
O O13 0.671149 0.053767 0.691407
O O14 0.000000 0.500000 0.000000
O O15 0.182548 0.791689 0.913467
O O16 0.000000 0.500000 0.500000
#
# Coordination Sequence:
#
# PCOD9014888 Si02
#       7
#     2   2   2   2   2   2   2
#     4  10  22  43  70 101 135 180 229 287 353 417
#     4  11  25  46  71 102 146 179 234 298 345 423
#     4  12  24  45  68 104 141 183 233 288 350 422
#     4  11  24  43  72  97 140 184 233 286 351 422
#     4  10  21  41  69  98 132 181 228 283 347 414
#     4  11  23  44  67 105 140 181 236 291 355 414
#     4  11  24  43  69 101 138 185 234 286 357 423
#
# _framework density 24.130936999999999
#
# number of rings (size 3 to 8) (size 9 to 14) (size 15 to 20)
#    0.000    1.143    1.429    5.571    0.000    4.571 
#    7.714    0.000    0.000    0.000    0.000    0.000 
#    0.000    0.000    0.000    0.000    0.000    0.000 
#
# Total GULP energy -78114.594172 kJ/mol
# GULP energy per Si atom -5579.613869 kJ/mol
# Density = 2.407601 g / cm^3
# Si number density = 24.130937 Si / 1000 Ang^3
#
#
#
# Elastic Constant Matrix: (Units=GPa)
#
#
# Indices 1 2 3 4 5 6 
#
# 1 130.3188 43.7031 35.7549 12.7621 -28.6397 -8.8385
# 2 43.7031 216.2428 34.1626 30.5958 -11.7007 -17.9013
# 3 35.7549 34.1626 69.5533 5.2583 -10.3971 -3.9014
# 4 12.7621 30.5958 5.2583 34.7407 -0.4341 -4.4209
# 5 -28.6397 -11.7007 -10.3971 -0.4341 37.6781 6.3639
# 6 -8.8385 -17.9013 -3.9014 -4.4209 6.3639 48.2171
#
#
#
# Elastic Compliance Matrix: (Units=1/GPa)
#
#
# Indices 1 2 3 4 5 6 
#
# 1 0.010778 -0.000814 -0.003922 -0.002535 0.006790 0.000228
# 2 -0.000814 0.005860 -0.001996 -0.004375 0.000361 0.001416
# 3 -0.003922 -0.001996 0.017513 0.000543 0.001265 -0.000160
# 4 -0.002535 -0.004375 0.000543 0.033632 -0.002991 0.001433
# 5 0.006790 0.000361 0.001265 -0.002991 0.032653 -0.003103
# 6 0.000228 0.001416 -0.000160 0.001433 -0.003103 0.021835
#
#
# Mechanical properties :
#
#
# Convention : Reuss Voigt Hill
#
# Bulk Modulus (GPa) = 48.33531 71.48404 59.90967
# Shear Modulus (GPa) = 35.05587 44.29347 39.67467
#
# Velocity S-wave (km/s) = 3.81561 4.28898 4.05920
# Velocity P-wave (km/s) = 6.28377 7.36307 6.84473
#
# Compressibility (1/GPa) = 0.02068881
#
# Stress axis : x y z
#
# Youngs Moduli (GPa) = 92.77863 170.64888 57.10116
#
# Poissons Ratio (x) = 0.13887 0.22393
# Poissons Ratio (y) = 0.07550 0.11396
# Poissons Ratio (z) = 0.36384 0.34058
#
# Static dielectric constant tensor:
#      x y z
#    x 2.016430 0.024510 0.027510 
#    y 0.024510 1.957250 -0.008760 
#    z 0.027510 -0.008760 1.961720 
# 
# From -- ./inp_files/295621.got.cif
#   From: 2010.05.17/outbox.cif.g08.bks.cpg/sg2_148_cif.got.tgz:295621.got - 2010.06.03 11:33:40.
