data_PCOD9014178
_publ_section_title
;
Structure prediction by ZEFSAII (Michael W. Deem and Ramdas Pophale) SiO2 
 PCOD9014178
Probable space group: P -1
;
_chemical_formula_sum "Si O2"
_cell_formula_units_Z 14
_cell_length_a 18.255800
_cell_length_b 7.602838
_cell_length_c 9.569071
_cell_angle_alpha 52.529599
_cell_angle_beta 147.686204
_cell_angle_gamma 130.791514
_cell_volume 532.300503
_symmetry_space_group_name_H-M "P -1"
_symmetry_group_IT_number 2
_symmetry_cell_setting 'triclinic'
loop_
_space_group_symop_operation_xyz
x,y,z
-x,-y,-z
loop_
_atom_site_type_symbol
_atom_site_label
_atom_site_fract_x
_atom_site_fract_y
_atom_site_fract_z
Si Si1 0.580385 0.646198 0.253611
Si Si2 0.828020 0.896810 0.885745
Si Si3 0.871760 0.023812 0.188268
Si Si4 0.495084 0.795024 0.470401
Si Si5 0.711350 0.512345 0.260133
Si Si6 0.929969 0.293412 0.643064
Si Si7 0.274566 0.834993 0.879404
O O1 0.578791 0.470834 0.462649
O O2 0.631025 0.505703 0.279050
O O3 0.676937 0.909542 0.242731
O O4 0.414725 0.647646 0.965848
O O5 0.660522 0.826518 0.684496
O O6 0.859504 0.040948 0.725201
O O7 0.906217 0.062359 0.063293
O O8 0.903892 0.697755 0.099400
O O9 0.751272 0.767422 0.133473
O O10 0.807023 0.188507 0.090300
O O11 0.000000 0.000000 0.500000
O O12 0.500000 0.000000 0.500000
O O13 0.422118 0.817338 0.192895
O O14 0.859551 0.454979 0.540706
O O15 0.854325 0.300213 0.369373
#
# Coordination Sequence:
#
# PCOD9014178 Si02
#       7
#     2   2   2   2   2   2   2
#     4  10  21  41  67 101 131 174 226 270 328 396
#     4  11  23  42  67  92 135 178 214 271 343 391
#     4  11  21  43  68  95 128 176 232 268 317 409
#     4  12  21  40  72  98 128 177 231 269 324 396
#     4  10  21  41  67  93 134 176 215 275 339 389
#     4  11  25  44  65  97 141 172 213 281 345 387
#     4  11  24  42  70 102 134 171 225 284 321 390
#
# _framework density 26.300932
#
# number of rings (size 3 to 8) (size 9 to 14) (size 15 to 20)
#    0.000    1.143    4.286    3.429    0.000    2.857 
#    2.571    3.571    0.000    0.000    0.000    0.000 
#    0.000    0.000    0.000    0.000    0.000    0.000 
#
# Total GULP energy -78148.554218 kJ/mol
# GULP energy per Si atom -5582.039587 kJ/mol
# Density = 2.624107 g / cm^3
# Si number density = 26.300932 Si / 1000 Ang^3
#
#
#
# Elastic Constant Matrix: (Units=GPa)
#
#
# Indices 1 2 3 4 5 6 
#
# 1 102.1021 24.4471 79.3651 -14.3186 8.2791 -3.1010
# 2 24.4471 79.3605 32.6601 -26.7105 -12.1563 6.8791
# 3 79.3651 32.6601 189.1096 -14.7053 -1.3289 -9.8946
# 4 -14.3186 -26.7105 -14.7053 41.7920 7.4662 -10.1632
# 5 8.2791 -12.1563 -1.3289 7.4662 68.0257 -13.4267
# 6 -3.1010 6.8791 -9.8946 -10.1632 -13.4267 22.5347
#
#
#
# Elastic Compliance Matrix: (Units=1/GPa)
#
#
# Indices 1 2 3 4 5 6 
#
# 1 0.015457 -0.001860 -0.006028 0.002346 -0.002686 -0.000495
# 2 -0.001860 0.017330 -0.001508 0.009353 0.002124 -0.000725
# 3 -0.006028 -0.001508 0.008383 0.000761 0.001435 0.004510
# 4 0.002346 0.009353 0.000761 0.034182 0.000292 0.013392
# 5 -0.002686 0.002124 0.001435 0.000292 0.017398 0.010110
# 6 -0.000495 -0.000725 0.004510 0.013392 0.010110 0.058573
#
#
# Mechanical properties :
#
#
# Convention : Reuss Voigt Hill
#
# Bulk Modulus (GPa) = 44.68578 71.50187 58.09383
# Shear Modulus (GPa) = 28.15702 42.07712 35.11707
#
# Velocity S-wave (km/s) = 3.27551 4.00413 3.65801
# Velocity P-wave (km/s) = 5.59753 6.97298 6.32277
#
# Compressibility (1/GPa) = 0.02237848
#
# Stress axis : x y z
#
# Youngs Moduli (GPa) = 64.69607 57.70194 119.28198
#
# Poissons Ratio (x) = 0.10732 0.71904
# Poissons Ratio (y) = 0.12033 0.17990
# Poissons Ratio (z) = 0.38999 0.08703
#
# Static dielectric constant tensor:
#      x y z
#    x 2.173640 -0.091050 0.071830 
#    y -0.091050 2.149830 0.092290 
#    z 0.071830 0.092290 2.147890 
# 
# From -- ./inp_files/296290.got.cif
#   From: 2010.05.17/outbox.cif.g08.bks.cpg/sg2_149_cif.got.tgz:296290.got - 2010.06.03 11:33:40.
