data_PCOD9014847
_publ_section_title
;
Structure prediction by ZEFSAII (Michael W. Deem and Ramdas Pophale) SiO2 
 PCOD9014847
Probable space group: P -1
;
_chemical_formula_sum "Si O2"
_cell_formula_units_Z 16
_cell_length_a 16.552795
_cell_length_b 5.091393
_cell_length_c 9.211285
_cell_angle_alpha 72.614548
_cell_angle_beta 67.393114
_cell_angle_gamma 107.240154
_cell_volume 604.828829
_symmetry_space_group_name_H-M "P -1"
_symmetry_group_IT_number 2
_symmetry_cell_setting 'triclinic'
loop_
_space_group_symop_operation_xyz
x,y,z
-x,-y,-z
loop_
_atom_site_type_symbol
_atom_site_label
_atom_site_fract_x
_atom_site_fract_y
_atom_site_fract_z
Si Si1 0.989182 0.292358 0.398737
Si Si2 0.571423 0.917781 0.867364
Si Si3 0.631293 0.929728 0.528788
Si Si4 0.902971 0.496757 0.006932
Si Si5 0.837933 0.499779 0.336402
Si Si6 0.690330 0.993684 0.175973
Si Si7 0.252935 0.402974 0.360113
Si Si8 0.320340 0.408447 0.021506
O O1 0.895339 0.306938 0.380067
O O2 0.000000 0.500000 0.500000
O O3 0.000000 0.000000 0.500000
O O4 0.072426 0.416366 0.192337
O O5 0.680906 0.222644 0.758726
O O6 0.552600 0.901174 0.709297
O O7 0.500000 0.000000 0.000000
O O8 0.591794 0.639480 0.957992
O O9 0.675762 0.713565 0.595962
O O10 0.722047 0.278031 0.420186
O O11 0.613459 0.852501 0.385018
O O12 0.882398 0.679598 0.125035
O O13 0.801472 0.175995 0.132513
O O14 0.000000 0.500000 0.000000
O O15 0.835779 0.677323 0.453974
O O16 0.668193 0.255221 0.076225
O O17 0.693638 0.764625 0.091506
O O18 0.236363 0.277214 0.227639
#
# Coordination Sequence:
#
# PCOD9014847 Si02
#       8
#     2   2   2   2   2   2   2   2
#     4  11  26  42  60  93 128 166 213 273 333 378
#     4  10  22  44  70  99 134 176 220 265 326 404
#     4   9  22  38  67  94 128 173 220 267 324 391
#     4   9  22  46  65  93 132 178 219 271 331 389
#     4   9  21  43  62  92 124 171 221 267 320 401
#     4  11  24  43  69  99 135 173 224 277 329 388
#     4  10  21  41  69  96 129 173 224 264 328 397
#     4  11  24  42  67 101 135 172 218 272 333 386
#
# _framework density 26.453762999999999
#
# number of rings (size 3 to 8) (size 9 to 14) (size 15 to 20)
#    0.000    2.000    1.250    0.000    8.750    5.000 
#    2.250    3.750    0.000    0.000    0.000    0.000 
#    0.000    0.000    0.000    0.000    0.000    0.000 
#
# Total GULP energy -89341.202839 kJ/mol
# GULP energy per Si atom -5583.825177 kJ/mol
# Density = 2.639355 g / cm^3
# Si number density = 26.453763 Si / 1000 Ang^3
#
#
#
# Elastic Constant Matrix: (Units=GPa)
#
#
# Indices 1 2 3 4 5 6 
#
# 1 83.8616 11.5046 16.8714 16.0286 -1.3474 -9.0896
# 2 11.5046 103.5010 65.5382 33.7212 9.6575 -26.7270
# 3 16.8714 65.5382 309.7166 69.0531 22.1052 -4.9760
# 4 16.0286 33.7212 69.0531 47.3427 0.0072 -2.4216
# 5 -1.3474 9.6575 22.1052 0.0072 43.4925 5.0456
# 6 -9.0896 -26.7270 -4.9760 -2.4216 5.0456 39.2277
#
#
#
# Elastic Compliance Matrix: (Units=1/GPa)
#
#
# Indices 1 2 3 4 5 6 
#
# 1 0.013146 0.001070 0.000397 -0.005610 -0.000441 0.003536
# 2 0.001070 0.016968 -0.000715 -0.010809 -0.004722 0.011658
# 3 0.000397 -0.000715 0.005112 -0.007075 -0.002441 0.000131
# 4 -0.005610 -0.010809 -0.007075 0.040634 0.006734 -0.007920
# 5 -0.000441 -0.004722 -0.002441 0.006734 0.026028 -0.006561
# 6 0.003536 0.011658 0.000131 -0.007920 -0.006561 0.034626
#
#
# Mechanical properties :
#
#
# Convention : Reuss Voigt Hill
#
# Bulk Modulus (GPa) = 27.22589 76.10086 51.66338
# Shear Modulus (GPa) = 33.95492 52.89024 43.42258
#
# Velocity S-wave (km/s) = 3.58656 4.47626 4.05588
# Velocity P-wave (km/s) = 5.24075 7.45290 6.44249
#
# Compressibility (1/GPa) = 0.03672975
#
# Stress axis : x y z
#
# Youngs Moduli (GPa) = 76.06684 58.93453 195.61789
#
# Poissons Ratio (x) = -0.06304 -0.07760
# Poissons Ratio (y) = -0.08136 0.13979
# Poissons Ratio (z) = -0.03018 0.04212
#
# Static dielectric constant tensor:
#      x y z
#    x 2.136360 0.149190 -0.006630 
#    y 0.149190 2.208990 0.005090 
#    z -0.006630 0.005090 2.167750 
# 
# From -- ./inp_files/340319.got.cif
#   From: 2010.05.17/outbox.cif.g08.bks.cpg/sg2_171_cif.got.tgz:340319.got - 2010.06.03 11:33:40.
