data_PCOD9014252
_publ_section_title
;
Structure prediction by ZEFSAII (Michael W. Deem and Ramdas Pophale) SiO2 
 PCOD9014252
Probable space group: P -1
;
_chemical_formula_sum "Si O2"
_cell_formula_units_Z 16
_cell_length_a 18.536995
_cell_length_b 5.330104
_cell_length_c 11.013110
_cell_angle_alpha 112.715539
_cell_angle_beta 66.298624
_cell_angle_gamma 66.460658
_cell_volume 693.184592
_symmetry_space_group_name_H-M "P -1"
_symmetry_group_IT_number 2
_symmetry_cell_setting 'triclinic'
loop_
_space_group_symop_operation_xyz
x,y,z
-x,-y,-z
loop_
_atom_site_type_symbol
_atom_site_label
_atom_site_fract_x
_atom_site_fract_y
_atom_site_fract_z
Si Si1 0.511660 0.445099 0.625042
Si Si2 0.568332 0.889962 0.784760
Si Si3 0.287881 0.789768 0.834258
Si Si4 0.798462 0.405827 0.950499
Si Si5 0.829649 0.911333 0.264504
Si Si6 0.012178 0.860940 0.103544
Si Si7 0.295624 0.110787 0.461075
Si Si8 0.642351 0.483763 0.890471
O O1 0.500000 0.500000 0.500000
O O2 0.521171 0.716298 0.732831
O O3 0.614789 0.063521 0.529467
O O4 0.407224 0.523142 0.742867
O O5 0.606790 0.801320 0.880946
O O6 0.676648 0.690040 0.601181
O O7 0.466877 0.317561 0.926587
O O8 0.266165 0.816461 0.710477
O O9 0.243002 0.193747 0.972493
O O10 0.236686 0.647499 0.907483
O O11 0.923699 0.118993 0.833424
O O12 0.739086 0.351715 0.883233
O O13 0.901141 0.012925 0.258014
O O14 0.799614 0.798910 0.380579
O O15 0.907180 0.566910 0.058573
O O16 0.000000 0.000000 0.000000
O O17 0.325109 0.822864 0.283327
#
# Coordination Sequence:
#
# PCOD9014252 Si02
#       8
#     2   2   2   2   2   2   2   2
#     4  11  22  35  56  91 133 165 209 259 321 385
#     4  10  22  39  58  88 128 179 217 253 311 383
#     4  11  22  39  62  98 126 170 207 275 318 397
#     4  11  23  39  70  92 127 164 226 265 324 386
#     4  10  22  40  61  96 126 158 216 265 343 386
#     4  10  21  41  67  90 121 164 209 279 333 396
#     4  11  23  38  61  90 133 173 208 269 318 384
#     4  10  22  39  60  90 123 179 218 258 301 390
#
# _framework density 23.081873999999999
#
# number of rings (size 3 to 8) (size 9 to 14) (size 15 to 20)
#    0.000    1.500    3.750    1.125    1.750    4.500 
#    0.000    0.625    0.000    1.500    0.000    0.000 
#    0.000    0.000    0.000    0.000    0.000    0.000 
#
# Total GULP energy -89159.663026 kJ/mol
# GULP energy per Si atom -5572.478939 kJ/mol
# Density = 2.302934 g / cm^3
# Si number density = 23.081874 Si / 1000 Ang^3
#
#
#
# Elastic Constant Matrix: (Units=GPa)
#
#
# Indices 1 2 3 4 5 6 
#
# 1 146.0739 16.9069 37.6052 -7.0518 -20.5881 -23.5232
# 2 16.9069 49.0763 4.4616 -14.7515 1.3895 -13.7209
# 3 37.6052 4.4616 86.5037 -21.3688 -14.3261 4.5887
# 4 -7.0518 -14.7515 -21.3688 28.3415 8.7527 3.2154
# 5 -20.5881 1.3895 -14.3261 8.7527 51.1739 -9.2094
# 6 -23.5232 -13.7209 4.5887 3.2154 -9.2094 33.3078
#
#
#
# Elastic Compliance Matrix: (Units=1/GPa)
#
#
# Indices 1 2 3 4 5 6 
#
# 1 0.010458 -0.002303 -0.005342 -0.005310 0.005331 0.009159
# 2 -0.002303 0.027778 0.002706 0.015816 -0.002319 0.007275
# 3 -0.005342 0.002706 0.017474 0.014322 -0.000990 -0.006722
# 4 -0.005310 0.015816 0.014322 0.056788 -0.009591 -0.007342
# 5 0.005331 -0.002319 -0.000990 -0.009591 0.025055 0.010799
# 6 0.009159 0.007275 -0.006722 -0.007342 0.010799 0.044109
#
#
# Mechanical properties :
#
#
# Convention : Reuss Voigt Hill
#
# Bulk Modulus (GPa) = 21.82032 44.40014 33.11023
# Shear Modulus (GPa) = 24.17583 37.40997 30.79290
#
# Velocity S-wave (km/s) = 3.23986 4.03022 3.65646
# Velocity P-wave (km/s) = 4.84454 6.39802 5.67469
#
# Compressibility (1/GPa) = 0.04582885
#
# Stress axis : x y z
#
# Youngs Moduli (GPa) = 95.62309 36.00018 57.22933
#
# Poissons Ratio (x) = 0.08292 0.30573
# Poissons Ratio (y) = 0.22025 -0.15483
# Poissons Ratio (z) = 0.51084 -0.09740
#
# Static dielectric constant tensor:
#      x y z
#    x 1.943810 0.101080 -0.056500 
#    y 0.101080 2.024380 0.021740 
#    z -0.056500 0.021740 1.963610 
# 
# From -- ./inp_files/110443.got.cif
#   From: 2010.05.17/outbox.cif.g08.bks.cpg/sg2_56_cif.got.tgz:110443.got - 2010.06.03 11:33:40.
