data_PCOD9014066
_publ_section_title
;
Structure prediction by ZEFSAII (Michael W. Deem and Ramdas Pophale) SiO2 
 PCOD9014066
Probable space group: P -1
;
_chemical_formula_sum "Si O2"
_cell_formula_units_Z 16
_cell_length_a 15.062852
_cell_length_b 5.712871
_cell_length_c 12.052888
_cell_angle_alpha 104.833769
_cell_angle_beta 38.113347
_cell_angle_gamma 109.904979
_cell_volume 601.795302
_symmetry_space_group_name_H-M "P -1"
_symmetry_group_IT_number 2
_symmetry_cell_setting 'triclinic'
loop_
_space_group_symop_operation_xyz
x,y,z
-x,-y,-z
loop_
_atom_site_type_symbol
_atom_site_label
_atom_site_fract_x
_atom_site_fract_y
_atom_site_fract_z
Si Si1 0.179897 0.268983 0.526202
Si Si2 0.758163 0.579391 0.757002
Si Si3 0.491384 0.841395 0.099724
Si Si4 0.665159 0.866335 0.338779
Si Si5 0.707405 0.061756 0.078146
Si Si6 0.047195 0.486458 0.078607
Si Si7 0.661209 0.411333 0.427536
Si Si8 0.038712 0.178890 0.244118
O O1 0.174054 0.270685 0.400070
O O2 0.334788 0.440912 0.441274
O O3 0.066385 0.404795 0.718694
O O4 0.119536 0.983622 0.586541
O O5 0.615210 0.675456 0.954065
O O6 0.883690 0.585114 0.727384
O O7 0.674748 0.315470 0.756774
O O8 0.500000 0.000000 0.000000
O O9 0.552398 0.019808 0.163863
O O10 0.730046 0.660976 0.315689
O O11 0.490193 0.733750 0.501291
O O12 0.686683 0.900709 0.190216
O O13 0.717678 0.155313 0.361931
O O14 0.786714 0.345229 0.056654
O O15 0.838372 0.979347 0.872169
O O16 0.041690 0.231724 0.116876
O O17 0.000000 0.500000 0.000000
#
# Coordination Sequence:
#
# PCOD9014066 Si02
#       8
#     2   2   2   2   2   2   2   2
#     4  11  24  39  64  93 129 172 222 277 334 401
#     4  10  22  43  64  95 131 163 221 273 338 405
#     4  10  21  41  66  96 124 167 214 276 340 405
#     4  10  22  42  64  94 132 173 221 282 337 411
#     4  10  22  38  63  89 125 166 220 271 339 395
#     4  11  25  40  61  92 127 175 226 275 337 401
#     4  10  23  41  63  96 132 171 225 275 345 401
#     4  10  24  41  62  91 127 173 219 278 333 402
#
# _framework density 26.587114
#
# number of rings (size 3 to 8) (size 9 to 14) (size 15 to 20)
#    0.000    1.750    0.000    2.625    7.000    2.500 
#    6.750    0.000    0.000    0.000    0.000    0.000 
#    0.000    0.000    0.000    0.000    0.000    0.000 
#
# Total GULP energy -89214.309676 kJ/mol
# GULP energy per Si atom -5575.894355 kJ/mol
# Density = 2.652660 g / cm^3
# Si number density = 26.587114 Si / 1000 Ang^3
#
#
#
# Elastic Constant Matrix: (Units=GPa)
#
#
# Indices 1 2 3 4 5 6 
#
# 1 137.4631 55.3718 16.6502 -20.9700 11.7047 28.1618
# 2 55.3718 99.4133 39.4549 -34.3238 -19.1973 11.1115
# 3 16.6502 39.4549 65.3823 -21.6010 16.9640 -0.3924
# 4 -20.9700 -34.3238 -21.6010 60.7908 -11.8362 -3.5509
# 5 11.7047 -19.1973 16.9640 -11.8362 41.1439 -6.4588
# 6 28.1618 11.1115 -0.3924 -3.5509 -6.4588 45.0167
#
#
#
# Elastic Compliance Matrix: (Units=1/GPa)
#
#
# Indices 1 2 3 4 5 6 
#
# 1 0.015478 -0.016710 0.009341 -0.004941 -0.018818 -0.008566
# 2 -0.016710 0.043983 -0.027390 0.018087 0.042861 0.006935
# 3 0.009341 -0.027390 0.035870 -0.006071 -0.032589 -0.003925
# 4 -0.004941 0.018087 -0.006071 0.027047 0.020707 0.003678
# 5 -0.018818 0.042861 -0.032589 0.020707 0.071050 0.012736
# 6 -0.008566 0.006935 -0.003925 0.003678 0.012736 0.027944
#
#
# Mechanical properties :
#
#
# Convention : Reuss Voigt Hill
#
# Bulk Modulus (GPa) = 38.73959 58.35695 48.54827
# Shear Modulus (GPa) = 16.69473 42.10906 29.40189
#
# Velocity S-wave (km/s) = 2.50856 3.98403 3.32907
# Velocity P-wave (km/s) = 4.79510 6.56965 5.75123
#
# Compressibility (1/GPa) = 0.02581339
#
# Stress axis : x y z
#
# Youngs Moduli (GPa) = 64.60817 22.73587 27.87815
#
# Poissons Ratio (x) = 0.37993 -0.26041
# Poissons Ratio (y) = 1.07963 0.76357
# Poissons Ratio (z) = -0.60350 0.62273
#
# Static dielectric constant tensor:
#      x y z
#    x 2.151420 0.053630 -0.003600 
#    y 0.053630 2.336470 0.129450 
#    z -0.003600 0.129450 2.182380 
# 
# From -- ./inp_files/441893.got.cif
#   From: 2010.05.17/outbox.cif.g08.bks.cpg/sg2_221_cif.got.tgz:441893.got - 2010.06.03 11:33:40.
