data_PCOD9014553
_publ_section_title
;
Structure prediction by ZEFSAII (Michael W. Deem and Ramdas Pophale) SiO2 
 PCOD9014553
Probable space group: P -1
;
_chemical_formula_sum "Si O2"
_cell_formula_units_Z 13
_cell_length_a 9.503141
_cell_length_b 6.765296
_cell_length_c 16.622867
_cell_angle_alpha 88.021545
_cell_angle_beta 145.680186
_cell_angle_gamma 78.301792
_cell_volume 549.132921
_symmetry_space_group_name_H-M "P -1"
_symmetry_group_IT_number 2
_symmetry_cell_setting 'triclinic'
loop_
_space_group_symop_operation_xyz
x,y,z
-x,-y,-z
loop_
_atom_site_type_symbol
_atom_site_label
_atom_site_fract_x
_atom_site_fract_y
_atom_site_fract_z
Si Si1 0.755299 0.045822 0.150142
Si Si2 0.566861 0.573071 0.301740
Si Si3 0.850835 0.435179 0.001964
Si Si4 0.500000 0.000000 0.500000
Si Si5 0.927117 0.718762 0.362239
Si Si6 0.819983 0.053332 0.784504
Si Si7 0.076960 0.576329 0.785197
O O1 0.839580 0.955001 0.280597
O O2 0.014186 0.919442 0.215068
O O3 0.732507 0.289318 0.131153
O O4 0.500000 0.000000 0.000000
O O5 0.735707 0.701792 0.343140
O O6 0.300235 0.740805 0.218656
O O7 0.765164 0.392022 0.457892
O O8 0.458119 0.485614 0.175899
O O9 0.880516 0.519805 0.103040
O O10 0.984509 0.172536 0.079395
O O11 0.000000 0.500000 0.000000
O O12 0.440802 0.968686 0.377620
O O13 0.768821 0.762594 0.631373
O O14 0.889363 0.585053 0.269668
#
# Coordination Sequence:
#
# PCOD9014553 Si02
#       7
#     2   2   2   1   2   2   2
#     4  10  23  41  68  99 124 171 219 262 326 385
#     4  11  24  43  61 100 131 167 217 269 322 383
#     4  10  23  39  64  98 127 168 216 269 329 377
#     4   8  16  38  66  92 118 164 212 262 312 374
#     4  11  24  44  69  92 134 173 215 268 324 381
#     4  10  21  41  68  90 134 164 216 271 317 385
#     4  10  22  43  66  94 130 172 216 269 315 391
#
# _framework density 23.673683
#
# number of rings (size 3 to 8) (size 9 to 14) (size 15 to 20)
#    0.000    2.154    1.538    2.308    2.154    8.000 
#    2.769    1.538    0.000    0.000    0.000    0.000 
#    0.000    0.000    0.000    0.000    0.000    0.000 
#
# Total GULP energy -72419.200163 kJ/mol
# GULP energy per Si atom -5570.707705 kJ/mol
# Density = 2.361980 g / cm^3
# Si number density = 23.673683 Si / 1000 Ang^3
#
#
#
# Elastic Constant Matrix: (Units=GPa)
#
#
# Indices 1 2 3 4 5 6 
#
# 1 64.4573 -0.5920 11.1142 -15.2880 -8.7518 -1.1434
# 2 -0.5920 49.9683 19.1967 -3.7500 -7.4033 -2.1085
# 3 11.1142 19.1967 157.9923 -6.5910 -30.7990 4.3566
# 4 -15.2880 -3.7500 -6.5910 25.1155 0.0242 -12.1015
# 5 -8.7518 -7.4033 -30.7990 0.0242 28.7592 -7.0007
# 6 -1.1434 -2.1085 4.3566 -12.1015 -7.0007 38.9845
#
#
#
# Elastic Compliance Matrix: (Units=1/GPa)
#
#
# Indices 1 2 3 4 5 6 
#
# 1 0.020939 0.003076 0.000522 0.017063 0.009593 0.007741
# 2 0.003076 0.022295 -0.001560 0.007088 0.006161 0.004777
# 3 0.000522 -0.001560 0.008330 0.003015 0.009056 0.001562
# 4 0.017063 0.007088 0.003015 0.063104 0.015784 0.022970
# 5 0.009593 0.006161 0.009056 0.015784 0.052346 0.013902
# 6 0.007741 0.004777 0.001562 0.022970 0.013902 0.035589
#
#
# Mechanical properties :
#
#
# Convention : Reuss Voigt Hill
#
# Bulk Modulus (GPa) = 17.97290 36.87285 27.42288
# Shear Modulus (GPa) = 23.03352 34.75179 28.89266
#
# Velocity S-wave (km/s) = 3.12261 3.83554 3.49729
# Velocity P-wave (km/s) = 4.53975 5.93502 5.28364
#
# Compressibility (1/GPa) = 0.05563932
#
# Stress axis : x y z
#
# Youngs Moduli (GPa) = 47.75722 44.85338 120.04265
#
# Poissons Ratio (x) = -0.13797 -0.06261
# Poissons Ratio (y) = -0.14691 0.18730
# Poissons Ratio (z) = -0.02491 0.06998
#
# Static dielectric constant tensor:
#      x y z
#    x 1.929090 -0.007920 0.034690 
#    y -0.007920 2.019070 0.083540 
#    z 0.034690 0.083540 1.927090 
# 
# From -- ./inp_files/490867.got.cif
#   From: 2010.05.17/outbox.cif.g08.bks.cpg/sg2_246_cif.got.tgz:490867.got - 2010.06.03 11:33:40.
