data_PCOD9014201
_publ_section_title
;
Structure prediction by ZEFSAII (Michael W. Deem and Ramdas Pophale) SiO2 
 PCOD9014201
Probable space group: P -1
;
_chemical_formula_sum "Si O2"
_cell_formula_units_Z 12
_cell_length_a 14.856661
_cell_length_b 15.375573
_cell_length_c 9.702507
_cell_angle_alpha 139.467720
_cell_angle_beta 46.126555
_cell_angle_gamma 161.025945
_cell_volume 464.844111
_symmetry_space_group_name_H-M "P -1"
_symmetry_group_IT_number 2
_symmetry_cell_setting 'triclinic'
loop_
_space_group_symop_operation_xyz
x,y,z
-x,-y,-z
loop_
_atom_site_type_symbol
_atom_site_label
_atom_site_fract_x
_atom_site_fract_y
_atom_site_fract_z
Si Si1 0.777598 0.192319 0.498071
Si Si2 0.613007 0.131048 0.255928
Si Si3 0.264930 0.030778 0.974286
Si Si4 0.064967 0.908225 0.305785
Si Si5 0.676914 0.427720 0.369194
Si Si6 0.301048 0.323018 0.131130
O O1 0.820610 0.109682 0.252216
O O2 0.074168 0.550241 0.626322
O O3 0.500000 0.000000 0.500000
O O4 0.646833 0.040624 0.604032
O O5 0.557473 0.920436 0.085875
O O6 0.657331 0.252415 0.214037
O O7 0.017964 0.814107 0.085892
O O8 0.378122 0.285597 0.121551
O O9 0.912641 0.683422 0.316431
O O10 0.392132 0.206553 0.340852
O O11 0.000000 0.000000 0.500000
O O12 0.712976 0.549101 0.618255
O O13 0.500000 0.500000 0.000000
O O14 0.000000 0.000000 0.000000
#
# Coordination Sequence:
#
# PCOD9014201 Si02
#       6
#     2   2   2   2   2   2
#     4  10  21  41  67 103 137 174 221 284 346 405
#     4  11  24  44  71 104 140 174 226 295 348 403
#     4  11  25  43  73  99 138 183 230 271 353 407
#     4  12  27  47  70  98 141 190 232 281 331 418
#     4  12  26  47  69 100 144 177 233 289 339 402
#     4  12  26  43  70 102 133 176 229 283 342 405
#
# _framework density 25.815107000000001
#
# number of rings (size 3 to 8) (size 9 to 14) (size 15 to 20)
#    0.000    0.667    1.667    6.500    0.000    8.000 
#    0.000    0.000    0.000    0.000    0.000    0.000 
#    0.000    0.000    0.000    0.000    0.000    0.000 
#
# Total GULP energy -67099.116625 kJ/mol
# GULP energy per Si atom -5591.593052 kJ/mol
# Density = 2.575635 g / cm^3
# Si number density = 25.815107 Si / 1000 Ang^3
#
#
#
# Elastic Constant Matrix: (Units=GPa)
#
#
# Indices 1 2 3 4 5 6 
#
# 1 143.0671 0.9095 34.2494 -4.2182 -15.2959 -30.9167
# 2 0.9095 117.4088 71.4365 -27.2073 17.2171 -8.2621
# 3 34.2494 71.4365 160.1895 -24.1669 -9.5936 -12.8069
# 4 -4.2182 -27.2073 -24.1669 51.4053 -12.4224 15.9911
# 5 -15.2959 17.2171 -9.5936 -12.4224 24.5363 3.0400
# 6 -30.9167 -8.2621 -12.8069 15.9911 3.0400 66.3401
#
#
#
# Elastic Compliance Matrix: (Units=1/GPa)
#
#
# Indices 1 2 3 4 5 6 
#
# 1 0.008548 0.000574 -0.001544 0.000131 0.003950 0.003544
# 2 0.000574 0.015257 -0.007422 0.001233 -0.012752 0.001022
# 3 -0.001544 -0.007422 0.011057 0.004041 0.010736 -0.000975
# 4 0.000131 0.001233 0.004041 0.027801 0.015668 -0.006425
# 5 0.003950 -0.012752 0.010736 0.015668 0.064845 -0.004423
# 6 0.003544 0.001022 -0.000975 -0.006425 -0.004423 0.018416
#
#
# Mechanical properties :
#
#
# Convention : Reuss Voigt Hill
#
# Bulk Modulus (GPa) = 55.31947 70.42847 62.87397
# Shear Modulus (GPa) = 29.63251 49.39433 39.51342
#
# Velocity S-wave (km/s) = 3.39171 4.37898 3.91657
# Velocity P-wave (km/s) = 6.06744 7.27381 6.69784
#
# Compressibility (1/GPa) = 0.01807682
#
# Stress axis : x y z
#
# Youngs Moduli (GPa) = 116.99031 65.54579 90.43823
#
# Poissons Ratio (x) = -0.03760 0.13960
# Poissons Ratio (y) = -0.06711 0.67126
# Poissons Ratio (z) = 0.18059 0.48650
#
# Static dielectric constant tensor:
#      x y z
#    x 2.126460 -0.065160 0.093030 
#    y -0.065160 1.907800 -0.037010 
#    z 0.093030 -0.037010 2.152750 
# 
# From -- ./inp_files/311914.got.cif
#   From: 2010.05.17/outbox.cif.g08.bks.cpg/sg2_156_cif.got.tgz:311914.got - 2010.06.03 11:33:40.
