data_PCOD9014140
_publ_section_title
;
Structure prediction by ZEFSAII (Michael W. Deem and Ramdas Pophale) SiO2 
 PCOD9014140
Probable space group: P -1
;
_chemical_formula_sum "Si O2"
_cell_formula_units_Z 14
_cell_length_a 6.274183
_cell_length_b 18.570214
_cell_length_c 11.729885
_cell_angle_alpha 31.128365
_cell_angle_beta 127.310590
_cell_angle_gamma 116.831538
_cell_volume 554.314418
_symmetry_space_group_name_H-M "P -1"
_symmetry_group_IT_number 2
_symmetry_cell_setting 'triclinic'
loop_
_space_group_symop_operation_xyz
x,y,z
-x,-y,-z
loop_
_atom_site_type_symbol
_atom_site_label
_atom_site_fract_x
_atom_site_fract_y
_atom_site_fract_z
Si Si1 0.573068 0.810444 0.403998
Si Si2 0.313116 0.777773 0.012413
Si Si3 0.109143 0.371776 0.621687
Si Si4 0.529471 0.967205 0.406730
Si Si5 0.416646 0.531636 0.800006
Si Si6 0.117530 0.981990 0.885104
Si Si7 0.217704 0.262555 0.033319
O O1 0.641584 0.861878 0.481720
O O2 0.578479 0.642544 0.640196
O O3 0.767092 0.870621 0.295315
O O4 0.273554 0.897232 0.156504
O O5 0.244394 0.886335 0.948000
O O6 0.056536 0.696849 0.035859
O O7 0.356099 0.886391 0.778068
O O8 0.583228 0.663880 0.272429
O O9 0.000000 0.500000 0.500000
O O10 0.893092 0.389128 0.427932
O O11 0.117360 0.253361 0.883085
O O12 0.646196 0.882654 0.670645
O O13 0.205612 0.977357 0.276291
O O14 0.500000 0.500000 0.000000
O O15 0.414274 0.378679 0.949369
#
# Coordination Sequence:
#
# PCOD9014140 Si02
#       7
#     2   2   2   2   2   2   2
#     4  10  21  41  66  98 140 181 225 278 344 402
#     4  11  23  42  70 100 134 178 228 284 340 400
#     4  10  25  45  70  95 134 178 227 276 341 407
#     4  11  22  40  67 102 136 180 228 283 335 397
#     4  11  22  44  69  96 135 177 224 279 335 404
#     4  10  23  41  69 101 138 178 228 283 339 401
#     4  11  24  43  67 101 140 179 224 279 340 405
#
# _framework density 25.256423000000002
#
# number of rings (size 3 to 8) (size 9 to 14) (size 15 to 20)
#    0.000    1.429    1.429    3.429    0.000    9.143 
#    0.000    3.571    0.000    0.000    0.000    0.000 
#    0.000    0.000    0.000    0.000    0.000    0.000 
#
# Total GULP energy -78156.256317 kJ/mol
# GULP energy per Si atom -5582.589737 kJ/mol
# Density = 2.519894 g / cm^3
# Si number density = 25.256423 Si / 1000 Ang^3
#
#
#
# Elastic Constant Matrix: (Units=GPa)
#
#
# Indices 1 2 3 4 5 6 
#
# 1 81.3353 17.0423 38.0148 -5.9891 1.5643 9.4357
# 2 17.0423 80.5046 43.5026 3.5684 -14.9942 12.3509
# 3 38.0148 43.5026 164.1319 15.5235 -18.8694 6.5636
# 4 -5.9891 3.5684 15.5235 64.5561 1.7622 -12.7986
# 5 1.5643 -14.9942 -18.8694 1.7622 44.5010 -8.8361
# 6 9.4357 12.3509 6.5636 -12.7986 -8.8361 30.5541
#
#
#
# Elastic Compliance Matrix: (Units=1/GPa)
#
#
# Indices 1 2 3 4 5 6 
#
# 1 0.014787 -0.001409 -0.003439 0.001673 -0.003211 -0.003486
# 2 -0.001409 0.015838 -0.003195 -0.001300 0.003105 -0.004927
# 3 -0.003439 -0.003195 0.008227 -0.002097 0.002714 0.000493
# 4 0.001673 -0.001300 -0.002097 0.017772 -0.000552 0.007744
# 5 -0.003211 0.003105 0.002714 -0.000552 0.026087 0.006467
# 6 -0.003486 -0.004927 0.000493 0.007744 0.006467 0.040805
#
#
# Mechanical properties :
#
#
# Convention : Reuss Voigt Hill
#
# Bulk Modulus (GPa) = 43.92673 58.12123 51.02398
# Shear Modulus (GPa) = 33.96961 43.08304 38.52632
#
# Velocity S-wave (km/s) = 3.67139 4.13464 3.90988
# Velocity P-wave (km/s) = 5.94997 6.77172 6.37410
#
# Compressibility (1/GPa) = 0.02276518
#
# Stress axis : x y z
#
# Youngs Moduli (GPa) = 67.62725 63.13926 121.55721
#
# Poissons Ratio (x) = 0.08898 0.41808
# Poissons Ratio (y) = 0.09531 0.38832
# Poissons Ratio (z) = 0.23259 0.20170
#
# Static dielectric constant tensor:
#      x y z
#    x 2.115680 0.022850 -0.015020 
#    y 0.022850 2.126490 -0.081290 
#    z -0.015020 -0.081290 2.059540 
# 
# From -- ./inp_files/370306.got.cif
#   From: 2010.05.17/outbox.cif.g08.bks.cpg/sg2_186_cif.got.tgz:370306.got - 2010.06.03 11:33:40.
