data_PCOD9014615
_publ_section_title
;
Structure prediction by ZEFSAII (Michael W. Deem and Ramdas Pophale) SiO2 
 PCOD9014615
Probable space group: P -1
;
_chemical_formula_sum "Si O2"
_cell_formula_units_Z 16
_cell_length_a 8.556285
_cell_length_b 29.534554
_cell_length_c 15.058568
_cell_angle_alpha 160.687098
_cell_angle_beta 51.566936
_cell_angle_gamma 138.771028
_cell_volume 758.598315
_symmetry_space_group_name_H-M "P -1"
_symmetry_group_IT_number 2
_symmetry_cell_setting 'triclinic'
loop_
_space_group_symop_operation_xyz
x,y,z
-x,-y,-z
loop_
_atom_site_type_symbol
_atom_site_label
_atom_site_fract_x
_atom_site_fract_y
_atom_site_fract_z
Si Si1 0.004551 0.478305 0.564637
Si Si2 0.132075 0.137886 0.125556
Si Si3 0.498201 0.582345 0.351985
Si Si4 0.472567 0.323872 0.664815
Si Si5 0.298908 0.019471 0.500788
Si Si6 0.770433 0.200976 0.278688
Si Si7 0.459953 0.173467 0.918030
Si Si8 0.695147 0.787555 0.297394
O O1 0.000000 0.500000 0.500000
O O2 0.800124 0.504661 0.716065
O O3 0.881647 0.288571 0.303261
O O4 0.291001 0.623193 0.771196
O O5 0.389067 0.315913 0.408648
O O6 0.959528 0.186945 0.241133
O O7 0.235140 0.100052 0.933689
O O8 0.000000 0.000000 0.000000
O O9 0.641367 0.722559 0.479857
O O10 0.500239 0.421762 0.042711
O O11 0.714388 0.324335 0.573495
O O12 0.308764 0.191655 0.557811
O O13 0.500000 0.500000 0.000000
O O14 0.429699 0.930961 0.302427
O O15 0.988995 0.875233 0.334159
O O16 0.365785 0.139918 0.787072
O O17 0.388743 0.125362 0.573267
O O18 0.500000 0.000000 0.000000
#
# Coordination Sequence:
#
# PCOD9014615 Si02
#       8
#     2   2   2   2   2   2   2   2
#     4  11  22  43  70  98 139 185 226 287 352 425
#     4  12  27  44  68 104 145 183 235 296 354 428
#     4  10  21  42  67  98 134 175 230 281 357 412
#     4   9  21  43  69  96 133 183 226 289 342 420
#     4  10  24  41  66  99 134 183 231 289 341 426
#     4  11  27  45  69 105 140 186 241 285 360 423
#     4  11  25  44  66 101 142 181 230 289 356 411
#     4  10  21  41  68  95 131 178 239 279 349 410
#
# _framework density 21.091529999999999
#
# number of rings (size 3 to 8) (size 9 to 14) (size 15 to 20)
#    0.000    1.500    2.500    1.500    7.000    1.500 
#    0.000    2.500    0.000    0.000    0.000    0.000 
#    0.000    0.000    0.000    0.000    0.000    0.000 
#
# Total GULP energy -89154.383802 kJ/mol
# GULP energy per Si atom -5572.148988 kJ/mol
# Density = 2.104352 g / cm^3
# Si number density = 21.091530 Si / 1000 Ang^3
#
#
#
# Elastic Constant Matrix: (Units=GPa)
#
#
# Indices 1 2 3 4 5 6 
#
# 1 96.8392 30.1931 31.6730 9.6097 -15.8580 -18.7408
# 2 30.1931 109.4863 32.7990 8.9442 -14.4732 -25.3412
# 3 31.6730 32.7990 55.9586 5.0428 6.1701 -10.1986
# 4 9.6097 8.9442 5.0428 32.7958 0.7086 -7.3815
# 5 -15.8580 -14.4732 6.1701 0.7086 28.6542 0.7760
# 6 -18.7408 -25.3412 -10.1986 -7.3815 0.7760 45.5852
#
#
#
# Elastic Compliance Matrix: (Units=1/GPa)
#
#
# Indices 1 2 3 4 5 6 
#
# 1 0.016390 0.001458 -0.010365 -0.002838 0.011986 0.004566
# 2 0.001458 0.014283 -0.009016 -0.001784 0.009843 0.006066
# 3 -0.010365 -0.009016 0.030434 0.000715 -0.016806 -0.002063
# 4 -0.002838 -0.001784 0.000715 0.032525 -0.003520 0.003328
# 5 0.011986 0.009843 -0.016806 -0.003520 0.050068 0.005217
# 6 0.004566 0.006066 -0.002063 0.003328 0.005217 0.027175
#
#
# Mechanical properties :
#
#
# Convention : Reuss Voigt Hill
#
# Bulk Modulus (GPa) = 39.58600 50.17936 44.88268
# Shear Modulus (GPa) = 23.24044 32.58165 27.91104
#
# Velocity S-wave (km/s) = 3.32307 3.93463 3.64171
# Velocity P-wave (km/s) = 5.79078 6.66968 6.24571
#
# Compressibility (1/GPa) = 0.02526145
#
# Stress axis : x y z
#
# Youngs Moduli (GPa) = 61.01360 70.01169 32.85749
#
# Poissons Ratio (x) = -0.10210 0.34057
# Poissons Ratio (y) = -0.08898 0.29625
# Poissons Ratio (z) = 0.63241 0.63125
#
# Static dielectric constant tensor:
#      x y z
#    x 1.723270 -0.013350 -0.004410 
#    y -0.013350 1.835920 0.005740 
#    z -0.004410 0.005740 1.792690 
# 
# From -- ./inp_files/509208.got.cif
#   From: 2010.05.17/outbox.cif.g08.bks.cpg/sg2_255_cif.got.tgz:509208.got - 2010.06.03 11:33:40.
