data_PCOD9014895
_publ_section_title
;
Structure prediction by ZEFSAII (Michael W. Deem and Ramdas Pophale) SiO2 
 PCOD9014895
Probable space group: P -1
;
_chemical_formula_sum "Si O2"
_cell_formula_units_Z 15
_cell_length_a 21.200030
_cell_length_b 15.722342
_cell_length_c 8.673863
_cell_angle_alpha 36.210637
_cell_angle_beta 26.760391
_cell_angle_gamma 28.580777
_cell_volume 619.271374
_symmetry_space_group_name_H-M "P -1"
_symmetry_group_IT_number 2
_symmetry_cell_setting 'triclinic'
loop_
_space_group_symop_operation_xyz
x,y,z
-x,-y,-z
loop_
_atom_site_type_symbol
_atom_site_label
_atom_site_fract_x
_atom_site_fract_y
_atom_site_fract_z
Si Si1 0.221241 0.119932 0.012363
Si Si2 0.422615 0.598383 0.756434
Si Si3 0.486529 0.262973 0.939890
Si Si4 0.774614 0.506053 0.237158
Si Si5 0.684976 0.830571 0.781821
Si Si6 0.937854 0.853679 0.004187
Si Si7 0.036196 0.897114 0.230549
Si Si8 0.000000 0.500000 0.000000
O O1 0.096875 0.150391 0.383564
O O2 0.186240 0.311524 0.804579
O O3 0.398169 0.931101 0.948402
O O4 0.166970 0.092433 0.004330
O O5 0.441851 0.421949 0.917291
O O6 0.426361 0.702724 0.445367
O O7 0.584651 0.551116 0.577017
O O8 0.236437 0.732609 0.041709
O O9 0.337709 0.262707 0.178640
O O10 0.888189 0.445248 0.230713
O O11 0.762442 0.680088 0.961672
O O12 0.893496 0.349281 0.083667
O O13 0.811627 0.877864 0.380768
O O14 0.500000 0.000000 0.000000
O O15 0.000390 0.972359 0.740403
O O16 0.000000 0.000000 0.000000
#
# Coordination Sequence:
#
# PCOD9014895 Si02
#       8
#     2   2   2   2   2   2   2   1
#     4  11  24  45  66  99 143 184 230 285 347 412
#     4  10  22  41  68 106 133 179 235 289 337 410
#     4  10  21  41  69  98 141 179 226 287 347 408
#     4  10  22  42  68  96 142 179 233 283 342 414
#     4  11  23  40  68 100 134 180 235 289 340 411
#     4  11  25  43  64  98 135 185 231 284 352 405
#     4  12  25  41  72 101 135 183 236 285 342 410
#     4  10  24  42  68  98 138 186 230 282 346 408
#
# _framework density 24.222011999999999
#
# number of rings (size 3 to 8) (size 9 to 14) (size 15 to 20)
#    0.000    1.333    1.333    4.000    5.600    3.733 
#    0.000   10.000    0.000    0.000    0.000    0.000 
#    0.000    0.000    0.000    0.000    0.000    0.000 
#
# Total GULP energy -83651.464427 kJ/mol
# GULP energy per Si atom -5576.764295 kJ/mol
# Density = 2.416688 g / cm^3
# Si number density = 24.222012 Si / 1000 Ang^3
#
#
#
# Elastic Constant Matrix: (Units=GPa)
#
#
# Indices 1 2 3 4 5 6 
#
# 1 97.0165 19.9569 0.5646 -9.2959 -14.4642 9.3457
# 2 19.9569 127.6522 5.2376 3.6656 -3.1976 8.0983
# 3 0.5646 5.2376 79.9035 5.2177 -3.9684 4.9552
# 4 -9.2959 3.6656 5.2177 29.1700 -2.7886 -0.5930
# 5 -14.4642 -3.1976 -3.9684 -2.7886 28.9077 -6.9516
# 6 9.3457 8.0983 4.9552 -0.5930 -6.9516 44.2957
#
#
#
# Elastic Compliance Matrix: (Units=1/GPa)
#
#
# Indices 1 2 3 4 5 6 
#
# 1 0.012141 -0.001806 0.000107 0.004629 0.006040 -0.001234
# 2 -0.001806 0.008241 -0.000373 -0.001615 -0.000483 -0.001181
# 3 0.000107 -0.000373 0.012816 -0.002114 0.001275 -0.001216
# 4 0.004629 -0.001615 -0.002114 0.036895 0.005631 0.000933
# 5 0.006040 -0.000483 0.001275 0.005631 0.039468 0.004941
# 6 -0.001234 -0.001181 -0.001216 0.000933 0.004941 0.023976
#
#
# Mechanical properties :
#
#
# Convention : Reuss Voigt Hill
#
# Bulk Modulus (GPa) = 34.41894 39.56559 36.99226
# Shear Modulus (GPa) = 33.92942 39.06222 36.49582
#
# Velocity S-wave (km/s) = 3.74674 4.02017 3.88586
# Velocity P-wave (km/s) = 5.74091 6.15784 5.95303
#
# Compressibility (1/GPa) = 0.02905377
#
# Stress axis : x y z
#
# Youngs Moduli (GPa) = 82.36373 121.35026 78.02995
#
# Poissons Ratio (x) = 0.21915 -0.00833
# Poissons Ratio (y) = 0.14874 0.02908
# Poissons Ratio (z) = -0.00879 0.04523
#
# Static dielectric constant tensor:
#      x y z
#    x 1.993670 -0.096920 0.146660 
#    y -0.096920 2.044100 -0.128620 
#    z 0.146660 -0.128620 2.115050 
# 
# From -- ./inp_files/347109.got.cif
#   From: 2010.05.17/outbox.cif.g08.bks.cpg/sg2_174_cif.got.tgz:347109.got - 2010.06.03 11:33:40.
