data_PCOD9014411
_publ_section_title
;
Structure prediction by ZEFSAII (Michael W. Deem and Ramdas Pophale) SiO2 
 PCOD9014411
Probable space group: P -1
;
_chemical_formula_sum "Si O2"
_cell_formula_units_Z 14
_cell_length_a 22.358614
_cell_length_b 15.614347
_cell_length_c 12.501369
_cell_angle_alpha 148.829000
_cell_angle_beta 29.734790
_cell_angle_gamma 161.218208
_cell_volume 681.414730
_symmetry_space_group_name_H-M "P -1"
_symmetry_group_IT_number 2
_symmetry_cell_setting 'triclinic'
loop_
_space_group_symop_operation_xyz
x,y,z
-x,-y,-z
loop_
_atom_site_type_symbol
_atom_site_label
_atom_site_fract_x
_atom_site_fract_y
_atom_site_fract_z
Si Si1 0.105048 0.044742 0.160572
Si Si2 0.092849 0.928325 0.812566
Si Si3 0.470359 0.172275 0.406168
Si Si4 0.642715 0.970881 0.173150
Si Si5 0.650140 0.512046 0.285578
Si Si6 0.320234 0.620372 0.479366
Si Si7 0.688099 0.351743 0.839311
O O1 0.194169 0.326599 0.321515
O O2 0.219747 0.041420 0.056499
O O3 0.871958 0.802278 0.286204
O O4 0.129566 0.985776 0.943277
O O5 0.915736 0.606761 0.720172
O O6 0.296055 0.114352 0.635361
O O7 0.000000 0.000000 0.000000
O O8 0.564083 0.293874 0.274742
O O9 0.632625 0.361784 0.450749
O O10 0.366608 0.885346 0.282876
O O11 0.525604 0.844107 0.332356
O O12 0.468653 0.776364 0.146837
O O13 0.752196 0.268304 0.305975
O O14 0.500000 0.500000 0.500000
O O15 0.667074 0.452917 0.078895
#
# Coordination Sequence:
#
# PCOD9014411 Si02
#       7
#     2   2   2   2   2   2   2
#     4  11  23  42  66  93 129 169 209 264 317 379
#     4  11  22  38  65  98 124 165 214 259 319 374
#     4  11  22  42  64  92 129 166 213 263 314 378
#     4  10  21  41  67  97 129 159 216 261 320 379
#     4  11  26  45  61  91 127 172 214 256 322 380
#     4  10  22  38  67 101 124 166 207 268 320 373
#     4  10  23  42  65  93 125 167 210 266 314 375
#
# _framework density 20.545490000000001
#
# number of rings (size 3 to 8) (size 9 to 14) (size 15 to 20)
#    0.000    1.429    1.429    3.857    4.000    0.571 
#   12.857    1.429    0.000    0.000    0.000    0.000 
#    0.000    0.000    0.000    0.000    0.000    0.000 
#
# Total GULP energy -78209.229222 kJ/mol
# GULP energy per Si atom -5586.373516 kJ/mol
# Density = 2.049873 g / cm^3
# Si number density = 20.545490 Si / 1000 Ang^3
#
#
#
# Elastic Constant Matrix: (Units=GPa)
#
#
# Indices 1 2 3 4 5 6 
#
# 1 94.6553 22.6033 13.3864 4.7571 -13.2454 -4.8316
# 2 22.6033 89.1800 26.7213 15.7125 -18.0202 0.6401
# 3 13.3864 26.7213 47.5090 6.7814 -11.5336 4.1283
# 4 4.7571 15.7125 6.7814 30.8135 -7.6801 7.7541
# 5 -13.2454 -18.0202 -11.5336 -7.6801 27.8471 2.3750
# 6 -4.8316 0.6401 4.1283 7.7541 2.3750 17.2677
#
#
#
# Elastic Compliance Matrix: (Units=1/GPa)
#
#
# Indices 1 2 3 4 5 6 
#
# 1 0.011915 -0.001718 -0.001812 -0.000665 0.003308 0.003674
# 2 -0.001718 0.015538 -0.006493 -0.005629 0.004794 0.002364
# 3 -0.001812 -0.006493 0.027559 0.001560 0.007513 -0.008589
# 4 -0.000665 -0.005629 0.001560 0.042958 0.010331 -0.021062
# 5 0.003308 0.004794 0.007513 0.010331 0.047591 -0.012233
# 6 0.003674 0.002364 -0.008589 -0.021062 -0.012233 0.072046
#
#
# Mechanical properties :
#
#
# Convention : Reuss Voigt Hill
#
# Bulk Modulus (GPa) = 28.59980 39.64070 34.12025
# Shear Modulus (GPa) = 20.05550 26.42788 23.24169
#
# Velocity S-wave (km/s) = 3.12773 3.59041 3.36703
# Velocity P-wave (km/s) = 5.19558 6.04351 5.63552
#
# Compressibility (1/GPa) = 0.03496528
#
# Stress axis : x y z
#
# Youngs Moduli (GPa) = 83.92744 64.35937 36.28575
#
# Poissons Ratio (x) = 0.11054 0.06576
# Poissons Ratio (y) = 0.14416 0.23561
# Poissons Ratio (z) = 0.15211 0.41790
#
# Static dielectric constant tensor:
#      x y z
#    x 1.767530 0.023940 0.004300 
#    y 0.023940 1.744850 0.039240 
#    z 0.004300 0.039240 1.753840 
# 
# From -- ./inp_files/153791.got.cif
#   From: 2010.05.17/outbox.cif.g08.bks.cpg/sg2_77_cif.got.tgz:153791.got - 2010.06.03 11:33:40.
