data_PCOD9014144
_publ_section_title
;
Structure prediction by ZEFSAII (Michael W. Deem and Ramdas Pophale) SiO2 
 PCOD9014144
Probable space group: P -1
;
_chemical_formula_sum "Si O2"
_cell_formula_units_Z 16
_cell_length_a 13.802480
_cell_length_b 5.075625
_cell_length_c 30.146275
_cell_angle_alpha 78.308617
_cell_angle_beta 18.992498
_cell_angle_gamma 83.522060
_cell_volume 652.164864
_symmetry_space_group_name_H-M "P -1"
_symmetry_group_IT_number 2
_symmetry_cell_setting 'triclinic'
loop_
_space_group_symop_operation_xyz
x,y,z
-x,-y,-z
loop_
_atom_site_type_symbol
_atom_site_label
_atom_site_fract_x
_atom_site_fract_y
_atom_site_fract_z
Si Si1 0.604079 0.123947 0.673701
Si Si2 0.327876 0.945782 0.677153
Si Si3 0.514694 0.508905 0.126830
Si Si4 0.712786 0.021727 0.969884
Si Si5 0.782591 0.614091 0.648054
Si Si6 0.732389 0.676533 0.858177
Si Si7 0.614387 0.457397 0.402781
Si Si8 0.117756 0.436300 0.842096
O O1 0.722098 0.322842 0.658356
O O2 0.316398 0.227907 0.777489
O O3 0.873083 0.213498 0.517691
O O4 0.572877 0.807746 0.712071
O O5 0.505014 0.812696 0.567399
O O6 0.322468 0.742178 0.728969
O O7 0.433673 0.276615 0.613210
O O8 0.952543 0.913074 0.839000
O O9 0.292093 0.432844 0.266774
O O10 0.355118 0.392364 0.153407
O O11 0.839221 0.430222 0.996322
O O12 0.636607 0.833878 0.052862
O O13 0.928224 0.311935 0.883971
O O14 0.375937 0.035450 0.099425
O O15 0.050839 0.599172 0.730907
O O16 0.500000 0.500000 0.000000
O O17 0.500000 0.500000 0.500000
#
# Coordination Sequence:
#
# PCOD9014144 Si02
#       8
#     2   2   2   2   2   2   2   2
#     4  10  24  44  71  91 131 178 214 261 326 407
#     4  11  22  44  64  91 134 166 218 278 317 401
#     4  10  24  39  65 100 135 163 220 279 320 387
#     4  10  21  41  66  99 128 172 222 271 329 384
#     4  10  24  46  64  98 133 169 217 266 327 388
#     4  11  22  42  67  94 132 179 218 268 331 392
#     4  12  26  42  63  95 132 173 223 273 328 386
#     4  10  22  41  68  98 123 172 215 266 331 379
#
# _framework density 24.533674999999999
#
# number of rings (size 3 to 8) (size 9 to 14) (size 15 to 20)
#    0.000    1.500    2.500    1.875    8.750    3.000 
#    2.250    0.000    0.000    0.000    0.000    0.000 
#    0.000    0.000    0.000    0.000    0.000    0.000 
#
# Total GULP energy -89208.143798 kJ/mol
# GULP energy per Si atom -5575.508987 kJ/mol
# Density = 2.447784 g / cm^3
# Si number density = 24.533675 Si / 1000 Ang^3
#
#
#
# Elastic Constant Matrix: (Units=GPa)
#
#
# Indices 1 2 3 4 5 6 
#
# 1 54.5718 -2.6496 23.2082 2.4198 16.5483 -10.6630
# 2 -2.6496 120.5415 15.8715 28.3783 4.6265 -0.4139
# 3 23.2082 15.8715 94.4311 25.5631 38.7375 -6.1050
# 4 2.4198 28.3783 25.5631 28.3266 -3.4487 -1.7486
# 5 16.5483 4.6265 38.7375 -3.4487 49.1183 7.5968
# 6 -10.6630 -0.4139 -6.1050 -1.7486 7.5968 32.0876
#
#
#
# Elastic Compliance Matrix: (Units=1/GPa)
#
#
# Indices 1 2 3 4 5 6 
#
# 1 0.023628 0.001958 -0.000425 -0.004161 -0.009625 0.009848
# 2 0.001958 0.012358 0.006395 -0.019189 -0.008684 0.003037
# 3 -0.000425 0.006395 0.035076 -0.041280 -0.032901 0.012155
# 4 -0.004161 -0.019189 -0.041280 0.096678 0.044847 -0.014833
# 5 -0.009625 -0.008684 -0.032901 0.044847 0.056694 -0.020549
# 6 0.009848 0.003037 0.012155 -0.014833 -0.020549 0.040846
#
#
# Mechanical properties :
#
#
# Convention : Reuss Voigt Hill
#
# Bulk Modulus (GPa) = 11.50497 38.04495 24.77496
# Shear Modulus (GPa) = 17.96001 37.44746 27.70374
#
# Velocity S-wave (km/s) = 2.70859 3.91112 3.36402
# Velocity P-wave (km/s) = 3.80547 5.99472 5.02087
#
# Compressibility (1/GPa) = 0.08691896
#
# Stress axis : x y z
#
# Youngs Moduli (GPa) = 42.32338 80.91821 28.50932
#
# Poissons Ratio (x) = -0.15844 0.01210
# Poissons Ratio (y) = -0.08287 -0.18232
# Poissons Ratio (z) = 0.01797 -0.51747
#
# Static dielectric constant tensor:
#      x y z
#    x 2.111950 0.090470 -0.037870 
#    y 0.090470 2.116050 0.028360 
#    z -0.037870 0.028360 1.936960 
# 
# From -- ./inp_files/623326.got.cif
#   From: 2010.05.17/outbox.cif.g08.bks.cpg/sg2_312_cif.got.tgz:623326.got - 2010.06.03 11:33:40.
