data_PCOD9014906
_publ_section_title
;
Structure prediction by ZEFSAII (Michael W. Deem and Ramdas Pophale) SiO2 
 PCOD9014906
Probable space group: P -1
;
_chemical_formula_sum "Si O2"
_cell_formula_units_Z 16
_cell_length_a 4.914229
_cell_length_b 22.125593
_cell_length_c 23.918972
_cell_angle_alpha 163.319271
_cell_angle_beta 80.445403
_cell_angle_gamma 104.586583
_cell_volume 695.426002
_symmetry_space_group_name_H-M "P -1"
_symmetry_group_IT_number 2
_symmetry_cell_setting 'triclinic'
loop_
_space_group_symop_operation_xyz
x,y,z
-x,-y,-z
loop_
_atom_site_type_symbol
_atom_site_label
_atom_site_fract_x
_atom_site_fract_y
_atom_site_fract_z
Si Si1 0.641319 0.695434 0.212759
Si Si2 0.727708 0.797854 0.999468
Si Si3 0.236651 0.323371 0.609424
Si Si4 0.863948 0.213019 0.636063
Si Si5 0.681104 0.152633 0.033975
Si Si6 0.772363 0.719689 0.695045
Si Si7 0.940543 0.504366 0.598375
Si Si8 0.294584 0.805767 0.571999
O O1 0.400318 0.689727 0.263162
O O2 0.933643 0.699321 0.238493
O O3 0.726974 0.943440 0.402960
O O4 0.500000 0.500000 0.000000
O O5 0.608265 0.863422 0.003400
O O6 0.055963 0.803815 0.981768
O O7 0.721251 0.973581 0.202444
O O8 0.495946 0.559172 0.810358
O O9 0.415730 0.156063 0.440438
O O10 0.061013 0.281760 0.635894
O O11 0.994387 0.296440 0.545879
O O12 0.682660 0.932163 0.871116
O O13 0.774067 0.359932 0.256400
O O14 0.500000 0.500000 0.500000
O O15 0.872419 0.690954 0.728606
O O16 0.002031 0.675159 0.604165
O O17 0.709456 0.367624 0.531057
#
# Coordination Sequence:
#
# PCOD9014906 Si02
#       8
#     2   2   2   2   2   2   2   2
#     4  10  21  41  69  99 140 180 210 270 323 361
#     4  12  25  43  66  94 124 171 215 266 320 397
#     4  12  25  44  67  98 132 177 219 269 316 383
#     4  10  23  40  65 103 137 170 229 263 310 385
#     4  12  25  43  67  89 124 161 213 265 338 394
#     4  11  26  41  65  93 121 160 215 279 331 401
#     4  11  24  43  62  92 121 162 211 270 332 396
#     4  12  25  43  68  90 131 174 215 268 335 386
#
# _framework density 23.007480999999999
#
# number of rings (size 3 to 8) (size 9 to 14) (size 15 to 20)
#    0.000    0.750    3.750    3.000    5.250    2.500 
#    0.000    0.000    0.000    0.000    0.000    0.000 
#    0.000    0.000    0.000    0.000    0.000    0.000 
#
# Total GULP energy -89591.121131 kJ/mol
# GULP energy per Si atom -5599.445071 kJ/mol
# Density = 2.295511 g / cm^3
# Si number density = 23.007481 Si / 1000 Ang^3
#
#
#
# Elastic Constant Matrix: (Units=GPa)
#
#
# Indices 1 2 3 4 5 6 
#
# 1 56.4752 -3.1904 7.2861 -2.8076 -0.9842 12.2346
# 2 -3.1904 77.6172 38.2789 -9.2848 2.1569 25.3416
# 3 7.2861 38.2789 117.4791 -14.4887 9.0238 1.2322
# 4 -2.8076 -9.2848 -14.4887 20.1365 3.3512 2.7126
# 5 -0.9842 2.1569 9.0238 3.3512 28.8523 -3.7107
# 6 12.2346 25.3416 1.2322 2.7126 -3.7107 37.5623
#
#
#
# Elastic Compliance Matrix: (Units=1/GPa)
#
#
# Indices 1 2 3 4 5 6 
#
# 1 0.021315 0.006841 -0.002578 0.006098 -0.001234 -0.012035
# 2 0.006841 0.024017 -0.006507 0.010482 -0.003226 -0.019293
# 3 -0.002578 -0.006507 0.011615 0.004982 -0.003277 0.004165
# 4 0.006098 0.010482 0.004982 0.062821 -0.011344 -0.014878
# 5 -0.001234 -0.003226 -0.003277 -0.011344 0.038136 0.007272
# 6 -0.012035 -0.019293 0.004165 -0.014878 0.007272 0.045215
#
#
# Mechanical properties :
#
#
# Convention : Reuss Voigt Hill
#
# Bulk Modulus (GPa) = 19.06286 37.36897 28.21592
# Shear Modulus (GPa) = 22.21313 31.25667 26.73490
#
# Velocity S-wave (km/s) = 3.11058 3.68984 3.41252
# Velocity P-wave (km/s) = 4.60483 5.86776 5.27423
#
# Compressibility (1/GPa) = 0.05245802
#
# Stress axis : x y z
#
# Youngs Moduli (GPa) = 46.91568 41.63795 86.09842
#
# Poissons Ratio (x) = -0.28483 0.22194
# Poissons Ratio (y) = -0.32093 0.56023
# Poissons Ratio (z) = 0.12094 0.27093
#
# Static dielectric constant tensor:
#      x y z
#    x 1.861650 -0.000740 -0.017140 
#    y -0.000740 1.869080 0.009520 
#    z -0.017140 0.009520 1.841890 
# 
# From -- ./inp_files/120430.got.cif
#   From: 2010.05.17/outbox.cif.g08.bks.cpg/sg2_61_cif.got.tgz:120430.got - 2010.06.03 11:33:40.
