data_PCOD9014646
_publ_section_title
;
Structure prediction by ZEFSAII (Michael W. Deem and Ramdas Pophale) SiO2 
 PCOD9014646
Probable space group: P -1
;
_chemical_formula_sum "Si O2"
_cell_formula_units_Z 16
_cell_length_a 12.583320
_cell_length_b 13.729009
_cell_length_c 9.169754
_cell_angle_alpha 119.470005
_cell_angle_beta 115.817216
_cell_angle_gamma 115.933643
_cell_volume 689.872438
_symmetry_space_group_name_H-M "P -1"
_symmetry_group_IT_number 2
_symmetry_cell_setting 'triclinic'
loop_
_space_group_symop_operation_xyz
x,y,z
-x,-y,-z
loop_
_atom_site_type_symbol
_atom_site_label
_atom_site_fract_x
_atom_site_fract_y
_atom_site_fract_z
Si Si1 0.409046 0.941778 0.240358
Si Si2 0.147599 0.524397 0.785291
Si Si3 0.827999 0.021234 0.821381
Si Si4 0.648522 0.434572 0.776164
Si Si5 0.822702 0.667910 0.511492
Si Si6 0.969446 0.972423 0.633327
Si Si7 0.821708 0.378873 0.678795
Si Si8 0.405286 0.370266 0.203992
O O1 0.232119 0.897201 0.127926
O O2 0.500000 0.000000 0.500000
O O3 0.605633 0.141036 0.408897
O O4 0.309164 0.746038 0.988219
O O5 0.095188 0.384194 0.540676
O O6 0.938636 0.425771 0.641214
O O7 0.260687 0.553984 0.015908
O O8 0.891352 0.025350 0.702699
O O9 0.604690 0.783796 0.545482
O O10 0.027391 0.160078 0.148549
O O11 0.755487 0.455841 0.717585
O O12 0.687356 0.595965 0.913617
O O13 0.591008 0.464715 0.289375
O O14 0.820397 0.757311 0.446949
O O15 0.209753 0.137145 0.952774
O O16 0.000000 0.000000 0.500000
O O17 0.000000 0.500000 0.000000
O O18 0.500000 0.500000 0.500000
#
# Coordination Sequence:
#
# PCOD9014646 Si02
#       8
#     2   2   2   2   2   2   2   2
#     4  11  21  39  69 100 130 177 232 276 333 407
#     4  11  24  41  67  99 138 175 221 287 335 402
#     4  11  23  45  70  96 140 183 219 287 348 398
#     4  10  21  41  68  96 130 176 230 285 329 395
#     4  12  27  47  64 102 150 176 222 288 346 410
#     4  12  27  44  72 103 133 183 236 285 334 408
#     4   9  19  37  62  98 127 167 218 280 332 388
#     4  12  25  43  68  98 135 186 228 271 349 411
#
# _framework density 23.192692999999998
#
# number of rings (size 3 to 8) (size 9 to 14) (size 15 to 20)
#    0.000    1.000    6.250    1.875    3.500    3.500 
#    0.000    2.500    0.000    0.000    0.000    0.000 
#    0.000    0.000    0.000    0.000    0.000    0.000 
#
# Total GULP energy -89462.612380 kJ/mol
# GULP energy per Si atom -5591.413274 kJ/mol
# Density = 2.313991 g / cm^3
# Si number density = 23.192693 Si / 1000 Ang^3
#
#
#
# Elastic Constant Matrix: (Units=GPa)
#
#
# Indices 1 2 3 4 5 6 
#
# 1 136.3006 24.6331 35.4647 7.5582 -7.2430 25.7567
# 2 24.6331 45.8249 17.6401 4.9165 -1.5034 3.6820
# 3 35.4647 17.6401 67.3219 8.4359 -7.0324 13.2160
# 4 7.5582 4.9165 8.4359 28.8062 3.5453 5.1484
# 5 -7.2430 -1.5034 -7.0324 3.5453 42.5639 8.6522
# 6 25.7567 3.6820 13.2160 5.1484 8.6522 35.4494
#
#
#
# Elastic Compliance Matrix: (Units=1/GPa)
#
#
# Indices 1 2 3 4 5 6 
#
# 1 0.010106 -0.003726 -0.002774 -0.000351 0.002475 -0.006475
# 2 -0.003726 0.025800 -0.005089 -0.002269 -0.000876 0.002468
# 3 -0.002774 -0.005089 0.019535 -0.003686 0.003932 -0.005163
# 4 -0.000351 -0.002269 -0.003686 0.037166 -0.003289 -0.002730
# 5 0.002475 -0.000876 0.003932 -0.003289 0.026680 -0.009208
# 6 -0.006475 0.002468 -0.005163 -0.002730 -0.009208 0.037226
#
#
# Mechanical properties :
#
#
# Convention : Reuss Voigt Hill
#
# Bulk Modulus (GPa) = 30.99478 44.99146 37.99312
# Shear Modulus (GPa) = 26.25399 32.81122 29.53261
#
# Velocity S-wave (km/s) = 3.36816 3.76536 3.57229
# Velocity P-wave (km/s) = 5.34032 6.19233 5.78204
#
# Compressibility (1/GPa) = 0.03226350
#
# Stress axis : x y z
#
# Youngs Moduli (GPa) = 98.94662 38.75900 51.18978
#
# Poissons Ratio (x) = 0.14440 0.14201
# Poissons Ratio (y) = 0.36865 0.26053
# Poissons Ratio (z) = 0.27449 0.19726
#
# Static dielectric constant tensor:
#      x y z
#    x 1.869550 -0.029610 0.026770 
#    y -0.029610 1.937450 -0.048070 
#    z 0.026770 -0.048070 1.947590 
# 
# From -- ./inp_files/274117.got.cif
#   From: 2010.05.17/outbox.cif.g08.bks.cpg/sg2_138_cif.got.tgz:274117.got - 2010.06.03 11:33:40.
