data_PCOD9014861
_publ_section_title
;
Structure prediction by ZEFSAII (Michael W. Deem and Ramdas Pophale) SiO2 
 PCOD9014861
Probable space group: P -1
;
_chemical_formula_sum "Si O2"
_cell_formula_units_Z 12
_cell_length_a 9.364383
_cell_length_b 5.313861
_cell_length_c 16.200086
_cell_angle_alpha 125.750894
_cell_angle_beta 53.072079
_cell_angle_gamma 106.888675
_cell_volume 520.705199
_symmetry_space_group_name_H-M "P -1"
_symmetry_group_IT_number 2
_symmetry_cell_setting 'triclinic'
loop_
_space_group_symop_operation_xyz
x,y,z
-x,-y,-z
loop_
_atom_site_type_symbol
_atom_site_label
_atom_site_fract_x
_atom_site_fract_y
_atom_site_fract_z
Si Si1 0.345586 0.550411 0.312545
Si Si2 0.982257 0.393429 0.848943
Si Si3 0.014262 0.342864 0.286463
Si Si4 0.594202 0.298944 0.307782
Si Si5 0.272437 0.355900 0.878196
Si Si6 0.322789 0.202773 0.518150
O O1 0.185745 0.442259 0.294251
O O2 0.433644 0.302796 0.299745
O O3 0.520704 0.603696 0.206266
O O4 0.278982 0.854819 0.448333
O O5 0.967766 0.569201 0.800106
O O6 0.143006 0.475568 0.870454
O O7 0.003983 0.019323 0.759356
O O8 0.803296 0.481149 0.981736
O O9 0.836096 0.558362 0.416758
O O10 0.510047 0.213918 0.407973
O O11 0.649275 0.648064 0.372564
O O12 0.738295 0.015832 0.182692
#
# Coordination Sequence:
#
# PCOD9014861 Si02
#       6
#     2   2   2   2   2   2
#     4  11  25  40  69  98 138 175 219 279 337 398
#     4  11  27  46  71  97 134 180 226 275 326 399
#     4  12  27  44  68 103 139 175 217 277 342 394
#     4  10  21  41  69  97 129 175 228 274 327 393
#     4  10  24  45  70  97 128 179 232 273 325 395
#     4  10  22  41  65  99 130 179 222 274 326 399
#
# _framework density 23.045669
#
# number of rings (size 3 to 8) (size 9 to 14) (size 15 to 20)
#    0.000    1.333    1.667    2.000    9.333    3.333 
#    0.000    0.000    0.000    0.000    0.000    0.000 
#    0.000    0.000    0.000    0.000    0.000    0.000 
#
# Total GULP energy -67047.093191 kJ/mol
# GULP energy per Si atom -5587.257766 kJ/mol
# Density = 2.299322 g / cm^3
# Si number density = 23.045669 Si / 1000 Ang^3
#
#
#
# Elastic Constant Matrix: (Units=GPa)
#
#
# Indices 1 2 3 4 5 6 
#
# 1 147.9973 9.3576 -2.2749 0.7608 2.4477 5.7090
# 2 9.3576 64.6353 -4.0856 -3.5116 2.6025 -11.0939
# 3 -2.2749 -4.0856 68.3411 3.8137 -22.4665 -5.6046
# 4 0.7608 -3.5116 3.8137 21.7684 -6.4936 -3.4604
# 5 2.4477 2.6025 -22.4665 -6.4936 31.2759 -3.9435
# 6 5.7090 -11.0939 -5.6046 -3.4604 -3.9435 33.5978
#
#
#
# Elastic Compliance Matrix: (Units=1/GPa)
#
#
# Indices 1 2 3 4 5 6 
#
# 1 0.006936 -0.001366 -0.000317 -0.001046 -0.001116 -0.001921
# 2 -0.001366 0.017110 0.001882 0.004082 0.001742 0.006821
# 3 -0.000317 0.001882 0.020266 0.002427 0.015705 0.006149
# 4 -0.001046 0.004082 0.002427 0.051576 0.013304 0.008804
# 5 -0.001116 0.001742 0.015705 0.013304 0.047259 0.010302
# 6 -0.001921 0.006821 0.006149 0.008804 0.010302 0.035484
#
#
# Mechanical properties :
#
#
# Convention : Reuss Voigt Hill
#
# Bulk Modulus (GPa) = 22.36578 31.88533 27.12555
# Shear Modulus (GPa) = 25.88828 35.86020 30.87424
#
# Velocity S-wave (km/s) = 3.35527 3.94896 3.66416
# Velocity P-wave (km/s) = 4.97358 5.88711 5.44952
#
# Compressibility (1/GPa) = 0.04471117
#
# Stress axis : x y z
#
# Youngs Moduli (GPa) = 144.16878 58.44379 49.34309
#
# Poissons Ratio (x) = 0.07983 0.01564
# Poissons Ratio (y) = 0.19691 -0.09285
# Poissons Ratio (z) = 0.04569 -0.10998
#
# Static dielectric constant tensor:
#      x y z
#    x 1.847720 0.029420 -0.012510 
#    y 0.029420 1.941320 -0.023640 
#    z -0.012510 -0.023640 1.867050 
# 
# From -- ./inp_files/18326.got.cif
#   From: 2010.05.17/outbox.cif.g08.bks.cpg/sg2_10_cif.got.tgz:18326.got - 2010.06.03 11:33:40.
