data_PCOD9014784
_publ_section_title
;
Structure prediction by ZEFSAII (Michael W. Deem and Ramdas Pophale) SiO2 
 PCOD9014784
Probable space group: P -1
;
_chemical_formula_sum "Si O2"
_cell_formula_units_Z 14
_cell_length_a 14.604609
_cell_length_b 12.143543
_cell_length_c 11.339266
_cell_angle_alpha 39.355100
_cell_angle_beta 138.831446
_cell_angle_gamma 149.255603
_cell_volume 627.314767
_symmetry_space_group_name_H-M "P -1"
_symmetry_group_IT_number 2
_symmetry_cell_setting 'triclinic'
loop_
_space_group_symop_operation_xyz
x,y,z
-x,-y,-z
loop_
_atom_site_type_symbol
_atom_site_label
_atom_site_fract_x
_atom_site_fract_y
_atom_site_fract_z
Si Si1 0.833647 0.024245 0.691700
Si Si2 0.692279 0.260305 0.456171
Si Si3 0.861356 0.523882 0.040919
Si Si4 0.180387 0.561786 0.301502
Si Si5 0.790866 0.673622 0.075470
Si Si6 0.186184 0.905524 0.644255
Si Si7 0.545556 0.340413 0.702413
O O1 0.816810 0.211759 0.557989
O O2 0.789680 0.968978 0.557208
O O3 0.048131 0.154764 0.816324
O O4 0.716897 0.794686 0.851335
O O5 0.772099 0.377140 0.565350
O O6 0.674040 0.420055 0.228802
O O7 0.500000 0.000000 0.500000
O O8 0.704888 0.463474 0.852680
O O9 0.883129 0.663693 0.057467
O O10 0.785664 0.272622 0.214890
O O11 0.060488 0.632903 0.089086
O O12 0.361060 0.677552 0.304322
O O13 0.029896 0.280052 0.372365
O O14 0.344925 0.086606 0.740557
O O15 0.500000 0.500000 0.500000
#
# Coordination Sequence:
#
# PCOD9014784 Si02
#       7
#     2   2   2   2   2   2   2
#     4  11  20  39  66  96 132 166 219 268 325 409
#     4  12  22  40  65  98 140 171 216 276 334 402
#     4  10  21  42  66  91 133 177 227 263 334 409
#     4  10  23  41  68  93 131 181 226 267 340 407
#     4  11  21  38  69  97 125 176 214 265 339 393
#     4  10  21  41  69  89 133 178 219 271 339 390
#     4  12  25  42  63  98 131 172 230 286 330 392
#
# _framework density 22.317343999999999
#
# number of rings (size 3 to 8) (size 9 to 14) (size 15 to 20)
#    0.857    0.286    4.286    3.000    0.000    1.143 
#    0.000    0.000    0.000    0.000    0.000    0.000 
#    0.000    0.000    0.000    0.000    0.000    0.000 
#
# Total GULP energy -78066.782342 kJ/mol
# GULP energy per Si atom -5576.198739 kJ/mol
# Density = 2.226655 g / cm^3
# Si number density = 22.317344 Si / 1000 Ang^3
#
#
#
# Elastic Constant Matrix: (Units=GPa)
#
#
# Indices 1 2 3 4 5 6 
#
# 1 13.7192 2.9373 -5.2252 0.6252 4.5422 2.6670
# 2 2.9373 76.0820 5.8247 -19.4202 6.9254 10.7562
# 3 -5.2252 5.8247 108.1284 -16.5042 -4.4411 7.4489
# 4 0.6252 -19.4202 -16.5042 40.6717 -2.5649 -0.1620
# 5 4.5422 6.9254 -4.4411 -2.5649 18.6062 -1.9182
# 6 2.6670 10.7562 7.4489 -0.1620 -1.9182 26.8567
#
#
#
# Elastic Compliance Matrix: (Units=1/GPa)
#
#
# Indices 1 2 3 4 5 6 
#
# 1 0.083341 -0.000474 0.003736 -0.001330 -0.020554 -0.010599
# 2 -0.000474 0.016622 0.000528 0.007777 -0.005606 -0.007110
# 3 0.003736 0.000528 0.010383 0.004499 0.001648 -0.003318
# 4 -0.001330 0.007777 0.004499 0.030274 0.002277 -0.003885
# 5 -0.020554 -0.005606 0.001648 0.002277 0.062413 0.008301
# 6 -0.010599 -0.007110 -0.003318 -0.003885 0.008301 0.042624
#
#
# Mechanical properties :
#
#
# Convention : Reuss Voigt Hill
#
# Bulk Modulus (GPa) = 8.47979 22.77812 15.62896
# Shear Modulus (GPa) = 18.02541 30.18645 24.10593
#
# Velocity S-wave (km/s) = 2.84507 3.68176 3.29012
# Velocity P-wave (km/s) = 3.82105 5.32000 4.63157
#
# Compressibility (1/GPa) = 0.11792746
#
# Stress axis : x y z
#
# Youngs Moduli (GPa) = 11.99889 60.16105 96.30878
#
# Poissons Ratio (x) = 0.02849 -0.35980
# Poissons Ratio (y) = 0.00568 -0.05087
# Poissons Ratio (z) = -0.04483 -0.03178
#
# Static dielectric constant tensor:
#      x y z
#    x 1.851320 0.034000 0.027180 
#    y 0.034000 1.850830 -0.007910 
#    z 0.027180 -0.007910 1.890490 
# 
# From -- ./inp_files/449669.got.cif
#   From: 2010.05.17/outbox.cif.g08.bks.cpg/sg2_225_cif.got.tgz:449669.got - 2010.06.03 11:33:40.
