data_PCOD9014429
_publ_section_title
;
Structure prediction by ZEFSAII (Michael W. Deem and Ramdas Pophale) SiO2 
 PCOD9014429
Probable space group: P -1
;
_chemical_formula_sum "Si O2"
_cell_formula_units_Z 16
_cell_length_a 12.501730
_cell_length_b 21.375086
_cell_length_c 18.084796
_cell_angle_alpha 18.828877
_cell_angle_beta 38.863860
_cell_angle_gamma 29.153371
_cell_volume 723.627084
_symmetry_space_group_name_H-M "P -1"
_symmetry_group_IT_number 2
_symmetry_cell_setting 'triclinic'
loop_
_space_group_symop_operation_xyz
x,y,z
-x,-y,-z
loop_
_atom_site_type_symbol
_atom_site_label
_atom_site_fract_x
_atom_site_fract_y
_atom_site_fract_z
Si Si1 0.496415 0.308261 0.009779
Si Si2 0.818686 0.597974 0.290903
Si Si3 0.903475 0.175986 0.548231
Si Si4 0.231271 0.751008 0.195616
Si Si5 0.224781 0.337403 0.009423
Si Si6 0.639233 0.127128 0.861404
Si Si7 0.010364 0.822503 0.753604
Si Si8 0.258526 0.097641 0.546199
O O1 0.585232 0.400983 0.800709
O O2 0.433165 0.180380 0.130848
O O3 0.265075 0.538092 0.922120
O O4 0.688942 0.093294 0.203087
O O5 0.798172 0.430950 0.544112
O O6 0.618904 0.723524 0.195812
O O7 0.068115 0.395445 0.344339
O O8 0.777668 0.826093 0.102655
O O9 0.135802 0.079316 0.566828
O O10 0.793979 0.441330 0.267637
O O11 0.737190 0.220983 0.650462
O O12 0.964228 0.956809 0.705764
O O13 0.310727 0.839926 0.118749
O O14 0.000000 0.000000 0.000000
O O15 0.187311 0.184857 0.147411
O O16 0.000000 0.500000 0.000000
O O17 0.000000 0.000000 0.500000
O O18 0.500000 0.000000 0.500000
#
# Coordination Sequence:
#
# PCOD9014429 Si02
#       8
#     2   2   2   2   2   2   2   2
#     4  11  24  45  68 102 142 193 229 290 369 425
#     4  11  26  49  73 107 144 188 252 297 355 433
#     4  12  24  45  73 106 143 187 240 298 358 432
#     4  12  24  50  71 103 151 183 238 302 365 430
#     4  10  21  41  67  97 138 179 234 290 352 415
#     4  11  27  45  79 111 133 197 248 300 359 421
#     4  11  24  41  69 107 137 181 241 293 353 427
#     4  12  27  47  69 104 152 194 229 296 372 429
#
# _framework density 22.110835000000002
#
# number of rings (size 3 to 8) (size 9 to 14) (size 15 to 20)
#    0.000    0.750    5.000    2.625    5.250    2.000 
#    2.250    0.000    0.000    0.000    0.000    0.000 
#    0.000    0.000    0.000    0.000    0.000    0.000 
#
# Total GULP energy -89512.909968 kJ/mol
# GULP energy per Si atom -5594.556873 kJ/mol
# Density = 2.206051 g / cm^3
# Si number density = 22.110835 Si / 1000 Ang^3
#
#
#
# Elastic Constant Matrix: (Units=GPa)
#
#
# Indices 1 2 3 4 5 6 
#
# 1 127.4899 23.1630 46.5241 -15.9325 3.2591 9.8211
# 2 23.1630 105.3948 13.8157 0.4450 -1.2402 9.9505
# 3 46.5241 13.8157 98.3986 -8.4172 -7.2455 7.8213
# 4 -15.9325 0.4450 -8.4172 34.5957 2.1356 3.5908
# 5 3.2591 -1.2402 -7.2455 2.1356 42.0137 -4.9712
# 6 9.8211 9.9505 7.8213 3.5908 -4.9712 39.1701
#
#
#
# Elastic Compliance Matrix: (Units=1/GPa)
#
#
# Indices 1 2 3 4 5 6 
#
# 1 0.010437 -0.001577 -0.004356 0.004100 -0.002050 -0.001983
# 2 -0.001577 0.010101 -0.000575 -0.000800 0.000129 -0.001966
# 3 -0.004356 -0.000575 0.012650 0.001049 0.002320 -0.001089
# 4 0.004100 -0.000800 0.001049 0.031637 -0.002268 -0.004222
# 5 -0.002050 0.000129 0.002320 -0.002268 0.024880 0.003384
# 6 -0.001983 -0.001966 -0.001089 -0.004222 0.003384 0.027560
#
#
# Mechanical properties :
#
#
# Convention : Reuss Voigt Hill
#
# Bulk Modulus (GPa) = 49.57509 55.36543 52.47026
# Shear Modulus (GPa) = 36.49449 39.67460 38.08454
#
# Velocity S-wave (km/s) = 4.06707 4.24057 4.15473
# Velocity P-wave (km/s) = 6.67268 7.00506 6.84089
#
# Compressibility (1/GPa) = 0.02017142
#
# Stress axis : x y z
#
# Youngs Moduli (GPa) = 95.80871 99.00371 79.04911
#
# Poissons Ratio (x) = 0.15614 0.34436
# Poissons Ratio (y) = 0.15110 0.04547
# Poissons Ratio (z) = 0.41737 0.05694
#
# Static dielectric constant tensor:
#      x y z
#    x 1.822790 -0.032690 0.022320 
#    y -0.032690 1.930740 -0.046630 
#    z 0.022320 -0.046630 1.860000 
# 
# From -- ./inp_files/570677.got.cif
#   From: 2010.05.17/outbox.cif.g08.bks.cpg/sg2_286_cif.got.tgz:570677.got - 2010.06.03 11:33:40.
