data_PCOD9014288
_publ_section_title
;
Structure prediction by ZEFSAII (Michael W. Deem and Ramdas Pophale) SiO2 
 PCOD9014288
Probable space group: P -1
;
_chemical_formula_sum "Si O2"
_cell_formula_units_Z 16
_cell_length_a 8.332652
_cell_length_b 11.102976
_cell_length_c 20.354362
_cell_angle_alpha 52.134583
_cell_angle_beta 29.049793
_cell_angle_gamma 52.210118
_cell_volume 707.472647
_symmetry_space_group_name_H-M "P -1"
_symmetry_group_IT_number 2
_symmetry_cell_setting 'triclinic'
loop_
_space_group_symop_operation_xyz
x,y,z
-x,-y,-z
loop_
_atom_site_type_symbol
_atom_site_label
_atom_site_fract_x
_atom_site_fract_y
_atom_site_fract_z
Si Si1 0.178238 0.330858 0.430011
Si Si2 0.167007 0.125630 0.137550
Si Si3 0.257460 0.655706 0.008827
Si Si4 0.158692 0.565113 0.790379
Si Si5 0.535377 0.574678 0.531335
Si Si6 0.899829 0.155428 0.865834
Si Si7 0.084506 0.189579 0.650632
Si Si8 0.626347 0.156535 0.217002
O O1 0.495432 0.407705 0.310676
O O2 0.319998 0.213471 0.358692
O O3 0.880008 0.469454 0.470154
O O4 0.054314 0.250823 0.565952
O O5 0.101164 0.275650 0.157184
O O6 0.959454 0.189030 0.125176
O O7 0.977615 0.986826 0.272722
O O8 0.569638 0.076601 0.009087
O O9 0.113748 0.752665 0.092255
O O10 0.973300 0.587918 0.092541
O O11 0.500000 0.500000 0.000000
O O12 0.421850 0.754596 0.864388
O O13 0.229841 0.548521 0.693572
O O14 0.500000 0.500000 0.500000
O O15 0.573461 0.753364 0.468210
O O16 0.870206 0.246052 0.775680
O O17 0.246714 0.027453 0.780578
#
# Coordination Sequence:
#
# PCOD9014288 Si02
#       8
#     2   2   2   2   2   2   2   2
#     4  10  24  42  67  98 129 178 225 276 319 405
#     4  10  22  41  67  99 130 175 224 279 325 400
#     4  12  25  43  68  98 140 179 217 277 344 388
#     4  10  22  41  63  97 128 177 222 269 330 391
#     4  11  24  40  64  96 134 173 225 278 327 399
#     4  11  23  42  69 103 134 176 221 279 331 400
#     4  10  21  41  67  92 135 172 220 266 338 384
#     4  10  24  41  66  95 136 170 226 269 334 393
#
# _framework density 22.615717
#
# number of rings (size 3 to 8) (size 9 to 14) (size 15 to 20)
#    0.000    1.500    1.250    4.125    3.500   14.000 
#    0.000    2.500    0.000   15.000    0.000    0.000 
#    0.000    0.000    0.000    0.000    0.000    0.000 
#
# Total GULP energy -89121.358631 kJ/mol
# GULP energy per Si atom -5570.084914 kJ/mol
# Density = 2.256424 g / cm^3
# Si number density = 22.615717 Si / 1000 Ang^3
#
#
#
# Elastic Constant Matrix: (Units=GPa)
#
#
# Indices 1 2 3 4 5 6 
#
# 1 79.5602 45.4540 34.1886 -8.7875 33.2478 8.9550
# 2 45.4540 101.9079 53.7036 8.4887 28.6096 13.8937
# 3 34.1886 53.7036 92.0383 -7.4994 27.7605 -4.4120
# 4 -8.7875 8.4887 -7.4994 47.4885 9.7673 3.1914
# 5 33.2478 28.6096 27.7605 9.7673 47.6038 3.0709
# 6 8.9550 13.8937 -4.4120 3.1914 3.0709 35.2167
#
#
#
# Elastic Compliance Matrix: (Units=1/GPa)
#
#
# Indices 1 2 3 4 5 6 
#
# 1 0.023651 -0.007026 0.000100 0.008708 -0.013960 -0.002801
# 2 -0.007026 0.019205 -0.009565 -0.005926 0.000578 -0.006502
# 3 0.000100 -0.009565 0.019363 0.005849 -0.007218 0.006273
# 4 0.008708 -0.005926 0.005849 0.027045 -0.011442 -0.000597
# 5 -0.013960 0.000578 -0.007218 -0.011442 0.036952 0.000232
# 6 -0.002801 -0.006502 0.006273 -0.000597 0.000232 0.032493
#
#
# Mechanical properties :
#
#
# Convention : Reuss Voigt Hill
#
# Bulk Modulus (GPa) = 34.20238 60.02206 47.11222
# Shear Modulus (GPa) = 24.82167 35.40580 30.11374
#
# Velocity S-wave (km/s) = 3.31651 3.96098 3.65299
# Velocity P-wave (km/s) = 5.46093 6.89324 6.21846
#
# Compressibility (1/GPa) = 0.02923773
#
# Stress axis : x y z
#
# Youngs Moduli (GPa) = 42.28102 52.07026 51.64410
#
# Poissons Ratio (x) = 0.36585 -0.00517
# Poissons Ratio (y) = 0.29707 0.49397
# Poissons Ratio (z) = -0.00423 0.49804
#
# Static dielectric constant tensor:
#      x y z
#    x 1.903500 0.031650 -0.007580 
#    y 0.031650 1.916940 -0.000400 
#    z -0.007580 -0.000400 1.889490 
# 
# From -- ./inp_files/589523.got.cif
#   From: 2010.05.17/outbox.cif.g08.bks.cpg/sg2_295_cif.got.tgz:589523.got - 2010.06.03 11:33:40.
