data_PCOD9014112
_publ_section_title
;
Structure prediction by ZEFSAII (Michael W. Deem and Ramdas Pophale) SiO2 
 PCOD9014112
Probable space group: P -1
;
_chemical_formula_sum "Si O2"
_cell_formula_units_Z 14
_cell_length_a 11.929694
_cell_length_b 8.552337
_cell_length_c 8.716829
_cell_angle_alpha 104.002238
_cell_angle_beta 55.194337
_cell_angle_gamma 69.216557
_cell_volume 556.627225
_symmetry_space_group_name_H-M "P -1"
_symmetry_group_IT_number 2
_symmetry_cell_setting 'triclinic'
loop_
_space_group_symop_operation_xyz
x,y,z
-x,-y,-z
loop_
_atom_site_type_symbol
_atom_site_label
_atom_site_fract_x
_atom_site_fract_y
_atom_site_fract_z
Si Si1 0.716282 0.920208 0.179657
Si Si2 0.294724 0.654173 0.156952
Si Si3 0.182386 0.425935 0.779923
Si Si4 0.380081 0.154025 0.304420
Si Si5 0.381758 0.556980 0.754765
Si Si6 0.694762 0.126763 0.541540
Si Si7 0.173245 0.380551 0.237156
O O1 0.683155 0.789304 0.284393
O O2 0.551341 0.090283 0.245147
O O3 0.769796 0.012318 0.289580
O O4 0.837757 0.747482 0.916513
O O5 0.212283 0.815877 0.401028
O O6 0.209425 0.537601 0.189625
O O7 0.500000 0.500000 0.000000
O O8 0.304016 0.721544 0.993270
O O9 0.225746 0.366820 0.556868
O O10 0.215589 0.584038 0.830548
O O11 0.000000 0.500000 0.000000
O O12 0.342957 0.211226 0.168653
O O13 0.343605 0.999304 0.351575
O O14 0.500000 0.500000 0.500000
O O15 0.513664 0.340679 0.687585
O O16 0.000000 0.500000 0.500000
#
# Coordination Sequence:
#
# PCOD9014112 Si02
#       7
#     2   2   2   2   2   2   2
#     4  11  20  42  67  96 135 179 230 279 332 413
#     4  10  23  43  65 100 140 179 226 290 333 415
#     4  11  21  39  67 100 133 175 228 286 337 396
#     4  11  22  39  72  97 134 182 235 275 339 416
#     4  11  22  39  66 100 136 182 232 276 337 414
#     4  10  21  41  66  97 136 175 234 280 330 399
#     4  12  26  44  71 107 137 176 232 288 349 413
#
# _framework density 25.151482000000001
#
# number of rings (size 3 to 8) (size 9 to 14) (size 15 to 20)
#    0.000    1.143    4.286    3.000    4.000    1.143 
#    0.000    1.429    3.143    0.000    0.000    0.000 
#    0.000    0.000    0.000    0.000    0.000    0.000 
#
# Total GULP energy -78018.550146 kJ/mol
# GULP energy per Si atom -5572.753582 kJ/mol
# Density = 2.509424 g / cm^3
# Si number density = 25.151482 Si / 1000 Ang^3
#
#
#
# Elastic Constant Matrix: (Units=GPa)
#
#
# Indices 1 2 3 4 5 6 
#
# 1 96.7051 34.7101 82.9573 -12.8641 30.0277 5.4759
# 2 34.7101 60.1301 17.6750 -9.3684 12.5308 -8.7406
# 3 82.9573 17.6750 175.4605 -11.7057 41.6697 12.9484
# 4 -12.8641 -9.3684 -11.7057 31.8409 1.1080 1.5517
# 5 30.0277 12.5308 41.6697 1.1080 60.3351 -2.9280
# 6 5.4759 -8.7406 12.9484 1.5517 -2.9280 35.4823
#
#
#
# Elastic Compliance Matrix: (Units=1/GPa)
#
#
# Indices 1 2 3 4 5 6 
#
# 1 0.023048 -0.009956 -0.008519 0.003545 -0.003747 -0.003365
# 2 -0.009956 0.023378 0.002458 0.003508 -0.001365 0.006132
# 3 -0.008519 0.002458 0.010641 0.001438 -0.003759 -0.002336
# 4 0.003545 0.003508 0.001438 0.034647 -0.004222 -0.002071
# 5 -0.003747 -0.001365 -0.003759 -0.004222 0.021570 0.003579
# 6 -0.003365 0.006132 -0.002336 -0.002071 0.003579 0.031451
#
#
# Mechanical properties :
#
#
# Convention : Reuss Voigt Hill
#
# Bulk Modulus (GPa) = 39.95029 66.99784 53.47407
# Shear Modulus (GPa) = 27.01035 38.66185 32.83610
#
# Velocity S-wave (km/s) = 3.28061 3.92492 3.61714
# Velocity P-wave (km/s) = 5.50165 6.87281 6.22510
#
# Compressibility (1/GPa) = 0.02503111
#
# Stress axis : x y z
#
# Youngs Moduli (GPa) = 43.38713 42.77579 93.97854
#
# Poissons Ratio (x) = 0.42589 0.80065
# Poissons Ratio (y) = 0.43197 -0.23099
# Poissons Ratio (z) = 0.36964 -0.10514
#
# Static dielectric constant tensor:
#      x y z
#    x 2.060110 -0.026210 0.081090 
#    y -0.026210 2.075700 0.040980 
#    z 0.081090 0.040980 2.083720 
# 
# From -- ./inp_files/244874.got.cif
#   From: 2010.05.17/outbox.cif.g08.bks.cpg/sg2_123_cif.got.tgz:244874.got - 2010.06.03 11:33:40.
