data_PCOD9014199
_publ_section_title
;
Structure prediction by ZEFSAII (Michael W. Deem and Ramdas Pophale) SiO2 
 PCOD9014199
Probable space group: P -1
;
_chemical_formula_sum "Si O2"
_cell_formula_units_Z 15
_cell_length_a 21.239514
_cell_length_b 6.829646
_cell_length_c 5.815834
_cell_angle_alpha 109.896540
_cell_angle_beta 68.909931
_cell_angle_gamma 127.917937
_cell_volume 612.760769
_symmetry_space_group_name_H-M "P -1"
_symmetry_group_IT_number 2
_symmetry_cell_setting 'triclinic'
loop_
_space_group_symop_operation_xyz
x,y,z
-x,-y,-z
loop_
_atom_site_type_symbol
_atom_site_label
_atom_site_fract_x
_atom_site_fract_y
_atom_site_fract_z
Si Si1 0.252715 0.339122 0.850414
Si Si2 0.625669 0.322257 0.536189
Si Si3 0.691036 0.143651 0.774040
Si Si4 0.096037 0.060249 0.652613
Si Si5 0.000000 0.500000 0.500000
Si Si6 0.470153 0.108387 0.890488
Si Si7 0.082160 0.523388 0.819123
Si Si8 0.794380 0.014505 0.842788
O O1 0.312191 0.429983 0.589613
O O2 0.159766 0.152769 0.816175
O O3 0.272517 0.603328 0.022038
O O4 0.266859 0.201832 0.983743
O O5 0.673281 0.234533 0.595796
O O6 0.556443 0.334464 0.767448
O O7 0.575206 0.095100 0.332415
O O8 0.752979 0.065829 0.709437
O O9 0.604306 0.909023 0.890752
O O10 0.075155 0.265264 0.743804
O O11 0.017743 0.777543 0.647400
O O12 0.145932 0.059102 0.365724
O O13 0.082040 0.581745 0.574952
O O14 0.500000 0.000000 0.000000
O O15 0.152388 0.733682 0.972935
O O16 0.000000 0.500000 0.000000
#
# Coordination Sequence:
#
# PCOD9014199 Si02
#       8
#     2   2   2   2   1   2   2   2
#     4  11  23  43  66 101 145 187 240 300 359 431
#     4   9  18  36  69 103 141 195 240 295 357 424
#     4  10  21  41  67 102 145 194 238 301 363 427
#     4  12  27  46  71 105 141 189 242 302 368 440
#     4  12  26  46  74 102 138 186 242 300 368 434
#     4   8  16  34  65 103 144 191 239 291 361 420
#     4  12  27  50  71 103 140 189 239 302 368 444
#     4  12  26  44  71 104 144 189 241 301 367 436
#
# _framework density 24.479375999999998
#
# number of rings (size 3 to 8) (size 9 to 14) (size 15 to 20)
#    0.000    1.333    4.000    1.200    0.000    5.867 
#    0.000    0.667    0.000   32.800    0.000    0.000 
#    0.000    0.000    0.000    0.000    0.000    0.000 
#
# Total GULP energy -83553.639852 kJ/mol
# GULP energy per Si atom -5570.242657 kJ/mol
# Density = 2.442366 g / cm^3
# Si number density = 24.479376 Si / 1000 Ang^3
#
#
#
# Elastic Constant Matrix: (Units=GPa)
#
#
# Indices 1 2 3 4 5 6 
#
# 1 133.7808 58.6886 52.6474 3.6589 10.5535 -1.2548
# 2 58.6886 137.0433 58.5537 17.3443 -14.4322 -15.9270
# 3 52.6474 58.5537 90.1631 1.9833 13.7899 -3.9206
# 4 3.6589 17.3443 1.9833 49.7380 6.3408 -8.3740
# 5 10.5535 -14.4322 13.7899 6.3408 44.2015 4.8280
# 6 -1.2548 -15.9270 -3.9206 -8.3740 4.8280 20.1891
#
#
#
# Elastic Compliance Matrix: (Units=1/GPa)
#
#
# Indices 1 2 3 4 5 6 
#
# 1 0.010620 -0.003571 -0.003611 0.000576 -0.002435 -0.002037
# 2 -0.003571 0.014409 -0.008165 -0.004504 0.008123 0.005749
# 3 -0.003611 -0.008165 0.019761 0.003529 -0.008550 0.000680
# 4 0.000576 -0.004504 0.003529 0.023873 -0.007091 0.008766
# 5 -0.002435 0.008123 -0.008550 -0.007091 0.030148 -0.005555
# 6 -0.002037 0.005749 0.000680 0.008766 -0.005555 0.059036
#
#
# Mechanical properties :
#
#
# Convention : Reuss Voigt Hill
#
# Bulk Modulus (GPa) = 70.94339 77.86296 74.40318
# Shear Modulus (GPa) = 25.87458 35.56555 30.72006
#
# Velocity S-wave (km/s) = 3.25467 3.81580 3.54635
# Velocity P-wave (km/s) = 6.57021 7.16173 6.87234
#
# Compressibility (1/GPa) = 0.01409575
#
# Stress axis : x y z
#
# Youngs Moduli (GPa) = 94.16420 69.40300 50.60362
#
# Poissons Ratio (x) = 0.24786 0.18270
# Poissons Ratio (y) = 0.33629 0.41319
# Poissons Ratio (z) = 0.33998 0.56669
#
# Static dielectric constant tensor:
#      x y z
#    x 1.938050 0.044240 -0.036530 
#    y 0.044240 1.947790 -0.117130 
#    z -0.036530 -0.117130 2.251940 
# 
# From -- ./inp_files/114886.got.cif
#   From: 2010.05.17/outbox.cif.g08.bks.cpg/sg2_58_cif.got.tgz:114886.got - 2010.06.03 11:33:40.
