data_PCOD9014815
_publ_section_title
;
Structure prediction by ZEFSAII (Michael W. Deem and Ramdas Pophale) SiO2 
 PCOD9014815
Probable space group: P -1
;
_chemical_formula_sum "Si O2"
_cell_formula_units_Z 15
_cell_length_a 9.401838
_cell_length_b 11.900310
_cell_length_c 11.749174
_cell_angle_alpha 127.046348
_cell_angle_beta 142.077268
_cell_angle_gamma 63.639800
_cell_volume 643.533660
_symmetry_space_group_name_H-M "P -1"
_symmetry_group_IT_number 2
_symmetry_cell_setting 'triclinic'
loop_
_space_group_symop_operation_xyz
x,y,z
-x,-y,-z
loop_
_atom_site_type_symbol
_atom_site_label
_atom_site_fract_x
_atom_site_fract_y
_atom_site_fract_z
Si Si1 0.218761 0.960469 0.541767
Si Si2 0.572654 0.103618 0.004568
Si Si3 0.868465 0.679752 0.563710
Si Si4 0.089749 0.013859 0.237992
Si Si5 0.299667 0.603665 0.655254
Si Si6 0.047982 0.290032 0.119884
Si Si7 0.604220 0.341223 0.504955
Si Si8 0.000000 0.500000 0.000000
O O1 0.275238 0.805324 0.517121
O O2 0.172576 0.967745 0.384855
O O3 0.425736 0.066678 0.778179
O O4 0.000000 0.000000 0.500000
O O5 0.538758 0.263672 0.118494
O O6 0.500000 0.000000 0.000000
O O7 0.833408 0.069377 0.121695
O O8 0.684873 0.545992 0.365263
O O9 0.012501 0.659578 0.760136
O O10 0.043408 0.655784 0.555311
O O11 0.772422 0.835213 0.608394
O O12 0.061643 0.871355 0.060011
O O13 0.345128 0.585168 0.539931
O O14 0.330454 0.294439 0.307041
O O15 0.984725 0.386117 0.031770
O O16 0.754206 0.428031 0.747439
#
# Coordination Sequence:
#
# PCOD9014815 Si02
#       8
#     2   2   2   2   2   2   2   1
#     4  12  22  37  66 105 132 169 225 277 330 388
#     4  11  19  37  64  97 131 170 221 280 325 380
#     4  10  23  42  66  95 136 184 216 264 339 403
#     4  11  22  40  64  93 133 179 219 268 332 397
#     4  10  21  41  69  93 132 179 219 267 337 392
#     4  12  24  45  72  98 131 177 225 277 335 391
#     4  12  24  44  72 100 133 170 224 287 326 388
#     4  12  26  42  70 106 132 166 224 286 338 392
#
# _framework density 23.308803000000001
#
# number of rings (size 3 to 8) (size 9 to 14) (size 15 to 20)
#    0.000    0.800    6.667    1.600    0.000    0.000 
#    0.000    4.000    0.000    0.000    0.000    0.000 
#    0.000    0.000    0.000    0.000    0.000    0.000 
#
# Total GULP energy -83531.697612 kJ/mol
# GULP energy per Si atom -5568.779841 kJ/mol
# Density = 2.325575 g / cm^3
# Si number density = 23.308803 Si / 1000 Ang^3
#
#
#
# Elastic Constant Matrix: (Units=GPa)
#
#
# Indices 1 2 3 4 5 6 
#
# 1 55.2362 -9.2180 5.3288 -3.7833 -0.2749 9.7073
# 2 -9.2180 97.8529 3.6851 33.3970 10.6107 3.0134
# 3 5.3288 3.6851 116.3806 12.2703 -0.5412 -14.1037
# 4 -3.7833 33.3970 12.2703 51.9777 -2.6665 1.0627
# 5 -0.2749 10.6107 -0.5412 -2.6665 20.0561 5.0752
# 6 9.7073 3.0134 -14.1037 1.0627 5.0752 26.2597
#
#
#
# Elastic Compliance Matrix: (Units=1/GPa)
#
#
# Indices 1 2 3 4 5 6 
#
# 1 0.020327 0.001668 -0.002232 0.001220 0.001855 -0.009312
# 2 0.001668 0.014730 0.000474 -0.009924 -0.009104 0.000109
# 3 -0.002232 0.000474 0.009782 -0.003017 -0.002076 0.006547
# 4 0.001220 -0.009924 -0.003017 0.026997 0.009765 -0.003912
# 5 0.001855 -0.009104 -0.002076 0.009765 0.059127 -0.012578
# 6 -0.009312 0.000109 0.006547 -0.003912 -0.012578 0.047617
#
#
# Mechanical properties :
#
#
# Convention : Reuss Voigt Hill
#
# Bulk Modulus (GPa) = 22.39178 29.89571 26.14375
# Shear Modulus (GPa) = 25.82040 37.63696 31.72868
#
# Velocity S-wave (km/s) = 3.33190 4.02270 3.69349
# Velocity P-wave (km/s) = 4.94262 5.86771 5.42492
#
# Compressibility (1/GPa) = 0.04465925
#
# Stress axis : x y z
#
# Youngs Moduli (GPa) = 49.19530 67.89057 102.23332
#
# Poissons Ratio (x) = -0.11325 0.22819
# Poissons Ratio (y) = -0.08207 -0.04850
# Poissons Ratio (z) = 0.10981 -0.03221
#
# Static dielectric constant tensor:
#      x y z
#    x 1.923280 0.038840 0.043320 
#    y 0.038840 1.952630 0.088140 
#    z 0.043320 0.088140 1.896390 
# 
# From -- ./inp_files/426593.got.cif
#   From: 2010.05.17/outbox.cif.g08.bks.cpg/sg2_214_cif.got.tgz:426593.got - 2010.06.03 11:33:40.
