data_PCOD9014863
_publ_section_title
;
Structure prediction by ZEFSAII (Michael W. Deem and Ramdas Pophale) SiO2 
 PCOD9014863
Probable space group: P -1
;
_chemical_formula_sum "Si O2"
_cell_formula_units_Z 16
_cell_length_a 15.923347
_cell_length_b 11.493500
_cell_length_c 5.449444
_cell_angle_alpha 118.354889
_cell_angle_beta 112.290591
_cell_angle_gamma 106.775910
_cell_volume 664.009178
_symmetry_space_group_name_H-M "P -1"
_symmetry_group_IT_number 2
_symmetry_cell_setting 'triclinic'
loop_
_space_group_symop_operation_xyz
x,y,z
-x,-y,-z
loop_
_atom_site_type_symbol
_atom_site_label
_atom_site_fract_x
_atom_site_fract_y
_atom_site_fract_z
Si Si1 0.001283 0.288819 0.708006
Si Si2 0.038004 0.254376 0.222307
Si Si3 0.282412 0.977086 0.251383
Si Si4 0.626605 0.571835 0.763517
Si Si5 0.742876 0.405156 0.626819
Si Si6 0.622618 0.042683 0.188231
Si Si7 0.865925 0.380227 0.368245
Si Si8 0.745700 0.747665 0.574473
O O1 0.990570 0.181619 0.361084
O O2 0.924909 0.352239 0.633183
O O3 0.974173 0.194140 0.836076
O O4 0.133024 0.438570 0.015037
O O5 0.058019 0.433393 0.447689
O O6 0.148823 0.261147 0.325358
O O7 0.361757 0.037105 0.637436
O O8 0.234131 0.082167 0.282494
O O9 0.341267 0.989466 0.067228
O O10 0.185099 0.787338 0.993137
O O11 0.500000 0.500000 0.500000
O O12 0.654334 0.441126 0.622668
O O13 0.695574 0.695544 0.740653
O O14 0.665557 0.637857 0.149051
O O15 0.702043 0.234801 0.522104
O O16 0.759070 0.376572 0.333057
O O17 0.500000 0.000000 0.000000
#
# Coordination Sequence:
#
# PCOD9014863 Si02
#       8
#     2   2   2   2   2   2   2   2
#     4  11  21  38  67  98 128 166 220 280 327 379
#     4  11  20  39  64  93 127 168 214 273 320 381
#     4  11  26  43  66  94 137 174 216 266 337 396
#     4  12  26  43  69  96 130 175 227 273 329 385
#     4  10  21  41  69  97 130 166 230 274 322 380
#     4  11  25  44  66  94 132 176 221 274 332 392
#     4  10  22  42  66 100 130 173 218 275 331 388
#     4  12  24  46  65  94 137 173 214 273 328 391
#
# _framework density 24.096052
#
# number of rings (size 3 to 8) (size 9 to 14) (size 15 to 20)
#    0.000    1.000    3.750    4.125    3.500    2.000 
#    0.000    1.250    0.000    0.000    0.000    0.000 
#    0.000    0.000    0.000    0.000    0.000    0.000 
#
# Total GULP energy -89321.535831 kJ/mol
# GULP energy per Si atom -5582.595989 kJ/mol
# Density = 2.404121 g / cm^3
# Si number density = 24.096052 Si / 1000 Ang^3
#
#
#
# Elastic Constant Matrix: (Units=GPa)
#
#
# Indices 1 2 3 4 5 6 
#
# 1 123.2509 32.7373 42.8621 -11.8232 10.1090 -16.3493
# 2 32.7373 95.4216 36.9943 -23.8399 -8.3482 -17.4844
# 3 42.8621 36.9943 86.9752 -40.0720 -2.1407 1.9630
# 4 -11.8232 -23.8399 -40.0720 39.2421 3.0249 -6.0017
# 5 10.1090 -8.3482 -2.1407 3.0249 21.2535 -17.1943
# 6 -16.3493 -17.4844 1.9630 -6.0017 -17.1943 35.8544
#
#
#
# Elastic Compliance Matrix: (Units=1/GPa)
#
#
# Indices 1 2 3 4 5 6 
#
# 1 0.011311 -0.002997 -0.006587 -0.004612 -0.006383 0.000224
# 2 -0.002997 0.022920 -0.002533 0.012156 0.029635 0.026196
# 3 -0.006587 -0.002533 0.026653 0.023421 0.000084 -0.001737
# 4 -0.004612 0.012156 0.023421 0.057180 0.017957 0.020725
# 5 -0.006383 0.029635 0.000084 0.017957 0.115917 0.070131
# 6 0.000224 0.026196 -0.001737 0.020725 0.070131 0.077963
#
#
# Mechanical properties :
#
#
# Convention : Reuss Voigt Hill
#
# Bulk Modulus (GPa) = 27.28442 58.98169 43.13305
# Shear Modulus (GPa) = 14.35161 32.14028 23.24595
#
# Velocity S-wave (km/s) = 2.44314 3.65614 3.10936
# Velocity P-wave (km/s) = 4.39390 6.50800 5.55249
#
# Compressibility (1/GPa) = 0.03665096
#
# Stress axis : x y z
#
# Youngs Moduli (GPa) = 88.41071 43.63080 37.51937
#
# Poissons Ratio (x) = 0.13074 0.24713
# Poissons Ratio (y) = 0.26493 0.09503
# Poissons Ratio (z) = 0.58233 0.11051
#
# Static dielectric constant tensor:
#      x y z
#    x 1.979040 0.068780 -0.032300 
#    y 0.068780 1.957830 -0.017860 
#    z -0.032300 -0.017860 2.011990 
# 
# From -- ./inp_files/95566.got.cif
#   From: 2010.05.17/outbox.cif.g08.bks.cpg/sg2_48_cif.got.tgz:95566.got - 2010.06.03 11:33:40.
