data_PCOD9014814
_publ_section_title
;
Structure prediction by ZEFSAII (Michael W. Deem and Ramdas Pophale) SiO2 
 PCOD9014814
Probable space group: P -1
;
_chemical_formula_sum "Si O2"
_cell_formula_units_Z 15
_cell_length_a 8.897343
_cell_length_b 7.326867
_cell_length_c 12.603247
_cell_angle_alpha 120.130019
_cell_angle_beta 56.091236
_cell_angle_gamma 113.546078
_cell_volume 581.516827
_symmetry_space_group_name_H-M "P -1"
_symmetry_group_IT_number 2
_symmetry_cell_setting 'triclinic'
loop_
_space_group_symop_operation_xyz
x,y,z
-x,-y,-z
loop_
_atom_site_type_symbol
_atom_site_label
_atom_site_fract_x
_atom_site_fract_y
_atom_site_fract_z
Si Si1 0.919733 0.102146 0.797540
Si Si2 0.000000 0.500000 0.500000
Si Si3 0.627307 0.149825 0.578873
Si Si4 0.732544 0.744419 0.189091
Si Si5 0.038480 0.472356 0.238126
Si Si6 0.606203 0.938399 0.754953
Si Si7 0.628067 0.726483 0.996155
Si Si8 0.772098 0.295969 0.112604
O O1 0.797857 0.911590 0.725452
O O2 0.131784 0.101627 0.742104
O O3 0.911583 0.307554 0.784643
O O4 0.828865 0.131013 0.956465
O O5 0.818471 0.297880 0.522051
O O6 0.959474 0.521203 0.395530
O O7 0.479254 0.300882 0.711077
O O8 0.638927 0.013003 0.642837
O O9 0.500000 0.000000 0.500000
O O10 0.731636 0.818197 0.090294
O O11 0.803611 0.520933 0.103863
O O12 0.896831 0.323346 0.175087
O O13 0.209797 0.349468 0.156907
O O14 0.522111 0.117472 0.911708
O O15 0.437591 0.749113 0.779558
O O16 0.500000 0.500000 0.000000
#
# Coordination Sequence:
#
# PCOD9014814 Si02
#       8
#     2   1   2   2   2   2   2   2
#     4  11  19  40  64  99 136 168 207 276 342 399
#     4  12  24  44  70  88 136 184 222 270 328 386
#     4  11  25  49  67  97 133 180 234 276 318 402
#     4  10  21  41  69  93 131 172 217 273 345 391
#     4  11  20  38  64  93 127 172 225 263 325 398
#     4  11  23  38  66  99 138 161 225 282 328 398
#     4  11  18  36  63  95 125 170 215 275 326 390
#     4  11  21  38  66 103 135 167 209 278 354 396
#
# _framework density 25.794612000000001
#
# number of rings (size 3 to 8) (size 9 to 14) (size 15 to 20)
#    0.000    1.067    5.333    2.800    0.000    0.533 
#    4.800    6.667    0.000    0.000    0.000    0.000 
#    0.000    0.000    0.000    0.000    0.000    0.000 
#
# Total GULP energy -83616.798232 kJ/mol
# GULP energy per Si atom -5574.453215 kJ/mol
# Density = 2.573590 g / cm^3
# Si number density = 25.794612 Si / 1000 Ang^3
#
#
#
# Elastic Constant Matrix: (Units=GPa)
#
#
# Indices 1 2 3 4 5 6 
#
# 1 157.5569 40.8855 47.9427 -24.5468 28.2828 39.2247
# 2 40.8855 83.0935 46.9302 -37.7117 14.2023 24.8028
# 3 47.9427 46.9302 84.4958 -29.2442 35.4510 10.3682
# 4 -24.5468 -37.7117 -29.2442 41.9798 -0.1139 -4.1680
# 5 28.2828 14.2023 35.4510 -0.1139 45.6804 -0.1334
# 6 39.2247 24.8028 10.3682 -4.1680 -0.1334 51.8586
#
#
#
# Elastic Compliance Matrix: (Units=1/GPa)
#
#
# Indices 1 2 3 4 5 6 
#
# 1 0.010197 0.001652 -0.001328 0.005733 -0.005805 -0.007792
# 2 0.001652 0.028862 -0.005540 0.021807 -0.005678 -0.012208
# 3 -0.001328 -0.005540 0.029240 0.014454 -0.020115 -0.001082
# 4 0.005733 0.021807 0.014454 0.055458 -0.021447 -0.013253
# 5 -0.005805 -0.005678 -0.020115 -0.021447 0.042836 0.009515
# 6 -0.007792 -0.012208 -0.001082 -0.013253 0.009515 0.030191
#
#
# Mechanical properties :
#
#
# Convention : Reuss Voigt Hill
#
# Bulk Modulus (GPa) = 17.28069 66.29589 41.78829
# Shear Modulus (GPa) = 22.07454 40.52960 31.30207
#
# Velocity S-wave (km/s) = 2.92855 3.96819 3.48733
# Velocity P-wave (km/s) = 4.26017 6.83759 5.69656
#
# Compressibility (1/GPa) = 0.05786806
#
# Stress axis : x y z
#
# Youngs Moduli (GPa) = 98.06575 34.64732 34.19960
#
# Poissons Ratio (x) = -0.05724 0.04540
# Poissons Ratio (y) = -0.16202 0.18947
# Poissons Ratio (z) = 0.13020 0.19195
#
# Static dielectric constant tensor:
#      x y z
#    x 2.079500 -0.016770 -0.015240 
#    y -0.016770 2.150820 0.025990 
#    z -0.015240 0.025990 2.140450 
# 
# From -- ./inp_files/175548.got.cif
#   From: 2010.05.17/outbox.cif.g08.bks.cpg/sg2_88_cif.got.tgz:175548.got - 2010.06.03 11:33:40.
