data_PCOD9014275
_publ_section_title
;
Structure prediction by ZEFSAII (Michael W. Deem and Ramdas Pophale) SiO2 
 PCOD9014275
Probable space group: P -1
;
_chemical_formula_sum "Si O2"
_cell_formula_units_Z 14
_cell_length_a 7.273321
_cell_length_b 31.061405
_cell_length_c 9.826187
_cell_angle_alpha 148.774082
_cell_angle_beta 51.557130
_cell_angle_gamma 139.656110
_cell_volume 742.037559
_symmetry_space_group_name_H-M "P -1"
_symmetry_group_IT_number 2
_symmetry_cell_setting 'triclinic'
loop_
_space_group_symop_operation_xyz
x,y,z
-x,-y,-z
loop_
_atom_site_type_symbol
_atom_site_label
_atom_site_fract_x
_atom_site_fract_y
_atom_site_fract_z
Si Si1 0.736439 0.807824 0.862102
Si Si2 0.326260 0.151752 0.705019
Si Si3 0.255063 0.008305 0.575477
Si Si4 0.127940 0.611417 0.568846
Si Si5 0.076434 0.726598 0.390228
Si Si6 0.773250 0.558817 0.857742
Si Si7 0.879025 0.565703 0.271486
O O1 0.434997 0.715855 0.695273
O O2 0.985297 0.801685 0.670509
O O3 0.711694 0.794438 0.002782
O O4 0.778739 0.914607 0.111674
O O5 0.335233 0.063738 0.540251
O O6 0.614733 0.221688 0.679153
O O7 0.046468 0.097026 0.592444
O O8 0.500000 0.000000 0.500000
O O9 0.169436 0.520596 0.319947
O O10 0.980095 0.611473 0.775875
O O11 0.932245 0.590205 0.472259
O O12 0.044943 0.666937 0.380024
O O13 0.849736 0.642279 0.160388
O O14 0.450764 0.496934 0.787628
O O15 0.000000 0.500000 0.000000
#
# Coordination Sequence:
#
# PCOD9014275 Si02
#       7
#     2   2   2   2   2   2   2
#     4  10  21  41  67  92 124 168 209 258 325 377
#     4   9  22  44  66  93 128 166 205 264 331 377
#     4   9  20  46  69  93 128 159 206 270 324 389
#     4  11  22  41  63  91 125 175 218 259 316 371
#     4  12  22  42  67  93 134 171 213 264 313 380
#     4  11  22  42  62  85 136 173 212 266 312 365
#     4  12  24  38  58  93 131 171 221 262 303 364
#
# _framework density 18.866970999999999
#
# number of rings (size 3 to 8) (size 9 to 14) (size 15 to 20)
#    0.857    0.571    4.286    1.714    0.000    1.714 
#   10.286    0.714    0.000    0.000    0.000    0.000 
#    0.000    0.000    0.000    0.000    0.000    0.000 
#
# Total GULP energy -78132.733184 kJ/mol
# GULP energy per Si atom -5580.909513 kJ/mol
# Density = 1.882403 g / cm^3
# Si number density = 18.866971 Si / 1000 Ang^3
#
#
#
# Elastic Constant Matrix: (Units=GPa)
#
#
# Indices 1 2 3 4 5 6 
#
# 1 123.5306 28.6377 35.7118 -3.8567 14.6491 2.8617
# 2 28.6377 32.1260 5.6476 -7.3450 18.0751 13.3400
# 3 35.7118 5.6476 96.6327 -12.7565 0.1546 -1.7465
# 4 -3.8567 -7.3450 -12.7565 22.8603 5.2661 1.6482
# 5 14.6491 18.0751 0.1546 5.2661 26.5685 2.1691
# 6 2.8617 13.3400 -1.7465 1.6482 2.1691 23.6761
#
#
#
# Elastic Compliance Matrix: (Units=1/GPa)
#
#
# Indices 1 2 3 4 5 6 
#
# 1 0.013276 -0.024624 -0.004817 -0.011699 0.010821 0.011737
# 2 -0.024624 0.175320 0.009379 0.090751 -0.116328 -0.090774
# 3 -0.004817 0.009379 0.012974 0.011033 -0.005661 -0.003995
# 4 -0.011699 0.090751 0.011033 0.096881 -0.070541 -0.049186
# 5 0.010821 -0.116328 -0.005661 -0.070541 0.120114 0.057724
# 6 0.011737 -0.090774 -0.003995 -0.049186 0.057724 0.089805
#
#
# Mechanical properties :
#
#
# Convention : Reuss Voigt Hill
#
# Bulk Modulus (GPa) = 6.19400 43.58705 24.89052
# Shear Modulus (GPa) = 8.30141 26.77380 17.53760
#
# Velocity S-wave (km/s) = 2.09989 3.77116 3.05214
# Velocity P-wave (km/s) = 3.02811 6.48958 5.06380
#
# Compressibility (1/GPa) = 0.16144661
#
# Stress axis : x y z
#
# Youngs Moduli (GPa) = 75.32506 5.70385 77.07957
#
# Poissons Ratio (x) = 0.14045 0.37126
# Poissons Ratio (y) = 1.85483 -0.72296
# Poissons Ratio (z) = 0.36281 -0.05350
#
# Static dielectric constant tensor:
#      x y z
#    x 1.633860 -0.010930 0.006580 
#    y -0.010930 1.647130 0.004050 
#    z 0.006580 0.004050 1.664190 
# 
# From -- ./inp_files/143011.got.cif
#   From: 2010.05.17/outbox.cif.g08.bks.cpg/sg2_72_cif.got.tgz:143011.got - 2010.06.03 11:33:40.
