data_PCOD9014399
_publ_section_title
;
Structure prediction by ZEFSAII (Michael W. Deem and Ramdas Pophale) SiO2 
 PCOD9014399
Probable space group: P -1
;
_chemical_formula_sum "Si O2"
_cell_formula_units_Z 14
_cell_length_a 17.139391
_cell_length_b 7.837678
_cell_length_c 21.254365
_cell_angle_alpha 32.889786
_cell_angle_beta 20.356673
_cell_angle_gamma 31.873422
_cell_volume 509.512496
_symmetry_space_group_name_H-M "P -1"
_symmetry_group_IT_number 2
_symmetry_cell_setting 'triclinic'
loop_
_space_group_symop_operation_xyz
x,y,z
-x,-y,-z
loop_
_atom_site_type_symbol
_atom_site_label
_atom_site_fract_x
_atom_site_fract_y
_atom_site_fract_z
Si Si1 0.959802 0.185213 0.160253
Si Si2 0.249433 0.881975 0.154258
Si Si3 0.307221 0.442302 0.015479
Si Si4 0.366126 0.040393 0.457334
Si Si5 0.743289 0.097210 0.541619
Si Si6 0.068256 0.322325 0.363462
Si Si7 0.189937 0.188113 0.725450
O O1 0.178644 0.953262 0.111428
O O2 0.746217 0.249938 0.350848
O O3 0.848065 0.011878 0.244611
O O4 0.000000 0.500000 0.000000
O O5 0.354064 0.167282 0.010516
O O6 0.003504 0.943977 0.358834
O O7 0.441512 0.574568 0.139933
O O8 0.181227 0.393529 0.191707
O O9 0.075005 0.710069 0.077715
O O10 0.153341 0.384585 0.529496
O O11 0.434163 0.944002 0.364209
O O12 0.593866 0.026722 0.329288
O O13 0.738277 0.472452 0.446329
O O14 0.737263 0.841468 0.680137
O O15 0.000000 0.000000 0.500000
#
# Coordination Sequence:
#
# PCOD9014399 Si02
#       7
#     2   2   2   2   2   2   2
#     4  11  24  42  66 100 139 187 232 279 354 420
#     4   9  21  42  65  92 143 179 221 290 343 404
#     4  10  21  41  67  96 137 182 228 280 348 407
#     4  11  24  43  72 102 147 178 229 301 348 409
#     4  10  22  44  72 106 136 179 236 289 353 415
#     4  12  21  40  71 107 134 178 238 281 346 423
#     4  11  22  44  70  99 139 184 231 288 351 411
#
# _framework density 27.477246000000001
#
# number of rings (size 3 to 8) (size 9 to 14) (size 15 to 20)
#    0.000    1.429    4.286    1.286    0.000    2.857 
#    0.000    6.429    3.143    0.000    0.000    0.000 
#    0.000    0.000    0.000    0.000    0.000    0.000 
#
# Total GULP energy -77998.497215 kJ/mol
# GULP energy per Si atom -5571.321230 kJ/mol
# Density = 2.741471 g / cm^3
# Si number density = 27.477246 Si / 1000 Ang^3
#
#
#
# Elastic Constant Matrix: (Units=GPa)
#
#
# Indices 1 2 3 4 5 6 
#
# 1 201.0387 65.9388 41.4617 -9.7440 -65.1004 -12.9453
# 2 65.9388 139.3804 41.7046 -2.8755 -16.7950 -5.5585
# 3 41.4617 41.7046 75.9645 -13.6702 -5.3518 -9.0311
# 4 -9.7440 -2.8755 -13.6702 42.0295 -11.7165 -1.6145
# 5 -65.1004 -16.7950 -5.3518 -11.7165 42.6802 6.2486
# 6 -12.9453 -5.5585 -9.0311 -1.6145 6.2486 19.3537
#
#
#
# Elastic Compliance Matrix: (Units=1/GPa)
#
#
# Indices 1 2 3 4 5 6 
#
# 1 0.014292 -0.002956 -0.002987 0.008432 0.022465 0.000767
# 2 -0.002956 0.009552 -0.004184 -0.001891 -0.001677 -0.000803
# 3 -0.002987 -0.004184 0.018416 0.004233 -0.003749 0.006958
# 4 0.008432 -0.001891 0.004233 0.033042 0.021286 0.002956
# 5 0.022465 -0.001677 -0.003749 0.021286 0.063266 -0.005856
# 6 0.000767 -0.000803 0.006958 0.002956 -0.005856 0.057336
#
#
# Mechanical properties :
#
#
# Convention : Reuss Voigt Hill
#
# Bulk Modulus (GPa) = 45.44209 79.39933 62.42071
# Shear Modulus (GPa) = 22.37173 38.63126 30.50149
#
# Velocity S-wave (km/s) = 2.85650 3.75365 3.33538
# Velocity P-wave (km/s) = 5.23960 6.90982 6.13185
#
# Compressibility (1/GPa) = 0.02200603
#
# Stress axis : x y z
#
# Youngs Moduli (GPa) = 69.96709 104.68792 54.29995
#
# Poissons Ratio (x) = 0.30950 0.16217
# Poissons Ratio (y) = 0.20685 0.22722
# Poissons Ratio (z) = 0.20896 0.43806
#
# Static dielectric constant tensor:
#      x y z
#    x 2.426970 -0.079540 0.056810 
#    y -0.079540 2.321290 -0.022740 
#    z 0.056810 -0.022740 2.209940 
# 
# From -- ./inp_files/612971.got.cif
#   From: 2010.05.17/outbox.cif.g08.bks.cpg/sg2_307_cif.got.tgz:612971.got - 2010.06.03 11:33:40.
