data_PCOD9014317
_publ_section_title
;
Structure prediction by ZEFSAII (Michael W. Deem and Ramdas Pophale) SiO2 
 PCOD9014317
Probable space group: P -1
;
_chemical_formula_sum "Si O2"
_cell_formula_units_Z 16
_cell_length_a 8.032046
_cell_length_b 11.081495
_cell_length_c 14.009949
_cell_angle_alpha 147.566350
_cell_angle_beta 95.974755
_cell_angle_gamma 93.252248
_cell_volume 640.251504
_symmetry_space_group_name_H-M "P -1"
_symmetry_group_IT_number 2
_symmetry_cell_setting 'triclinic'
loop_
_space_group_symop_operation_xyz
x,y,z
-x,-y,-z
loop_
_atom_site_type_symbol
_atom_site_label
_atom_site_fract_x
_atom_site_fract_y
_atom_site_fract_z
Si Si1 0.211283 0.071099 0.548823
Si Si2 0.042866 0.740146 0.601084
Si Si3 0.891277 0.518923 0.249681
Si Si4 0.674182 0.827522 0.164826
Si Si5 0.300210 0.274188 0.358826
Si Si6 0.426787 0.862157 0.030842
Si Si7 0.229645 0.591167 0.200863
Si Si8 0.575106 0.550001 0.704280
O O1 0.242683 0.326847 0.678294
O O2 0.299551 0.096659 0.674271
O O3 0.261414 0.863319 0.356850
O O4 0.000000 0.000000 0.500000
O O5 0.000604 0.649229 0.431183
O O6 0.891406 0.854419 0.704322
O O7 0.000000 0.500000 0.500000
O O8 0.217760 0.950683 0.745079
O O9 0.769735 0.265690 0.096105
O O10 0.029362 0.513996 0.172606
O O11 0.481093 0.769539 0.073003
O O12 0.741191 0.598928 0.998254
O O13 0.397210 0.420770 0.552438
O O14 0.291986 0.411574 0.351472
O O15 0.424923 0.120765 0.229209
O O16 0.547855 0.784650 0.908387
O O17 0.351287 0.575898 0.289770
#
# Coordination Sequence:
#
# PCOD9014317 Si02
#       8
#     2   2   2   2   2   2   2   2
#     4  10  21  41  68  93 132 167 213 270 317 375
#     4  12  25  42  67  97 131 169 216 263 319 388
#     4  11  23  43  64  96 134 167 214 269 317 377
#     4  11  24  43  68  98 125 174 216 262 325 380
#     4  11  23  38  66  90 129 177 209 258 330 373
#     4  11  24  42  64  95 135 163 218 269 314 386
#     4  10  21  41  67  94 127 168 217 264 320 374
#     4  10  22  40  62  95 127 168 215 265 319 382
#
# _framework density 24.990179999999999
#
# number of rings (size 3 to 8) (size 9 to 14) (size 15 to 20)
#    0.000    1.250    3.750    2.625    3.500    4.500 
#    2.250    6.875    0.000    0.000    0.000    0.000 
#    0.000    0.000    0.000    0.000    0.000    0.000 
#
# Total GULP energy -89391.892558 kJ/mol
# GULP energy per Si atom -5586.993285 kJ/mol
# Density = 2.493330 g / cm^3
# Si number density = 24.990180 Si / 1000 Ang^3
#
#
#
# Elastic Constant Matrix: (Units=GPa)
#
#
# Indices 1 2 3 4 5 6 
#
# 1 58.2426 3.8677 13.0215 2.0902 -7.3213 -11.1320
# 2 3.8677 45.3048 23.3319 7.4279 -9.8355 -8.4821
# 3 13.0215 23.3319 133.2662 2.6006 -10.9197 -8.9735
# 4 2.0902 7.4279 2.6006 34.7478 -9.8798 -8.3502
# 5 -7.3213 -9.8355 -10.9197 -9.8798 38.3775 5.7382
# 6 -11.1320 -8.4821 -8.9735 -8.3502 5.7382 24.9875
#
#
#
# Elastic Compliance Matrix: (Units=1/GPa)
#
#
# Indices 1 2 3 4 5 6 
#
# 1 0.019271 0.000914 -0.001292 0.001505 0.002687 0.008317
# 2 0.000914 0.026530 -0.003922 -0.002761 0.004233 0.006110
# 3 -0.001292 -0.003922 0.008477 0.000908 0.001221 0.001160
# 4 0.001505 -0.002761 0.000908 0.033527 0.007026 0.009650
# 5 0.002687 0.004233 0.001221 0.007026 0.030031 -0.001476
# 6 0.008317 0.006110 0.001160 0.009650 -0.001476 0.049780
#
#
# Mechanical properties :
#
#
# Convention : Reuss Voigt Hill
#
# Bulk Modulus (GPa) = 21.89230 35.25066 28.57148
# Shear Modulus (GPa) = 26.11751 32.72873 29.42312
#
# Velocity S-wave (km/s) = 3.23632 3.62285 3.43503
# Velocity P-wave (km/s) = 4.76911 5.62463 5.21445
#
# Compressibility (1/GPa) = 0.04567817
#
# Stress axis : x y z
#
# Youngs Moduli (GPa) = 51.89089 37.69313 117.96474
#
# Poissons Ratio (x) = -0.03445 0.15243
# Poissons Ratio (y) = -0.04743 0.46265
# Poissons Ratio (z) = 0.06705 0.14783
#
# Static dielectric constant tensor:
#      x y z
#    x 1.959870 0.011280 -0.007640 
#    y 0.011280 2.130740 0.085910 
#    z -0.007640 0.085910 1.906810 
# 
# From -- ./inp_files/495417.got.cif
#   From: 2010.05.17/outbox.cif.g08.bks.cpg/sg2_248_cif.got.tgz:495417.got - 2010.06.03 11:33:40.
