data_PCOD9014193
_publ_section_title
;
Structure prediction by ZEFSAII (Michael W. Deem and Ramdas Pophale) SiO2 
 PCOD9014193
Probable space group: P -1
;
_chemical_formula_sum "Si O2"
_cell_formula_units_Z 16
_cell_length_a 8.365428
_cell_length_b 14.712345
_cell_length_c 18.092953
_cell_angle_alpha 140.905054
_cell_angle_beta 139.094747
_cell_angle_gamma 29.316152
_cell_volume 664.614748
_symmetry_space_group_name_H-M "P -1"
_symmetry_group_IT_number 2
_symmetry_cell_setting 'triclinic'
loop_
_space_group_symop_operation_xyz
x,y,z
-x,-y,-z
loop_
_atom_site_type_symbol
_atom_site_label
_atom_site_fract_x
_atom_site_fract_y
_atom_site_fract_z
Si Si1 0.176235 0.127393 0.522888
Si Si2 0.443897 0.566669 0.178341
Si Si3 0.628653 0.181115 0.955912
Si Si4 0.277205 0.361844 0.805881
Si Si5 0.560006 0.741628 0.841133
Si Si6 0.338960 0.078013 0.882124
Si Si7 0.490737 0.268713 0.551023
Si Si8 0.191891 0.620719 0.584465
O O1 0.231002 0.229701 0.665863
O O2 0.874129 0.296530 0.469397
O O3 0.500000 0.000000 0.500000
O O4 0.198597 0.963107 0.466729
O O5 0.674503 0.537210 0.175655
O O6 0.536016 0.608064 0.312468
O O7 0.061502 0.766282 0.151415
O O8 0.478819 0.380685 0.072406
O O9 0.592711 0.231780 0.889239
O O10 0.420760 0.119794 0.859803
O O11 0.000000 0.000000 0.000000
O O12 0.943200 0.530454 0.842501
O O13 0.310513 0.709741 0.728695
O O14 0.501695 0.860187 0.821609
O O15 0.513583 0.868391 0.972873
O O16 0.462990 0.381304 0.540365
O O17 0.158924 0.302211 0.458839
#
# Coordination Sequence:
#
# PCOD9014193 Si02
#       8
#     2   2   2   2   2   2   2   2
#     4  10  21  44  66  98 140 188 241 290 355 419
#     4  12  23  46  75  99 146 186 241 292 361 434
#     4  12  28  44  70 110 146 180 239 300 364 429
#     4  12  26  45  69 104 148 187 235 305 358 420
#     4  11  25  44  72 100 148 185 241 296 363 420
#     4  11  26  45  72 106 138 193 238 287 369 442
#     4  10  22  40  73 102 131 190 249 283 356 424
#     4  10  21  41  67 102 135 185 243 293 342 427
#
# _framework density 24.074096999999998
#
# number of rings (size 3 to 8) (size 9 to 14) (size 15 to 20)
#    0.000    1.000    3.750    3.000    7.000    3.500 
#    2.250    0.625    0.000    0.000    0.000    0.000 
#    0.000    0.000    0.000    0.000    0.000    0.000 
#
# Total GULP energy -89564.962591 kJ/mol
# GULP energy per Si atom -5597.810162 kJ/mol
# Density = 2.401930 g / cm^3
# Si number density = 24.074097 Si / 1000 Ang^3
#
#
#
# Elastic Constant Matrix: (Units=GPa)
#
#
# Indices 1 2 3 4 5 6 
#
# 1 58.1141 26.6408 22.5135 1.1214 6.4879 25.4069
# 2 26.6408 141.6388 31.9889 -11.4053 -2.7123 37.6591
# 3 22.5135 31.9889 103.6053 -15.4077 19.8218 9.7737
# 4 1.1214 -11.4053 -15.4077 31.3718 4.7660 7.5865
# 5 6.4879 -2.7123 19.8218 4.7660 26.3552 2.2993
# 6 25.4069 37.6591 9.7737 7.5865 2.2993 50.0913
#
#
#
# Elastic Compliance Matrix: (Units=1/GPa)
#
#
# Indices 1 2 3 4 5 6 
#
# 1 0.023888 -0.000933 -0.003406 0.000089 -0.002502 -0.010649
# 2 -0.000933 0.010068 -0.002147 0.004006 0.002803 -0.007412
# 3 -0.003406 -0.002147 0.014586 0.008359 -0.011844 -0.000226
# 4 0.000089 0.004006 0.008359 0.041869 -0.012556 -0.010452
# 5 -0.002502 0.002803 -0.011844 -0.012556 0.049932 0.001082
# 6 -0.010649 -0.007412 -0.000226 -0.010452 0.001082 0.032515
#
#
# Mechanical properties :
#
#
# Convention : Reuss Voigt Hill
#
# Bulk Modulus (GPa) = 28.11507 51.73830 39.92669
# Shear Modulus (GPa) = 25.29270 36.37799 30.83534
#
# Velocity S-wave (km/s) = 3.24484 3.89148 3.58278
# Velocity P-wave (km/s) = 5.07371 6.45983 5.80827
#
# Compressibility (1/GPa) = 0.03556811
#
# Stress axis : x y z
#
# Youngs Moduli (GPa) = 41.86197 99.32900 68.56110
#
# Poissons Ratio (x) = 0.09270 0.23354
# Poissons Ratio (y) = 0.03907 0.14720
# Poissons Ratio (z) = 0.14259 0.21326
#
# Static dielectric constant tensor:
#      x y z
#    x 1.964360 0.064580 -0.004120 
#    y 0.064580 1.953670 -0.014780 
#    z -0.004120 -0.014780 1.864450 
# 
# From -- ./inp_files/561394.got.cif
#   From: 2010.05.17/outbox.cif.g08.bks.cpg/sg2_281_cif.got.tgz:561394.got - 2010.06.03 11:33:40.
