data_PCOD9014241
_publ_section_title
;
Structure prediction by ZEFSAII (Michael W. Deem and Ramdas Pophale) SiO2 
 PCOD9014241
Probable space group: P -1
;
_chemical_formula_sum "Si O2"
_cell_formula_units_Z 16
_cell_length_a 14.896263
_cell_length_b 8.687143
_cell_length_c 9.444387
_cell_angle_alpha 81.835021
_cell_angle_beta 141.254546
_cell_angle_gamma 104.258203
_cell_volume 738.811015
_symmetry_space_group_name_H-M "P -1"
_symmetry_group_IT_number 2
_symmetry_cell_setting 'triclinic'
loop_
_space_group_symop_operation_xyz
x,y,z
-x,-y,-z
loop_
_atom_site_type_symbol
_atom_site_label
_atom_site_fract_x
_atom_site_fract_y
_atom_site_fract_z
Si Si1 0.425015 0.515656 0.128137
Si Si2 0.857240 0.547400 0.758912
Si Si3 0.812948 0.069029 0.125556
Si Si4 0.402274 0.167951 0.280130
Si Si5 0.138478 0.027240 0.514558
Si Si6 0.158461 0.095330 0.231631
Si Si7 0.267331 0.397924 0.673318
Si Si8 0.672957 0.295942 0.764655
O O1 0.414488 0.348367 0.217444
O O2 0.579252 0.574586 0.229028
O O3 0.403352 0.643214 0.201760
O O4 0.302375 0.477944 0.858402
O O5 0.857800 0.730365 0.763765
O O6 0.833877 0.523661 0.565432
O O7 0.730122 0.441268 0.710734
O O8 0.000000 0.500000 0.000000
O O9 0.962002 0.008223 0.284391
O O10 0.822756 0.089726 0.303944
O O11 0.802765 0.220489 0.997977
O O12 0.662386 0.945373 0.915131
O O13 0.277334 0.118588 0.252016
O O14 0.557554 0.171440 0.545410
O O15 0.201808 0.014083 0.438441
O O16 0.199750 0.208267 0.623614
O O17 0.000000 0.000000 0.000000
#
# Coordination Sequence:
#
# PCOD9014241 Si02
#       8
#     2   2   2   2   2   2   2   2
#     4  11  22  41  66  91 122 162 212 255 315 368
#     4  11  23  40  62  93 129 160 204 263 312 361
#     4  11  24  41  63  89 129 166 205 253 316 372
#     4  12  22  42  64  91 123 170 209 250 315 376
#     4  10  21  42  64  86 124 171 204 247 313 376
#     4  11  22  40  64  92 120 163 212 249 302 377
#     4  10  21  41  67  89 118 168 209 250 310 384
#     4  12  23  41  62  97 125 160 208 268 305 362
#
# _framework density 21.656417999999999
#
# number of rings (size 3 to 8) (size 9 to 14) (size 15 to 20)
#    0.000    1.000    5.000    3.750    0.000    0.000 
#    2.250    3.750    0.000    0.000    0.000    0.000 
#    0.000    0.000    0.000    0.000    0.000    0.000 
#
# Total GULP energy -89402.000948 kJ/mol
# GULP energy per Si atom -5587.625059 kJ/mol
# Density = 2.160713 g / cm^3
# Si number density = 21.656418 Si / 1000 Ang^3
#
#
#
# Elastic Constant Matrix: (Units=GPa)
#
#
# Indices 1 2 3 4 5 6 
#
# 1 54.4690 4.8451 21.1598 -1.7500 -12.0872 21.3096
# 2 4.8451 60.9921 31.7756 1.6862 -7.6079 18.7426
# 3 21.1598 31.7756 157.5703 -12.3200 -21.4845 13.6934
# 4 -1.7500 1.6862 -12.3200 43.0038 11.6381 -0.9375
# 5 -12.0872 -7.6079 -21.4845 11.6381 33.7823 -0.6199
# 6 21.3096 18.7426 13.6934 -0.9375 -0.6199 29.1825
#
#
#
# Elastic Compliance Matrix: (Units=1/GPa)
#
#
# Indices 1 2 3 4 5 6 
#
# 1 0.032108 0.008911 -0.002217 -0.003771 0.012870 -0.027976
# 2 0.008911 0.025099 -0.003749 -0.004184 0.007515 -0.020843
# 3 -0.002217 -0.003749 0.007870 0.001552 0.002841 0.000444
# 4 -0.003771 -0.004184 0.001552 0.026635 -0.010382 0.005348
# 5 0.012870 0.007515 0.002841 -0.010382 0.041007 -0.015021
# 6 -0.027976 -0.020843 0.000444 0.005348 -0.015021 0.067726
#
#
# Mechanical properties :
#
#
# Convention : Reuss Voigt Hill
#
# Bulk Modulus (GPa) = 14.09124 43.17693 28.63408
# Shear Modulus (GPa) = 22.91355 35.54378 29.22867
#
# Velocity S-wave (km/s) = 3.25630 4.05564 3.67775
# Velocity P-wave (km/s) = 4.54520 6.47391 5.59331
#
# Compressibility (1/GPa) = 0.07096609
#
# Stress axis : x y z
#
# Youngs Moduli (GPa) = 31.14516 39.84243 127.05929
#
# Poissons Ratio (x) = -0.35505 0.28175
# Poissons Ratio (y) = -0.27754 0.47638
# Poissons Ratio (z) = 0.06906 0.14938
#
# Static dielectric constant tensor:
#      x y z
#    x 1.810310 0.028500 -0.009260 
#    y 0.028500 1.794000 0.000540 
#    z -0.009260 0.000540 1.826290 
# 
# From -- ./inp_files/205654.got.cif
#   From: 2010.05.17/outbox.cif.g08.bks.cpg/sg2_103_cif.got.tgz:205654.got - 2010.06.03 11:33:40.
