data_PCOD9014368
_publ_section_title
;
Structure prediction by ZEFSAII (Michael W. Deem and Ramdas Pophale) SiO2 
 PCOD9014368
Probable space group: P -1
;
_chemical_formula_sum "Si O2"
_cell_formula_units_Z 16
_cell_length_a 11.138041
_cell_length_b 13.747477
_cell_length_c 7.404284
_cell_angle_alpha 77.781181
_cell_angle_beta 73.882979
_cell_angle_gamma 33.341378
_cell_volume 598.203057
_symmetry_space_group_name_H-M "P -1"
_symmetry_group_IT_number 2
_symmetry_cell_setting 'triclinic'
loop_
_space_group_symop_operation_xyz
x,y,z
-x,-y,-z
loop_
_atom_site_type_symbol
_atom_site_label
_atom_site_fract_x
_atom_site_fract_y
_atom_site_fract_z
Si Si1 0.751492 0.928941 0.112667
Si Si2 0.627153 0.526230 0.938687
Si Si3 0.233316 0.633646 0.698070
Si Si4 0.024405 0.399096 0.742378
Si Si5 0.179516 0.916013 0.102918
Si Si6 0.171878 0.081554 0.509698
Si Si7 0.258183 0.241762 0.322159
Si Si8 0.668527 0.234826 0.528204
O O1 0.865165 0.885105 0.273620
O O2 0.818381 0.769934 0.125517
O O3 0.494475 0.114921 0.193890
O O4 0.820052 0.965058 0.922253
O O5 0.796618 0.482084 0.761666
O O6 0.500000 0.500000 0.000000
O O7 0.794452 0.397582 0.086101
O O8 0.420103 0.730534 0.996783
O O9 0.439213 0.432819 0.615855
O O10 0.280995 0.720420 0.669019
O O11 0.058897 0.755800 0.563249
O O12 0.930065 0.568599 0.775053
O O13 0.179608 0.313173 0.534519
O O14 0.169451 0.871637 0.320999
O O15 0.000000 0.000000 0.000000
O O16 0.285421 0.105054 0.374186
O O17 0.315792 0.888207 0.492681
#
# Coordination Sequence:
#
# PCOD9014368 Si02
#       8
#     2   2   2   2   2   2   2   2
#     4  11  23  41  69 101 132 170 234 272 324 400
#     4  11  24  40  67 102 133 175 218 280 339 394
#     4  10  24  42  61  94 136 171 224 265 337 407
#     4  10  21  41  67  95 137 170 221 276 335 379
#     4  11  23  41  67 101 135 172 224 273 331 407
#     4  11  23  39  68  95 127 177 220 274 334 385
#     4  10  23  43  68 100 129 177 231 274 327 403
#     4  10  24  43  65  92 138 177 214 277 337 394
#
# _framework density 26.746772
#
# number of rings (size 3 to 8) (size 9 to 14) (size 15 to 20)
#    0.000    1.500    1.250    3.375    5.250    9.000 
#    0.000    1.250    2.750    0.000    0.000    0.000 
#    0.000    0.000    0.000    0.000    0.000    0.000 
#
# Total GULP energy -89303.941871 kJ/mol
# GULP energy per Si atom -5581.496367 kJ/mol
# Density = 2.668589 g / cm^3
# Si number density = 26.746772 Si / 1000 Ang^3
#
#
#
# Elastic Constant Matrix: (Units=GPa)
#
#
# Indices 1 2 3 4 5 6 
#
# 1 41.9863 22.1134 29.9480 -4.6868 -11.1137 24.5635
# 2 22.1134 202.2652 31.4943 -21.7588 -8.6603 33.0511
# 3 29.9480 31.4943 120.4883 -22.2578 -24.4520 1.0696
# 4 -4.6868 -21.7588 -22.2578 36.4688 2.8786 -7.0074
# 5 -11.1137 -8.6603 -24.4520 2.8786 39.1166 0.4543
# 6 24.5635 33.0511 1.0696 -7.0074 0.4543 41.7392
#
#
#
# Elastic Compliance Matrix: (Units=1/GPa)
#
#
# Indices 1 2 3 4 5 6 
#
# 1 0.053245 0.001189 -0.012945 -0.007392 0.008229 -0.033275
# 2 0.001189 0.006110 -0.001333 0.001926 0.000776 -0.005189
# 3 -0.012945 -0.001333 0.014023 0.007609 0.004122 0.009547
# 4 -0.007392 0.001926 0.007609 0.033820 0.000497 0.008302
# 5 0.008229 0.000776 0.004122 0.000497 0.030682 -0.005813
# 6 -0.033275 -0.005189 0.009547 0.008302 -0.005813 0.048862
#
#
# Mechanical properties :
#
#
# Convention : Reuss Voigt Hill
#
# Bulk Modulus (GPa) = 21.18705 59.09456 40.14081
# Shear Modulus (GPa) = 21.86723 42.21053 32.03888
#
# Velocity S-wave (km/s) = 2.86241 3.97691 3.46477
# Velocity P-wave (km/s) = 4.34316 6.57494 5.57193
#
# Compressibility (1/GPa) = 0.04719863
#
# Stress axis : x y z
#
# Youngs Moduli (GPa) = 18.78121 163.66875 71.31186
#
# Poissons Ratio (x) = -0.19458 0.92314
# Poissons Ratio (y) = -0.02233 0.09508
# Poissons Ratio (z) = 0.24312 0.21821
#
# Static dielectric constant tensor:
#      x y z
#    x 2.404690 -0.037100 -0.002930 
#    y -0.037100 2.064710 0.035390 
#    z -0.002930 0.035390 2.068530 
# 
# From -- ./inp_files/272436.got.cif
#   From: 2010.05.17/outbox.cif.g08.bks.cpg/sg2_137_cif.got.tgz:272436.got - 2010.06.03 11:33:40.
