data_PCOD9014549
_publ_section_title
;
Structure prediction by ZEFSAII (Michael W. Deem and Ramdas Pophale) SiO2 
 PCOD9014549
Probable space group: P -1
;
_chemical_formula_sum "Si O2"
_cell_formula_units_Z 16
_cell_length_a 14.344116
_cell_length_b 14.842296
_cell_length_c 8.310271
_cell_angle_alpha 143.266649
_cell_angle_beta 54.287134
_cell_angle_gamma 138.499434
_cell_volume 700.568071
_symmetry_space_group_name_H-M "P -1"
_symmetry_group_IT_number 2
_symmetry_cell_setting 'triclinic'
loop_
_space_group_symop_operation_xyz
x,y,z
-x,-y,-z
loop_
_atom_site_type_symbol
_atom_site_label
_atom_site_fract_x
_atom_site_fract_y
_atom_site_fract_z
Si Si1 0.134868 0.320822 0.360935
Si Si2 0.503877 0.829789 0.190628
Si Si3 0.738178 0.324151 0.035488
Si Si4 0.107311 0.215274 0.656707
Si Si5 0.724222 0.465080 0.791747
Si Si6 0.901221 0.355433 0.595560
Si Si7 0.215044 0.091121 0.123752
Si Si8 0.127250 0.772997 0.010051
O O1 0.191491 0.475418 0.667160
O O2 0.242736 0.440387 0.278525
O O3 0.136393 0.148657 0.166320
O O4 0.977320 0.252286 0.368895
O O5 0.431376 0.671905 0.175909
O O6 0.500000 0.000000 0.500000
O O7 0.407072 0.749677 0.012745
O O8 0.654642 0.879511 0.061495
O O9 0.833464 0.333369 0.806851
O O10 0.740034 0.196367 0.987304
O O11 0.229192 0.227616 0.448389
O O12 0.981760 0.235693 0.763563
O O13 0.185404 0.362436 0.930726
O O14 0.000000 0.000000 0.500000
O O15 0.785854 0.341420 0.573965
O O16 0.035497 0.565285 0.741057
O O17 0.156495 0.908426 0.029096
#
# Coordination Sequence:
#
# PCOD9014549 Si02
#       8
#     2   2   2   2   2   2   2   2
#     4  11  21  37  67 103 124 163 220 263 338 385
#     4  11  27  46  62  89 132 174 230 267 310 387
#     4  10  21  41  68  90 123 176 221 261 320 391
#     4   9  19  41  66  97 132 158 206 266 333 387
#     4  10  22  41  67  94 132 174 212 271 318 381
#     4   9  18  38  66  95 127 167 212 260 321 397
#     4  11  23  40  63  92 133 171 210 268 326 378
#     4   9  18  36  67  96 125 158 210 264 323 390
#
# _framework density 22.838609999999999
#
# number of rings (size 3 to 8) (size 9 to 14) (size 15 to 20)
#    0.000    2.000    0.000    4.875    3.500    3.000 
#   11.250    5.625    0.000    0.000    0.000    0.000 
#    0.000    0.000    0.000    0.000    0.000    0.000 
#
# Total GULP energy -89098.389967 kJ/mol
# GULP energy per Si atom -5568.649373 kJ/mol
# Density = 2.278663 g / cm^3
# Si number density = 22.838610 Si / 1000 Ang^3
#
#
#
# Elastic Constant Matrix: (Units=GPa)
#
#
# Indices 1 2 3 4 5 6 
#
# 1 95.2803 41.5123 30.9519 2.6399 -22.2788 -27.3028
# 2 41.5123 116.1142 32.3175 -8.1409 -18.2203 -22.3009
# 3 30.9519 32.3175 106.7330 -7.4309 -24.9632 -4.7906
# 4 2.6399 -8.1409 -7.4309 39.9019 -1.1757 -10.5313
# 5 -22.2788 -18.2203 -24.9632 -1.1757 40.2201 1.6137
# 6 -27.3028 -22.3009 -4.7906 -10.5313 1.6137 39.3472
#
#
#
# Elastic Compliance Matrix: (Units=1/GPa)
#
#
# Indices 1 2 3 4 5 6 
#
# 1 0.016483 -0.002374 -0.002067 0.000814 0.006402 0.009795
# 2 -0.002374 0.011740 -0.001678 0.003831 0.002845 0.005711
# 3 -0.002067 -0.001678 0.011888 0.002006 0.005557 -0.000629
# 4 0.000814 0.003831 0.002006 0.029075 0.003856 0.010604
# 5 0.006402 0.002845 0.005557 0.003856 0.033003 0.006410
# 6 0.009795 0.005711 -0.000629 0.010604 0.006410 0.037947
#
#
# Mechanical properties :
#
#
# Convention : Reuss Voigt Hill
#
# Bulk Modulus (GPa) = 35.87919 58.63232 47.25576
# Shear Modulus (GPa) = 30.92829 38.11689 34.52259
#
# Velocity S-wave (km/s) = 3.68395 4.08973 3.89213
# Velocity P-wave (km/s) = 5.81716 6.93032 6.39800
#
# Compressibility (1/GPa) = 0.02787131
#
# Stress axis : x y z
#
# Youngs Moduli (GPa) = 60.66991 85.18039 84.11972
#
# Poissons Ratio (x) = 0.20226 0.17389
# Poissons Ratio (y) = 0.14406 0.14113
# Poissons Ratio (z) = 0.12542 0.14291
#
# Static dielectric constant tensor:
#      x y z
#    x 1.909410 -0.059280 0.005190 
#    y -0.059280 1.906500 -0.032280 
#    z 0.005190 -0.032280 1.943180 
# 
# From -- ./inp_files/314198.got.cif
#   From: 2010.05.17/outbox.cif.g08.bks.cpg/sg2_158_cif.got.tgz:314198.got - 2010.06.03 11:33:40.
