data_PCOD9014513
_publ_section_title
;
Structure prediction by ZEFSAII (Michael W. Deem and Ramdas Pophale) SiO2 
 PCOD9014513
Probable space group: P -1
;
_chemical_formula_sum "Si O2"
_cell_formula_units_Z 14
_cell_length_a 11.236376
_cell_length_b 5.903208
_cell_length_c 15.525233
_cell_angle_alpha 136.317829
_cell_angle_beta 53.981861
_cell_angle_gamma 105.114903
_cell_volume 549.762159
_symmetry_space_group_name_H-M "P -1"
_symmetry_group_IT_number 2
_symmetry_cell_setting 'triclinic'
loop_
_space_group_symop_operation_xyz
x,y,z
-x,-y,-z
loop_
_atom_site_type_symbol
_atom_site_label
_atom_site_fract_x
_atom_site_fract_y
_atom_site_fract_z
Si Si1 0.561775 0.158199 0.769097
Si Si2 0.897174 0.972807 0.615725
Si Si3 0.346474 0.883861 0.030049
Si Si4 0.063033 0.134949 0.921708
Si Si5 0.425593 0.238137 0.515684
Si Si6 0.673708 0.159250 0.170389
Si Si7 0.994542 0.791410 0.689070
O O1 0.424658 0.507393 0.931980
O O2 0.720786 0.191006 0.747137
O O3 0.597946 0.021280 0.618091
O O4 0.499839 0.868908 0.761563
O O5 0.983792 0.048212 0.684235
O O6 0.904242 0.572544 0.490876
O O7 0.000000 0.000000 0.500000
O O8 0.290159 0.845452 0.946089
O O9 0.500000 0.000000 0.000000
O O10 0.191332 0.149530 0.207616
O O11 0.227553 0.133050 0.888822
O O12 0.059667 0.878245 0.774055
O O13 0.000000 0.500000 0.000000
O O14 0.000000 0.000000 0.000000
O O15 0.500000 0.500000 0.500000
O O16 0.301073 0.516530 0.701216
O O17 0.500000 0.000000 0.500000
#
# Coordination Sequence:
#
# PCOD9014513 Si02
#       7
#     2   2   2   2   2   2   2
#     4  11  24  44  70 106 140 188 247 308 370 437
#     4  11  26  48  72 100 145 201 250 307 371 447
#     4  12  24  41  72 105 142 187 245 305 369 440
#     4  12  27  46  76 110 154 198 242 306 382 452
#     4  10  21  41  68 102 143 183 235 298 366 434
#     4  11  24  44  71 106 147 187 246 308 377 440
#     4  11  26  48  69 105 147 193 252 302 377 448
#
# _framework density 25.465561999999998
#
# number of rings (size 3 to 8) (size 9 to 14) (size 15 to 20)
#    0.000    0.857    2.857    3.429    2.000    5.714 
#    5.143    0.000    0.000    0.000    0.000    0.000 
#    0.000    0.000    0.000    0.000    0.000    0.000 
#
# Total GULP energy -77985.420731 kJ/mol
# GULP energy per Si atom -5570.387195 kJ/mol
# Density = 2.540760 g / cm^3
# Si number density = 25.465562 Si / 1000 Ang^3
#
#
#
# Elastic Constant Matrix: (Units=GPa)
#
#
# Indices 1 2 3 4 5 6 
#
# 1 114.0661 50.3524 29.1135 -5.6353 -3.8384 -30.6790
# 2 50.3524 94.9987 22.3133 -4.5200 7.5921 -33.6223
# 3 29.1135 22.3133 118.2360 -5.5129 1.4928 -20.7157
# 4 -5.6353 -4.5200 -5.5129 42.9962 -16.6650 8.0368
# 5 -3.8384 7.5921 1.4928 -16.6650 48.3385 -7.5128
# 6 -30.6790 -33.6223 -20.7157 8.0368 -7.5128 55.2040
#
#
#
# Elastic Compliance Matrix: (Units=1/GPa)
#
#
# Indices 1 2 3 4 5 6 
#
# 1 0.012546 -0.005263 -0.001471 0.001380 0.002873 0.003405
# 2 -0.005263 0.015834 -0.000606 -0.001184 -0.002307 0.006350
# 3 -0.001471 -0.000606 0.009358 0.000618 0.000255 0.002270
# 4 0.001380 -0.001184 0.000618 0.027483 0.009371 -0.002448
# 5 0.002873 -0.002307 0.000255 0.009371 0.024859 0.002306
# 6 0.003405 0.006350 0.002270 -0.002448 0.002306 0.025396
#
#
# Mechanical properties :
#
#
# Convention : Reuss Voigt Hill
#
# Bulk Modulus (GPa) = 43.37100 58.98434 51.17767
# Shear Modulus (GPa) = 36.27323 44.34254 40.30788
#
# Velocity S-wave (km/s) = 3.77822 4.17739 3.98281
# Velocity P-wave (km/s) = 6.00845 6.81763 6.42579
#
# Compressibility (1/GPa) = 0.02305688
#
# Stress axis : x y z
#
# Youngs Moduli (GPa) = 79.70409 63.15597 106.86592
#
# Poissons Ratio (x) = 0.33241 0.15725
# Poissons Ratio (y) = 0.41951 0.06473
# Poissons Ratio (z) = 0.11728 0.03825
#
# Static dielectric constant tensor:
#      x y z
#    x 1.855960 0.043230 0.247900 
#    y 0.043230 2.230140 0.078240 
#    z 0.247900 0.078240 1.979130 
# 
# From -- ./inp_files/70431.got.cif
#   From: 2010.05.17/outbox.cif.g08.bks.cpg/sg2_36_cif.got.tgz:70431.got - 2010.06.03 11:33:40.
