data_PCOD9014913
_publ_section_title
;
Structure prediction by ZEFSAII (Michael W. Deem and Ramdas Pophale) SiO2 
 PCOD9014913
Probable space group: P -1
;
_chemical_formula_sum "Si O2"
_cell_formula_units_Z 14
_cell_length_a 14.584754
_cell_length_b 6.767507
_cell_length_c 23.396974
_cell_angle_alpha 123.580516
_cell_angle_beta 18.652830
_cell_angle_gamma 124.709962
_cell_volume 606.352392
_symmetry_space_group_name_H-M "P -1"
_symmetry_group_IT_number 2
_symmetry_cell_setting 'triclinic'
loop_
_space_group_symop_operation_xyz
x,y,z
-x,-y,-z
loop_
_atom_site_type_symbol
_atom_site_label
_atom_site_fract_x
_atom_site_fract_y
_atom_site_fract_z
Si Si1 0.053580 0.410403 0.351061
Si Si2 0.740752 0.780133 0.629868
Si Si3 0.748633 0.525372 0.198304
Si Si4 0.780766 0.386615 0.831034
Si Si5 0.450047 0.979773 0.458456
Si Si6 0.860806 0.614479 0.276187
Si Si7 0.483908 0.852258 0.913851
O O1 0.896587 0.550648 0.512505
O O2 0.846760 0.168575 0.415552
O O3 0.060627 0.576861 0.317361
O O4 0.360987 0.351359 0.180325
O O5 0.514691 0.683916 0.698207
O O6 0.553208 0.837168 0.803625
O O7 0.000000 0.000000 0.500000
O O8 0.670719 0.797659 0.280688
O O9 0.794698 0.489888 0.233503
O O10 0.000000 0.500000 0.000000
O O11 0.987747 0.501946 0.778700
O O12 0.657230 0.109328 0.871777
O O13 0.500000 0.500000 0.000000
O O14 0.500000 0.000000 0.500000
O O15 0.393433 0.253825 0.525711
O O16 0.141969 0.813138 0.120829
#
# Coordination Sequence:
#
# PCOD9014913 Si02
#       7
#     2   2   2   2   2   2   2
#     4  11  22  40  63  99 133 180 227 280 346 403
#     4  11  23  42  67 102 138 178 231 288 339 411
#     4  10  21  41  70 100 136 186 228 279 346 412
#     4  12  23  37  64 102 137 175 231 284 338 411
#     4   9  20  38  63  95 133 175 224 274 338 404
#     4  11  21  40  66 103 136 179 227 282 346 408
#     4  12  22  40  69  96 141 177 228 284 347 404
#
# _framework density 23.088885999999999
#
# number of rings (size 3 to 8) (size 9 to 14) (size 15 to 20)
#    0.000    1.143    5.714    1.714    0.000    0.000 
#    0.000    7.857    3.143    5.143    0.000    0.000 
#    0.000    0.000    0.000    0.000    0.000    0.000 
#
# Total GULP energy -78017.069152 kJ/mol
# GULP energy per Si atom -5572.647797 kJ/mol
# Density = 2.303633 g / cm^3
# Si number density = 23.088886 Si / 1000 Ang^3
#
#
#
# Elastic Constant Matrix: (Units=GPa)
#
#
# Indices 1 2 3 4 5 6 
#
# 1 178.9243 35.0879 40.3993 4.5978 -11.6804 18.4799
# 2 35.0879 72.8712 6.2120 9.5703 -2.7994 22.1069
# 3 40.3993 6.2120 105.5306 29.2405 3.2607 15.3883
# 4 4.5978 9.5703 29.2405 38.7779 0.9372 2.9823
# 5 -11.6804 -2.7994 3.2607 0.9372 40.4139 2.7339
# 6 18.4799 22.1069 15.3883 2.9823 2.7339 41.1921
#
#
#
# Elastic Compliance Matrix: (Units=1/GPa)
#
#
# Indices 1 2 3 4 5 6 
#
# 1 0.007054 -0.003172 -0.003128 0.002301 0.002058 -0.000597
# 2 -0.003172 0.018629 0.003073 -0.005841 0.000894 -0.009359
# 3 -0.003128 0.003073 0.014175 -0.010686 -0.001270 -0.004684
# 4 0.002301 -0.005841 -0.010686 0.034737 0.000075 0.003574
# 5 0.002058 0.000894 -0.001270 0.000075 0.025680 -0.002639
# 6 -0.000597 -0.009359 -0.004684 0.003574 -0.002639 0.031233
#
#
# Mechanical properties :
#
#
# Convention : Reuss Voigt Hill
#
# Bulk Modulus (GPa) = 29.93567 57.85828 43.89698
# Shear Modulus (GPa) = 33.53506 42.45191 37.99349
#
# Velocity S-wave (km/s) = 3.81521 4.29258 4.06092
# Velocity P-wave (km/s) = 5.69222 7.04852 6.40636
#
# Compressibility (1/GPa) = 0.03340497
#
# Stress axis : x y z
#
# Youngs Moduli (GPa) = 141.76020 53.67999 70.54452
#
# Poissons Ratio (x) = 0.17027 0.22066
# Poissons Ratio (y) = 0.44966 -0.21679
# Poissons Ratio (z) = 0.44342 -0.16497
#
# Static dielectric constant tensor:
#      x y z
#    x 1.930350 -0.050550 0.021880 
#    y -0.050550 1.964770 -0.012820 
#    z 0.021880 -0.012820 1.969470 
# 
# From -- ./inp_files/611331.got.cif
#   From: 2010.05.17/outbox.cif.g08.bks.cpg/sg2_306_cif.got.tgz:611331.got - 2010.06.03 11:33:40.
