data_PCOD9014593
_publ_section_title
;
Structure prediction by ZEFSAII (Michael W. Deem and Ramdas Pophale) SiO2 
 PCOD9014593
Probable space group: P -1
;
_chemical_formula_sum "Si O2"
_cell_formula_units_Z 14
_cell_length_a 11.169639
_cell_length_b 8.551017
_cell_length_c 12.119898
_cell_angle_alpha 112.198273
_cell_angle_beta 36.555973
_cell_angle_gamma 91.055959
_cell_volume 546.467690
_symmetry_space_group_name_H-M "P -1"
_symmetry_group_IT_number 2
_symmetry_cell_setting 'triclinic'
loop_
_space_group_symop_operation_xyz
x,y,z
-x,-y,-z
loop_
_atom_site_type_symbol
_atom_site_label
_atom_site_fract_x
_atom_site_fract_y
_atom_site_fract_z
Si Si1 0.860007 0.977792 0.700255
Si Si2 0.026600 0.808092 0.988960
Si Si3 0.432671 0.514883 0.756114
Si Si4 0.058881 0.487042 0.171011
Si Si5 0.330637 0.258717 0.320170
Si Si6 0.258797 0.920551 0.546792
Si Si7 0.440051 0.159565 0.921742
O O1 0.826224 0.791209 0.656748
O O2 0.016678 0.955093 0.682506
O O3 0.599413 0.155623 0.904131
O O4 0.000000 0.000000 0.500000
O O5 0.829073 0.898069 0.256283
O O6 0.979568 0.665420 0.911150
O O7 0.000000 0.000000 0.000000
O O8 0.287230 0.665977 0.806725
O O9 0.603282 0.577543 0.701113
O O10 0.595601 0.283961 0.547978
O O11 0.228032 0.540903 0.996243
O O12 0.820159 0.673628 0.436924
O O13 0.202386 0.361801 0.137927
O O14 0.560848 0.041097 0.111037
O O15 0.423414 0.882571 0.308056
#
# Coordination Sequence:
#
# PCOD9014593 Si02
#       7
#     2   2   2   2   2   2   2
#     4   8  18  41  70  94 128 175 209 267 336 382
#     4  12  26  42  66  93 135 178 220 268 326 392
#     4  11  25  41  64 103 126 174 224 260 336 384
#     4  11  23  42  67 101 131 171 221 267 329 388
#     4  10  21  41  68  93 137 165 215 275 315 392
#     4  10  21  43  64  96 135 166 221 272 317 394
#     4   8  19  39  67  96 128 172 210 262 339 379
#
# _framework density 25.619081000000001
#
# number of rings (size 3 to 8) (size 9 to 14) (size 15 to 20)
#    0.857    1.143    0.000    3.000    0.000    6.286 
#    2.571    2.857    0.000    0.000    0.000    0.000 
#    0.000    0.000    0.000    0.000    0.000    0.000 
#
# Total GULP energy -78259.572912 kJ/mol
# GULP energy per Si atom -5589.969494 kJ/mol
# Density = 2.556077 g / cm^3
# Si number density = 25.619081 Si / 1000 Ang^3
#
#
#
# Elastic Constant Matrix: (Units=GPa)
#
#
# Indices 1 2 3 4 5 6 
#
# 1 82.9075 29.9304 17.4272 1.2361 -4.9077 -1.7196
# 2 29.9304 98.9916 11.7865 10.1237 -4.7193 -18.9397
# 3 17.4272 11.7865 78.5817 10.5268 2.2156 -2.7848
# 4 1.2361 10.1237 10.5268 52.3247 2.9812 -13.1105
# 5 -4.9077 -4.7193 2.2156 2.9812 29.8647 -2.1709
# 6 -1.7196 -18.9397 -2.7848 -13.1105 -2.1709 46.1543
#
#
#
# Elastic Compliance Matrix: (Units=1/GPa)
#
#
# Indices 1 2 3 4 5 6 
#
# 1 0.014202 -0.004162 -0.002699 0.000644 0.001734 -0.001077
# 2 -0.004162 0.012546 -0.000694 -0.001109 0.001804 0.004721
# 3 -0.002699 -0.000694 0.013801 -0.002590 -0.001344 -0.000351
# 4 0.000644 -0.001109 -0.002590 0.021271 -0.001610 0.005379
# 5 0.001734 0.001804 -0.001344 -0.001610 0.034452 0.001887
# 6 -0.001077 0.004721 -0.000351 0.005379 0.001887 0.025159
#
#
# Mechanical properties :
#
#
# Convention : Reuss Voigt Hill
#
# Bulk Modulus (GPa) = 39.30901 42.08547 40.69724
# Shear Modulus (GPa) = 34.47822 39.09120 36.78471
#
# Velocity S-wave (km/s) = 3.67250 3.91047 3.79335
# Velocity P-wave (km/s) = 5.77581 6.07059 5.92503
#
# Compressibility (1/GPa) = 0.02543946
#
# Stress axis : x y z
#
# Youngs Moduli (GPa) = 70.41206 79.70959 72.46100
#
# Poissons Ratio (x) = 0.33175 0.19555
# Poissons Ratio (y) = 0.29306 0.05026
# Poissons Ratio (z) = 0.19002 0.05529
#
# Static dielectric constant tensor:
#      x y z
#    x 1.969040 -0.048520 0.020400 
#    y -0.048520 2.011190 -0.084250 
#    z 0.020400 -0.084250 2.098410 
# 
# From -- ./inp_files/417261.got.cif
#   From: 2010.05.17/outbox.cif.g08.bks.cpg/sg2_209_cif.got.tgz:417261.got - 2010.06.03 11:33:40.
