data_PCOD9014790
_publ_section_title
;
Structure prediction by ZEFSAII (Michael W. Deem and Ramdas Pophale) SiO2 
 PCOD9014790
Probable space group: P -1
;
_chemical_formula_sum "Si O2"
_cell_formula_units_Z 14
_cell_length_a 15.665172
_cell_length_b 9.605431
_cell_length_c 7.633708
_cell_angle_alpha 52.429712
_cell_angle_beta 93.845912
_cell_angle_gamma 132.112046
_cell_volume 549.546792
_symmetry_space_group_name_H-M "P -1"
_symmetry_group_IT_number 2
_symmetry_cell_setting 'triclinic'
loop_
_space_group_symop_operation_xyz
x,y,z
-x,-y,-z
loop_
_atom_site_type_symbol
_atom_site_label
_atom_site_fract_x
_atom_site_fract_y
_atom_site_fract_z
Si Si1 0.316660 0.344269 0.456145
Si Si2 0.962360 0.555456 0.284942
Si Si3 0.366775 0.187519 0.919862
Si Si4 0.347324 0.785114 0.064272
Si Si5 0.766553 0.422469 0.153281
Si Si6 0.033537 0.761183 0.696222
Si Si7 0.155016 0.078391 0.120356
O O1 0.351474 0.315051 0.671159
O O2 0.467720 0.571346 0.203046
O O3 0.273079 0.479091 0.339585
O O4 0.188193 0.028992 0.596242
O O5 0.003631 0.494959 0.178975
O O6 0.000000 0.500000 0.500000
O O7 0.803641 0.355578 0.370582
O O8 0.057956 0.883335 0.085658
O O9 0.269710 0.109045 0.117583
O O10 0.305510 0.904914 0.048199
O O11 0.348403 0.803238 0.838400
O O12 0.500000 0.000000 0.000000
O O13 0.760377 0.603921 0.095044
O O14 0.909937 0.639172 0.889627
O O15 0.053126 0.898893 0.411252
#
# Coordination Sequence:
#
# PCOD9014790 Si02
#       7
#     2   2   2   2   2   2   2
#     4  10  21  41  69  91 124 181 225 265 330 399
#     4  10  23  40  63  97 132 169 217 274 334 389
#     4  10  22  42  65  91 135 169 225 278 322 388
#     4  10  22  42  69  97 125 180 227 267 328 401
#     4  12  22  41  68  92 137 173 217 276 328 402
#     4  11  22  40  64  94 127 173 221 260 339 393
#     4  11  23  40  60  99 130 169 214 277 334 383
#
# _framework density 25.475535000000001
#
# number of rings (size 3 to 8) (size 9 to 14) (size 15 to 20)
#    0.000    1.429    1.429    3.857    0.000    0.571 
#    7.714    0.000    0.000    3.429    0.000    0.000 
#    0.000    0.000    0.000    0.000    0.000    0.000 
#
# Total GULP energy -78230.686143 kJ/mol
# GULP energy per Si atom -5587.906153 kJ/mol
# Density = 2.541755 g / cm^3
# Si number density = 25.475535 Si / 1000 Ang^3
#
#
#
# Elastic Constant Matrix: (Units=GPa)
#
#
# Indices 1 2 3 4 5 6 
#
# 1 130.5124 48.4999 25.0680 -7.6744 25.7644 -11.8237
# 2 48.4999 172.8352 20.0156 -5.8320 5.1235 6.2336
# 3 25.0680 20.0156 52.1281 0.4884 15.1055 -2.5070
# 4 -7.6744 -5.8320 0.4884 37.5389 6.6628 1.4037
# 5 25.7644 5.1235 15.1055 6.6628 36.6246 -9.3417
# 6 -11.8237 6.2336 -2.5070 1.4037 -9.3417 59.0049
#
#
#
# Elastic Compliance Matrix: (Units=1/GPa)
#
#
# Indices 1 2 3 4 5 6 
#
# 1 0.010541 -0.002454 -0.002252 0.002887 -0.006362 0.001200
# 2 -0.002454 0.006700 -0.001789 0.000395 0.001175 -0.001099
# 3 -0.002252 -0.001789 0.023229 0.000392 -0.007956 -0.000544
# 4 0.002887 0.000395 0.000392 0.028725 -0.007823 -0.001368
# 5 -0.006362 0.001175 -0.007956 -0.007823 0.037436 0.004376
# 6 0.001200 -0.001099 -0.000544 -0.001368 0.004376 0.018007
#
#
# Mechanical properties :
#
#
# Convention : Reuss Voigt Hill
#
# Bulk Modulus (GPa) = 36.39259 60.29363 48.34311
# Shear Modulus (GPa) = 34.06218 44.09317 39.07767
#
# Velocity S-wave (km/s) = 3.66054 4.16481 3.92079
# Velocity P-wave (km/s) = 5.67295 6.84442 6.28604
#
# Compressibility (1/GPa) = 0.02747812
#
# Stress axis : x y z
#
# Youngs Moduli (GPa) = 94.86464 149.25479 43.04891
#
# Poissons Ratio (x) = 0.36634 0.09697
# Poissons Ratio (y) = 0.23284 0.07703
# Poissons Ratio (z) = 0.21368 0.26707
#
# Static dielectric constant tensor:
#      x y z
#    x 2.033440 0.015220 0.053870 
#    y 0.015220 2.051470 0.004210 
#    z 0.053870 0.004210 2.164070 
# 
# From -- ./inp_files/294536.got.cif
#   From: 2010.05.17/outbox.cif.g08.bks.cpg/sg2_148_cif.got.tgz:294536.got - 2010.06.03 11:33:40.
