data_PCOD9014014
_publ_section_title
;
Structure prediction by ZEFSAII (Michael W. Deem and Ramdas Pophale) SiO2 
 PCOD9014014
Probable space group: P -1
;
_chemical_formula_sum "Si O2"
_cell_formula_units_Z 16
_cell_length_a 15.232803
_cell_length_b 11.589658
_cell_length_c 11.117877
_cell_angle_alpha 79.666118
_cell_angle_beta 86.275271
_cell_angle_gamma 153.289294
_cell_volume 746.939539
_symmetry_space_group_name_H-M "P -1"
_symmetry_group_IT_number 2
_symmetry_cell_setting 'triclinic'
loop_
_space_group_symop_operation_xyz
x,y,z
-x,-y,-z
loop_
_atom_site_type_symbol
_atom_site_label
_atom_site_fract_x
_atom_site_fract_y
_atom_site_fract_z
Si Si1 0.626292 0.807143 0.900474
Si Si2 0.662030 0.812929 0.421017
Si Si3 0.727414 0.025689 0.605663
Si Si4 0.882613 0.910080 0.908133
Si Si5 0.697198 0.146986 0.935997
Si Si6 0.535460 0.834970 0.227850
Si Si7 0.066823 0.141781 0.338568
Si Si8 0.226243 0.668202 0.352110
O O1 0.833197 0.988656 0.907158
O O2 0.668942 0.861479 0.744513
O O3 0.375953 0.451903 0.008194
O O4 0.623224 0.936299 0.918613
O O5 0.500000 0.500000 0.500000
O O6 0.640458 0.865540 0.296385
O O7 0.611672 0.837829 0.531018
O O8 0.910732 0.064286 0.361038
O O9 0.671369 0.088839 0.640696
O O10 0.997786 0.357000 0.500295
O O11 0.982647 0.995267 0.752559
O O12 0.000000 0.000000 0.000000
O O13 0.725129 0.129749 0.071323
O O14 0.843382 0.384559 0.770966
O O15 0.500000 0.000000 0.000000
O O16 0.326528 0.506346 0.246008
O O17 0.404167 0.780929 0.314139
O O18 0.000000 0.000000 0.500000
#
# Coordination Sequence:
#
# PCOD9014014 Si02
#       8
#     2   2   2   2   2   2   2   2
#     4  10  22  41  65  89 129 167 205 266 326 384
#     4  12  26  37  65 100 127 166 222 265 323 399
#     4  10  21  41  66  94 127 168 219 267 327 391
#     4  11  26  39  64  96 131 173 217 262 325 394
#     4   9  19  39  68  88 117 169 212 256 329 378
#     4  11  22  40  66  92 130 169 210 274 328 384
#     4  12  24  42  64  94 135 173 216 265 329 390
#     4   9  20  41  69  89 124 175 214 268 331 383
#
# _framework density 21.420743000000002
#
# number of rings (size 3 to 8) (size 9 to 14) (size 15 to 20)
#    0.000    1.500    3.750    0.750    3.500    0.500 
#    0.000    0.625   13.750    0.000    0.000    0.000 
#    0.000    0.000    0.000    0.000    0.000    0.000 
#
# Total GULP energy -89132.562807 kJ/mol
# GULP energy per Si atom -5570.785175 kJ/mol
# Density = 2.137199 g / cm^3
# Si number density = 21.420743 Si / 1000 Ang^3
#
#
#
# Elastic Constant Matrix: (Units=GPa)
#
#
# Indices 1 2 3 4 5 6 
#
# 1 108.9644 33.2510 45.4688 23.0556 15.1484 -5.6735
# 2 33.2510 40.3436 11.7005 12.2876 0.8989 -3.2301
# 3 45.4688 11.7005 129.3381 5.2361 9.0449 10.2736
# 4 23.0556 12.2876 5.2361 31.6369 -0.3497 2.4478
# 5 15.1484 0.8989 9.0449 -0.3497 37.0913 11.1508
# 6 -5.6735 -3.2301 10.2736 2.4478 11.1508 29.9253
#
#
#
# Elastic Compliance Matrix: (Units=1/GPa)
#
#
# Indices 1 2 3 4 5 6 
#
# 1 0.017630 -0.009520 -0.005021 -0.009016 -0.008183 0.007825
# 2 -0.009520 0.034666 0.000187 -0.006645 0.002492 0.001488
# 3 -0.005021 0.000187 0.009690 0.002374 0.001176 -0.004891
# 4 -0.009016 -0.006645 0.002374 0.041131 0.006349 -0.008972
# 5 -0.008183 0.002492 0.001176 0.006349 0.034548 -0.015079
# 6 0.007825 0.001488 -0.004891 -0.008972 -0.015079 0.043092
#
#
# Mechanical properties :
#
#
# Convention : Reuss Voigt Hill
#
# Bulk Modulus (GPa) = 30.04859 51.05408 40.55134
# Shear Modulus (GPa) = 22.66974 32.27908 27.47441
#
# Velocity S-wave (km/s) = 3.25669 3.88610 3.58524
# Velocity P-wave (km/s) = 5.31034 6.63486 6.00920
#
# Compressibility (1/GPa) = 0.03327943
#
# Stress axis : x y z
#
# Youngs Moduli (GPa) = 56.72151 28.84631 103.19907
#
# Poissons Ratio (x) = 0.27461 0.51816
# Poissons Ratio (y) = 0.53997 -0.01931
# Poissons Ratio (z) = 0.28480 -0.00540
#
# Static dielectric constant tensor:
#      x y z
#    x 1.768520 -0.028780 0.014000 
#    y -0.028780 1.824810 0.005970 
#    z 0.014000 0.005970 1.888760 
# 
# From -- ./inp_files/307064.got.cif
#   From: 2010.05.17/outbox.cif.g08.bks.cpg/sg2_154_cif.got.tgz:307064.got - 2010.06.03 11:33:40.
