data_PCOD9014670
_publ_section_title
;
Structure prediction by ZEFSAII (Michael W. Deem and Ramdas Pophale) SiO2 
 PCOD9014670
Probable space group: P -1
;
_chemical_formula_sum "Si O2"
_cell_formula_units_Z 16
_cell_length_a 15.182146
_cell_length_b 8.242497
_cell_length_c 7.449470
_cell_angle_alpha 80.314918
_cell_angle_beta 79.520303
_cell_angle_gamma 46.127034
_cell_volume 659.635224
_symmetry_space_group_name_H-M "P -1"
_symmetry_group_IT_number 2
_symmetry_cell_setting 'triclinic'
loop_
_space_group_symop_operation_xyz
x,y,z
-x,-y,-z
loop_
_atom_site_type_symbol
_atom_site_label
_atom_site_fract_x
_atom_site_fract_y
_atom_site_fract_z
Si Si1 0.668290 0.731900 0.628759
Si Si2 0.279771 0.601904 0.576947
Si Si3 0.996068 0.323375 0.183288
Si Si4 0.930354 0.447212 0.773401
Si Si5 0.756428 0.131141 0.780535
Si Si6 0.412690 0.444705 0.045045
Si Si7 0.063592 0.951489 0.791352
Si Si8 0.526204 0.226691 0.687940
O O1 0.714364 0.597314 0.447621
O O2 0.792966 0.616246 0.715315
O O3 0.592028 0.681658 0.767200
O O4 0.581308 0.999726 0.609650
O O5 0.213250 0.783273 0.408236
O O6 0.209203 0.759060 0.746007
O O7 0.424968 0.452401 0.570197
O O8 0.991164 0.482912 0.288849
O O9 0.965043 0.179161 0.285199
O O10 0.142278 0.118901 0.138302
O O11 0.929228 0.433175 0.996590
O O12 0.005931 0.197794 0.715074
O O13 0.716070 0.303711 0.920115
O O14 0.643992 0.173185 0.729063
O O15 0.500000 0.500000 0.000000
O O16 0.446105 0.297002 0.885668
O O17 0.000000 0.000000 0.000000
#
# Coordination Sequence:
#
# PCOD9014670 Si02
#       8
#     2   2   2   2   2   2   2   2
#     4  11  22  42  64  98 137 172 222 279 337 408
#     4  11  25  41  66  95 134 180 217 276 348 403
#     4  10  21  41  68  97 134 171 229 282 331 392
#     4  10  22  40  69  97 133 173 227 280 336 387
#     4  10  21  42  64  96 134 169 224 278 334 407
#     4   9  21  37  63  97 127 173 220 269 329 400
#     4  10  23  43  69  95 131 177 228 281 334 404
#     4  11  22  40  67  97 135 175 217 269 341 409
#
# _framework density 24.255828999999999
#
# number of rings (size 3 to 8) (size 9 to 14) (size 15 to 20)
#    0.000    1.750    1.250    2.625    7.000    2.000 
#    2.250    1.250    0.000    0.000    0.000    0.000 
#    0.000    0.000    0.000    0.000    0.000    0.000 
#
# Total GULP energy -89119.880798 kJ/mol
# GULP energy per Si atom -5569.992550 kJ/mol
# Density = 2.420062 g / cm^3
# Si number density = 24.255829 Si / 1000 Ang^3
#
#
#
# Elastic Constant Matrix: (Units=GPa)
#
#
# Indices 1 2 3 4 5 6 
#
# 1 78.8691 25.2208 19.1678 -2.8200 -2.1678 8.6564
# 2 25.2208 160.2797 31.8808 19.0709 -1.2286 0.8627
# 3 19.1678 31.8808 91.9604 19.3938 19.4110 2.7136
# 4 -2.8200 19.0709 19.3938 33.8666 0.3512 14.5163
# 5 -2.1678 -1.2286 19.4110 0.3512 18.1458 -7.8574
# 6 8.6564 0.8627 2.7136 14.5163 -7.8574 47.9589
#
#
#
# Elastic Compliance Matrix: (Units=1/GPa)
#
#
# Indices 1 2 3 4 5 6 
#
# 1 0.015352 -0.002203 -0.004854 0.006821 0.005153 -0.003677
# 2 -0.002203 0.007513 -0.002057 -0.004229 0.003494 0.002231
# 3 -0.004854 -0.002057 0.019173 -0.009687 -0.021361 -0.000739
# 4 0.006821 -0.004229 -0.009687 0.043586 0.004383 -0.013082
# 5 0.005153 0.003494 -0.021361 0.004383 0.084221 0.012688
# 6 -0.003677 0.002231 -0.000739 -0.013082 0.012688 0.027555
#
#
# Mechanical properties :
#
#
# Convention : Reuss Voigt Hill
#
# Bulk Modulus (GPa) = 41.99818 53.73866 47.86842
# Shear Modulus (GPa) = 22.36500 36.98360 29.67430
#
# Velocity S-wave (km/s) = 3.03982 3.90902 3.50149
# Velocity P-wave (km/s) = 5.44728 6.52510 6.01040
#
# Compressibility (1/GPa) = 0.02381056
#
# Stress axis : x y z
#
# Youngs Moduli (GPa) = 65.13635 133.10735 52.15737
#
# Poissons Ratio (x) = 0.29318 0.25318
# Poissons Ratio (y) = 0.14347 0.10728
# Poissons Ratio (z) = 0.31618 0.27379
#
# Static dielectric constant tensor:
#      x y z
#    x 2.105600 -0.045120 0.008300 
#    y -0.045120 1.966390 -0.010610 
#    z 0.008300 -0.010610 2.031230 
# 
# From -- ./inp_files/298519.got.cif
#   From: 2010.05.17/outbox.cif.g08.bks.cpg/sg2_150_cif.got.tgz:298519.got - 2010.06.03 11:33:40.
