data_PCOD9014378
_publ_section_title
;
Structure prediction by ZEFSAII (Michael W. Deem and Ramdas Pophale) SiO2 
 PCOD9014378
Probable space group: P -1
;
_chemical_formula_sum "Si O2"
_cell_formula_units_Z 14
_cell_length_a 14.615661
_cell_length_b 29.945676
_cell_length_c 8.275370
_cell_angle_alpha 149.759584
_cell_angle_beta 35.564185
_cell_angle_gamma 161.474680
_cell_volume 579.196636
_symmetry_space_group_name_H-M "P -1"
_symmetry_group_IT_number 2
_symmetry_cell_setting 'triclinic'
loop_
_space_group_symop_operation_xyz
x,y,z
-x,-y,-z
loop_
_atom_site_type_symbol
_atom_site_label
_atom_site_fract_x
_atom_site_fract_y
_atom_site_fract_z
Si Si1 0.244900 0.931315 0.053213
Si Si2 0.937961 0.767152 0.286723
Si Si3 0.789696 0.840327 0.976264
Si Si4 0.453682 0.187035 0.026915
Si Si5 0.672895 0.653568 0.837305
Si Si6 0.250730 0.508064 0.278115
Si Si7 0.672471 0.186223 0.980728
O O1 0.986264 0.766903 0.802486
O O2 0.058264 0.876328 0.301957
O O3 0.500000 0.000000 0.000000
O O4 0.410916 0.070934 0.122661
O O5 0.761092 0.745469 0.591375
O O6 0.190329 0.845528 0.282608
O O7 0.796391 0.609236 0.931249
O O8 0.575174 0.812615 0.122795
O O9 0.725995 0.767007 0.009090
O O10 0.122264 0.026120 0.061025
O O11 0.626342 0.352043 0.364781
O O12 0.598155 0.171616 0.858054
O O13 0.500000 0.500000 0.500000
O O14 0.467816 0.585462 0.065229
O O15 0.930059 0.372053 0.246490
#
# Coordination Sequence:
#
# PCOD9014378 Si02
#       7
#     2   2   2   2   2   2   2
#     4  10  21  41  67  96 127 170 221 266 323 387
#     4   9  21  41  68  95 121 172 222 265 318 386
#     4  11  24  41  63  98 132 169 216 273 325 384
#     4  11  23  42  63  91 137 174 209 265 336 392
#     4  12  23  41  67 101 130 168 225 278 317 383
#     4  10  23  40  71  90 132 171 219 261 333 387
#     4   9  20  43  67  93 124 172 217 268 315 392
#
# _framework density 24.171413000000001
#
# number of rings (size 3 to 8) (size 9 to 14) (size 15 to 20)
#    0.857    0.857    2.857    1.286    2.000    2.286 
#   10.286    0.714    0.000    0.000    0.000    0.000 
#    0.000    0.000    0.000    0.000    0.000    0.000 
#
# Total GULP energy -78053.166759 kJ/mol
# GULP energy per Si atom -5575.226197 kJ/mol
# Density = 2.411640 g / cm^3
# Si number density = 24.171413 Si / 1000 Ang^3
#
#
#
# Elastic Constant Matrix: (Units=GPa)
#
#
# Indices 1 2 3 4 5 6 
#
# 1 161.2495 39.6011 9.5046 13.7801 14.2485 12.0301
# 2 39.6011 95.9894 9.1815 27.7059 8.5394 -8.4527
# 3 9.5046 9.1815 84.8014 41.7256 9.8981 9.1433
# 4 13.7801 27.7059 41.7256 45.0103 9.9824 13.7478
# 5 14.2485 8.5394 9.8981 9.9824 19.2599 17.4015
# 6 12.0301 -8.4527 9.1433 13.7478 17.4015 34.9073
#
#
#
# Elastic Compliance Matrix: (Units=1/GPa)
#
#
# Indices 1 2 3 4 5 6 
#
# 1 0.007378 -0.003862 -0.001117 0.002519 -0.001279 -0.003539
# 2 -0.003862 0.022113 0.009838 -0.024229 -0.021433 0.024335
# 3 -0.001117 0.009838 0.026567 -0.031853 -0.014969 0.015816
# 4 0.002519 -0.024229 -0.031853 0.072614 0.021833 -0.037874
# 5 -0.001279 -0.021433 -0.014969 0.021833 0.122391 -0.070439
# 6 -0.003539 0.024335 0.015816 -0.037874 -0.070439 0.081648
#
#
# Mechanical properties :
#
#
# Convention : Reuss Voigt Hill
#
# Bulk Modulus (GPa) = 15.20310 50.95718 33.08014
# Shear Modulus (GPa) = 14.49622 38.75237 26.62430
#
# Velocity S-wave (km/s) = 2.45159 4.00838 3.32245
# Velocity P-wave (km/s) = 3.78379 6.52305 5.33232
#
# Compressibility (1/GPa) = 0.06577608
#
# Stress axis : x y z
#
# Youngs Moduli (GPa) = 135.54439 45.22240 37.64045
#
# Poissons Ratio (x) = 0.17464 0.04205
# Poissons Ratio (y) = 0.52343 -0.37031
# Poissons Ratio (z) = 0.15143 -0.44490
#
# Static dielectric constant tensor:
#      x y z
#    x 2.043970 0.043620 -0.008190 
#    y 0.043620 1.915500 0.016910 
#    z -0.008190 0.016910 1.983080 
# 
# From -- ./inp_files/320887.got.cif
#   From: 2010.05.17/outbox.cif.g08.bks.cpg/sg2_161_cif.got.tgz:320887.got - 2010.06.03 11:33:40.
