data_PCOD9014437
_publ_section_title
;
Structure prediction by ZEFSAII (Michael W. Deem and Ramdas Pophale) SiO2 
 PCOD9014437
Probable space group: P -1
;
_chemical_formula_sum "Si O2"
_cell_formula_units_Z 16
_cell_length_a 19.181884
_cell_length_b 8.813343
_cell_length_c 7.627270
_cell_angle_alpha 51.342066
_cell_angle_beta 89.905730
_cell_angle_gamma 126.520865
_cell_volume 650.368111
_symmetry_space_group_name_H-M "P -1"
_symmetry_group_IT_number 2
_symmetry_cell_setting 'triclinic'
loop_
_space_group_symop_operation_xyz
x,y,z
-x,-y,-z
loop_
_atom_site_type_symbol
_atom_site_label
_atom_site_fract_x
_atom_site_fract_y
_atom_site_fract_z
Si Si1 0.816525 0.372472 0.066486
Si Si2 0.505860 0.714589 0.245456
Si Si3 0.821730 0.781797 0.566734
Si Si4 0.332069 0.217421 0.341957
Si Si5 0.151512 0.816288 0.130533
Si Si6 0.298591 0.876796 0.289083
Si Si7 0.679174 0.487391 0.436722
Si Si8 0.004666 0.205368 0.967956
O O1 0.861361 0.321212 0.955657
O O2 0.700484 0.031963 0.352402
O O3 0.821966 0.599115 0.825525
O O4 0.881817 0.506251 0.151131
O O5 0.500000 0.500000 0.500000
O O6 0.429907 0.536674 0.201376
O O7 0.445693 0.736127 0.360178
O O8 0.625353 0.996513 0.971235
O O9 0.773814 0.868645 0.602225
O O10 0.737454 0.578900 0.556186
O O11 0.931095 0.031753 0.272395
O O12 0.351831 0.160194 0.198527
O O13 0.049698 0.742539 0.187996
O O14 0.255052 0.185120 0.868775
O O15 0.184540 0.715615 0.335833
O O16 0.300176 0.674711 0.537562
O O17 0.000000 0.000000 0.000000
#
# Coordination Sequence:
#
# PCOD9014437 Si02
#       8
#     2   2   2   2   2   2   2   2
#     4  12  22  45  70  90 136 179 215 270 339 385
#     4  11  21  45  68  95 135 178 219 271 331 394
#     4  10  23  44  67  93 133 172 216 266 335 394
#     4  11  26  42  66 103 133 171 226 272 324 396
#     4  11  23  44  66  97 134 176 224 266 332 397
#     4  12  24  41  71  96 137 177 219 276 331 380
#     4  10  21  41  67  98 129 171 223 264 321 401
#     4  11  26  43  68 102 133 167 227 281 323 400
#
# _framework density 24.60145
#
# number of rings (size 3 to 8) (size 9 to 14) (size 15 to 20)
#    0.000    1.000    6.250    1.500    5.250    0.000 
#    0.000    1.875    0.000    0.000    0.000    0.000 
#    0.000    0.000    0.000    0.000    0.000    0.000 
#
# Total GULP energy -89421.522842 kJ/mol
# GULP energy per Si atom -5588.845178 kJ/mol
# Density = 2.454546 g / cm^3
# Si number density = 24.601450 Si / 1000 Ang^3
#
#
#
# Elastic Constant Matrix: (Units=GPa)
#
#
# Indices 1 2 3 4 5 6 
#
# 1 149.8993 22.3087 36.5439 9.2948 13.6348 -21.2529
# 2 22.3087 55.4898 -2.8910 -2.2828 10.0891 -16.5060
# 3 36.5439 -2.8910 85.8902 -0.1427 15.1290 -6.0915
# 4 9.2948 -2.2828 -0.1427 21.7181 -1.0225 5.2817
# 5 13.6348 10.0891 15.1290 -1.0225 41.8124 -2.8455
# 6 -21.2529 -16.5060 -6.0915 5.2817 -2.8455 38.9135
#
#
#
# Elastic Compliance Matrix: (Units=1/GPa)
#
#
# Indices 1 2 3 4 5 6 
#
# 1 0.008831 -0.002655 -0.003435 -0.005041 -0.000862 0.003780
# 2 -0.002655 0.022699 0.003399 0.001316 -0.005255 0.008147
# 3 -0.003435 0.003399 0.014137 0.001396 -0.004696 0.001246
# 4 -0.005041 0.001316 0.001396 0.050541 0.001463 -0.008729
# 5 -0.000862 -0.005255 -0.004696 0.001463 0.027088 -0.001653
# 6 0.003780 0.008147 0.001246 -0.008729 -0.001653 0.032477
#
#
# Mechanical properties :
#
#
# Convention : Reuss Voigt Hill
#
# Bulk Modulus (GPa) = 24.82365 44.80029 34.81197
# Shear Modulus (GPa) = 28.63969 36.17666 32.40818
#
# Velocity S-wave (km/s) = 3.41566 3.83888 3.63344
# Velocity P-wave (km/s) = 5.06635 6.15624 5.63769
#
# Compressibility (1/GPa) = 0.04028417
#
# Stress axis : x y z
#
# Youngs Moduli (GPa) = 113.24162 44.05481 70.73838
#
# Poissons Ratio (x) = 0.11698 0.24299
# Poissons Ratio (y) = 0.30070 -0.24047
# Poissons Ratio (z) = 0.38899 -0.14976
#
# Static dielectric constant tensor:
#      x y z
#    x 2.045990 -0.027230 -0.041690 
#    y -0.027230 1.913930 -0.028400 
#    z -0.041690 -0.028400 2.029610 
# 
# From -- ./inp_files/327134.got.cif
#   From: 2010.05.17/outbox.cif.g08.bks.cpg/sg2_164_cif.got.tgz:327134.got - 2010.06.03 11:33:40.
