data_PCOD9014650
_publ_section_title
;
Structure prediction by ZEFSAII (Michael W. Deem and Ramdas Pophale) SiO2 
 PCOD9014650
Probable space group: P -1
;
_chemical_formula_sum "Si O2"
_cell_formula_units_Z 16
_cell_length_a 9.599624
_cell_length_b 11.305037
_cell_length_c 13.008648
_cell_angle_alpha 86.914256
_cell_angle_beta 132.640917
_cell_angle_gamma 126.030148
_cell_volume 684.569337
_symmetry_space_group_name_H-M "P -1"
_symmetry_group_IT_number 2
_symmetry_cell_setting 'triclinic'
loop_
_space_group_symop_operation_xyz
x,y,z
-x,-y,-z
loop_
_atom_site_type_symbol
_atom_site_label
_atom_site_fract_x
_atom_site_fract_y
_atom_site_fract_z
Si Si1 0.154330 0.758336 0.291759
Si Si2 0.141302 0.687944 0.525610
Si Si3 0.177648 0.825001 0.883732
Si Si4 0.684359 0.708254 0.082346
Si Si5 0.269302 0.073339 0.072090
Si Si6 0.740442 0.392814 0.979918
Si Si7 0.983499 0.819804 0.574932
Si Si8 0.444058 0.166733 0.661892
O O1 0.155862 0.705287 0.409149
O O2 0.448712 0.868607 0.373924
O O3 0.014348 0.822468 0.231203
O O4 0.933697 0.586721 0.114073
O O5 0.460956 0.839939 0.727957
O O6 0.942853 0.699499 0.473761
O O7 0.000000 0.500000 0.500000
O O8 0.155365 0.680705 0.915374
O O9 0.993707 0.764204 0.693555
O O10 0.500000 0.000000 0.000000
O O11 0.142543 0.902908 0.953127
O O12 0.500000 0.500000 0.000000
O O13 0.619354 0.771147 0.956704
O O14 0.580377 0.725828 0.131759
O O15 0.000000 0.000000 0.000000
O O16 0.698781 0.353880 0.840387
O O17 0.769626 0.829320 0.476531
O O18 0.285328 0.014566 0.676278
#
# Coordination Sequence:
#
# PCOD9014650 Si02
#       8
#     2   2   2   2   2   2   2   2
#     4  11  26  41  68 100 138 170 224 283 331 403
#     4  12  25  47  68  97 138 182 223 275 347 413
#     4  12  21  43  72  91 127 175 227 265 328 409
#     4  10  21  41  68  96 132 178 221 268 340 410
#     4  12  27  43  70 105 136 173 228 290 341 398
#     4  11  21  45  68  97 128 182 221 270 338 408
#     4  11  24  43  69  94 131 179 221 273 335 406
#     4  11  24  42  65  98 132 170 225 278 335 388
#
# _framework density 23.372357999999998
#
# number of rings (size 3 to 8) (size 9 to 14) (size 15 to 20)
#    0.000    0.750    3.750    3.375    5.250    2.500 
#    2.250    1.250    0.000    0.000    0.000    0.000 
#    0.000    0.000    0.000    0.000    0.000    0.000 
#
# Total GULP energy -89480.810846 kJ/mol
# GULP energy per Si atom -5592.550678 kJ/mol
# Density = 2.331916 g / cm^3
# Si number density = 23.372358 Si / 1000 Ang^3
#
#
#
# Elastic Constant Matrix: (Units=GPa)
#
#
# Indices 1 2 3 4 5 6 
#
# 1 197.0045 10.5882 35.5868 -12.8258 4.3058 -9.5266
# 2 10.5882 47.2234 -1.6767 -2.0331 9.7132 -14.8021
# 3 35.5868 -1.6767 81.4416 -15.7368 2.8117 7.8804
# 4 -12.8258 -2.0331 -15.7368 34.6459 -7.5030 -1.4392
# 5 4.3058 9.7132 2.8117 -7.5030 35.8081 -4.4330
# 6 -9.5266 -14.8021 7.8804 -1.4392 -4.4330 28.1212
#
#
#
# Elastic Compliance Matrix: (Units=1/GPa)
#
#
# Indices 1 2 3 4 5 6 
#
# 1 0.005755 -0.000615 -0.002562 0.001076 0.000202 0.002431
# 2 -0.000615 0.026505 -0.000131 0.000645 -0.005365 0.012967
# 3 -0.002562 -0.000131 0.014955 0.005576 -0.000267 -0.004884
# 4 0.001076 0.000645 0.005576 0.033310 0.006468 0.001866
# 5 0.000202 -0.005365 -0.000267 0.006468 0.031049 0.002545
# 6 0.002431 0.012967 -0.004884 0.001866 0.002545 0.045075
#
#
# Mechanical properties :
#
#
# Convention : Reuss Voigt Hill
#
# Bulk Modulus (GPa) = 24.63013 46.07403 35.35208
# Shear Modulus (GPa) = 28.28120 38.45979 33.37050
#
# Velocity S-wave (km/s) = 3.48232 4.06091 3.78269
# Velocity P-wave (km/s) = 5.17008 6.46094 5.85122
#
# Compressibility (1/GPa) = 0.04060068
#
# Stress axis : x y z
#
# Youngs Moduli (GPa) = 173.76311 37.72893 66.86878
#
# Poissons Ratio (x) = 0.02319 0.17130
# Poissons Ratio (y) = 0.10680 0.00873
# Poissons Ratio (z) = 0.44513 0.00493
#
# Static dielectric constant tensor:
#      x y z
#    x 1.908590 0.083990 0.075580 
#    y 0.083990 1.878320 0.039010 
#    z 0.075580 0.039010 1.916350 
# 
# From -- ./inp_files/392659.got.cif
#   From: 2010.05.17/outbox.cif.g08.bks.cpg/sg2_197_cif.got.tgz:392659.got - 2010.06.03 11:33:40.
