data_PCOD9014102
_publ_section_title
;
Structure prediction by ZEFSAII (Michael W. Deem and Ramdas Pophale) SiO2 
 PCOD9014102
Probable space group: P -1
;
_chemical_formula_sum "Si O2"
_cell_formula_units_Z 12
_cell_length_a 8.733169
_cell_length_b 14.110648
_cell_length_c 4.865142
_cell_angle_alpha 110.898062
_cell_angle_beta 115.963081
_cell_angle_gamma 99.958662
_cell_volume 463.304361
_symmetry_space_group_name_H-M "P -1"
_symmetry_group_IT_number 2
_symmetry_cell_setting 'triclinic'
loop_
_space_group_symop_operation_xyz
x,y,z
-x,-y,-z
loop_
_atom_site_type_symbol
_atom_site_label
_atom_site_fract_x
_atom_site_fract_y
_atom_site_fract_z
Si Si1 0.647126 0.108781 0.871412
Si Si2 0.576807 0.767686 0.382866
Si Si3 0.252925 0.593617 0.323110
Si Si4 0.859514 0.977514 0.116501
Si Si5 0.081050 0.658044 0.775958
Si Si6 0.311746 0.414933 0.898848
O O1 0.509129 0.172399 0.839957
O O2 0.500000 0.000000 0.500000
O O3 0.823828 0.208597 0.976029
O O4 0.745436 0.058091 0.118087
O O5 0.423589 0.685313 0.385001
O O6 0.663303 0.699352 0.195029
O O7 0.714086 0.857288 0.790526
O O8 0.205085 0.626268 0.615641
O O9 0.091040 0.596816 0.998454
O O10 0.288985 0.482183 0.213661
O O11 0.000000 0.000000 0.500000
O O12 0.000000 0.000000 0.000000
O O13 0.876317 0.615941 0.453259
O O14 0.500000 0.500000 0.000000
#
# Coordination Sequence:
#
# PCOD9014102 Si02
#       6
#     2   2   2   2   2   2
#     4   9  21  42  67  96 133 173 217 269 328 393
#     4   9  21  43  67  99 135 176 221 273 334 396
#     4  10  23  42  66  95 131 175 221 272 328 390
#     4  11  24  42  67  99 132 172 221 275 331 394
#     4  11  22  42  67  96 131 175 220 271 330 390
#     4  10  21  41  66  97 133 173 221 274 328 393
#
# _framework density 25.900897000000001
#
# number of rings (size 3 to 8) (size 9 to 14) (size 15 to 20)
#    0.000    2.000    0.000    2.000    0.000    8.000 
#    0.000   34.167    0.000    0.000    0.000    0.000 
#    0.000    0.000    0.000    0.000    0.000    0.000 
#
# Total GULP energy -67023.294855 kJ/mol
# GULP energy per Si atom -5585.274571 kJ/mol
# Density = 2.584195 g / cm^3
# Si number density = 25.900897 Si / 1000 Ang^3
#
#
#
# Elastic Constant Matrix: (Units=GPa)
#
#
# Indices 1 2 3 4 5 6 
#
# 1 132.4655 55.2231 66.0311 2.9730 2.2379 -7.2298
# 2 55.2231 160.6917 90.2858 10.7071 -5.6271 -46.0445
# 3 66.0311 90.2858 164.9288 -1.8218 21.4771 -17.0258
# 4 2.9730 10.7071 -1.8218 55.2343 6.1504 3.1830
# 5 2.2379 -5.6271 21.4771 6.1504 55.1384 -7.2569
# 6 -7.2298 -46.0445 -17.0258 3.1830 -7.2569 48.0247
#
#
#
# Elastic Compliance Matrix: (Units=1/GPa)
#
#
# Indices 1 2 3 4 5 6 
#
# 1 0.009835 -0.002122 -0.002984 -0.000168 0.000362 -0.001547
# 2 -0.002122 0.015155 -0.007010 -0.004538 0.006583 0.013021
# 3 -0.002984 -0.007010 0.011465 0.002798 -0.005923 -0.004186
# 4 -0.000168 -0.004538 0.002798 0.019894 -0.004473 -0.005379
# 5 0.000362 0.006583 -0.005923 -0.004473 0.022650 0.007985
# 6 -0.001547 0.013021 -0.004186 -0.005379 0.007985 0.033153
#
#
# Mechanical properties :
#
#
# Convention : Reuss Voigt Hill
#
# Bulk Modulus (GPa) = 81.81637 97.90730 89.86183
# Shear Modulus (GPa) = 35.59778 48.11587 41.85683
#
# Velocity S-wave (km/s) = 3.71129 4.31477 4.02436
# Velocity P-wave (km/s) = 7.07260 7.91870 7.50758
#
# Compressibility (1/GPa) = 0.01222249
#
# Stress axis : x y z
#
# Youngs Moduli (GPa) = 101.68042 65.98617 87.21981
#
# Poissons Ratio (x) = 0.14005 0.26028
# Poissons Ratio (y) = 0.21581 0.61137
# Poissons Ratio (z) = 0.30343 0.46253
#
# Static dielectric constant tensor:
#      x y z
#    x 2.061730 -0.001280 0.022670 
#    y -0.001280 2.093730 0.032900 
#    z 0.022670 0.032900 2.052780 
# 
# From -- ./inp_files/36645.got.cif
#   From: 2010.05.17/outbox.cif.g08.bks.cpg/sg2_19_cif.got.tgz:36645.got - 2010.06.03 11:33:40.
