data_PCOD9014722
_publ_section_title
;
Structure prediction by ZEFSAII (Michael W. Deem and Ramdas Pophale) SiO2 
 PCOD9014722
Probable space group: P -1
;
_chemical_formula_sum "Si O2"
_cell_formula_units_Z 14
_cell_length_a 9.460528
_cell_length_b 15.984044
_cell_length_c 23.388615
_cell_angle_alpha 18.890451
_cell_angle_beta 147.469260
_cell_angle_gamma 148.098512
_cell_volume 588.460811
_symmetry_space_group_name_H-M "P -1"
_symmetry_group_IT_number 2
_symmetry_cell_setting 'triclinic'
loop_
_space_group_symop_operation_xyz
x,y,z
-x,-y,-z
loop_
_atom_site_type_symbol
_atom_site_label
_atom_site_fract_x
_atom_site_fract_y
_atom_site_fract_z
Si Si1 0.087236 0.681745 0.291128
Si Si2 0.229626 0.882079 0.446156
Si Si3 0.278171 0.677154 0.172339
Si Si4 0.940696 0.312805 0.028285
Si Si5 0.387150 0.737037 0.470387
Si Si6 0.274931 0.661393 0.827621
Si Si7 0.584713 0.905375 0.948114
O O1 0.141371 0.712592 0.357528
O O2 0.346437 0.904355 0.207167
O O3 0.020309 0.367410 0.453908
O O4 0.818821 0.757672 0.129746
O O5 0.317006 0.757652 0.498921
O O6 0.500000 0.000000 0.500000
O O7 0.114154 0.123940 0.231578
O O8 0.486541 0.506095 0.341336
O O9 0.364191 0.876803 0.124458
O O10 0.977316 0.467752 0.217621
O O11 0.215129 0.806918 0.007335
O O12 0.709732 0.305549 0.001155
O O13 0.137933 0.589457 0.890246
O O14 0.603506 0.025294 0.343949
O O15 0.500000 0.500000 0.000000
#
# Coordination Sequence:
#
# PCOD9014722 Si02
#       7
#     2   2   2   2   2   2   2
#     4  11  27  45  73  98 141 187 232 291 347 419
#     4  12  27  45  72 102 140 179 235 294 349 418
#     4  10  23  40  75  99 142 182 232 286 344 414
#     4  10  23  42  67  99 137 184 223 285 347 407
#     4  12  23  47  70 107 136 184 238 279 354 417
#     4  10  21  41  69 100 137 185 222 282 345 410
#     4  11  23  47  68 103 141 184 238 284 351 410
#
# _framework density 23.790879
#
# number of rings (size 3 to 8) (size 9 to 14) (size 15 to 20)
#    0.857    0.286    1.429    4.714    2.000    4.571 
#    2.571    2.143    0.000    0.000    0.000    0.000 
#    0.000    0.000    0.000    0.000    0.000    0.000 
#
# Total GULP energy -78289.168153 kJ/mol
# GULP energy per Si atom -5592.083439 kJ/mol
# Density = 2.373673 g / cm^3
# Si number density = 23.790879 Si / 1000 Ang^3
#
#
#
# Elastic Constant Matrix: (Units=GPa)
#
#
# Indices 1 2 3 4 5 6 
#
# 1 89.7607 32.9581 5.6475 -4.7495 -22.6886 6.5791
# 2 32.9581 72.4255 10.2596 -7.7484 -25.3051 0.6109
# 3 5.6475 10.2596 86.1483 -2.8647 -20.6864 3.4810
# 4 -4.7495 -7.7484 -2.8647 36.2215 5.1568 -10.8099
# 5 -22.6886 -25.3051 -20.6864 5.1568 33.7797 -5.0365
# 6 6.5791 0.6109 3.4810 -10.8099 -5.0365 47.8939
#
#
#
# Elastic Compliance Matrix: (Units=1/GPa)
#
#
# Indices 1 2 3 4 5 6 
#
# 1 0.014543 -0.004316 0.001333 -0.000342 0.007201 -0.001360
# 2 -0.004316 0.020412 0.000948 0.002706 0.012892 0.002230
# 3 0.001333 0.000948 0.013827 -0.000003 0.010052 -0.000144
# 4 -0.000342 0.002706 -0.000003 0.030398 -0.001849 0.006679
# 5 0.007201 0.012892 0.010052 -0.001849 0.050992 0.003061
# 6 -0.001360 0.002230 -0.000144 0.006679 0.003061 0.022878
#
#
# Mechanical properties :
#
#
# Convention : Reuss Voigt Hill
#
# Bulk Modulus (GPa) = 22.36527 38.45163 30.40845
# Shear Modulus (GPa) = 29.06548 36.87697 32.97123
#
# Velocity S-wave (km/s) = 3.49908 3.94133 3.72678
# Velocity P-wave (km/s) = 5.07405 6.07533 5.59712
#
# Compressibility (1/GPa) = 0.04471218
#
# Stress axis : x y z
#
# Youngs Moduli (GPa) = 68.75986 48.99033 72.32183
#
# Poissons Ratio (x) = 0.21145 -0.09643
# Poissons Ratio (y) = 0.29678 -0.06853
# Poissons Ratio (z) = -0.09168 -0.04642
#
# Static dielectric constant tensor:
#      x y z
#    x 1.984400 0.096870 -0.093250 
#    y 0.096870 2.022740 -0.078650 
#    z -0.093250 -0.078650 1.904380 
# 
# From -- ./inp_files/608059.got.cif
#   From: 2010.05.17/outbox.cif.g08.bks.cpg/sg2_305_cif.got.tgz:608059.got - 2010.06.03 11:33:40.
