data_PCOD9014386
_publ_section_title
;
Structure prediction by ZEFSAII (Michael W. Deem and Ramdas Pophale) SiO2 
 PCOD9014386
Probable space group: P -1
;
_chemical_formula_sum "Si O2"
_cell_formula_units_Z 14
_cell_length_a 16.426435
_cell_length_b 8.750833
_cell_length_c 5.248822
_cell_angle_alpha 63.447242
_cell_angle_beta 109.195642
_cell_angle_gamma 130.638450
_cell_volume 511.356555
_symmetry_space_group_name_H-M "P -1"
_symmetry_group_IT_number 2
_symmetry_cell_setting 'triclinic'
loop_
_space_group_symop_operation_xyz
x,y,z
-x,-y,-z
loop_
_atom_site_type_symbol
_atom_site_label
_atom_site_fract_x
_atom_site_fract_y
_atom_site_fract_z
Si Si1 0.806311 0.223048 0.916376
Si Si2 0.150610 0.327190 0.274474
Si Si3 0.075528 0.959983 0.875607
Si Si4 0.678060 0.251012 0.406867
Si Si5 0.500186 0.170364 0.633806
Si Si6 0.277590 0.330783 0.039312
Si Si7 0.410308 0.224674 0.974890
O O1 0.829800 0.446826 0.853599
O O2 0.767724 0.216910 0.587787
O O3 0.901542 0.203987 0.089308
O O4 0.699135 0.997178 0.068820
O O5 0.049853 0.189641 0.074902
O O6 0.101975 0.156087 0.581222
O O7 0.261030 0.355587 0.300362
O O8 0.175459 0.087521 0.076115
O O9 0.610596 0.218474 0.617285
O O10 0.733155 0.490162 0.206617
O O11 0.587507 0.086218 0.234942
O O12 0.489800 0.289090 0.769529
O O13 0.453983 0.193849 0.304027
O O14 0.372439 0.360749 0.950604
#
# Coordination Sequence:
#
# PCOD9014386 Si02
#       7
#     2   2   2   2   2   2   2
#     4  10  21  41  67  96 130 176 220 275 334 408
#     4  11  22  41  69  93 135 171 223 275 340 403
#     4  10  23  42  63  99 132 170 220 282 337 401
#     4  10  22  41  67  92 134 174 226 272 342 394
#     4  10  23  43  64 101 132 182 225 281 334 405
#     4  11  23  40  64  95 131 178 219 284 329 411
#     4  10  24  40  68  98 139 175 229 277 338 396
#
# _framework density 27.378156000000001
#
# number of rings (size 3 to 8) (size 9 to 14) (size 15 to 20)
#    0.000    1.714    1.429    1.714    4.000    7.429 
#    2.571    0.714    0.000    0.000    0.000    0.000 
#    0.000    0.000    0.000    0.000    0.000    0.000 
#
# Total GULP energy -78036.527488 kJ/mol
# GULP energy per Si atom -5574.037678 kJ/mol
# Density = 2.731584 g / cm^3
# Si number density = 27.378156 Si / 1000 Ang^3
#
#
#
# Elastic Constant Matrix: (Units=GPa)
#
#
# Indices 1 2 3 4 5 6 
#
# 1 144.1006 33.0261 27.4290 -9.9974 -22.9193 -14.2704
# 2 33.0261 149.1300 16.9973 -13.6069 -4.0375 -12.5311
# 3 27.4290 16.9973 59.0388 -5.2945 -18.0851 -11.5481
# 4 -9.9974 -13.6069 -5.2945 40.8738 -10.3199 1.6994
# 5 -22.9193 -4.0375 -18.0851 -10.3199 45.6516 3.2609
# 6 -14.2704 -12.5311 -11.5481 1.6994 3.2609 44.9046
#
#
#
# Elastic Compliance Matrix: (Units=1/GPa)
#
#
# Indices 1 2 3 4 5 6 
#
# 1 0.008503 -0.001222 -0.001928 0.002324 0.003815 0.001500
# 2 -0.001222 0.007393 -0.001152 0.001941 -0.000071 0.001310
# 3 -0.001928 -0.001152 0.021776 0.003860 0.008149 0.003928
# 4 0.002324 0.001941 0.003860 0.028500 0.009273 0.000521
# 5 0.003815 -0.000071 0.008149 0.009273 0.029080 0.000826
# 6 0.001500 0.001310 0.003928 0.000521 0.000826 0.024042
#
#
# Mechanical properties :
#
#
# Convention : Reuss Voigt Hill
#
# Bulk Modulus (GPa) = 34.40225 56.35267 45.37746
# Shear Modulus (GPa) = 36.34053 44.60714 40.47384
#
# Velocity S-wave (km/s) = 3.64724 4.04083 3.84907
# Velocity P-wave (km/s) = 5.50721 6.51144 6.03027
#
# Compressibility (1/GPa) = 0.02906787
#
# Stress axis : x y z
#
# Youngs Moduli (GPa) = 117.60078 135.26851 45.92187
#
# Poissons Ratio (x) = 0.16529 0.08854
# Poissons Ratio (y) = 0.14370 0.05291
# Poissons Ratio (z) = 0.22675 0.15585
#
# Static dielectric constant tensor:
#      x y z
#    x 2.217820 -0.088700 -0.031720 
#    y -0.088700 2.274990 0.081820 
#    z -0.031720 0.081820 2.279580 
# 
# From -- ./inp_files/104763.got.cif
#   From: 2010.05.17/outbox.cif.g08.bks.cpg/sg2_53_cif.got.tgz:104763.got - 2010.06.03 11:33:40.
