data_PCOD9014628
_publ_section_title
;
Structure prediction by ZEFSAII (Michael W. Deem and Ramdas Pophale) SiO2 
 PCOD9014628
Probable space group: P -1
;
_chemical_formula_sum "Si O2"
_cell_formula_units_Z 14
_cell_length_a 16.691802
_cell_length_b 5.475355
_cell_length_c 8.208638
_cell_angle_alpha 88.812000
_cell_angle_beta 76.117663
_cell_angle_gamma 130.864767
_cell_volume 534.403838
_symmetry_space_group_name_H-M "P -1"
_symmetry_group_IT_number 2
_symmetry_cell_setting 'triclinic'
loop_
_space_group_symop_operation_xyz
x,y,z
-x,-y,-z
loop_
_atom_site_type_symbol
_atom_site_label
_atom_site_fract_x
_atom_site_fract_y
_atom_site_fract_z
Si Si1 0.748525 0.659168 0.558826
Si Si2 0.775986 0.363455 0.274837
Si Si3 0.596058 0.748887 0.575045
Si Si4 0.091918 0.240839 0.312115
Si Si5 0.794379 0.776514 0.021894
Si Si6 0.466479 0.684776 0.925171
Si Si7 0.074761 0.724870 0.736600
O O1 0.730439 0.503563 0.394325
O O2 0.644858 0.618146 0.655489
O O3 0.790206 0.515474 0.649209
O O4 0.854490 0.048770 0.461768
O O5 0.776064 0.456767 0.091968
O O6 0.899461 0.511565 0.256613
O O7 0.694084 0.002050 0.393681
O O8 0.500000 0.500000 0.500000
O O9 0.543316 0.838728 0.721543
O O10 0.042450 0.372391 0.235767
O O11 0.128209 0.094367 0.175949
O O12 0.000000 0.000000 0.500000
O O13 0.667341 0.605813 0.049304
O O14 0.867543 0.055676 0.125661
O O15 0.500000 0.500000 0.000000
O O16 0.500000 0.000000 0.000000
#
# Coordination Sequence:
#
# PCOD9014628 Si02
#       7
#     2   2   2   2   2   2   2
#     4   9  20  39  63  97 133 175 230 293 356 430
#     4  10  22  40  67  99 134 179 237 295 357 434
#     4  11  24  43  72  99 139 196 250 296 363 439
#     4  10  21  41  68  95 135 182 232 300 371 438
#     4  11  24  43  68  98 141 181 241 297 362 439
#     4  12  30  48  74 111 154 200 246 307 378 435
#     4   9  20  40  65  95 129 181 227 298 357 434
#
# _framework density 26.197417000000002
#
# number of rings (size 3 to 8) (size 9 to 14) (size 15 to 20)
#    0.000    1.714    0.000    3.857    8.000    2.286 
#    0.000    2.857    0.000    0.000    0.000    0.000 
#    0.000    0.000    0.000    0.000    0.000    0.000 
#
# Total GULP energy -78043.769039 kJ/mol
# GULP energy per Si atom -5574.554931 kJ/mol
# Density = 2.613779 g / cm^3
# Si number density = 26.197417 Si / 1000 Ang^3
#
#
#
# Elastic Constant Matrix: (Units=GPa)
#
#
# Indices 1 2 3 4 5 6 
#
# 1 230.1931 39.0416 53.7874 -4.0999 -15.8698 12.1271
# 2 39.0416 51.6545 32.1813 5.3824 -8.5316 5.4984
# 3 53.7874 32.1813 148.3419 19.8559 -25.4291 9.6583
# 4 -4.0999 5.3824 19.8559 35.8113 -6.3698 -7.7747
# 5 -15.8698 -8.5316 -25.4291 -6.3698 49.2762 -2.7020
# 6 12.1271 5.4984 9.6583 -7.7747 -2.7020 42.9931
#
#
#
# Elastic Compliance Matrix: (Units=1/GPa)
#
#
# Indices 1 2 3 4 5 6 
#
# 1 0.005302 -0.003217 -0.001330 0.001861 0.000682 -0.000406
# 2 -0.003217 0.024614 -0.003581 -0.002296 0.000983 -0.001789
# 3 -0.001330 -0.003581 0.009262 -0.004621 0.003030 -0.001893
# 4 0.001861 -0.002296 -0.004621 0.032986 0.002461 0.006926
# 5 0.000682 0.000983 0.003030 0.002461 0.022613 0.000867
# 6 -0.000406 -0.001789 -0.001893 0.006926 0.000867 0.025335
#
#
# Mechanical properties :
#
#
# Convention : Reuss Voigt Hill
#
# Bulk Modulus (GPa) = 43.62794 75.57890 59.60342
# Shear Modulus (GPa) = 34.72016 45.96139 40.34078
#
# Velocity S-wave (km/s) = 3.64445 4.19313 3.92838
# Velocity P-wave (km/s) = 5.86507 7.23571 6.58614
#
# Compressibility (1/GPa) = 0.02292109
#
# Stress axis : x y z
#
# Youngs Moduli (GPa) = 188.60094 40.62779 107.97209
#
# Poissons Ratio (x) = 0.13069 0.14365
# Poissons Ratio (y) = 0.60667 0.38666
# Poissons Ratio (z) = 0.25092 0.14549
#
# Static dielectric constant tensor:
#      x y z
#    x 3.251420 1.102290 -0.195650 
#    y 1.102290 3.409760 -0.269480 
#    z -0.195650 -0.269480 2.147900 
# 
# From -- ./inp_files/52605.got.cif
#   From: 2010.05.17/outbox.cif.g08.bks.cpg/sg2_27_cif.got.tgz:52605.got - 2010.06.03 11:33:40.
