data_PCOD9014926
_publ_section_title
;
Structure prediction by ZEFSAII (Michael W. Deem and Ramdas Pophale) SiO2 
 PCOD9014926
Probable space group: P -1
;
_chemical_formula_sum "Si O2"
_cell_formula_units_Z 12
_cell_length_a 10.806101
_cell_length_b 4.865532
_cell_length_c 11.013070
_cell_angle_alpha 95.343077
_cell_angle_beta 124.124235
_cell_angle_gamma 81.701055
_cell_volume 474.270199
_symmetry_space_group_name_H-M "P -1"
_symmetry_group_IT_number 2
_symmetry_cell_setting 'triclinic'
loop_
_space_group_symop_operation_xyz
x,y,z
-x,-y,-z
loop_
_atom_site_type_symbol
_atom_site_label
_atom_site_fract_x
_atom_site_fract_y
_atom_site_fract_z
Si Si1 0.050619 0.673608 0.867525
Si Si2 0.188470 0.162072 0.056324
Si Si3 0.637653 0.155300 0.537033
Si Si4 0.120179 0.817319 0.642764
Si Si5 0.296038 0.230322 0.655949
Si Si6 0.429364 0.537180 0.265012
O O1 0.900542 0.781330 0.863166
O O2 0.053157 0.741906 0.731343
O O3 0.090735 0.352850 0.911130
O O4 0.180571 0.845529 0.002627
O O5 0.344424 0.291540 0.155162
O O6 0.728926 0.935971 0.490204
O O7 0.565378 0.396008 0.418887
O O8 0.683663 0.292084 0.693253
O O9 0.500000 0.000000 0.500000
O O10 0.252391 0.020664 0.728024
O O11 0.809697 0.479484 0.383573
O O12 0.000000 0.000000 0.500000
O O13 0.470843 0.288872 0.759054
#
# Coordination Sequence:
#
# PCOD9014926 Si02
#       6
#     2   2   2   2   2   2
#     4  10  24  47  67 101 133 176 244 279 329 423
#     4  10  23  45  74  96 133 181 230 293 338 395
#     4   9  20  37  64 101 141 170 225 289 327 411
#     4  12  26  46  72  95 143 187 226 280 353 413
#     4  11  23  44  64 105 138 175 230 285 334 424
#     4  10  21  41  70 101 138 179 227 287 351 388
#
# _framework density 25.302033000000002
#
# number of rings (size 3 to 8) (size 9 to 14) (size 15 to 20)
#    0.000    1.667    1.667    1.500    4.667    4.000 
#    9.000    5.000    0.000    0.000    0.000    0.000 
#    0.000    0.000    0.000    0.000    0.000    0.000 
#
# Total GULP energy -67105.843028 kJ/mol
# GULP energy per Si atom -5592.153586 kJ/mol
# Density = 2.524444 g / cm^3
# Si number density = 25.302033 Si / 1000 Ang^3
#
#
#
# Elastic Constant Matrix: (Units=GPa)
#
#
# Indices 1 2 3 4 5 6 
#
# 1 136.2628 54.2616 40.9300 -15.5159 -17.6044 10.3813
# 2 54.2616 151.0838 15.4997 -7.2483 -2.8680 -5.0250
# 3 40.9300 15.4997 62.9402 -8.7109 -5.8327 0.1513
# 4 -15.5159 -7.2483 -8.7109 46.0554 16.4120 -2.4004
# 5 -17.6044 -2.8680 -5.8327 16.4120 32.7741 1.4993
# 6 10.3813 -5.0250 0.1513 -2.4004 1.4993 64.2691
#
#
#
# Elastic Compliance Matrix: (Units=1/GPa)
#
#
# Indices 1 2 3 4 5 6 
#
# 1 0.011314 -0.003411 -0.006032 0.000375 0.004617 -0.002174
# 2 -0.003411 0.007867 0.000239 0.000743 -0.001530 0.001229
# 3 -0.006032 0.000239 0.019970 0.002111 -0.000770 0.001043
# 4 0.000375 0.000743 0.002111 0.027042 -0.012959 0.001305
# 5 0.004617 -0.001530 -0.000770 -0.012959 0.039314 -0.002265
# 6 -0.002174 0.001229 0.001043 0.001305 -0.002265 0.016106
#
#
# Mechanical properties :
#
#
# Convention : Reuss Voigt Hill
#
# Bulk Modulus (GPa) = 48.21053 63.51882 55.86468
# Shear Modulus (GPa) = 34.02860 44.59277 39.31068
#
# Velocity S-wave (km/s) = 3.67126 4.20267 3.94592
# Velocity P-wave (km/s) = 6.08821 6.97916 6.54885
#
# Compressibility (1/GPa) = 0.02074236
#
# Stress axis : x y z
#
# Youngs Moduli (GPa) = 88.38693 127.11442 50.07414
#
# Poissons Ratio (x) = 0.43361 0.30207
# Poissons Ratio (y) = 0.30150 -0.01197
# Poissons Ratio (z) = 0.53318 -0.03040
#
# Static dielectric constant tensor:
#      x y z
#    x 2.096130 0.027640 0.021550 
#    y 0.027640 2.064370 -0.005290 
#    z 0.021550 -0.005290 2.070040 
# 
# From -- ./inp_files/362410.got.cif
#   From: 2010.05.17/outbox.cif.g08.bks.cpg/sg2_182_cif.got.tgz:362410.got - 2010.06.03 11:33:40.
