data_PCOD9014051
_publ_section_title
;
Structure prediction by ZEFSAII (Michael W. Deem and Ramdas Pophale) SiO2 
 PCOD9014051
Probable space group: P -1
;
_chemical_formula_sum "Si O2"
_cell_formula_units_Z 14
_cell_length_a 9.225245
_cell_length_b 17.265974
_cell_length_c 19.011471
_cell_angle_alpha 151.327499
_cell_angle_beta 27.242716
_cell_angle_gamma 143.077262
_cell_volume 662.500767
_symmetry_space_group_name_H-M "P -1"
_symmetry_group_IT_number 2
_symmetry_cell_setting 'triclinic'
loop_
_space_group_symop_operation_xyz
x,y,z
-x,-y,-z
loop_
_atom_site_type_symbol
_atom_site_label
_atom_site_fract_x
_atom_site_fract_y
_atom_site_fract_z
Si Si1 0.371217 0.350749 0.328723
Si Si2 0.172515 0.178500 0.062575
Si Si3 0.222860 0.490661 0.828936
Si Si4 0.776011 0.252526 0.423096
Si Si5 0.324348 0.930564 0.330140
Si Si6 0.790906 0.390161 0.801451
Si Si7 0.200941 0.616679 0.707081
O O1 0.595576 0.354023 0.165622
O O2 0.354422 0.538907 0.510750
O O3 0.560462 0.290293 0.266183
O O4 0.017943 0.276426 0.403525
O O5 0.028102 0.268693 0.262380
O O6 0.051157 0.267119 0.117221
O O7 0.533788 0.154792 0.868340
O O8 0.000000 0.000000 0.000000
O O9 0.510509 0.380870 0.636946
O O10 0.979036 0.427879 0.822940
O O11 0.000000 0.500000 0.000000
O O12 0.574293 0.079495 0.364379
O O13 0.292051 0.801228 0.304926
O O14 0.000000 0.000000 0.500000
O O15 0.029684 0.457664 0.691423
O O16 0.500000 0.500000 0.000000
#
# Coordination Sequence:
#
# PCOD9014051 Si02
#       7
#     2   2   2   2   2   2   2
#     4  10  23  39  66  95 133 172 222 275 333 393
#     4  10  22  39  67  93 130 177 224 271 332 403
#     4  11  24  38  66 102 134 170 222 284 330 386
#     4  11  23  41  65  99 131 178 227 273 330 400
#     4  11  23  42  65  98 136 175 222 275 335 396
#     4  11  23  40  68  96 134 177 220 273 338 392
#     4  10  21  41  66  95 131 177 222 272 331 402
#
# _framework density 21.132051000000001
#
# number of rings (size 3 to 8) (size 9 to 14) (size 15 to 20)
#    0.000    1.429    4.286    0.429    4.000    0.000 
#    0.000    3.571    0.000    0.000    0.000    0.000 
#    0.000    0.000    0.000    0.000    0.000    0.000 
#
# Total GULP energy -77939.513407 kJ/mol
# GULP energy per Si atom -5567.108100 kJ/mol
# Density = 2.108395 g / cm^3
# Si number density = 21.132051 Si / 1000 Ang^3
#
#
#
# Elastic Constant Matrix: (Units=GPa)
#
#
# Indices 1 2 3 4 5 6 
#
# 1 121.5298 56.8209 55.2270 -10.0782 -8.5681 19.0509
# 2 56.8209 107.4965 25.0256 -8.4754 -10.4454 -0.4700
# 3 55.2270 25.0256 134.9950 -31.6503 -19.0030 -6.0361
# 4 -10.0782 -8.4754 -31.6503 27.5001 -3.3905 -3.5176
# 5 -8.5681 -10.4454 -19.0030 -3.3905 36.3698 -6.1591
# 6 19.0509 -0.4700 -6.0361 -3.5176 -6.1591 42.2480
#
#
#
# Elastic Compliance Matrix: (Units=1/GPa)
#
#
# Indices 1 2 3 4 5 6 
#
# 1 0.016097 -0.007765 -0.008111 -0.007719 -0.005070 -0.009886
# 2 -0.007765 0.013714 0.003071 0.006245 0.005206 0.005372
# 3 -0.008111 0.003071 0.016825 0.019921 0.011209 0.009388
# 4 -0.007719 0.006245 0.019921 0.062516 0.018636 0.014318
# 5 -0.005070 0.005206 0.011209 0.018636 0.037241 0.010926
# 6 -0.009886 0.005372 0.009388 0.014318 0.010926 0.032314
#
#
# Mechanical properties :
#
#
# Convention : Reuss Voigt Hill
#
# Bulk Modulus (GPa) = 47.55911 70.90759 59.23335
# Shear Modulus (GPa) = 23.66045 36.35344 30.00695
#
# Velocity S-wave (km/s) = 3.34974 4.15215 3.77234
# Velocity P-wave (km/s) = 6.12500 7.52426 6.86040
#
# Compressibility (1/GPa) = 0.02102646
#
# Stress axis : x y z
#
# Youngs Moduli (GPa) = 62.12365 72.92056 59.43572
#
# Poissons Ratio (x) = 0.56620 0.48210
# Poissons Ratio (y) = 0.48237 -0.18255
# Poissons Ratio (z) = 0.50390 -0.22397
#
# Static dielectric constant tensor:
#      x y z
#    x 1.809230 0.018810 0.036440 
#    y 0.018810 1.816870 -0.029070 
#    z 0.036440 -0.029070 1.849340 
# 
# From -- ./inp_files/181210.got.cif
#   From: 2010.05.17/outbox.cif.g08.bks.cpg/sg2_91_cif.got.tgz:181210.got - 2010.06.03 11:33:40.
