data_PCOD9014780
_publ_section_title
;
Structure prediction by ZEFSAII (Michael W. Deem and Ramdas Pophale) SiO2 
 PCOD9014780
Probable space group: P -1
;
_chemical_formula_sum "Si O2"
_cell_formula_units_Z 14
_cell_length_a 14.790625
_cell_length_b 26.400441
_cell_length_c 15.057658
_cell_angle_alpha 19.822565
_cell_angle_beta 28.188209
_cell_angle_gamma 19.193891
_cell_volume 654.199284
_symmetry_space_group_name_H-M "P -1"
_symmetry_group_IT_number 2
_symmetry_cell_setting 'triclinic'
loop_
_space_group_symop_operation_xyz
x,y,z
-x,-y,-z
loop_
_atom_site_type_symbol
_atom_site_label
_atom_site_fract_x
_atom_site_fract_y
_atom_site_fract_z
Si Si1 0.237345 0.035481 0.485737
Si Si2 0.952992 0.958884 0.743696
Si Si3 0.868453 0.521397 0.986790
Si Si4 0.097264 0.674968 0.226178
Si Si5 0.215547 0.862386 0.960945
Si Si6 0.306609 0.645777 0.793188
Si Si7 0.825929 0.628114 0.662740
O O1 0.035698 0.275635 0.231838
O O2 0.185434 0.925530 0.647424
O O3 0.561428 0.883044 0.457011
O O4 0.172944 0.020589 0.666349
O O5 0.084119 0.809749 0.790014
O O6 0.876395 0.878580 0.016524
O O7 0.738653 0.204791 0.491429
O O8 0.535995 0.687678 0.003192
O O9 0.930547 0.592279 0.731549
O O10 0.000000 0.500000 0.000000
O O11 0.159947 0.747214 0.137802
O O12 0.375707 0.509232 0.200913
O O13 0.019294 0.561794 0.523550
O O14 0.000000 0.000000 0.000000
O O15 0.265210 0.494478 0.055666
#
# Coordination Sequence:
#
# PCOD9014780 Si02
#       7
#     2   2   2   2   2   2   2
#     4  10  21  42  63  88 131 166 213 259 323 375
#     4  10  21  41  69  88 128 172 203 266 322 375
#     4  11  24  42  64  91 129 173 212 264 325 376
#     4  11  23  41  63  93 130 165 210 265 319 378
#     4  10  23  41  62  91 127 167 216 265 316 384
#     4  11  21  44  64  93 129 165 214 260 320 381
#     4  11  24  40  65  95 128 166 215 268 309 389
#
# _framework density 21.400206000000001
#
# number of rings (size 3 to 8) (size 9 to 14) (size 15 to 20)
#    0.000    1.429    5.714    0.429    4.000    3.429 
#    2.571    1.429    0.000    0.000    0.000    0.000 
#    0.000    0.000    0.000    0.000    0.000    0.000 
#
# Total GULP energy -78060.216030 kJ/mol
# GULP energy per Si atom -5575.729716 kJ/mol
# Density = 2.135150 g / cm^3
# Si number density = 21.400206 Si / 1000 Ang^3
#
#
#
# Elastic Constant Matrix: (Units=GPa)
#
#
# Indices 1 2 3 4 5 6 
#
# 1 41.4782 -2.3160 13.8931 -8.5548 18.2903 -3.2522
# 2 -2.3160 57.6076 39.6583 -5.6139 7.7945 2.5898
# 3 13.8931 39.6583 107.3445 -5.6300 30.7618 -14.4835
# 4 -8.5548 -5.6139 -5.6300 35.6207 -1.7602 8.0935
# 5 18.2903 7.7945 30.7618 -1.7602 29.4419 -13.4521
# 6 -3.2522 2.5898 -14.4835 8.0935 -13.4521 23.1275
#
#
#
# Elastic Compliance Matrix: (Units=1/GPa)
#
#
# Indices 1 2 3 4 5 6 
#
# 1 0.043098 0.009775 -0.000474 0.015143 -0.038474 -0.023009
# 2 0.009775 0.028018 -0.010734 0.008456 -0.009532 -0.016988
# 3 -0.000474 -0.010734 0.017752 -0.000745 -0.013264 0.004798
# 4 0.015143 0.008456 -0.000745 0.037341 -0.019446 -0.023663
# 5 -0.038474 -0.009532 -0.013264 -0.019446 0.095903 0.049938
# 6 -0.023009 -0.016988 0.004798 -0.023663 0.049938 0.082237
#
#
# Mechanical properties :
#
#
# Convention : Reuss Voigt Hill
#
# Bulk Modulus (GPa) = 11.62746 34.32236 22.97491
# Shear Modulus (GPa) = 14.88612 27.98435 21.43523
#
# Velocity S-wave (km/s) = 2.64030 3.62009 3.16830
# Velocity P-wave (km/s) = 3.83927 5.79194 4.91358
#
# Compressibility (1/GPa) = 0.08600329
#
# Stress axis : x y z
#
# Youngs Moduli (GPa) = 23.20267 35.69080 56.33138
#
# Poissons Ratio (x) = -0.34887 0.02670
# Poissons Ratio (y) = -0.22680 0.60464
# Poissons Ratio (z) = 0.01100 0.38309
#
# Static dielectric constant tensor:
#      x y z
#    x 1.828630 0.008830 -0.014410 
#    y 0.008830 1.757310 0.014980 
#    z -0.014410 0.014980 1.834010 
# 
# From -- ./inp_files/348562.got.cif
#   From: 2010.05.17/outbox.cif.g08.bks.cpg/sg2_175_cif.got.tgz:348562.got - 2010.06.03 11:33:40.
