data_PCOD9014203
_publ_section_title
;
Structure prediction by ZEFSAII (Michael W. Deem and Ramdas Pophale) SiO2 
 PCOD9014203
Probable space group: P -1
;
_chemical_formula_sum "Si O2"
_cell_formula_units_Z 16
_cell_length_a 19.069111
_cell_length_b 10.760084
_cell_length_c 9.132752
_cell_angle_alpha 40.869113
_cell_angle_beta 102.605224
_cell_angle_gamma 133.500418
_cell_volume 685.669061
_symmetry_space_group_name_H-M "P -1"
_symmetry_group_IT_number 2
_symmetry_cell_setting 'triclinic'
loop_
_space_group_symop_operation_xyz
x,y,z
-x,-y,-z
loop_
_atom_site_type_symbol
_atom_site_label
_atom_site_fract_x
_atom_site_fract_y
_atom_site_fract_z
Si Si1 0.954837 0.631457 0.695578
Si Si2 0.163161 0.927248 0.319980
Si Si3 0.227319 0.779156 0.253795
Si Si4 0.868183 0.815040 0.145025
Si Si5 0.410672 0.358690 0.224555
Si Si6 0.549051 0.502479 0.376724
Si Si7 0.904543 0.957775 0.343214
Si Si8 0.382854 0.608447 0.253292
O O1 0.817561 0.294336 0.869560
O O2 0.963837 0.875872 0.444923
O O3 0.049839 0.727031 0.552027
O O4 0.002960 0.718650 0.803969
O O5 0.278311 0.109669 0.309868
O O6 0.141899 0.714860 0.382173
O O7 0.185651 0.169912 0.020859
O O8 0.220635 0.548902 0.512254
O O9 0.360713 0.167921 0.969803
O O10 0.898334 0.006920 0.129712
O O11 0.000000 0.000000 0.000000
O O12 0.431895 0.222714 0.464032
O O13 0.417416 0.549912 0.179139
O O14 0.500000 0.500000 0.000000
O O15 0.500000 0.500000 0.500000
O O16 0.627130 0.509519 0.484090
O O17 0.760654 0.634273 0.625283
O O18 0.500000 0.000000 0.000000
#
# Coordination Sequence:
#
# PCOD9014203 Si02
#       8
#     2   2   2   2   2   2   2   2
#     4  10  22  39  69 102 143 181 234 290 355 430
#     4  12  22  46  70 104 145 188 232 298 359 428
#     4  11  23  44  74  99 147 191 234 287 369 427
#     4  11  24  42  71 107 143 188 237 290 358 432
#     4  11  24  46  71  98 148 186 241 305 354 422
#     4  10  24  46  68  99 139 188 238 294 354 431
#     4  10  21  41  67 103 144 176 235 302 346 427
#     4  11  25  46  77 103 138 191 245 296 367 426
#
# _framework density 23.334873000000002
#
# number of rings (size 3 to 8) (size 9 to 14) (size 15 to 20)
#    0.000    1.250    5.000    1.125    7.000    0.000 
#    2.250    6.250    0.000    0.000    0.000    0.000 
#    0.000    0.000    0.000    0.000    0.000    0.000 
#
# Total GULP energy -89110.141853 kJ/mol
# GULP energy per Si atom -5569.383866 kJ/mol
# Density = 2.328176 g / cm^3
# Si number density = 23.334873 Si / 1000 Ang^3
#
#
#
# Elastic Constant Matrix: (Units=GPa)
#
#
# Indices 1 2 3 4 5 6 
#
# 1 107.4014 30.4711 10.7221 2.9495 -7.1526 -0.5528
# 2 30.4711 166.2350 14.7607 18.3073 5.1784 4.0623
# 3 10.7221 14.7607 65.5627 10.2578 14.0999 -0.4248
# 4 2.9495 18.3073 10.2578 27.0857 -6.3054 -1.5920
# 5 -7.1526 5.1784 14.0999 -6.3054 34.5205 5.8569
# 6 -0.5528 4.0623 -0.4248 -1.5920 5.8569 46.4969
#
#
#
# Elastic Compliance Matrix: (Units=1/GPa)
#
#
# Indices 1 2 3 4 5 6 
#
# 1 0.010316 -0.002018 -0.002365 0.002012 0.003796 -0.000132
# 2 -0.002018 0.007031 0.000049 -0.005127 -0.002341 -0.000518
# 3 -0.002365 0.000049 0.019326 -0.009428 -0.010303 0.001119
# 4 0.002012 -0.005127 -0.009428 0.046909 0.013557 0.000284
# 5 0.003796 -0.002341 -0.010303 0.013557 0.037487 -0.004102
# 6 -0.000132 -0.000518 0.001119 0.000284 -0.004102 0.022087
#
#
# Mechanical properties :
#
#
# Convention : Reuss Voigt Hill
#
# Bulk Modulus (GPa) = 35.70471 50.12298 42.91385
# Shear Modulus (GPa) = 31.02526 40.50363 35.76444
#
# Velocity S-wave (km/s) = 3.65028 4.17076 3.91917
# Velocity P-wave (km/s) = 5.75328 6.68731 6.23780
#
# Compressibility (1/GPa) = 0.02800751
#
# Stress axis : x y z
#
# Youngs Moduli (GPa) = 96.93451 142.22192 51.74293
#
# Poissons Ratio (x) = 0.28694 0.12237
# Poissons Ratio (y) = 0.19557 -0.00255
# Poissons Ratio (z) = 0.22924 -0.00701
#
# Static dielectric constant tensor:
#      x y z
#    x 2.002590 0.053290 0.022360 
#    y 0.053290 1.954980 -0.012460 
#    z 0.022360 -0.012460 1.907130 
# 
# From -- ./inp_files/345871.got.cif
#   From: 2010.05.17/outbox.cif.g08.bks.cpg/sg2_173_cif.got.tgz:345871.got - 2010.06.03 11:33:40.
