data_PCOD9014060
_publ_section_title
;
Structure prediction by ZEFSAII (Michael W. Deem and Ramdas Pophale) SiO2 
 PCOD9014060
Probable space group: P -1
;
_chemical_formula_sum "Si O2"
_cell_formula_units_Z 16
_cell_length_a 9.046522
_cell_length_b 19.719461
_cell_length_c 12.280569
_cell_angle_alpha 40.366561
_cell_angle_beta 32.603563
_cell_angle_gamma 48.065659
_cell_volume 762.342487
_symmetry_space_group_name_H-M "P -1"
_symmetry_group_IT_number 2
_symmetry_cell_setting 'triclinic'
loop_
_space_group_symop_operation_xyz
x,y,z
-x,-y,-z
loop_
_atom_site_type_symbol
_atom_site_label
_atom_site_fract_x
_atom_site_fract_y
_atom_site_fract_z
Si Si1 0.819894 0.366931 0.190418
Si Si2 0.796256 0.981095 0.783959
Si Si3 0.415402 0.456122 0.724987
Si Si4 0.728849 0.912383 0.511208
Si Si5 0.531303 0.377130 0.130825
Si Si6 0.220489 0.845480 0.587373
Si Si7 0.190744 0.210895 0.600545
Si Si8 0.637292 0.266686 0.969876
O O1 0.614622 0.445504 0.291700
O O2 0.737878 0.355221 0.129478
O O3 0.811886 0.244226 0.374386
O O4 0.112562 0.413726 0.956605
O O5 0.941260 0.865517 0.807531
O O6 0.749798 0.044640 0.623849
O O7 0.033848 0.033365 0.639991
O O8 0.500000 0.000000 0.000000
O O9 0.500000 0.500000 0.500000
O O10 0.584751 0.355823 0.799472
O O11 0.861605 0.852195 0.397991
O O12 0.500000 0.000000 0.500000
O O13 0.579204 0.823259 0.780767
O O14 0.240741 0.331128 0.394106
O O15 0.500000 0.500000 0.000000
O O16 0.620344 0.326145 0.023482
O O17 0.506873 0.827288 0.496730
O O18 0.938704 0.208850 0.839980
#
# Coordination Sequence:
#
# PCOD9014060 Si02
#       8
#     2   2   2   2   2   2   2   2
#     4  10  23  43  65  89 137 174 217 288 336 396
#     4  11  25  42  71  95 132 174 226 279 350 405
#     4  11  25  41  65  97 133 181 225 273 339 413
#     4  11  24  45  68  98 139 178 227 289 339 410
#     4  10  21  41  66  95 135 176 223 285 331 395
#     4  10  23  44  62  98 131 171 222 286 337 400
#     4  10  24  40  69  98 135 179 227 278 342 409
#     4  11  25  42  68 102 137 182 232 276 345 408
#
# _framework density 20.987942
#
# number of rings (size 3 to 8) (size 9 to 14) (size 15 to 20)
#    0.000    1.500    2.500    0.750    3.500    9.000 
#    0.000    0.000    0.000    0.000    0.000    0.000 
#    0.000    0.000    0.000    0.000    0.000    0.000 
#
# Total GULP energy -89182.813930 kJ/mol
# GULP energy per Si atom -5573.925871 kJ/mol
# Density = 2.094017 g / cm^3
# Si number density = 20.987942 Si / 1000 Ang^3
#
#
#
# Elastic Constant Matrix: (Units=GPa)
#
#
# Indices 1 2 3 4 5 6 
#
# 1 88.2314 23.8973 25.8491 0.8148 -6.4339 1.2483
# 2 23.8973 100.8372 48.3290 -1.4989 -13.6674 1.4211
# 3 25.8491 48.3290 73.4947 22.8403 3.8637 0.3395
# 4 0.8148 -1.4989 22.8403 33.1719 -4.1084 -7.3449
# 5 -6.4339 -13.6674 3.8637 -4.1084 25.8615 -9.6198
# 6 1.2483 1.4211 0.3395 -7.3449 -9.6198 30.5989
#
#
#
# Elastic Compliance Matrix: (Units=1/GPa)
#
#
# Indices 1 2 3 4 5 6 
#
# 1 0.014111 0.003011 -0.010329 0.009160 0.009846 0.004693
# 2 0.003011 0.028091 -0.030314 0.029296 0.030561 0.015549
# 3 -0.010329 -0.030314 0.055116 -0.049943 -0.043898 -0.024571
# 4 0.009160 0.029296 -0.049943 0.079330 0.050358 0.033694
# 5 0.009846 0.030561 -0.043898 0.050358 0.085868 0.037750
# 6 0.004693 0.015549 -0.024571 0.033694 0.037750 0.051996
#
#
# Mechanical properties :
#
#
# Convention : Reuss Voigt Hill
#
# Bulk Modulus (GPa) = 45.34413 50.96825 48.15619
# Shear Modulus (GPa) = 12.59042 28.89232 20.74137
#
# Velocity S-wave (km/s) = 2.45192 3.71430 3.14706
# Velocity P-wave (km/s) = 5.44680 6.53697 6.01663
#
# Compressibility (1/GPa) = 0.02205357
#
# Stress axis : x y z
#
# Youngs Moduli (GPa) = 70.86447 35.59885 18.14371
#
# Poissons Ratio (x) = -0.10718 0.18741
# Poissons Ratio (y) = -0.21335 0.55001
# Poissons Ratio (z) = 0.73196 1.07914
#
# Static dielectric constant tensor:
#      x y z
#    x 1.605410 0.219820 -0.103310 
#    y 0.219820 1.552440 0.187890 
#    z -0.103310 0.187890 1.646760 
# 
# From -- ./inp_files/49320.got.cif
#   From: 2010.05.17/outbox.cif.g08.bks.cpg/sg2_25_cif.got.tgz:49320.got - 2010.06.03 11:33:40.
