data_PCOD9014765
_publ_section_title
;
Structure prediction by ZEFSAII (Michael W. Deem and Ramdas Pophale) SiO2 
 PCOD9014765
Probable space group: P -1
;
_chemical_formula_sum "Si O2"
_cell_formula_units_Z 16
_cell_length_a 9.002825
_cell_length_b 16.404618
_cell_length_c 9.202704
_cell_angle_alpha 115.982798
_cell_angle_beta 135.085663
_cell_angle_gamma 40.422453
_cell_volume 606.894530
_symmetry_space_group_name_H-M "P -1"
_symmetry_group_IT_number 2
_symmetry_cell_setting 'triclinic'
loop_
_space_group_symop_operation_xyz
x,y,z
-x,-y,-z
loop_
_atom_site_type_symbol
_atom_site_label
_atom_site_fract_x
_atom_site_fract_y
_atom_site_fract_z
Si Si1 0.131154 0.354037 0.150392
Si Si2 0.296100 0.494710 0.261728
Si Si3 0.156926 0.546557 0.664028
Si Si4 0.805471 0.149454 0.483473
Si Si5 0.756339 0.260022 0.845022
Si Si6 0.327038 0.905568 0.232956
Si Si7 0.126785 0.736439 0.638538
Si Si8 0.677145 0.909560 0.713409
O O1 0.970226 0.383676 0.213872
O O2 0.471014 0.219745 0.271450
O O3 0.161623 0.455039 0.233254
O O4 0.954116 0.378173 0.903656
O O5 0.500000 0.500000 0.500000
O O6 0.491033 0.585019 0.197637
O O7 0.510585 0.380473 0.200787
O O8 0.062027 0.649848 0.558341
O O9 0.000000 0.500000 0.500000
O O10 0.614857 0.219199 0.808503
O O11 0.914128 0.190702 0.475061
O O12 0.000000 0.000000 0.500000
O O13 0.555713 0.090111 0.522312
O O14 0.780948 0.209754 0.664104
O O15 0.101873 0.173330 0.062661
O O16 0.465673 0.945456 0.263864
O O17 0.000000 0.000000 0.000000
O O18 0.939831 0.838686 0.717000
#
# Coordination Sequence:
#
# PCOD9014765 Si02
#       8
#     2   2   2   2   2   2   2   2
#     4  10  23  44  70 106 148 196 245 310 373 444
#     4  10  22  43  69 103 149 194 242 303 381 451
#     4  12  23  42  71 112 149 193 253 315 383 444
#     4  11  25  49  74 106 154 203 252 309 377 458
#     4  11  23  41  71 106 148 192 247 314 374 449
#     4   9  20  41  69 101 141 190 245 306 367 432
#     4  11  25  43  70 108 149 195 250 309 379 454
#     4  10  21  41  69 105 142 190 255 309 367 441
#
# _framework density 26.363724000000001
#
# number of rings (size 3 to 8) (size 9 to 14) (size 15 to 20)
#    0.000    1.500    1.250    3.000    1.750    2.000 
#    0.000    6.250    0.000   10.500    0.000    0.000 
#    0.000    0.000    0.000    0.000    0.000    0.000 
#
# Total GULP energy -89284.224629 kJ/mol
# GULP energy per Si atom -5580.264039 kJ/mol
# Density = 2.630372 g / cm^3
# Si number density = 26.363724 Si / 1000 Ang^3
#
#
#
# Elastic Constant Matrix: (Units=GPa)
#
#
# Indices 1 2 3 4 5 6 
#
# 1 146.3889 61.5385 61.2101 -1.5638 5.1018 8.2755
# 2 61.5385 180.3312 47.3971 -24.4132 -4.1592 22.6837
# 3 61.2101 47.3971 143.9644 -26.3168 40.9729 2.9881
# 4 -1.5638 -24.4132 -26.3168 43.4097 7.1118 7.0578
# 5 5.1018 -4.1592 40.9729 7.1118 54.2201 6.6542
# 6 8.2755 22.6837 2.9881 7.0578 6.6542 52.6156
#
#
#
# Elastic Compliance Matrix: (Units=1/GPa)
#
#
# Indices 1 2 3 4 5 6 
#
# 1 0.009941 -0.002601 -0.005245 -0.004862 0.003457 0.000071
# 2 -0.002601 0.007743 -0.001112 0.003908 0.001607 -0.003594
# 3 -0.005245 -0.001112 0.014848 0.010082 -0.012215 0.000653
# 4 -0.004862 0.003908 0.010082 0.033683 -0.010708 -0.004657
# 5 0.003457 0.001607 -0.012215 -0.010708 0.029220 -0.002802
# 6 0.000071 -0.003594 0.000653 -0.004657 -0.002802 0.021486
#
#
# Mechanical properties :
#
#
# Convention : Reuss Voigt Hill
#
# Bulk Modulus (GPa) = 68.41352 90.10842 79.26097
# Shear Modulus (GPa) = 35.78872 50.08502 42.93687
#
# Velocity S-wave (km/s) = 3.68842 4.36336 4.04001
# Velocity P-wave (km/s) = 6.64421 7.72259 7.20361
#
# Compressibility (1/GPa) = 0.01461699
#
# Stress axis : x y z
#
# Youngs Moduli (GPa) = 100.59161 129.14073 67.34992
#
# Poissons Ratio (x) = 0.33595 0.35322
# Poissons Ratio (y) = 0.26168 0.07488
# Poissons Ratio (z) = 0.52756 0.14358
#
# Static dielectric constant tensor:
#      x y z
#    x 2.113360 0.041360 -0.001100 
#    y 0.041360 2.213090 -0.049300 
#    z -0.001100 -0.049300 2.129230 
# 
# From -- ./inp_files/275608.got.cif
#   From: 2010.05.17/outbox.cif.g08.bks.cpg/sg2_138_cif.got.tgz:275608.got - 2010.06.03 11:33:40.
