data_PCOD9014373
_publ_section_title
;
Structure prediction by ZEFSAII (Michael W. Deem and Ramdas Pophale) SiO2 
 PCOD9014373
Probable space group: P -1
;
_chemical_formula_sum "Si O2"
_cell_formula_units_Z 16
_cell_length_a 7.178509
_cell_length_b 7.238138
_cell_length_c 19.996198
_cell_angle_alpha 92.479753
_cell_angle_beta 142.725797
_cell_angle_gamma 87.326824
_cell_volume 628.522357
_symmetry_space_group_name_H-M "P -1"
_symmetry_group_IT_number 2
_symmetry_cell_setting 'triclinic'
loop_
_space_group_symop_operation_xyz
x,y,z
-x,-y,-z
loop_
_atom_site_type_symbol
_atom_site_label
_atom_site_fract_x
_atom_site_fract_y
_atom_site_fract_z
Si Si1 0.770627 0.819296 0.494062
Si Si2 0.864015 0.261144 0.267463
Si Si3 0.204922 0.799388 0.179960
Si Si4 0.126920 0.132499 0.776743
Si Si5 0.726733 0.083704 0.006718
Si Si6 0.735972 0.634006 0.822403
Si Si7 0.719885 0.416758 0.619408
Si Si8 0.419197 0.889375 0.637024
O O1 0.546125 0.655076 0.409393
O O2 0.930103 0.791405 0.610012
O O3 0.068424 0.825487 0.533660
O O4 0.567012 0.005845 0.428153
O O5 0.515240 0.292665 0.193163
O O6 0.020586 0.440252 0.285940
O O7 0.907457 0.086582 0.230366
O O8 0.266222 0.587522 0.174629
O O9 0.011332 0.782438 0.193752
O O10 0.480030 0.942001 0.280819
O O11 0.975337 0.916201 0.067570
O O12 0.935517 0.233551 0.664970
O O13 0.493183 0.144949 0.882060
O O14 0.936190 0.264509 0.080214
O O15 0.500000 0.000000 0.000000
O O16 0.598109 0.713427 0.714280
O O17 0.500000 0.500000 0.500000
#
# Coordination Sequence:
#
# PCOD9014373 Si02
#       8
#     2   2   2   2   2   2   2   2
#     4   9  18  39  62  91 124 170 212 261 307 374
#     4  10  24  41  62  92 133 172 207 253 320 384
#     4  10  21  41  67  96 124 162 215 269 311 370
#     4  11  23  42  63  95 128 169 208 263 318 377
#     4   9  22  41  67  94 127 162 209 267 322 369
#     4  10  22  42  67  95 125 165 212 265 316 376
#     4  10  22  40  61  93 129 171 212 252 309 382
#     4   9  18  38  64  93 126 161 214 269 317 357
#
# _framework density 25.456534000000001
#
# number of rings (size 3 to 8) (size 9 to 14) (size 15 to 20)
#    0.000    2.250    1.250    0.000    0.000   11.500 
#    2.250    9.375    0.000    0.000    0.000    0.000 
#    0.000    0.000    0.000    0.000    0.000    0.000 
#
# Total GULP energy -89166.008038 kJ/mol
# GULP energy per Si atom -5572.875502 kJ/mol
# Density = 2.539859 g / cm^3
# Si number density = 25.456534 Si / 1000 Ang^3
#
#
#
# Elastic Constant Matrix: (Units=GPa)
#
#
# Indices 1 2 3 4 5 6 
#
# 1 61.5366 34.2062 18.5229 4.2047 30.4044 9.6365
# 2 34.2062 185.9135 70.0453 -3.6200 20.3740 15.8302
# 3 18.5229 70.0453 159.6656 -0.7914 34.3996 7.5253
# 4 4.2047 -3.6200 -0.7914 40.2662 11.6796 13.3083
# 5 30.4044 20.3740 34.3996 11.6796 36.9204 3.9611
# 6 9.6365 15.8302 7.5253 13.3083 3.9611 35.2128
#
#
#
# Elastic Compliance Matrix: (Units=1/GPa)
#
#
# Indices 1 2 3 4 5 6 
#
# 1 0.033091 -0.003670 0.004993 0.008115 -0.031588 -0.007987
# 2 -0.003670 0.007211 -0.002987 0.001231 0.001678 -0.002253
# 3 0.004993 -0.002987 0.009822 0.003753 -0.012574 -0.002127
# 4 0.008115 0.001231 0.003753 0.034848 -0.020332 -0.014460
# 5 -0.031588 0.001678 -0.012574 -0.020332 0.069196 0.010478
# 6 -0.007987 -0.002253 -0.002127 -0.014460 0.010478 0.036338
#
#
# Mechanical properties :
#
#
# Convention : Reuss Voigt Hill
#
# Bulk Modulus (GPa) = 21.36883 72.51828 46.94355
# Shear Modulus (GPa) = 23.87390 41.43594 32.65492
#
# Velocity S-wave (km/s) = 3.06572 4.03887 3.58547
# Velocity P-wave (km/s) = 4.57646 7.09217 5.96837
#
# Compressibility (1/GPa) = 0.04679714
#
# Stress axis : x y z
#
# Youngs Moduli (GPa) = 30.21967 138.66860 101.80942
#
# Poissons Ratio (x) = 0.50891 -0.50837
# Poissons Ratio (y) = 0.11091 0.30413
# Poissons Ratio (z) = -0.15090 0.41423
#
# Static dielectric constant tensor:
#      x y z
#    x 2.108000 0.016520 -0.018060 
#    y 0.016520 2.034620 -0.024470 
#    z -0.018060 -0.024470 2.090730 
# 
# From -- ./inp_files/616345.got.cif
#   From: 2010.05.17/outbox.cif.g08.bks.cpg/sg2_309_cif.got.tgz:616345.got - 2010.06.03 11:33:40.
