data_PCOD9014785
_publ_section_title
;
Structure prediction by ZEFSAII (Michael W. Deem and Ramdas Pophale) SiO2 
 PCOD9014785
Probable space group: P -1
;
_chemical_formula_sum "Si O2"
_cell_formula_units_Z 12
_cell_length_a 9.615749
_cell_length_b 7.363748
_cell_length_c 9.321639
_cell_angle_alpha 52.861797
_cell_angle_beta 118.093081
_cell_angle_gamma 114.343259
_cell_volume 456.443543
_symmetry_space_group_name_H-M "P -1"
_symmetry_group_IT_number 2
_symmetry_cell_setting 'triclinic'
loop_
_space_group_symop_operation_xyz
x,y,z
-x,-y,-z
loop_
_atom_site_type_symbol
_atom_site_label
_atom_site_fract_x
_atom_site_fract_y
_atom_site_fract_z
Si Si1 0.714997 0.967701 0.587419
Si Si2 0.972607 0.729357 0.965845
Si Si3 0.700254 0.132827 0.796278
Si Si4 0.832660 0.328865 0.264125
Si Si5 0.862322 0.581260 0.493768
Si Si6 0.636621 0.893184 0.269126
O O1 0.879551 0.890155 0.751544
O O2 0.649656 0.827915 0.479421
O O3 0.637470 0.966279 0.708520
O O4 0.738315 0.230058 0.409898
O O5 0.859129 0.593933 0.102036
O O6 0.000000 0.500000 0.000000
O O7 0.132572 0.880631 0.038112
O O8 0.758710 0.378585 0.631530
O O9 0.551721 0.128373 0.831136
O O10 0.010452 0.274809 0.400953
O O11 0.733919 0.154886 0.185843
O O12 0.263732 0.266385 0.693843
O O13 0.000000 0.500000 0.500000
#
# Coordination Sequence:
#
# PCOD9014785 Si02
#       6
#     2   2   2   2   2   2
#     4  10  21  41  69  90 129 170 218 262 324 382
#     4  11  24  39  65  95 130 173 222 259 317 395
#     4  11  22  40  64  99 128 167 218 273 323 377
#     4   9  22  39  66  90 126 168 221 255 323 382
#     4  11  19  34  62  97 122 170 219 253 312 397
#     4  10  22  39  67  93 131 168 214 270 331 371
#
# _framework density 26.290215
#
# number of rings (size 3 to 8) (size 9 to 14) (size 15 to 20)
#    1.000    0.667    1.667    4.000    2.333    0.000 
#    0.000    1.667    7.333    0.000    0.000    1.167 
#    0.000    0.000    0.000    0.000    0.000    0.000 
#
# Total GULP energy -66863.059024 kJ/mol
# GULP energy per Si atom -5571.921585 kJ/mol
# Density = 2.623038 g / cm^3
# Si number density = 26.290215 Si / 1000 Ang^3
#
#
#
# Elastic Constant Matrix: (Units=GPa)
#
#
# Indices 1 2 3 4 5 6 
#
# 1 154.5369 62.3027 38.6604 2.6194 -1.5252 9.8604
# 2 62.3027 86.4672 26.8620 -8.1540 13.9799 20.3622
# 3 38.6604 26.8620 101.1355 -7.0992 -15.6121 2.1653
# 4 2.6194 -8.1540 -7.0992 35.2981 6.5194 -4.6702
# 5 -1.5252 13.9799 -15.6121 6.5194 34.1275 8.5873
# 6 9.8604 20.3622 2.1653 -4.6702 8.5873 36.6914
#
#
#
# Elastic Compliance Matrix: (Units=1/GPa)
#
#
# Indices 1 2 3 4 5 6 
#
# 1 0.010036 -0.007761 -0.001486 -0.003422 0.003490 0.000446
# 2 -0.007761 0.022327 -0.004063 0.006014 -0.010796 -0.006773
# 3 -0.001486 -0.004063 0.012678 0.000417 0.007252 0.000262
# 4 -0.003422 0.006014 0.000417 0.032347 -0.009592 0.003919
# 5 0.003490 -0.010796 0.007252 -0.009592 0.040562 -0.006088
# 6 0.000446 -0.006773 0.000262 0.003919 -0.006088 0.032802
#
#
# Mechanical properties :
#
#
# Convention : Reuss Voigt Hill
#
# Bulk Modulus (GPa) = 54.28605 66.42109 60.35357
# Shear Modulus (GPa) = 27.24615 35.51104 31.37859
#
# Velocity S-wave (km/s) = 3.22275 3.67922 3.45852
# Velocity P-wave (km/s) = 5.87722 6.58546 6.24139
#
# Compressibility (1/GPa) = 0.01842094
#
# Stress axis : x y z
#
# Youngs Moduli (GPa) = 99.64410 44.78854 78.87712
#
# Poissons Ratio (x) = 0.34762 0.11720
# Poissons Ratio (y) = 0.77337 0.32045
# Poissons Ratio (z) = 0.14806 0.18196
#
# Static dielectric constant tensor:
#      x y z
#    x 2.285950 -0.147140 -0.186810 
#    y -0.147140 2.136350 0.136020 
#    z -0.186810 0.136020 2.157170 
# 
# From -- ./inp_files/427465.got.cif
#   From: 2010.05.17/outbox.cif.g08.bks.cpg/sg2_214_cif.got.tgz:427465.got - 2010.06.03 11:33:40.
