data_PCOD9014479
_publ_section_title
;
Structure prediction by ZEFSAII (Michael W. Deem and Ramdas Pophale) SiO2 
 PCOD9014479
Probable space group: P -1
;
_chemical_formula_sum "Si O2"
_cell_formula_units_Z 16
_cell_length_a 6.782574
_cell_length_b 18.999350
_cell_length_c 18.875593
_cell_angle_alpha 21.609536
_cell_angle_beta 131.772246
_cell_angle_gamma 139.926854
_cell_volume 566.075223
_symmetry_space_group_name_H-M "P -1"
_symmetry_group_IT_number 2
_symmetry_cell_setting 'triclinic'
loop_
_space_group_symop_operation_xyz
x,y,z
-x,-y,-z
loop_
_atom_site_type_symbol
_atom_site_label
_atom_site_fract_x
_atom_site_fract_y
_atom_site_fract_z
Si Si1 0.593533 0.250811 0.766823
Si Si2 0.272822 0.824209 0.716934
Si Si3 0.536703 0.892564 0.867495
Si Si4 0.696584 0.592357 0.561254
Si Si5 0.812170 0.738065 0.187780
Si Si6 0.203544 0.606778 0.549529
Si Si7 0.404777 0.301021 0.303590
Si Si8 0.929208 0.509725 0.142236
O O1 0.355269 0.248853 0.653669
O O2 0.437221 0.308855 0.753856
O O3 0.921738 0.321118 0.725431
O O4 0.500000 0.000000 0.000000
O O5 0.489223 0.868743 0.794460
O O6 0.248715 0.653824 0.812261
O O7 0.916519 0.711918 0.763022
O O8 0.351881 0.066419 0.480049
O O9 0.744197 0.156826 0.688780
O O10 0.667598 0.749272 0.065447
O O11 0.195363 0.758326 0.948467
O O12 0.393785 0.551172 0.582833
O O13 0.883049 0.527474 0.600696
O O14 0.926767 0.609695 0.663719
O O15 0.000000 0.000000 0.000000
O O16 0.468593 0.687717 0.598165
O O17 0.677657 0.509568 0.132149
#
# Coordination Sequence:
#
# PCOD9014479 Si02
#       8
#     2   2   2   2   2   2   2   2
#     4  11  23  42  66  94 137 179 226 288 353 418
#     4  10  22  42  69 101 144 185 235 294 350 416
#     4  10  24  42  70 100 143 185 230 292 352 417
#     4  10  23  40  61  96 135 172 225 286 341 418
#     4  11  23  42  69  98 135 182 233 283 354 424
#     4  11  23  43  67  99 137 179 232 294 351 422
#     4  10  21  41  68 100 139 188 235 290 355 418
#     4  11  21  42  70 101 143 185 240 289 352 426
#
# _framework density 28.264796
#
# number of rings (size 3 to 8) (size 9 to 14) (size 15 to 20)
#    0.000    1.500    1.250    3.750    0.000    5.500 
#    0.000    0.000    2.750    0.000    0.000    0.000 
#    0.000    0.000    0.000    0.000    0.000    0.000 
#
# Total GULP energy -89399.857009 kJ/mol
# GULP energy per Si atom -5587.491063 kJ/mol
# Density = 2.820046 g / cm^3
# Si number density = 28.264796 Si / 1000 Ang^3
#
#
#
# Elastic Constant Matrix: (Units=GPa)
#
#
# Indices 1 2 3 4 5 6 
#
# 1 181.2780 37.9139 60.0680 -13.3368 -6.1158 -0.7006
# 2 37.9139 99.5148 60.8230 20.9442 5.8302 -3.2882
# 3 60.0680 60.8230 165.5557 11.3951 6.2455 -29.9615
# 4 -13.3368 20.9442 11.3951 59.5958 7.2044 3.3684
# 5 -6.1158 5.8302 6.2455 7.2044 59.0553 -3.5624
# 6 -0.7006 -3.2882 -29.9615 3.3684 -3.5624 40.8635
#
#
#
# Elastic Compliance Matrix: (Units=1/GPa)
#
#
# Indices 1 2 3 4 5 6 
#
# 1 0.006907 -0.001837 -0.002393 0.002673 0.000706 -0.001943
# 2 -0.001837 0.014529 -0.004704 -0.004418 -0.000709 -0.002009
# 3 -0.002393 -0.004704 0.009989 -0.001153 -0.000278 0.006975
# 4 0.002673 -0.004418 -0.001153 0.019524 -0.001723 -0.002915
# 5 0.000706 -0.000709 -0.000278 -0.001723 0.017401 0.001410
# 6 -0.001943 -0.002009 0.006975 -0.002915 0.001410 0.029754
#
#
# Mechanical properties :
#
#
# Convention : Reuss Voigt Hill
#
# Bulk Modulus (GPa) = 73.76714 84.88426 79.32570
# Shear Modulus (GPa) = 41.49710 51.07250 46.28480
#
# Velocity S-wave (km/s) = 3.83581 4.25541 4.05105
# Velocity P-wave (km/s) = 6.76559 7.36490 7.07159
#
# Compressibility (1/GPa) = 0.01355617
#
# Stress axis : x y z
#
# Youngs Moduli (GPa) = 144.78930 68.82992 100.10978
#
# Poissons Ratio (x) = 0.12642 0.23960
# Poissons Ratio (y) = 0.26593 0.47091
# Poissons Ratio (z) = 0.34654 0.32377
#
# Static dielectric constant tensor:
#      x y z
#    x 2.490190 0.006120 -0.079090 
#    y 0.006120 2.164730 -0.030730 
#    z -0.079090 -0.030730 2.066870 
# 
# From -- ./inp_files/591951.got.cif
#   From: 2010.05.17/outbox.cif.g08.bks.cpg/sg2_296_cif.got.tgz:591951.got - 2010.06.03 11:33:40.
