data_PCOD9014640
_publ_section_title
;
Structure prediction by ZEFSAII (Michael W. Deem and Ramdas Pophale) SiO2 
 PCOD9014640
Probable space group: P -1
;
_chemical_formula_sum "Si O2"
_cell_formula_units_Z 14
_cell_length_a 11.530858
_cell_length_b 7.987928
_cell_length_c 9.801676
_cell_angle_alpha 95.295848
_cell_angle_beta 141.956234
_cell_angle_gamma 71.078362
_cell_volume 505.290712
_symmetry_space_group_name_H-M "P -1"
_symmetry_group_IT_number 2
_symmetry_cell_setting 'triclinic'
loop_
_space_group_symop_operation_xyz
x,y,z
-x,-y,-z
loop_
_atom_site_type_symbol
_atom_site_label
_atom_site_fract_x
_atom_site_fract_y
_atom_site_fract_z
Si Si1 0.643470 0.396623 0.498697
Si Si2 0.610171 0.782947 0.796900
Si Si3 0.744723 0.781066 0.212058
Si Si4 0.000321 0.486094 0.225982
Si Si5 0.994267 0.149683 0.335873
Si Si6 0.548648 0.336403 0.883285
Si Si7 0.169918 0.986652 0.048357
O O1 0.500000 0.500000 0.500000
O O2 0.607497 0.207804 0.450737
O O3 0.843311 0.442210 0.694818
O O4 0.564163 0.467800 0.276700
O O5 0.614077 0.862908 0.958968
O O6 0.782968 0.572298 0.951817
O O7 0.720938 0.878541 0.813618
O O8 0.605886 0.720874 0.179303
O O9 0.932933 0.601544 0.312847
O O10 0.850719 0.895116 0.399120
O O11 0.064916 0.272857 0.304903
O O12 0.954610 0.988430 0.209776
O O13 0.757192 0.294949 0.157657
O O14 0.642569 0.207084 0.827181
O O15 0.000000 0.000000 0.000000
#
# Coordination Sequence:
#
# PCOD9014640 Si02
#       7
#     2   2   2   2   2   2   2
#     4  12  26  40  66  99 128 169 223 261 319 378
#     4  10  25  43  63  97 131 168 209 277 313 377
#     4  10  22  40  71  98 129 161 220 262 332 377
#     4  10  23  39  69  97 125 166 209 274 321 369
#     4  10  21  41  68  96 128 172 211 261 328 380
#     4  10  23  41  67  95 129 174 205 272 315 376
#     4  10  25  45  66  88 135 181 208 258 324 377
#
# _framework density 27.706821999999999
#
# number of rings (size 3 to 8) (size 9 to 14) (size 15 to 20)
#    1.714    0.000    2.857    0.429    6.000    2.857 
#    2.571    1.429    0.000    0.000    0.000    0.000 
#    0.000    0.000    0.000    0.000    0.000    0.000 
#
# Total GULP energy -78196.105226 kJ/mol
# GULP energy per Si atom -5585.436088 kJ/mol
# Density = 2.764376 g / cm^3
# Si number density = 27.706822 Si / 1000 Ang^3
#
#
#
# Elastic Constant Matrix: (Units=GPa)
#
#
# Indices 1 2 3 4 5 6 
#
# 1 176.1122 24.8526 40.3461 10.9703 24.0374 9.2002
# 2 24.8526 52.4481 5.0070 12.7989 1.6667 16.9473
# 3 40.3461 5.0070 140.3813 23.0732 25.2647 1.0797
# 4 10.9703 12.7989 23.0732 39.4575 6.2252 5.9112
# 5 24.0374 1.6667 25.2647 6.2252 48.8097 15.3945
# 6 9.2002 16.9473 1.0797 5.9112 15.3945 32.6192
#
#
#
# Elastic Compliance Matrix: (Units=1/GPa)
#
#
# Indices 1 2 3 4 5 6 
#
# 1 0.006801 -0.003490 -0.001356 0.000311 -0.002974 0.001287
# 2 -0.003490 0.026879 0.000122 -0.006595 0.006224 -0.014727
# 3 -0.001356 0.000122 0.009040 -0.004702 -0.004336 0.002919
# 4 0.000311 -0.006595 -0.004702 0.030527 -0.000875 -0.001624
# 5 -0.002974 0.006224 -0.004336 -0.000875 0.029085 -0.015820
# 6 0.001287 -0.014727 0.002919 -0.001624 -0.015820 0.045609
#
#
# Mechanical properties :
#
#
# Convention : Reuss Voigt Hill
#
# Bulk Modulus (GPa) = 30.05710 56.59478 43.32594
# Shear Modulus (GPa) = 29.67710 44.09299 36.88505
#
# Velocity S-wave (km/s) = 3.27633 3.99358 3.65261
# Velocity P-wave (km/s) = 5.01840 6.46031 5.78446
#
# Compressibility (1/GPa) = 0.03327001
#
# Stress axis : x y z
#
# Youngs Moduli (GPa) = 147.04502 37.20373 110.62559
#
# Poissons Ratio (x) = 0.12985 0.14998
# Poissons Ratio (y) = 0.51323 -0.01344
# Poissons Ratio (z) = 0.19936 -0.00452
#
# Static dielectric constant tensor:
#      x y z
#    x 2.162930 -0.024400 -0.012910 
#    y -0.024400 2.312740 -0.035200 
#    z -0.012910 -0.035200 2.150950 
# 
# From -- ./inp_files/413036.got.cif
#   From: 2010.05.17/outbox.cif.g08.bks.cpg/sg2_207_cif.got.tgz:413036.got - 2010.06.03 11:33:40.
