data_PCOD9014633
_publ_section_title
;
Structure prediction by ZEFSAII (Michael W. Deem and Ramdas Pophale) SiO2 
 PCOD9014633
Probable space group: P -1
;
_chemical_formula_sum "Si O2"
_cell_formula_units_Z 16
_cell_length_a 23.944931
_cell_length_b 9.073646
_cell_length_c 20.951573
_cell_angle_alpha 154.105359
_cell_angle_beta 161.170533
_cell_angle_gamma 24.793873
_cell_volume 588.087450
_symmetry_space_group_name_H-M "P -1"
_symmetry_group_IT_number 2
_symmetry_cell_setting 'triclinic'
loop_
_space_group_symop_operation_xyz
x,y,z
-x,-y,-z
loop_
_atom_site_type_symbol
_atom_site_label
_atom_site_fract_x
_atom_site_fract_y
_atom_site_fract_z
Si Si1 0.127960 0.890289 0.017767
Si Si2 0.320331 0.318447 0.247451
Si Si3 0.008004 0.633857 0.404656
Si Si4 0.355661 0.395507 0.172007
Si Si5 0.488565 0.371506 0.747878
Si Si6 0.259022 0.898688 0.606539
Si Si7 0.646590 0.320606 0.146132
Si Si8 0.970958 0.277062 0.808948
O O1 0.000012 0.683754 0.773249
O O2 0.209875 0.776638 0.133380
O O3 0.322904 0.696386 0.113205
O O4 0.056135 0.320947 0.091636
O O5 0.384242 0.399345 0.279935
O O6 0.179874 0.642160 0.265341
O O7 0.484175 0.027122 0.352619
O O8 0.181417 0.109241 0.997537
O O9 0.195386 0.521504 0.607170
O O10 0.827101 0.762852 0.306356
O O11 0.000000 0.000000 0.500000
O O12 0.557649 0.209013 0.282115
O O13 0.263295 0.106950 0.941137
O O14 0.322262 0.550631 0.587297
O O15 0.452419 0.623938 0.869870
O O16 0.087522 0.936859 0.390484
O O17 0.500000 0.500000 0.000000
#
# Coordination Sequence:
#
# PCOD9014633 Si02
#       8
#     2   2   2   2   2   2   2   2
#     4  10  23  43  70 101 131 181 224 279 323 402
#     4  10  22  43  65  92 138 183 214 283 328 394
#     4  12  23  43  71 101 131 171 229 278 334 396
#     4  11  22  40  68 101 136 176 226 276 337 388
#     4  10  21  41  68  95 142 173 224 270 339 390
#     4  11  24  43  71 102 131 180 228 275 325 406
#     4  12  23  40  66 100 135 174 212 282 344 398
#     4  10  24  46  68  97 137 183 229 269 334 395
#
# _framework density 27.206838000000001
#
# number of rings (size 3 to 8) (size 9 to 14) (size 15 to 20)
#    0.000    1.250    3.750    1.500    0.000    7.500 
#    6.750    3.750    0.000    0.000    0.000    0.000 
#    0.000    0.000    0.000    0.000    0.000    0.000 
#
# Total GULP energy -89623.663165 kJ/mol
# GULP energy per Si atom -5601.478948 kJ/mol
# Density = 2.714491 g / cm^3
# Si number density = 27.206838 Si / 1000 Ang^3
#
#
#
# Elastic Constant Matrix: (Units=GPa)
#
#
# Indices 1 2 3 4 5 6 
#
# 1 167.3073 18.9567 18.8617 1.7720 0.6316 -0.1993
# 2 18.9567 51.9782 8.6297 -5.4755 2.9485 3.6786
# 3 18.8617 8.6297 91.7592 0.4816 2.9823 3.8004
# 4 1.7720 -5.4755 0.4816 43.1786 -4.6179 -7.3437
# 5 0.6316 2.9485 2.9823 -4.6179 38.3822 -13.6901
# 6 -0.1993 3.6786 3.8004 -7.3437 -13.6901 45.9938
#
#
#
# Elastic Compliance Matrix: (Units=1/GPa)
#
#
# Indices 1 2 3 4 5 6 
#
# 1 0.006358 -0.002213 -0.001114 -0.000460 0.000197 0.000282
# 2 -0.002213 0.020736 -0.001377 0.002249 -0.001796 -0.001730
# 3 -0.001114 -0.001377 0.011357 -0.000619 -0.001304 -0.001320
# 4 -0.000460 0.002249 -0.000619 0.024872 0.004749 0.005254
# 5 0.000197 -0.001796 -0.001304 0.004749 0.030455 0.010075
# 6 0.000282 -0.001730 -0.001320 0.005254 0.010075 0.025829
#
#
# Mechanical properties :
#
#
# Convention : Reuss Voigt Hill
#
# Bulk Modulus (GPa) = 34.43378 44.88233 39.65805
# Shear Modulus (GPa) = 36.04995 43.15069 39.60032
#
# Velocity S-wave (km/s) = 3.64405 3.98681 3.81928
# Velocity P-wave (km/s) = 5.51264 6.14210 5.83587
#
# Compressibility (1/GPa) = 0.02904125
#
# Stress axis : x y z
#
# Youngs Moduli (GPa) = 157.28448 48.22557 88.05171
#
# Poissons Ratio (x) = 0.10674 0.09813
# Poissons Ratio (y) = 0.34812 0.12125
# Poissons Ratio (z) = 0.17528 0.06641
#
# Static dielectric constant tensor:
#      x y z
#    x 2.199020 0.013940 0.074490 
#    y 0.013940 2.109100 -0.010880 
#    z 0.074490 -0.010880 2.122590 
# 
# From -- ./inp_files/495324.got.cif
#   From: 2010.05.17/outbox.cif.g08.bks.cpg/sg2_248_cif.got.tgz:495324.got - 2010.06.03 11:33:40.
