data_PCOD9014953
_publ_section_title
;
Structure prediction by ZEFSAII (Michael W. Deem and Ramdas Pophale) SiO2 
 PCOD9014953
Probable space group: P -1
;
_chemical_formula_sum "Si O2"
_cell_formula_units_Z 16
_cell_length_a 12.172233
_cell_length_b 9.004620
_cell_length_c 20.838854
_cell_angle_alpha 153.893202
_cell_angle_beta 139.559605
_cell_angle_gamma 51.452154
_cell_volume 637.265486
_symmetry_space_group_name_H-M "P -1"
_symmetry_group_IT_number 2
_symmetry_cell_setting 'triclinic'
loop_
_space_group_symop_operation_xyz
x,y,z
-x,-y,-z
loop_
_atom_site_type_symbol
_atom_site_label
_atom_site_fract_x
_atom_site_fract_y
_atom_site_fract_z
Si Si1 0.894601 0.829733 0.171326
Si Si2 0.940981 0.335686 0.626671
Si Si3 0.047611 0.327482 0.102340
Si Si4 0.422369 0.503121 0.314190
Si Si5 0.548161 0.606298 0.989616
Si Si6 0.544737 0.172490 0.358323
Si Si7 0.229300 0.744465 0.827835
Si Si8 0.279111 0.178131 0.525798
O O1 0.916815 0.433750 0.034602
O O2 0.812919 0.959711 0.122292
O O3 0.742216 0.829871 0.155842
O O4 0.092245 0.044621 0.354533
O O5 0.938867 0.389122 0.723133
O O6 0.749812 0.271202 0.489476
O O7 0.074024 0.639021 0.768563
O O8 0.000000 0.000000 0.500000
O O9 0.223272 0.341227 0.146787
O O10 0.000000 0.000000 0.000000
O O11 0.470608 0.228217 0.277563
O O12 0.576927 0.595480 0.368768
O O13 0.382321 0.867000 0.465815
O O14 0.411597 0.787295 0.962599
O O15 0.526626 0.215349 0.799162
O O16 0.500000 0.500000 0.000000
O O17 0.500000 0.500000 0.500000
O O18 0.236658 0.416412 0.656894
#
# Coordination Sequence:
#
# PCOD9014953 Si02
#       8
#     2   2   2   2   2   2   2   2
#     4  11  25  44  70 105 148 195 244 315 378 445
#     4  12  24  45  75 109 146 195 255 312 364 450
#     4  11  24  47  74 107 150 191 251 314 384 442
#     4  10  21  41  70 106 140 197 246 305 366 456
#     4  12  28  46  73 108 152 197 252 317 384 443
#     4  12  24  44  75 107 142 194 258 303 373 448
#     4  12  25  46  71 108 151 200 252 310 378 462
#     4  10  23  43  73 104 152 195 251 302 379 452
#
# _framework density 25.107277
#
# number of rings (size 3 to 8) (size 9 to 14) (size 15 to 20)
#    0.000    0.750    2.500    5.250    3.500    0.000 
#    2.250    0.625    0.000    0.000    0.000    0.000 
#    0.000    0.000    0.000    0.000    0.000    0.000 
#
# Total GULP energy -89371.611985 kJ/mol
# GULP energy per Si atom -5585.725749 kJ/mol
# Density = 2.505013 g / cm^3
# Si number density = 25.107277 Si / 1000 Ang^3
#
#
#
# Elastic Constant Matrix: (Units=GPa)
#
#
# Indices 1 2 3 4 5 6 
#
# 1 155.0510 41.6649 42.0352 -17.4977 35.3126 -11.3955
# 2 41.6649 221.0286 42.9332 -11.9368 19.3461 -11.2448
# 3 42.0352 42.9332 95.6087 -3.1793 5.3425 -13.8938
# 4 -17.4977 -11.9368 -3.1793 42.0710 -9.2237 14.5843
# 5 35.3126 19.3461 5.3425 -9.2237 52.2853 -4.9966
# 6 -11.3955 -11.2448 -13.8938 14.5843 -4.9966 49.0179
#
#
#
# Elastic Compliance Matrix: (Units=1/GPa)
#
#
# Indices 1 2 3 4 5 6 
#
# 1 0.008892 -0.000462 -0.003368 0.002257 -0.005110 -0.000186
# 2 -0.000462 0.005158 -0.001996 0.000798 -0.001238 0.000146
# 3 -0.003368 -0.001996 0.013146 -0.001704 0.001672 0.003162
# 4 0.002257 0.000798 -0.001704 0.028096 0.002559 -0.007874
# 5 -0.005110 -0.001238 0.001672 0.002559 0.023375 0.000623
# 6 -0.000186 0.000146 0.003162 -0.007874 0.000623 0.023694
#
#
# Mechanical properties :
#
#
# Convention : Reuss Voigt Hill
#
# Bulk Modulus (GPa) = 64.33861 80.55054 72.44457
# Shear Modulus (GPa) = 41.94849 51.67852 46.81351
#
# Velocity S-wave (km/s) = 4.09194 4.54178 4.32272
# Velocity P-wave (km/s) = 6.92867 7.72372 7.33697
#
# Compressibility (1/GPa) = 0.01554277
#
# Stress axis : x y z
#
# Youngs Moduli (GPa) = 112.46653 193.87250 76.06910
#
# Poissons Ratio (x) = 0.08961 0.25621
# Poissons Ratio (y) = 0.05198 0.15184
# Poissons Ratio (z) = 0.37880 0.38698
#
# Static dielectric constant tensor:
#      x y z
#    x 2.158010 -0.021530 -0.099290 
#    y -0.021530 2.009640 0.098140 
#    z -0.099290 0.098140 2.139910 
# 
# From -- ./inp_files/594317.got.cif
#   From: 2010.05.17/outbox.cif.g08.bks.cpg/sg2_298_cif.got.tgz:594317.got - 2010.06.03 11:33:40.
