data_PCOD9014242
_publ_section_title
;
Structure prediction by ZEFSAII (Michael W. Deem and Ramdas Pophale) SiO2 
 PCOD9014242
Probable space group: P -1
;
_chemical_formula_sum "Si O2"
_cell_formula_units_Z 16
_cell_length_a 9.897585
_cell_length_b 15.670152
_cell_length_c 15.759146
_cell_angle_alpha 140.313063
_cell_angle_beta 26.405853
_cell_angle_gamma 140.388895
_cell_volume 665.218559
_symmetry_space_group_name_H-M "P -1"
_symmetry_group_IT_number 2
_symmetry_cell_setting 'triclinic'
loop_
_space_group_symop_operation_xyz
x,y,z
-x,-y,-z
loop_
_atom_site_type_symbol
_atom_site_label
_atom_site_fract_x
_atom_site_fract_y
_atom_site_fract_z
Si Si1 0.389693 0.618426 0.395863
Si Si2 0.778231 0.768056 0.423950
Si Si3 0.183678 0.631962 0.774893
Si Si4 0.796600 0.685074 0.772641
Si Si5 0.349907 0.223424 0.787273
Si Si6 0.999452 0.042413 0.698966
Si Si7 0.528065 0.794124 0.851148
Si Si8 0.257243 0.681305 0.204332
O O1 0.715165 0.665366 0.299340
O O2 0.243264 0.456508 0.366630
O O3 0.464434 0.649823 0.279980
O O4 0.154536 0.710618 0.622995
O O5 0.467248 0.697133 0.600217
O O6 0.833636 0.912801 0.451451
O O7 0.072568 0.756632 0.303567
O O8 0.343645 0.655619 0.797072
O O9 0.981364 0.470674 0.752787
O O10 0.952087 0.730858 0.975933
O O11 0.706967 0.783744 0.829727
O O12 0.548737 0.659592 0.968689
O O13 0.583196 0.223021 0.732872
O O14 0.232499 0.096158 0.689505
O O15 0.794927 0.884607 0.706559
O O16 0.731183 0.124741 0.921453
#
# Coordination Sequence:
#
# PCOD9014242 Si02
#       8
#     2   2   2   2   2   2   2   2
#     4  10  23  38  61  91 131 159 203 249 315 375
#     4  11  23  39  60  92 125 162 208 252 306 368
#     4  11  23  36  62  92 127 163 199 253 319 365
#     4  11  22  37  64  93 123 164 203 255 309 370
#     4  10  22  40  61  90 127 164 199 255 309 366
#     4   9  21  44  65  87 121 167 213 256 296 360
#     4  10  21  41  67  89 120 166 215 252 302 361
#     4  12  23  37  62  95 130 156 204 254 317 372
#
# _framework density 24.052246
#
# number of rings (size 3 to 8) (size 9 to 14) (size 15 to 20)
#    0.000    1.500    2.500    2.250    5.250    1.500 
#    0.000    3.125    2.750    0.000    0.000    0.000 
#    0.000    0.000    0.000    0.000    0.000    0.000 
#
# Total GULP energy -89365.922234 kJ/mol
# GULP energy per Si atom -5585.370140 kJ/mol
# Density = 2.399750 g / cm^3
# Si number density = 24.052246 Si / 1000 Ang^3
#
#
#
# Elastic Constant Matrix: (Units=GPa)
#
#
# Indices 1 2 3 4 5 6 
#
# 1 179.1293 27.6650 22.4233 3.1555 -19.5359 8.8453
# 2 27.6650 67.8937 14.6327 -25.1646 1.0189 8.6693
# 3 22.4233 14.6327 98.3763 -27.1029 -1.0408 -13.1948
# 4 3.1555 -25.1646 -27.1029 27.0135 -7.3292 12.5346
# 5 -19.5359 1.0189 -1.0408 -7.3292 26.8357 -7.6206
# 6 8.8453 8.6693 -13.1948 12.5346 -7.6206 25.7453
#
#
#
# Elastic Compliance Matrix: (Units=1/GPa)
#
#
# Indices 1 2 3 4 5 6 
#
# 1 0.007720 -0.008803 -0.003594 -0.014862 0.003686 0.006796
# 2 -0.008803 0.055570 0.011127 0.088810 0.001152 -0.052883
# 3 -0.003594 0.011127 0.017436 0.033432 0.004334 -0.008570
# 4 -0.014862 0.088810 0.033432 0.207302 0.014068 -0.104429
# 5 0.003686 0.001152 0.004334 0.014068 0.045996 0.007333
# 6 0.006796 -0.052883 -0.008570 -0.104429 0.007333 0.102936
#
#
# Mechanical properties :
#
#
# Convention : Reuss Voigt Hill
#
# Bulk Modulus (GPa) = 12.78983 52.76014 32.77499
# Shear Modulus (GPa) = 10.73971 34.63080 22.68526
#
# Velocity S-wave (km/s) = 2.11538 3.79861 3.07443
# Velocity P-wave (km/s) = 3.36088 6.42047 5.12435
#
# Compressibility (1/GPa) = 0.07818710
#
# Stress axis : x y z
#
# Youngs Moduli (GPa) = 129.53052 17.99536 57.35182
#
# Poissons Ratio (x) = 0.15841 0.20614
# Poissons Ratio (y) = 1.14023 -0.63818
# Poissons Ratio (z) = 0.46556 -0.20024
#
# Static dielectric constant tensor:
#      x y z
#    x 1.960740 0.035040 0.003240 
#    y 0.035040 1.939190 -0.021150 
#    z 0.003240 -0.021150 1.958140 
# 
# From -- ./inp_files/505460.got.cif
#   From: 2010.05.17/outbox.cif.g08.bks.cpg/sg2_253_cif.got.tgz:505460.got - 2010.06.03 11:33:40.
