data_PCOD9014024
_publ_section_title
;
Structure prediction by ZEFSAII (Michael W. Deem and Ramdas Pophale) SiO2 
 PCOD9014024
Probable space group: P -1
;
_chemical_formula_sum "Si O2"
_cell_formula_units_Z 16
_cell_length_a 13.417640
_cell_length_b 9.077553
_cell_length_c 15.385730
_cell_angle_alpha 29.624436
_cell_angle_beta 117.201900
_cell_angle_gamma 106.160096
_cell_volume 793.095504
_symmetry_space_group_name_H-M "P -1"
_symmetry_group_IT_number 2
_symmetry_cell_setting 'triclinic'
loop_
_space_group_symop_operation_xyz
x,y,z
-x,-y,-z
loop_
_atom_site_type_symbol
_atom_site_label
_atom_site_fract_x
_atom_site_fract_y
_atom_site_fract_z
Si Si1 0.926803 0.909374 0.596430
Si Si2 0.952751 0.867642 0.307580
Si Si3 0.668849 0.123054 0.322340
Si Si4 0.431482 0.367958 0.668314
Si Si5 0.079305 0.798346 0.060942
Si Si6 0.505342 0.662836 0.710394
Si Si7 0.308267 0.836693 0.886940
Si Si8 0.333939 0.584736 0.345376
O O1 0.938832 0.543619 0.780480
O O2 0.790554 0.078721 0.442870
O O3 0.000000 0.000000 0.500000
O O4 0.971992 0.010038 0.653431
O O5 0.000000 0.500000 0.500000
O O6 0.821059 0.971744 0.238378
O O7 0.948944 0.032276 0.128996
O O8 0.561838 0.318983 0.234817
O O9 0.684087 0.245305 0.169815
O O10 0.649162 0.780616 0.479522
O O11 0.440175 0.512695 0.690283
O O12 0.344142 0.592567 0.450143
O O13 0.558957 0.311331 0.705351
O O14 0.391973 0.058779 0.820080
O O15 0.212067 0.757607 0.165814
O O16 0.000000 0.000000 0.000000
O O17 0.500000 0.000000 0.500000
O O18 0.637969 0.462313 0.879637
#
# Coordination Sequence:
#
# PCOD9014024 Si02
#       8
#     2   2   2   2   2   2   2   2
#     4  11  23  47  70  99 136 178 229 288 342 404
#     4  12  27  46  70 100 137 185 233 282 341 406
#     4  10  22  42  70  92 135 173 216 275 341 398
#     4  10  21  41  66  94 131 175 215 269 327 398
#     4  11  25  44  70 102 136 177 229 284 344 409
#     4  12  24  41  66 101 132 172 223 275 338 401
#     4  11  25  45  67  95 139 172 223 277 334 408
#     4   9  20  42  67  94 133 175 215 270 332 400
#
# _framework density 20.174116000000001
#
# number of rings (size 3 to 8) (size 9 to 14) (size 15 to 20)
#    0.000    1.250    2.500    2.625    7.000    0.000 
#    4.500    0.000    0.000    0.000    0.000    0.000 
#    0.000    0.000    0.000    0.000    0.000    0.000 
#
# Total GULP energy -89460.664410 kJ/mol
# GULP energy per Si atom -5591.291526 kJ/mol
# Density = 2.012820 g / cm^3
# Si number density = 20.174116 Si / 1000 Ang^3
#
#
#
# Elastic Constant Matrix: (Units=GPa)
#
#
# Indices 1 2 3 4 5 6 
#
# 1 83.5132 43.0860 40.0584 5.3497 5.3418 4.7887
# 2 43.0860 143.4179 59.7451 28.7639 15.9930 -2.6447
# 3 40.0584 59.7451 125.9986 15.0671 5.3787 8.8120
# 4 5.3497 28.7639 15.0671 26.0103 -2.8842 -1.7408
# 5 5.3418 15.9930 5.3787 -2.8842 31.3519 4.6398
# 6 4.7887 -2.6447 8.8120 -1.7408 4.6398 42.1147
#
#
#
# Elastic Compliance Matrix: (Units=1/GPa)
#
#
# Indices 1 2 3 4 5 6 
#
# 1 0.015457 -0.003934 -0.003349 0.003075 0.000411 -0.001222
# 2 -0.003934 0.012660 -0.003191 -0.011936 -0.006656 0.002150
# 3 -0.003349 -0.003191 0.010916 -0.002205 0.000455 -0.002245
# 4 0.003075 -0.011936 -0.002205 0.053516 0.010810 0.000383
# 5 0.000411 -0.006656 0.000455 0.010810 0.036754 -0.004162
# 6 -0.001222 0.002150 -0.002245 0.000383 -0.004162 0.024963
#
#
# Mechanical properties :
#
#
# Convention : Reuss Voigt Hill
#
# Bulk Modulus (GPa) = 55.29350 70.96762 63.13056
# Shear Modulus (GPa) = 27.58783 33.89806 30.74295
#
# Velocity S-wave (km/s) = 3.70197 4.10356 3.90793
# Velocity P-wave (km/s) = 6.76316 7.59646 7.19189
#
# Compressibility (1/GPa) = 0.01808531
#
# Stress axis : x y z
#
# Youngs Moduli (GPa) = 64.69735 78.99142 91.61175
#
# Poissons Ratio (x) = 0.31072 0.30677
# Poissons Ratio (y) = 0.25449 0.29234
# Poissons Ratio (z) = 0.21665 0.25207
#
# Static dielectric constant tensor:
#      x y z
#    x 1.699000 -0.009730 -0.002460 
#    y -0.009730 1.704310 0.010900 
#    z -0.002460 0.010900 1.726680 
# 
# From -- ./inp_files/216002.got.cif
#   From: 2010.05.17/outbox.cif.g08.bks.cpg/sg2_109_cif.got.tgz:216002.got - 2010.06.03 11:33:40.
