data_PCOD9014954
_publ_section_title
;
Structure prediction by ZEFSAII (Michael W. Deem and Ramdas Pophale) SiO2 
 PCOD9014954
Probable space group: P -1
;
_chemical_formula_sum "Si O2"
_cell_formula_units_Z 12
_cell_length_a 14.685714
_cell_length_b 14.210667
_cell_length_c 10.820089
_cell_angle_alpha 149.920164
_cell_angle_beta 148.485452
_cell_angle_gamma 30.574927
_cell_volume 522.019172
_symmetry_space_group_name_H-M "P -1"
_symmetry_group_IT_number 2
_symmetry_cell_setting 'triclinic'
loop_
_space_group_symop_operation_xyz
x,y,z
-x,-y,-z
loop_
_atom_site_type_symbol
_atom_site_label
_atom_site_fract_x
_atom_site_fract_y
_atom_site_fract_z
Si Si1 0.180639 0.261697 0.452218
Si Si2 0.912196 0.535485 0.075085
Si Si3 0.398304 0.857086 0.089403
Si Si4 0.057056 0.802583 0.695544
Si Si5 0.113121 0.885875 0.375462
Si Si6 0.526146 0.264412 0.238507
O O1 0.369978 0.250053 0.730752
O O2 0.078098 0.149369 0.286223
O O3 0.000000 0.500000 0.500000
O O4 0.287516 0.106566 0.283409
O O5 0.897778 0.334476 0.886515
O O6 0.687850 0.715333 0.999261
O O7 0.037046 0.608640 0.388763
O O8 0.000000 0.500000 0.000000
O O9 0.375766 0.823520 0.880659
O O10 0.282965 0.752537 0.911771
O O11 0.966608 0.989090 0.700890
O O12 0.331311 0.857185 0.622281
O O13 0.000000 0.000000 0.500000
O O14 0.500000 0.500000 0.500000
#
# Coordination Sequence:
#
# PCOD9014954 Si02
#       6
#     2   2   2   2   2   2
#     4  11  28  50  76 104 144 200 255 309 360 438
#     4  11  22  41  65 106 145 190 238 289 370 443
#     4  11  24  49  74 108 146 188 257 301 368 449
#     4  12  24  44  74 106 146 190 240 304 375 432
#     4  11  22  40  69 105 149 186 232 303 363 446
#     4  10  21  41  70 106 147 186 237 297 369 447
#
# _framework density 22.987660000000002
#
# number of rings (size 3 to 8) (size 9 to 14) (size 15 to 20)
#    0.000    1.000    5.000    1.500    2.333    1.333 
#    3.000    6.667    0.000    0.000    0.000    0.000 
#    0.000    0.000    0.000    0.000    0.000    0.000 
#
# Total GULP energy -67041.056438 kJ/mol
# GULP energy per Si atom -5586.754703 kJ/mol
# Density = 2.293534 g / cm^3
# Si number density = 22.987660 Si / 1000 Ang^3
#
#
#
# Elastic Constant Matrix: (Units=GPa)
#
#
# Indices 1 2 3 4 5 6 
#
# 1 113.6340 45.8161 15.0782 1.1165 8.0715 -5.5814
# 2 45.8161 134.3396 53.7242 -8.0943 14.4235 1.0828
# 3 15.0782 53.7242 131.0621 -3.5509 15.8260 -0.7836
# 4 1.1165 -8.0943 -3.5509 48.4484 -10.0064 9.2632
# 5 8.0715 14.4235 15.8260 -10.0064 48.4100 2.8273
# 6 -5.5814 1.0828 -0.7836 9.2632 2.8273 38.4840
#
#
#
# Elastic Compliance Matrix: (Units=1/GPa)
#
#
# Indices 1 2 3 4 5 6 
#
# 1 0.010440 -0.003712 0.000438 -0.001473 -0.001203 0.002071
# 2 -0.003712 0.010385 -0.003689 0.001606 -0.000865 -0.001229
# 3 0.000438 -0.003689 0.009344 -0.000513 -0.002172 0.000641
# 4 -0.001473 0.001606 -0.000513 0.023143 0.005081 -0.006213
# 5 -0.001203 -0.000865 -0.002172 0.005081 0.023057 -0.003111
# 6 0.002071 -0.001229 0.000641 -0.006213 -0.003111 0.028057
#
#
# Mechanical properties :
#
#
# Convention : Reuss Voigt Hill
#
# Bulk Modulus (GPa) = 61.56429 67.58585 64.57507
# Shear Modulus (GPa) = 40.39870 44.69632 42.54751
#
# Velocity S-wave (km/s) = 4.19669 4.41428 4.30686
# Velocity P-wave (km/s) = 7.09384 7.44620 7.27215
#
# Compressibility (1/GPa) = 0.01624318
#
# Stress axis : x y z
#
# Youngs Moduli (GPa) = 95.78174 96.29471 107.02074
#
# Poissons Ratio (x) = 0.35747 -0.04691
# Poissons Ratio (y) = 0.35556 0.39481
# Poissons Ratio (z) = -0.04199 0.35524
#
# Static dielectric constant tensor:
#      x y z
#    x 1.883490 -0.019410 -0.010520 
#    y -0.019410 1.911600 -0.012730 
#    z -0.010520 -0.012730 1.899330 
# 
# From -- ./inp_files/455309.got.cif
#   From: 2010.05.17/outbox.cif.g08.bks.cpg/sg2_228_cif.got.tgz:455309.got - 2010.06.03 11:33:40.
