data_PCOD9014539
_publ_section_title
;
Structure prediction by ZEFSAII (Michael W. Deem and Ramdas Pophale) SiO2 
 PCOD9014539
Probable space group: P -1
;
_chemical_formula_sum "Si O2"
_cell_formula_units_Z 15
_cell_length_a 8.759064
_cell_length_b 9.371725
_cell_length_c 9.576444
_cell_angle_alpha 93.742229
_cell_angle_beta 97.510170
_cell_angle_gamma 49.207518
_cell_volume 589.828857
_symmetry_space_group_name_H-M "P -1"
_symmetry_group_IT_number 2
_symmetry_cell_setting 'triclinic'
loop_
_space_group_symop_operation_xyz
x,y,z
-x,-y,-z
loop_
_atom_site_type_symbol
_atom_site_label
_atom_site_fract_x
_atom_site_fract_y
_atom_site_fract_z
Si Si1 0.924261 0.398763 0.553697
Si Si2 0.034197 0.120018 0.108003
Si Si3 0.395244 0.822118 0.332857
Si Si4 0.338956 0.079196 0.656913
Si Si5 0.500000 0.500000 0.500000
Si Si6 0.639610 0.650657 0.776533
Si Si7 0.406753 0.528103 0.839108
Si Si8 0.278124 0.201685 0.964827
O O1 0.719674 0.449453 0.475011
O O2 0.836082 0.504119 0.699390
O O3 0.000000 0.500000 0.500000
O O4 0.125421 0.177394 0.562333
O O5 0.123639 0.190977 0.025948
O O6 0.826840 0.297238 0.162770
O O7 0.191327 0.991392 0.241365
O O8 0.000000 0.000000 0.000000
O O9 0.523956 0.881788 0.395506
O O10 0.372948 0.718261 0.442529
O O11 0.521049 0.668225 0.214414
O O12 0.487495 0.861809 0.709651
O O13 0.254351 0.203496 0.797886
O O14 0.516441 0.575663 0.750764
O O15 0.708784 0.658212 0.939179
O O16 0.500000 0.500000 0.000000
O O17 0.500000 0.000000 0.000000
#
# Coordination Sequence:
#
# PCOD9014539 Si02
#       8
#     2   2   2   2   1   2   2   2
#     4  12  28  51  76 101 146 203 260 313 376 428
#     4  12  24  41  71 107 152 196 235 298 378 444
#     4  12  25  49  70 103 151 192 250 308 370 448
#     4  11  25  46  75 104 150 193 240 309 381 455
#     4  12  28  52  70 106 148 200 254 320 354 440
#     4  11  25  47  71 110 143 190 249 300 377 458
#     4  12  26  41  70 112 148 190 242 304 378 455
#     4  10  21  41  68 109 145 181 232 296 373 452
#
# _framework density 25.431106
#
# number of rings (size 3 to 8) (size 9 to 14) (size 15 to 20)
#    0.000    0.533    6.667    2.400    7.467    1.067 
#    0.000    1.333    0.000    0.000    0.000    0.000 
#    0.000    0.000    0.000    0.000    0.000    0.000 
#
# Total GULP energy -83847.451574 kJ/mol
# GULP energy per Si atom -5589.830105 kJ/mol
# Density = 2.537322 g / cm^3
# Si number density = 25.431106 Si / 1000 Ang^3
#
#
#
# Elastic Constant Matrix: (Units=GPa)
#
#
# Indices 1 2 3 4 5 6 
#
# 1 186.5090 61.6953 21.2518 -13.5429 -9.4378 -7.2523
# 2 61.6953 139.2137 22.4575 -5.9875 8.6097 -20.6299
# 3 21.2518 22.4575 69.8514 -2.0859 3.5345 0.5496
# 4 -13.5429 -5.9875 -2.0859 54.9356 7.0819 9.2445
# 5 -9.4378 8.6097 3.5345 7.0819 52.7491 -1.3875
# 6 -7.2523 -20.6299 0.5496 9.2445 -1.3875 61.1545
#
#
#
# Elastic Compliance Matrix: (Units=1/GPa)
#
#
# Indices 1 2 3 4 5 6 
#
# 1 0.006573 -0.002822 -0.001135 0.001119 0.001555 -0.000296
# 2 -0.002822 0.009289 -0.002058 0.000005 -0.001811 0.002776
# 3 -0.001135 -0.002058 0.015392 0.000382 -0.000978 -0.001047
# 4 0.001119 0.000005 0.000382 0.019293 -0.002491 -0.002842
# 5 0.001555 -0.001811 -0.000978 -0.002491 0.019942 0.000411
# 6 -0.000296 0.002776 -0.001047 -0.002842 0.000411 0.017702
#
#
# Mechanical properties :
#
#
# Convention : Reuss Voigt Hill
#
# Bulk Modulus (GPa) = 52.01837 67.37592 59.69714
# Shear Modulus (GPa) = 46.89107 53.11247 50.00177
#
# Velocity S-wave (km/s) = 4.29866 4.57495 4.43896
# Velocity P-wave (km/s) = 6.71841 7.37956 7.05673
#
# Compressibility (1/GPa) = 0.01922398
#
# Stress axis : x y z
#
# Youngs Moduli (GPa) = 152.14153 107.65209 64.96712
#
# Poissons Ratio (x) = 0.30375 0.07377
# Poissons Ratio (y) = 0.42928 0.13371
# Poissons Ratio (z) = 0.17276 0.22156
#
# Static dielectric constant tensor:
#      x y z
#    x 1.975120 0.023930 0.032020 
#    y 0.023930 1.963620 0.043480 
#    z 0.032020 0.043480 1.985680 
# 
# From -- ./inp_files/381983.got.cif
#   From: 2010.05.17/outbox.cif.g08.bks.cpg/sg2_191_cif.got.tgz:381983.got - 2010.06.03 11:33:40.
