data_PCOD9014632
_publ_section_title
;
Structure prediction by ZEFSAII (Michael W. Deem and Ramdas Pophale) SiO2 
 PCOD9014632
Probable space group: P -1
;
_chemical_formula_sum "Si O2"
_cell_formula_units_Z 16
_cell_length_a 13.381060
_cell_length_b 9.587066
_cell_length_c 12.344336
_cell_angle_alpha 51.926899
_cell_angle_beta 59.596592
_cell_angle_gamma 102.239728
_cell_volume 683.573005
_symmetry_space_group_name_H-M "P -1"
_symmetry_group_IT_number 2
_symmetry_cell_setting 'triclinic'
loop_
_space_group_symop_operation_xyz
x,y,z
-x,-y,-z
loop_
_atom_site_type_symbol
_atom_site_label
_atom_site_fract_x
_atom_site_fract_y
_atom_site_fract_z
Si Si1 0.828906 0.314764 0.824697
Si Si2 0.301203 0.196842 0.223654
Si Si3 0.840974 0.039168 0.129006
Si Si4 0.261265 0.463996 0.624494
Si Si5 0.112766 0.821253 0.711160
Si Si6 0.413573 0.900519 0.478519
Si Si7 0.229802 0.487355 0.069661
Si Si8 0.748446 0.227265 0.673002
O O1 0.841290 0.523407 0.771394
O O2 0.711621 0.177453 0.845391
O O3 0.032744 0.502636 0.590066
O O4 0.776344 0.118167 0.044805
O O5 0.194291 0.048447 0.466709
O O6 0.217957 0.263503 0.171177
O O7 0.304674 0.018514 0.239643
O O8 0.500000 0.500000 0.000000
O O9 0.726991 0.724992 0.325116
O O10 0.843370 0.087172 0.232321
O O11 0.050162 0.245324 0.880032
O O12 0.314337 0.670508 0.404443
O O13 0.383564 0.670264 0.559192
O O14 0.218108 0.766019 0.647998
O O15 0.898277 0.571578 0.921919
O O16 0.500000 0.000000 0.500000
O O17 0.562721 0.198525 0.194469
#
# Coordination Sequence:
#
# PCOD9014632 Si02
#       8
#     2   2   2   2   2   2   2   2
#     4  10  22  41  65 101 134 177 232 277 340 411
#     4  12  24  46  68 103 139 176 232 287 342 411
#     4  10  23  41  70  99 139 185 225 280 350 408
#     4  10  21  44  64 101 139 181 232 279 340 412
#     4  12  24  46  70 101 140 178 231 285 342 416
#     4  12  25  44  70 102 141 181 231 289 340 409
#     4  12  25  43  72 102 137 184 229 284 351 404
#     4  10  21  41  68  95 139 178 227 287 334 405
#
# _framework density 23.406424000000001
#
# number of rings (size 3 to 8) (size 9 to 14) (size 15 to 20)
#    0.000    1.000    3.750    2.625    1.750    5.500 
#    2.250    2.500    0.000    0.000    0.000    0.000 
#    0.000    0.000    0.000    0.000    0.000    0.000 
#
# Total GULP energy -89465.535795 kJ/mol
# GULP energy per Si atom -5591.595987 kJ/mol
# Density = 2.335315 g / cm^3
# Si number density = 23.406424 Si / 1000 Ang^3
#
#
#
# Elastic Constant Matrix: (Units=GPa)
#
#
# Indices 1 2 3 4 5 6 
#
# 1 89.8616 60.1755 32.7958 -17.5160 8.0963 5.7901
# 2 60.1755 175.2071 43.7410 -25.0576 32.0796 19.6943
# 3 32.7958 43.7410 87.5453 -16.6460 13.4117 -0.2817
# 4 -17.5160 -25.0576 -16.6460 35.9506 -4.2206 7.6434
# 5 8.0963 32.0796 13.4117 -4.2206 30.5362 -1.9923
# 6 5.7901 19.6943 -0.2817 7.6434 -1.9923 39.6044
#
#
#
# Elastic Compliance Matrix: (Units=1/GPa)
#
#
# Indices 1 2 3 4 5 6 
#
# 1 0.015871 -0.004470 -0.003429 0.003456 0.002429 -0.000667
# 2 -0.004470 0.010606 -0.001336 0.004806 -0.009098 -0.006015
# 3 -0.003429 -0.001336 0.014621 0.003667 -0.003577 0.000382
# 4 0.003456 0.004806 0.003667 0.036304 -0.003213 -0.010037
# 5 0.002429 -0.009098 -0.003577 -0.003213 0.043242 0.006939
# 6 -0.000667 -0.006015 0.000382 -0.010037 0.006939 0.030627
#
#
# Mechanical properties :
#
#
# Convention : Reuss Voigt Hill
#
# Bulk Modulus (GPa) = 44.19479 69.55985 56.87732
# Shear Modulus (GPa) = 28.20323 35.61170 31.90746
#
# Velocity S-wave (km/s) = 3.47498 3.90481 3.69615
# Velocity P-wave (km/s) = 5.91804 7.07904 6.52441
#
# Compressibility (1/GPa) = 0.02262710
#
# Stress axis : x y z
#
# Youngs Moduli (GPa) = 63.00791 94.28845 68.39363
#
# Poissons Ratio (x) = 0.42150 0.23452
# Poissons Ratio (y) = 0.28167 0.09138
# Poissons Ratio (z) = 0.21606 0.12598
#
# Static dielectric constant tensor:
#      x y z
#    x 1.933420 0.000840 -0.011050 
#    y 0.000840 1.844010 0.039850 
#    z -0.011050 0.039850 1.969710 
# 
# From -- ./inp_files/446941.got.cif
#   From: 2010.05.17/outbox.cif.g08.bks.cpg/sg2_224_cif.got.tgz:446941.got - 2010.06.03 11:33:40.
