data_PCOD9014990
_publ_section_title
;
Structure prediction by ZEFSAII (Michael W. Deem and Ramdas Pophale) SiO2 
 PCOD9014990
Probable space group: P -1
;
_chemical_formula_sum "Si O2"
_cell_formula_units_Z 15
_cell_length_a 18.452548
_cell_length_b 11.736398
_cell_length_c 8.811801
_cell_angle_alpha 39.088230
_cell_angle_beta 150.508344
_cell_angle_gamma 141.054802
_cell_volume 559.361135
_symmetry_space_group_name_H-M "P -1"
_symmetry_group_IT_number 2
_symmetry_cell_setting 'triclinic'
loop_
_space_group_symop_operation_xyz
x,y,z
-x,-y,-z
loop_
_atom_site_type_symbol
_atom_site_label
_atom_site_fract_x
_atom_site_fract_y
_atom_site_fract_z
Si Si1 0.397124 0.723266 0.515804
Si Si2 0.026807 0.788230 0.395125
Si Si3 0.985422 0.361808 0.781873
Si Si4 0.500000 0.500000 0.500000
Si Si5 0.308197 0.235528 0.157021
Si Si6 0.231832 0.363689 0.429686
Si Si7 0.356364 0.832835 0.665561
Si Si8 0.677003 0.964216 0.151993
O O1 0.560274 0.695066 0.803495
O O2 0.267014 0.519522 0.463931
O O3 0.402926 0.813693 0.597152
O O4 0.359416 0.864994 0.177746
O O5 0.983272 0.771163 0.155446
O O6 0.061544 0.589580 0.686245
O O7 0.182766 0.949642 0.566041
O O8 0.867515 0.785940 0.185533
O O9 0.805461 0.334671 0.450416
O O10 0.051063 0.302762 0.114625
O O11 0.375747 0.376646 0.274576
O O12 0.348930 0.458743 0.401270
O O13 0.316216 0.024009 0.423890
O O14 0.270197 0.170639 0.725429
O O15 0.504216 0.832872 0.037593
#
# Coordination Sequence:
#
# PCOD9014990 Si02
#       8
#     2   2   2   1   2   2   2   2
#     4  10  24  50  66 101 141 178 234 287 329 414
#     4  11  24  43  68 102 145 173 231 282 353 403
#     4  11  25  43  66 103 143 181 220 290 343 412
#     4  10  22  38  70 104 138 172 226 280 350 392
#     4  10  21  41  70  94 135 180 218 286 337 396
#     4  11  23  43  71 100 140 181 225 285 348 400
#     4  11  26  45  69  98 138 183 233 278 340 411
#     4  11  24  43  71 102 130 186 230 279 347 404
#
# _framework density 26.816305
#
# number of rings (size 3 to 8) (size 9 to 14) (size 15 to 20)
#    0.000    1.333    2.667    2.400    5.600    2.667 
#    2.400    3.333    0.000    0.000    0.000    0.000 
#    0.000    0.000    0.000    0.000    0.000    0.000 
#
# Total GULP energy -83707.925888 kJ/mol
# GULP energy per Si atom -5580.528393 kJ/mol
# Density = 2.675527 g / cm^3
# Si number density = 26.816305 Si / 1000 Ang^3
#
#
#
# Elastic Constant Matrix: (Units=GPa)
#
#
# Indices 1 2 3 4 5 6 
#
# 1 71.5627 12.3061 25.0540 6.2628 15.5445 -20.4334
# 2 12.3061 154.7019 60.5565 23.1583 4.7564 -33.6806
# 3 25.0540 60.5565 184.7952 23.4763 13.5192 -8.9946
# 4 6.2628 23.1583 23.4763 42.5937 3.0335 0.7152
# 5 15.5445 4.7564 13.5192 3.0335 26.8543 5.3074
# 6 -20.4334 -33.6806 -8.9946 0.7152 5.3074 28.6819
#
#
#
# Elastic Compliance Matrix: (Units=1/GPa)
#
#
# Indices 1 2 3 4 5 6 
#
# 1 0.027779 0.007047 -0.002225 -0.005667 -0.021802 0.031544
# 2 0.007047 0.012657 -0.002696 -0.006185 -0.008364 0.020740
# 3 -0.002225 -0.002696 0.006784 -0.001837 -0.000968 -0.002399
# 4 -0.005667 -0.006185 -0.001837 0.028575 0.004733 -0.013464
# 5 -0.021802 -0.008364 -0.000968 0.004733 0.058526 -0.036605
# 6 0.031544 0.020740 -0.002399 -0.013464 -0.036605 0.088049
#
#
# Mechanical properties :
#
#
# Convention : Reuss Voigt Hill
#
# Bulk Modulus (GPa) = 19.42795 67.43257 43.43026
# Shear Modulus (GPa) = 21.25159 40.50221 30.87690
#
# Velocity S-wave (km/s) = 2.81817 3.89055 3.39694
# Velocity P-wave (km/s) = 4.22493 6.73665 5.62283
#
# Compressibility (1/GPa) = 0.05147224
#
# Stress axis : x y z
#
# Youngs Moduli (GPa) = 35.99802 79.00642 147.40574
#
# Poissons Ratio (x) = -0.55679 0.32805
# Poissons Ratio (y) = -0.25369 0.39742
# Poissons Ratio (z) = 0.08011 0.21301
#
# Static dielectric constant tensor:
#      x y z
#    x 2.290210 0.228600 -0.087310 
#    y 0.228600 2.222170 -0.175510 
#    z -0.087310 -0.175510 2.327740 
# 
# From -- ./inp_files/262066.got.cif
#   From: 2010.05.17/outbox.cif.g08.bks.cpg/sg2_132_cif.got.tgz:262066.got - 2010.06.03 11:33:40.
