data_PCOD9014666
_publ_section_title
;
Structure prediction by ZEFSAII (Michael W. Deem and Ramdas Pophale) SiO2 
 PCOD9014666
Probable space group: P -1
;
_chemical_formula_sum "Si O2"
_cell_formula_units_Z 16
_cell_length_a 7.037471
_cell_length_b 11.354793
_cell_length_c 12.101914
_cell_angle_alpha 108.564799
_cell_angle_beta 136.893440
_cell_angle_gamma 84.932187
_cell_volume 610.757389
_symmetry_space_group_name_H-M "P -1"
_symmetry_group_IT_number 2
_symmetry_cell_setting 'triclinic'
loop_
_space_group_symop_operation_xyz
x,y,z
-x,-y,-z
loop_
_atom_site_type_symbol
_atom_site_label
_atom_site_fract_x
_atom_site_fract_y
_atom_site_fract_z
Si Si1 0.189775 0.909925 0.817692
Si Si2 0.328422 0.920284 0.637403
Si Si3 0.169760 0.449588 0.723817
Si Si4 0.421283 0.551595 0.650786
Si Si5 0.132741 0.588613 0.186632
Si Si6 0.159790 0.201253 0.170460
Si Si7 0.975702 0.846232 0.153001
Si Si8 0.270427 0.191256 0.748478
O O1 0.220725 0.860118 0.693700
O O2 0.079771 0.816291 0.843445
O O3 0.973344 0.005974 0.746189
O O4 0.500000 0.000000 0.000000
O O5 0.598579 0.868154 0.706654
O O6 0.068154 0.867935 0.431159
O O7 0.397674 0.074070 0.724299
O O8 0.862938 0.433285 0.527254
O O9 0.083914 0.459258 0.817515
O O10 0.315107 0.326717 0.749004
O O11 0.364152 0.554177 0.758948
O O12 0.549685 0.426808 0.650777
O O13 0.682612 0.656690 0.748041
O O14 0.150252 0.737077 0.211967
O O15 0.000000 0.500000 0.000000
O O16 0.068151 0.145392 0.994092
O O17 0.706401 0.791360 0.104573
#
# Coordination Sequence:
#
# PCOD9014666 Si02
#       8
#     2   2   2   2   2   2   2   2
#     4  11  24  42  69  98 126 172 216 269 330 388
#     4  10  21  41  68  97 133 168 219 263 332 383
#     4  10  23  45  69  92 134 175 223 265 318 397
#     4  11  24  44  67  98 127 180 220 267 326 382
#     4  11  23  44  64  98 132 170 222 273 327 375
#     4  12  23  42  70  95 134 170 223 268 316 403
#     4  10  22  43  66  95 130 169 215 264 328 385
#     4   9  20  42  66  97 136 168 212 273 326 379
#
# _framework density 26.196978999999999
#
# number of rings (size 3 to 8) (size 9 to 14) (size 15 to 20)
#    0.000    1.500    3.750    0.750    0.000    2.500 
#    6.750    5.625    0.000    0.000    0.000    0.000 
#    0.000    0.000    0.000    0.000    0.000    0.000 
#
# Total GULP energy -89405.837967 kJ/mol
# GULP energy per Si atom -5587.864873 kJ/mol
# Density = 2.613735 g / cm^3
# Si number density = 26.196979 Si / 1000 Ang^3
#
#
#
# Elastic Constant Matrix: (Units=GPa)
#
#
# Indices 1 2 3 4 5 6 
#
# 1 140.7320 54.5003 30.5399 -6.2909 -11.6726 39.0241
# 2 54.5003 97.5066 8.2620 -15.8633 3.1735 19.4833
# 3 30.5399 8.2620 60.1372 -5.6843 -14.2321 22.9008
# 4 -6.2909 -15.8633 -5.6843 28.6174 -2.8259 -5.3518
# 5 -11.6726 3.1735 -14.2321 -2.8259 35.6526 -15.4868
# 6 39.0241 19.4833 22.9008 -5.3518 -15.4868 59.7443
#
#
#
# Elastic Compliance Matrix: (Units=1/GPa)
#
#
# Indices 1 2 3 4 5 6 
#
# 1 0.011043 -0.005404 -0.003267 -0.001911 0.000837 -0.004153
# 2 -0.005404 0.014714 0.001421 0.006604 -0.002839 -0.001957
# 3 -0.003267 0.001421 0.021643 0.004033 0.005682 -0.004791
# 4 -0.001911 0.006604 0.004033 0.039866 0.004556 0.002300
# 5 0.000837 -0.002839 0.005682 0.004556 0.034483 0.007548
# 6 -0.004153 -0.001957 -0.004791 0.002300 0.007548 0.024088
#
#
# Mechanical properties :
#
#
# Convention : Reuss Voigt Hill
#
# Bulk Modulus (GPa) = 30.39530 53.88669 42.14099
# Shear Modulus (GPa) = 29.18813 38.47443 33.83128
#
# Velocity S-wave (km/s) = 3.34155 3.83647 3.59753
# Velocity P-wave (km/s) = 5.14935 6.34343 5.77732
#
# Compressibility (1/GPa) = 0.03289982
#
# Stress axis : x y z
#
# Youngs Moduli (GPa) = 90.55629 67.96412 46.20446
#
# Poissons Ratio (x) = 0.36726 0.15093
# Poissons Ratio (y) = 0.48935 -0.06564
# Poissons Ratio (z) = 0.29581 -0.09655
#
# Static dielectric constant tensor:
#      x y z
#    x 2.035610 -0.017320 -0.010550 
#    y -0.017320 2.133450 -0.001460 
#    z -0.010550 -0.001460 2.139630 
# 
# From -- ./inp_files/364885.got.cif
#   From: 2010.05.17/outbox.cif.g08.bks.cpg/sg2_183_cif.got.tgz:364885.got - 2010.06.03 11:33:40.
