data_PCOD9014993
_publ_section_title
;
Structure prediction by ZEFSAII (Michael W. Deem and Ramdas Pophale) SiO2 
 PCOD9014993
Probable space group: P -1
;
_chemical_formula_sum "Si O2"
_cell_formula_units_Z 15
_cell_length_a 11.188888
_cell_length_b 6.793598
_cell_length_c 9.435924
_cell_angle_alpha 93.840578
_cell_angle_beta 65.165002
_cell_angle_gamma 65.782755
_cell_volume 568.290360
_symmetry_space_group_name_H-M "P -1"
_symmetry_group_IT_number 2
_symmetry_cell_setting 'triclinic'
loop_
_space_group_symop_operation_xyz
x,y,z
-x,-y,-z
loop_
_atom_site_type_symbol
_atom_site_label
_atom_site_fract_x
_atom_site_fract_y
_atom_site_fract_z
Si Si1 0.145912 0.616429 0.658960
Si Si2 0.289204 0.051641 0.056221
Si Si3 0.248073 0.511964 0.178035
Si Si4 0.556997 0.510358 0.649953
Si Si5 0.092230 0.193559 0.648707
Si Si6 0.000000 0.000000 0.500000
Si Si7 0.785506 0.129919 0.162188
Si Si8 0.477542 0.238806 0.844646
O O1 0.321092 0.521563 0.527214
O O2 0.112569 0.410295 0.653522
O O3 0.139074 0.716418 0.824437
O O4 0.052088 0.806934 0.598482
O O5 0.401937 0.080018 0.888508
O O6 0.187857 0.981784 0.010876
O O7 0.217163 0.298558 0.175069
O O8 0.390331 0.866388 0.110485
O O9 0.359765 0.479138 0.247211
O O10 0.343142 0.475641 0.985909
O O11 0.087428 0.735212 0.288077
O O12 0.394310 0.722438 0.725715
O O13 0.527634 0.298412 0.677927
O O14 0.145231 0.041411 0.475900
O O15 0.151385 0.061757 0.757705
#
# Coordination Sequence:
#
# PCOD9014993 Si02
#       8
#     2   2   2   2   2   1   2   2
#     4  11  26  44  70 100 139 182 215 281 343 401
#     4   9  20  41  65 102 132 175 227 275 338 390
#     4  10  21  41  70  95 126 181 224 276 330 388
#     4  12  22  42  71  99 133 177 234 278 332 396
#     4  11  25  47  66 100 140 178 223 274 342 402
#     4  10  22  46  66  96 128 174 238 264 318 408
#     4  11  25  45  63 104 142 174 226 272 347 403
#     4   9  20  40  69 102 130 173 233 284 322 393
#
# _framework density 26.394957999999999
#
# number of rings (size 3 to 8) (size 9 to 14) (size 15 to 20)
#    0.800    0.800    2.667    1.200    1.867    2.133 
#    7.200    1.333    0.000    0.000    0.000    0.000 
#    0.000    0.000    0.000    0.000    0.000    0.000 
#
# Total GULP energy -83685.710906 kJ/mol
# GULP energy per Si atom -5579.047394 kJ/mol
# Density = 2.633488 g / cm^3
# Si number density = 26.394958 Si / 1000 Ang^3
#
#
#
# Elastic Constant Matrix: (Units=GPa)
#
#
# Indices 1 2 3 4 5 6 
#
# 1 134.0305 61.3625 59.3205 -5.9331 12.7465 -7.7116
# 2 61.3625 143.7607 18.3112 -12.2306 12.5511 13.5134
# 3 59.3205 18.3112 44.2329 -6.0418 -3.2864 -2.2270
# 4 -5.9331 -12.2306 -6.0418 21.7863 -5.5076 -1.0335
# 5 12.7465 12.5511 -3.2864 -5.5076 55.1022 19.8857
# 6 -7.7116 13.5134 -2.2270 -1.0335 19.8857 66.6283
#
#
#
# Elastic Compliance Matrix: (Units=1/GPa)
#
#
# Indices 1 2 3 4 5 6 
#
# 1 0.027652 -0.007773 -0.035496 -0.008887 -0.009949 0.006422
# 2 -0.007773 0.010014 0.007024 0.005717 0.001623 -0.003092
# 3 -0.035496 0.007024 0.070423 0.017303 0.015232 -0.007457
# 4 -0.008887 0.005717 0.017303 0.053432 0.008302 -0.003259
# 5 -0.009949 0.001623 0.015232 0.008302 0.024793 -0.008242
# 6 0.006422 -0.003092 -0.007457 -0.003259 -0.008242 0.018539
#
#
# Mechanical properties :
#
#
# Convention : Reuss Voigt Hill
#
# Bulk Modulus (GPa) = 28.08977 66.66804 47.37890
# Shear Modulus (GPa) = 17.28851 40.90536 29.09694
#
# Velocity S-wave (km/s) = 2.56206 3.94095 3.32379
# Velocity P-wave (km/s) = 4.40652 6.78386 5.72006
#
# Compressibility (1/GPa) = 0.03560015
#
# Stress axis : x y z
#
# Youngs Moduli (GPa) = 36.16369 99.85693 14.19990
#
# Poissons Ratio (x) = 0.77617 0.50404
# Poissons Ratio (y) = 0.28110 -0.09974
# Poissons Ratio (z) = 1.28367 -0.70142
#
# Static dielectric constant tensor:
#      x y z
#    x 2.010520 -0.074210 -0.154820 
#    y -0.074210 1.838200 -0.251060 
#    z -0.154820 -0.251060 1.673820 
# 
# From -- ./inp_files/410468.got.cif
#   From: 2010.05.17/outbox.cif.g08.bks.cpg/sg2_206_cif.got.tgz:410468.got - 2010.06.03 11:33:40.
