data_PCOD9014675
_publ_section_title
;
Structure prediction by ZEFSAII (Michael W. Deem and Ramdas Pophale) SiO2 
 PCOD9014675
Probable space group: P -1
;
_chemical_formula_sum "Si O2"
_cell_formula_units_Z 16
_cell_length_a 8.589272
_cell_length_b 13.502070
_cell_length_c 11.002470
_cell_angle_alpha 119.960382
_cell_angle_beta 42.164885
_cell_angle_gamma 132.386480
_cell_volume 632.644252
_symmetry_space_group_name_H-M "P -1"
_symmetry_group_IT_number 2
_symmetry_cell_setting 'triclinic'
loop_
_space_group_symop_operation_xyz
x,y,z
-x,-y,-z
loop_
_atom_site_type_symbol
_atom_site_label
_atom_site_fract_x
_atom_site_fract_y
_atom_site_fract_z
Si Si1 0.478773 0.742063 0.355640
Si Si2 0.600783 0.681918 0.501767
Si Si3 0.425117 0.560950 0.770295
Si Si4 0.877033 0.084493 0.567862
Si Si5 0.877235 0.645935 0.995438
Si Si6 0.892056 0.035876 0.248100
Si Si7 0.058188 0.316958 0.286060
Si Si8 0.332776 0.953149 0.942732
O O1 0.550641 0.758952 0.469530
O O2 0.617313 0.665828 0.171748
O O3 0.155698 0.670287 0.498979
O O4 0.624746 0.889121 0.302759
O O5 0.440602 0.652806 0.704268
O O6 0.524378 0.545038 0.395529
O O7 0.918830 0.767097 0.406037
O O8 0.174332 0.466854 0.946259
O O9 0.672572 0.642764 0.770367
O O10 0.900436 0.082632 0.409801
O O11 0.000000 0.000000 0.500000
O O12 0.570662 0.014435 0.744697
O O13 0.891868 0.608798 0.825528
O O14 0.130811 0.793173 0.968515
O O15 0.925031 0.160133 0.230320
O O16 0.143331 0.015109 0.072595
O O17 0.500000 0.000000 0.000000
#
# Coordination Sequence:
#
# PCOD9014675 Si02
#       8
#     2   2   2   2   2   2   2   2
#     4  10  22  41  67  94 133 167 214 275 331 377
#     4  10  21  41  68  98 127 168 217 277 321 379
#     4  10  22  43  66  91 135 171 224 269 314 383
#     4  12  20  38  72  96 127 163 211 270 333 384
#     4  10  24  42  65  93 134 175 217 268 321 387
#     4  11  23  38  62 102 130 167 213 265 328 391
#     4  12  24  41  67  94 131 180 221 258 322 396
#     4  11  22  39  67  98 133 164 207 274 335 378
#
# _framework density 25.290676000000001
#
# number of rings (size 3 to 8) (size 9 to 14) (size 15 to 20)
#    0.000    1.250    3.750    3.000    0.000    5.000 
#    0.000    0.625    5.500    0.000    0.000    0.000 
#    0.000    0.000    0.000    0.000    0.000    0.000 
#
# Total GULP energy -89614.357154 kJ/mol
# GULP energy per Si atom -5600.897322 kJ/mol
# Density = 2.523311 g / cm^3
# Si number density = 25.290676 Si / 1000 Ang^3
#
#
#
# Elastic Constant Matrix: (Units=GPa)
#
#
# Indices 1 2 3 4 5 6 
#
# 1 74.4472 19.5537 39.2416 -10.8794 9.9266 -8.4274
# 2 19.5537 86.4398 38.8927 -19.7856 -8.4302 3.4276
# 3 39.2416 38.8927 164.1535 -25.8257 -4.9652 -7.3162
# 4 -10.8794 -19.7856 -25.8257 40.5777 -9.4561 3.5108
# 5 9.9266 -8.4302 -4.9652 -9.4561 40.6023 0.2303
# 6 -8.4274 3.4276 -7.3162 3.5108 0.2303 34.5097
#
#
#
# Elastic Compliance Matrix: (Units=1/GPa)
#
#
# Indices 1 2 3 4 5 6 
#
# 1 0.017151 -0.003189 -0.003458 -0.000771 -0.005480 0.003887
# 2 -0.003189 0.015365 -0.001753 0.007083 0.005424 -0.003433
# 3 -0.003458 -0.001753 0.008035 0.003826 0.002351 0.000628
# 4 -0.000771 0.007083 0.003826 0.032915 0.009812 -0.003495
# 5 -0.005480 0.005424 0.002351 0.009812 0.029682 -0.002575
# 6 0.003887 -0.003433 0.000628 -0.003495 -0.002575 0.030773
#
#
# Mechanical properties :
#
#
# Convention : Reuss Voigt Hill
#
# Bulk Modulus (GPa) = 42.10310 57.82406 49.96358
# Shear Modulus (GPa) = 31.51841 38.29476 34.90659
#
# Velocity S-wave (km/s) = 3.53405 3.89547 3.71916
# Velocity P-wave (km/s) = 5.77378 6.56859 6.18397
#
# Compressibility (1/GPa) = 0.02375122
#
# Stress axis : x y z
#
# Youngs Moduli (GPa) = 58.30676 65.08282 124.45800
#
# Poissons Ratio (x) = 0.20752 0.43040
# Poissons Ratio (y) = 0.18592 0.21815
# Poissons Ratio (z) = 0.20164 0.11408
#
# Static dielectric constant tensor:
#      x y z
#    x 1.997050 -0.038800 0.003930 
#    y -0.038800 2.007600 -0.043800 
#    z 0.003930 -0.043800 1.995730 
# 
# From -- ./inp_files/314740.got.cif
#   From: 2010.05.17/outbox.cif.g08.bks.cpg/sg2_158_cif.got.tgz:314740.got - 2010.06.03 11:33:40.
