data_PCOD9014083
_publ_section_title
;
Structure prediction by ZEFSAII (Michael W. Deem and Ramdas Pophale) SiO2 
 PCOD9014083
Probable space group: P -1
;
_chemical_formula_sum "Si O2"
_cell_formula_units_Z 16
_cell_length_a 11.498421
_cell_length_b 12.360733
_cell_length_c 12.398156
_cell_angle_alpha 33.993910
_cell_angle_beta 55.466988
_cell_angle_gamma 47.883104
_cell_volume 730.563632
_symmetry_space_group_name_H-M "P -1"
_symmetry_group_IT_number 2
_symmetry_cell_setting 'triclinic'
loop_
_space_group_symop_operation_xyz
x,y,z
-x,-y,-z
loop_
_atom_site_type_symbol
_atom_site_label
_atom_site_fract_x
_atom_site_fract_y
_atom_site_fract_z
Si Si1 0.658164 0.243956 0.806964
Si Si2 0.891229 0.646089 0.615256
Si Si3 0.104669 0.848335 0.407649
Si Si4 0.135917 0.732575 0.733118
Si Si5 0.687618 0.660415 0.509876
Si Si6 0.319011 0.251092 0.003033
Si Si7 0.655792 0.010325 0.586670
Si Si8 0.173671 0.232149 0.864121
O O1 0.720392 0.243238 0.653166
O O2 0.657854 0.448887 0.696469
O O3 0.490054 0.243871 0.902585
O O4 0.788126 0.015658 0.971062
O O5 0.819588 0.633600 0.548935
O O6 0.751316 0.800979 0.637765
O O7 0.007614 0.761918 0.453663
O O8 0.994929 0.409859 0.803924
O O9 0.094097 0.763542 0.602333
O O10 0.014316 0.106032 0.254298
O O11 0.206528 0.481472 0.924126
O O12 0.261810 0.829852 0.600761
O O13 0.739954 0.701452 0.330952
O O14 0.524521 0.863014 0.455273
O O15 0.252637 0.237056 0.932630
O O16 0.332305 0.067983 0.231336
#
# Coordination Sequence:
#
# PCOD9014083 Si02
#       8
#     2   2   2   2   2   2   2   2
#     4  12  25  41  67  99 130 173 215 271 330 382
#     4  11  25  47  68  93 132 181 218 266 319 384
#     4  10  22  41  65  98 131 175 211 272 326 386
#     4  10  21  41  66  96 135 165 218 268 333 384
#     4  12  25  47  66  93 137 177 220 261 320 394
#     4  12  24  42  68 103 131 167 215 276 335 381
#     4  11  25  44  70  98 131 171 218 273 324 386
#     4  12  26  43  67 102 132 168 219 271 331 386
#
# _framework density 21.900898000000002
#
# number of rings (size 3 to 8) (size 9 to 14) (size 15 to 20)
#    0.000    0.750    5.000    1.875    3.500    2.000 
#    0.000    0.625    0.000    0.000    0.000    0.000 
#    0.000    0.000    0.000    0.000    0.000    0.000 
#
# Total GULP energy -89558.830423 kJ/mol
# GULP energy per Si atom -5597.426901 kJ/mol
# Density = 2.185105 g / cm^3
# Si number density = 21.900898 Si / 1000 Ang^3
#
#
#
# Elastic Constant Matrix: (Units=GPa)
#
#
# Indices 1 2 3 4 5 6 
#
# 1 65.3700 14.0628 21.3338 1.5564 10.5742 1.1737
# 2 14.0628 101.8500 22.5893 -19.0371 1.7367 -22.4768
# 3 21.3338 22.5893 71.7533 -18.2891 4.2962 10.5866
# 4 1.5564 -19.0371 -18.2891 42.8366 -10.5674 5.6662
# 5 10.5742 1.7367 4.2962 -10.5674 22.2111 -1.8014
# 6 1.1737 -22.4768 10.5866 5.6662 -1.8014 28.0318
#
#
#
# Elastic Compliance Matrix: (Units=1/GPa)
#
#
# Indices 1 2 3 4 5 6 
#
# 1 0.019970 -0.002438 -0.006440 -0.007473 -0.011593 0.000407
# 2 -0.002438 0.014940 -0.005292 0.003617 0.003840 0.013595
# 3 -0.006440 -0.005292 0.021918 0.009778 0.002753 -0.014051
# 4 -0.007473 0.003617 0.009778 0.034501 0.017284 -0.006342
# 5 -0.011593 0.003840 0.002753 0.017284 0.058157 0.002769
# 6 0.000407 0.013595 -0.014051 -0.006342 0.002769 0.053324
#
#
# Mechanical properties :
#
#
# Convention : Reuss Voigt Hill
#
# Bulk Modulus (GPa) = 35.10475 39.43833 37.27154
# Shear Modulus (GPa) = 20.77737 30.68173 25.72955
#
# Velocity S-wave (km/s) = 3.08344 3.74697 3.43128
# Velocity P-wave (km/s) = 5.36102 6.06353 5.72306
#
# Compressibility (1/GPa) = 0.02848617
#
# Stress axis : x y z
#
# Youngs Moduli (GPa) = 50.07562 66.93550 45.62443
#
# Poissons Ratio (x) = 0.16320 0.29384
# Poissons Ratio (y) = 0.12209 0.24145
# Poissons Ratio (z) = 0.32251 0.35423
#
# Static dielectric constant tensor:
#      x y z
#    x 1.764920 -0.017280 -0.020220 
#    y -0.017280 1.834520 -0.008890 
#    z -0.020220 -0.008890 1.826980 
# 
# From -- ./inp_files/427364.got.cif
#   From: 2010.05.17/outbox.cif.g08.bks.cpg/sg2_214_cif.got.tgz:427364.got - 2010.06.03 11:33:40.
