data_PCOD9014831
_publ_section_title
;
Structure prediction by ZEFSAII (Michael W. Deem and Ramdas Pophale) SiO2 
 PCOD9014831
Probable space group: P -1
;
_chemical_formula_sum "Si O2"
_cell_formula_units_Z 16
_cell_length_a 21.020070
_cell_length_b 11.527266
_cell_length_c 15.282980
_cell_angle_alpha 27.249809
_cell_angle_beta 26.793119
_cell_angle_gamma 29.479879
_cell_volume 709.191510
_symmetry_space_group_name_H-M "P -1"
_symmetry_group_IT_number 2
_symmetry_cell_setting 'triclinic'
loop_
_space_group_symop_operation_xyz
x,y,z
-x,-y,-z
loop_
_atom_site_type_symbol
_atom_site_label
_atom_site_fract_x
_atom_site_fract_y
_atom_site_fract_z
Si Si1 0.830673 0.995853 0.697582
Si Si2 0.880511 0.745195 0.426698
Si Si3 0.979951 0.499546 0.294099
Si Si4 0.855009 0.077824 0.796441
Si Si5 0.635685 0.477401 0.915644
Si Si6 0.495680 0.702642 0.117899
Si Si7 0.091928 0.746420 0.849252
Si Si8 0.585187 0.652042 0.236246
O O1 0.863534 0.763972 0.737568
O O2 0.792761 0.962761 0.868937
O O3 0.000000 0.000000 0.500000
O O4 0.682483 0.250195 0.681143
O O5 0.958939 0.703408 0.263186
O O6 0.722343 0.692184 0.655362
O O7 0.000000 0.500000 0.500000
O O8 0.872998 0.019538 0.298229
O O9 0.863919 0.355653 0.558895
O O10 0.969702 0.656118 0.111831
O O11 0.760505 0.185788 0.928362
O O12 0.018706 0.866045 0.766762
O O13 0.572086 0.517451 0.065250
O O14 0.500000 0.500000 0.000000
O O15 0.484068 0.015251 0.901807
O O16 0.580439 0.591448 0.179041
O O17 0.247097 0.490726 0.834543
O O18 0.500000 0.500000 0.500000
#
# Coordination Sequence:
#
# PCOD9014831 Si02
#       8
#     2   2   2   2   2   2   2   2
#     4  10  21  41  69  94 133 182 222 273 339 400
#     4  11  23  40  69  97 135 176 222 286 333 399
#     4  10  22  39  64  99 129 169 222 274 337 389
#     4  10  23  42  68 102 131 175 223 287 330 400
#     4  11  22  42  72  96 135 185 227 269 352 412
#     4  11  24  45  69  95 138 181 219 274 346 402
#     4  12  23  41  70  99 131 171 232 281 339 399
#     4  11  27  42  65 100 136 176 220 281 340 403
#
# _framework density 22.560901999999999
#
# number of rings (size 3 to 8) (size 9 to 14) (size 15 to 20)
#    0.000    1.250    5.000    1.125    5.250    1.500 
#    0.000    0.000    0.000    3.000    0.000    0.000 
#    0.000    0.000    0.000    0.000    0.000    0.000 
#
# Total GULP energy -89080.696150 kJ/mol
# GULP energy per Si atom -5567.543509 kJ/mol
# Density = 2.250955 g / cm^3
# Si number density = 22.560902 Si / 1000 Ang^3
#
#
#
# Elastic Constant Matrix: (Units=GPa)
#
#
# Indices 1 2 3 4 5 6 
#
# 1 97.1304 16.9474 19.6065 -7.0672 -7.4940 0.6472
# 2 16.9474 73.6924 13.5666 1.3993 -3.3574 9.0417
# 3 19.6065 13.5666 94.1170 -6.3167 0.1042 -12.0280
# 4 -7.0672 1.3993 -6.3167 34.8911 -1.5404 7.2227
# 5 -7.4940 -3.3574 0.1042 -1.5404 24.6364 6.4505
# 6 0.6472 9.0417 -12.0280 7.2227 6.4505 44.6176
#
#
#
# Elastic Compliance Matrix: (Units=1/GPa)
#
#
# Indices 1 2 3 4 5 6 
#
# 1 0.011546 -0.001985 -0.002121 0.002464 0.003739 -0.001276
# 2 -0.001985 0.015049 -0.002292 -0.000503 0.002450 -0.003912
# 3 -0.002121 -0.002292 0.011955 0.000944 -0.001957 0.003848
# 4 0.002464 -0.000503 0.000944 0.030603 0.003953 -0.005205
# 5 0.003739 0.002450 -0.001957 0.003953 0.044449 -0.008144
# 6 -0.001276 -0.003912 0.003848 -0.005205 -0.008144 0.026281
#
#
# Mechanical properties :
#
#
# Convention : Reuss Voigt Hill
#
# Bulk Modulus (GPa) = 38.82868 40.57565 39.70216
# Shear Modulus (GPa) = 31.00504 35.15031 33.07767
#
# Velocity S-wave (km/s) = 3.71115 3.95146 3.83319
# Velocity P-wave (km/s) = 5.96754 6.23239 6.10140
#
# Compressibility (1/GPa) = 0.02575416
#
# Stress axis : x y z
#
# Youngs Moduli (GPa) = 86.60918 66.44776 83.64946
#
# Poissons Ratio (x) = 0.13188 0.17743
# Poissons Ratio (y) = 0.17189 0.19174
# Poissons Ratio (z) = 0.18371 0.15231
#
# Static dielectric constant tensor:
#      x y z
#    x -1.492960 -2.045870 -0.598670 
#    y -2.045870 0.617870 -0.308170 
#    z -0.598670 -0.308170 1.996800 
# 
# From -- ./inp_files/541052.got.cif
#   From: 2010.05.17/outbox.cif.g08.bks.cpg/sg2_271_cif.got.tgz:541052.got - 2010.06.03 11:33:40.
