data_PCOD9014416
_publ_section_title
;
Structure prediction by ZEFSAII (Michael W. Deem and Ramdas Pophale) SiO2 
 PCOD9014416
Probable space group: P -1
;
_chemical_formula_sum "Si O2"
_cell_formula_units_Z 16
_cell_length_a 9.026905
_cell_length_b 7.455629
_cell_length_c 18.432869
_cell_angle_alpha 90.148922
_cell_angle_beta 51.729881
_cell_angle_gamma 56.890763
_cell_volume 697.629913
_symmetry_space_group_name_H-M "P -1"
_symmetry_group_IT_number 2
_symmetry_cell_setting 'triclinic'
loop_
_space_group_symop_operation_xyz
x,y,z
-x,-y,-z
loop_
_atom_site_type_symbol
_atom_site_label
_atom_site_fract_x
_atom_site_fract_y
_atom_site_fract_z
Si Si1 0.948748 0.382712 0.423450
Si Si2 0.470234 0.847807 0.324050
Si Si3 0.488537 0.687774 0.168010
Si Si4 0.664586 0.578677 0.748858
Si Si5 0.747333 0.402425 0.332514
Si Si6 0.264134 0.045059 0.107162
Si Si7 0.240607 0.810389 0.981282
Si Si8 0.553209 0.182830 0.333556
O O1 0.794602 0.400154 0.402562
O O2 0.737470 0.590228 0.545538
O O3 0.095509 0.455784 0.343163
O O4 0.174997 0.107909 0.390378
O O5 0.596100 0.703911 0.208775
O O6 0.495804 0.671219 0.374312
O O7 0.603790 0.938081 0.316557
O O8 0.290395 0.662834 0.256028
O O9 0.686155 0.446554 0.055159
O O10 0.352878 0.920438 0.159064
O O11 0.500264 0.737609 0.870150
O O12 0.460662 0.740707 0.744762
O O13 0.735099 0.198426 0.321402
O O14 0.986469 0.321181 0.210406
O O15 0.500000 0.000000 0.000000
O O16 0.205439 0.914662 0.071311
O O17 0.000000 0.000000 0.000000
#
# Coordination Sequence:
#
# PCOD9014416 Si02
#       8
#     2   2   2   2   2   2   2   2
#     4  11  24  46  70 105 142 182 234 292 347 417
#     4  11  23  46  69 103 136 189 231 283 350 412
#     4  10  22  42  69  97 135 189 227 280 358 398
#     4   9  20  41  69  96 138 180 226 279 346 411
#     4  12  25  47  69 104 144 180 236 293 349 413
#     4  12  25  45  67 101 138 183 235 287 346 424
#     4  10  21  41  67  97 132 177 229 281 345 415
#     4  11  24  45  73 102 140 185 233 289 351 414
#
# _framework density 22.934795999999999
#
# number of rings (size 3 to 8) (size 9 to 14) (size 15 to 20)
#    0.750    0.500    2.500    4.500    1.750    2.000 
#    9.000    1.250    0.000    0.000    0.000    0.000 
#    0.000    0.000    0.000    0.000    0.000    0.000 
#
# Total GULP energy -89306.439973 kJ/mol
# GULP energy per Si atom -5581.652498 kJ/mol
# Density = 2.288260 g / cm^3
# Si number density = 22.934796 Si / 1000 Ang^3
#
#
#
# Elastic Constant Matrix: (Units=GPa)
#
#
# Indices 1 2 3 4 5 6 
#
# 1 119.6605 25.6355 0.8685 -1.5484 23.7095 8.7177
# 2 25.6355 86.9032 6.1313 1.1304 7.2722 1.9549
# 3 0.8685 6.1313 75.6293 5.7556 5.7451 4.9285
# 4 -1.5484 1.1304 5.7556 14.3901 -0.8813 7.4893
# 5 23.7095 7.2722 5.7451 -0.8813 47.4471 -2.0986
# 6 8.7177 1.9549 4.9285 7.4893 -2.0986 28.3463
#
#
#
# Elastic Compliance Matrix: (Units=1/GPa)
#
#
# Indices 1 2 3 4 5 6 
#
# 1 0.010224 -0.002586 0.000512 0.002988 -0.004905 -0.004208
# 2 -0.002586 0.012380 -0.000874 -0.001115 -0.000505 0.000350
# 3 0.000512 -0.000874 0.013894 -0.004835 -0.001955 -0.001380
# 4 0.002988 -0.001115 -0.004835 0.083284 -0.000164 -0.022018
# 5 -0.004905 -0.000505 -0.001955 -0.000164 0.024002 0.003704
# 6 -0.004208 0.000350 -0.001380 -0.022018 0.003704 0.042879
#
#
# Mechanical properties :
#
#
# Convention : Reuss Voigt Hill
#
# Bulk Modulus (GPa) = 32.67685 38.60707 35.64196
# Shear Modulus (GPa) = 24.65958 34.67388 29.66673
#
# Velocity S-wave (km/s) = 3.28259 3.89246 3.60046
# Velocity P-wave (km/s) = 5.35218 6.08865 5.73225
#
# Compressibility (1/GPa) = 0.03060270
#
# Stress axis : x y z
#
# Youngs Moduli (GPa) = 97.80493 80.77305 71.97496
#
# Poissons Ratio (x) = 0.20887 -0.03683
# Poissons Ratio (y) = 0.25292 0.06288
# Poissons Ratio (z) = -0.05004 0.07057
#
# Static dielectric constant tensor:
#      x y z
#    x 1.907900 0.013350 -0.035050 
#    y 0.013350 1.889310 0.080160 
#    z -0.035050 0.080160 1.873990 
# 
# From -- ./inp_files/557240.got.cif
#   From: 2010.05.17/outbox.cif.g08.bks.cpg/sg2_279_cif.got.tgz:557240.got - 2010.06.03 11:33:40.
