data_PCOD9014726
_publ_section_title
;
Structure prediction by ZEFSAII (Michael W. Deem and Ramdas Pophale) SiO2 
 PCOD9014726
Probable space group: P -1
;
_chemical_formula_sum "Si O2"
_cell_formula_units_Z 14
_cell_length_a 7.710185
_cell_length_b 11.525367
_cell_length_c 11.275601
_cell_angle_alpha 134.980180
_cell_angle_beta 61.430576
_cell_angle_gamma 125.988460
_cell_volume 570.007759
_symmetry_space_group_name_H-M "P -1"
_symmetry_group_IT_number 2
_symmetry_cell_setting 'triclinic'
loop_
_space_group_symop_operation_xyz
x,y,z
-x,-y,-z
loop_
_atom_site_type_symbol
_atom_site_label
_atom_site_fract_x
_atom_site_fract_y
_atom_site_fract_z
Si Si1 0.929748 0.530053 0.204226
Si Si2 0.694189 0.687846 0.554636
Si Si3 0.579422 0.290052 0.816314
Si Si4 0.843031 0.773641 0.213265
Si Si5 0.413742 0.829404 0.029492
Si Si6 0.129123 0.013619 0.088641
Si Si7 0.299339 0.024319 0.409420
O O1 0.883193 0.642293 0.404432
O O2 0.903024 0.633212 0.169009
O O3 0.745368 0.330484 0.115166
O O4 0.177431 0.561864 0.162976
O O5 0.500000 0.500000 0.500000
O O6 0.611775 0.784968 0.548483
O O7 0.785037 0.805747 0.727847
O O8 0.408649 0.315557 0.805846
O O9 0.591036 0.095406 0.648417
O O10 0.510320 0.269080 0.961558
O O11 0.853477 0.938103 0.415987
O O12 0.967605 0.858989 0.113649
O O13 0.636366 0.981729 0.020353
O O14 0.271370 0.912235 0.212267
O O15 0.000000 0.000000 0.000000
#
# Coordination Sequence:
#
# PCOD9014726 Si02
#       7
#     2   2   2   2   2   2   2
#     4  11  23  45  71 108 136 189 241 289 353 424
#     4  11  23  43  72  99 145 189 235 293 357 426
#     4  10  21  41  69 100 141 177 237 293 344 414
#     4  11  23  43  77  98 140 188 239 288 353 424
#     4  10  23  42  66 101 147 174 236 291 352 422
#     4  12  23  44  67 105 140 187 231 292 357 419
#     4   9  22  42  68 103 132 185 239 285 346 427
#
# _framework density 24.561071999999999
#
# number of rings (size 3 to 8) (size 9 to 14) (size 15 to 20)
#    0.857    0.571    2.857    2.571    0.000    4.571 
#    0.000    0.000    3.143    3.429    0.000    0.000 
#    0.000    0.000    0.000    0.000    0.000    0.000 
#
# Total GULP energy -78010.697467 kJ/mol
# GULP energy per Si atom -5572.192676 kJ/mol
# Density = 2.450517 g / cm^3
# Si number density = 24.561072 Si / 1000 Ang^3
#
#
#
# Elastic Constant Matrix: (Units=GPa)
#
#
# Indices 1 2 3 4 5 6 
#
# 1 159.6633 59.1407 46.2057 2.1968 22.6397 12.5581
# 2 59.1407 165.5320 48.1712 9.4133 -3.1456 14.4919
# 3 46.2057 48.1712 121.7854 -1.1416 11.7180 -3.5501
# 4 2.1968 9.4133 -1.1416 38.0097 -2.8818 2.4705
# 5 22.6397 -3.1456 11.7180 -2.8818 42.4699 9.0944
# 6 12.5581 14.4919 -3.5501 2.4705 9.0944 28.2228
#
#
#
# Elastic Compliance Matrix: (Units=1/GPa)
#
#
# Indices 1 2 3 4 5 6 
#
# 1 0.008348 -0.002356 -0.001917 -0.000145 -0.003781 -0.001515
# 2 -0.002356 0.008265 -0.002862 -0.001431 0.003539 -0.004571
# 3 -0.001917 -0.002862 0.010500 0.000609 -0.003023 0.004565
# 4 -0.000145 -0.001431 0.000609 0.026990 0.002098 -0.002163
# 5 -0.003781 0.003539 -0.003023 0.002098 0.028947 -0.010027
# 6 -0.001515 -0.004571 0.004565 -0.002163 -0.010027 0.042448
#
#
# Mechanical properties :
#
#
# Convention : Reuss Voigt Hill
#
# Bulk Modulus (GPa) = 77.86720 83.77955 80.82337
# Shear Modulus (GPa) = 34.71040 41.30469 38.00755
#
# Velocity S-wave (km/s) = 3.76337 4.10532 3.93806
# Velocity P-wave (km/s) = 7.11732 7.52704 7.32504
#
# Compressibility (1/GPa) = 0.01284238
#
# Stress axis : x y z
#
# Youngs Moduli (GPa) = 119.79222 120.99938 95.23403
#
# Poissons Ratio (x) = 0.28502 0.18258
# Poissons Ratio (y) = 0.28217 0.27260
# Poissons Ratio (z) = 0.22967 0.34636
#
# Static dielectric constant tensor:
#      x y z
#    x 2.057140 -0.000470 -0.025570 
#    y -0.000470 2.005050 -0.014840 
#    z -0.025570 -0.014840 2.098220 
# 
# From -- ./inp_files/393066.got.cif
#   From: 2010.05.17/outbox.cif.g08.bks.cpg/sg2_197_cif.got.tgz:393066.got - 2010.06.03 11:33:40.
