data_PCOD9014107
_publ_section_title
;
Structure prediction by ZEFSAII (Michael W. Deem and Ramdas Pophale) SiO2 
 PCOD9014107
Probable space group: P -1
;
_chemical_formula_sum "Si O2"
_cell_formula_units_Z 14
_cell_length_a 8.812870
_cell_length_b 12.595731
_cell_length_c 9.671047
_cell_angle_alpha 116.026822
_cell_angle_beta 118.425379
_cell_angle_gamma 113.396205
_cell_volume 544.560747
_symmetry_space_group_name_H-M "P -1"
_symmetry_group_IT_number 2
_symmetry_cell_setting 'triclinic'
loop_
_space_group_symop_operation_xyz
x,y,z
-x,-y,-z
loop_
_atom_site_type_symbol
_atom_site_label
_atom_site_fract_x
_atom_site_fract_y
_atom_site_fract_z
Si Si1 0.773755 0.282258 0.735470
Si Si2 0.894574 0.738753 0.524254
Si Si3 0.294048 0.205252 0.766611
Si Si4 0.430905 0.018326 0.755097
Si Si5 0.689457 0.832238 0.674087
Si Si6 0.453167 0.363362 0.230239
Si Si7 0.959052 0.215713 0.024195
O O1 0.713834 0.155637 0.509120
O O2 0.525618 0.237170 0.570387
O O3 0.823038 0.212704 0.835823
O O4 0.000000 0.500000 0.000000
O O5 0.709551 0.689847 0.286510
O O6 0.838931 0.799505 0.657772
O O7 0.755777 0.549869 0.418528
O O8 0.201799 0.901961 0.705788
O O9 0.463050 0.172301 0.805100
O O10 0.320220 0.261277 0.967502
O O11 0.000000 0.000000 0.500000
O O12 0.735025 0.139768 0.995436
O O13 0.553158 0.736167 0.707856
O O14 0.902979 0.048248 0.893116
O O15 0.280574 0.384812 0.231580
#
# Coordination Sequence:
#
# PCOD9014107 Si02
#       7
#     2   2   2   2   2   2   2
#     4  11  23  43  69 100 133 177 226 276 330 403
#     4  11  22  41  67  98 134 176 224 276 327 393
#     4  10  21  41  66  97 134 180 226 272 327 404
#     4  10  22  40  64  95 129 170 224 276 321 382
#     4  11  24  44  67  99 138 179 220 272 337 404
#     4  12  25  42  68 102 137 176 222 277 336 392
#     4  11  22  41  67  95 131 178 222 263 325 406
#
# _framework density 25.708794000000001
#
# number of rings (size 3 to 8) (size 9 to 14) (size 15 to 20)
#    0.000    1.143    0.000    9.000    0.000    2.286 
#    0.000    9.286    0.000    0.000    0.000    0.000 
#    0.000    0.000    0.000    0.000    0.000    0.000 
#
# Total GULP energy -78013.951285 kJ/mol
# GULP energy per Si atom -5572.425092 kJ/mol
# Density = 2.565028 g / cm^3
# Si number density = 25.708794 Si / 1000 Ang^3
#
#
#
# Elastic Constant Matrix: (Units=GPa)
#
#
# Indices 1 2 3 4 5 6 
#
# 1 84.5299 5.4143 27.9296 -1.5320 11.6676 11.0027
# 2 5.4143 162.7027 39.6198 -6.7066 -13.8566 19.4331
# 3 27.9296 39.6198 126.6343 -12.1705 2.8334 19.2855
# 4 -1.5320 -6.7066 -12.1705 30.0984 6.1936 -0.2919
# 5 11.6676 -13.8566 2.8334 6.1936 39.8125 3.7960
# 6 11.0027 19.4331 19.2855 -0.2919 3.7960 31.8367
#
#
#
# Elastic Compliance Matrix: (Units=1/GPa)
#
#
# Indices 1 2 3 4 5 6 
#
# 1 0.013503 0.000220 -0.002491 0.000420 -0.003495 -0.002871
# 2 0.000220 0.007287 -0.001791 0.000274 0.002917 -0.003784
# 3 -0.002491 -0.001791 0.009977 0.003633 -0.000791 -0.003962
# 4 0.000420 0.000274 0.003633 0.035941 -0.005735 -0.001499
# 5 -0.003495 0.002917 -0.000791 -0.005735 0.028443 -0.003538
# 6 -0.002871 -0.003784 -0.003962 -0.001499 -0.003538 0.037520
#
#
# Mechanical properties :
#
#
# Convention : Reuss Voigt Hill
#
# Bulk Modulus (GPa) = 44.16566 57.75493 50.96030
# Shear Modulus (GPa) = 33.70577 40.40972 37.05775
#
# Velocity S-wave (km/s) = 3.62478 3.96893 3.80075
# Velocity P-wave (km/s) = 5.89366 6.59674 6.25509
#
# Compressibility (1/GPa) = 0.02264203
#
# Stress axis : x y z
#
# Youngs Moduli (GPa) = 74.05835 137.23638 100.23412
#
# Poissons Ratio (x) = -0.03017 0.24969
# Poissons Ratio (y) = -0.01628 0.17951
# Poissons Ratio (z) = 0.18448 0.24578
#
# Static dielectric constant tensor:
#      x y z
#    x 2.111840 0.020630 0.022570 
#    y 0.020630 2.091480 -0.031410 
#    z 0.022570 -0.031410 2.077300 
# 
# From -- ./inp_files/189480.got.cif
#   From: 2010.05.17/outbox.cif.g08.bks.cpg/sg2_95_cif.got.tgz:189480.got - 2010.06.03 11:33:40.
