data_PCOD9014225
_publ_section_title
;
Structure prediction by ZEFSAII (Michael W. Deem and Ramdas Pophale) SiO2 
 PCOD9014225
Probable space group: P -1
;
_chemical_formula_sum "Si O2"
_cell_formula_units_Z 16
_cell_length_a 12.035160
_cell_length_b 8.197594
_cell_length_c 19.428466
_cell_angle_alpha 67.758762
_cell_angle_beta 45.132265
_cell_angle_gamma 36.774084
_cell_volume 730.433282
_symmetry_space_group_name_H-M "P -1"
_symmetry_group_IT_number 2
_symmetry_cell_setting 'triclinic'
loop_
_space_group_symop_operation_xyz
x,y,z
-x,-y,-z
loop_
_atom_site_type_symbol
_atom_site_label
_atom_site_fract_x
_atom_site_fract_y
_atom_site_fract_z
Si Si1 0.204024 0.101205 0.436099
Si Si2 0.308163 0.558808 0.926423
Si Si3 0.351639 0.264713 0.076914
Si Si4 0.304334 0.947872 0.904435
Si Si5 0.297017 0.892912 0.282107
Si Si6 0.264683 0.181684 0.743393
Si Si7 0.620400 0.577310 0.622623
Si Si8 0.737700 0.339569 0.467998
O O1 0.901388 0.420681 0.545931
O O2 0.247854 0.069590 0.339211
O O3 0.488064 0.914513 0.369807
O O4 0.186342 0.908585 0.486272
O O5 0.414302 0.662797 0.869656
O O6 0.492360 0.267842 0.843953
O O7 0.307763 0.482526 0.015896
O O8 0.009007 0.818662 0.983102
O O9 0.528093 0.144423 0.087244
O O10 0.042820 0.486248 0.191792
O O11 0.500000 0.000000 0.000000
O O12 0.287549 0.111242 0.825946
O O13 0.384177 0.619355 0.316622
O O14 0.997862 0.152652 0.341162
O O15 0.355689 0.919544 0.707733
O O16 0.645046 0.556106 0.532842
O O17 0.500000 0.500000 0.500000
#
# Coordination Sequence:
#
# PCOD9014225 Si02
#       8
#     2   2   2   2   2   2   2   2
#     4   9  20  35  60  87 119 157 198 236 294 362
#     4  10  21  41  67  85 116 162 202 250 306 348
#     4  11  27  41  57  94 126 152 206 256 299 368
#     4  10  23  42  62  90 119 154 209 252 299 361
#     4   9  18  35  61  85 111 159 200 235 294 356
#     4  11  22  40  64  86 123 166 191 247 312 350
#     4   9  18  39  59  85 117 154 203 238 288 362
#     4   9  19  36  56  90 125 149 196 250 287 356
#
# _framework density 21.904806000000001
#
# number of rings (size 3 to 8) (size 9 to 14) (size 15 to 20)
#    0.000    2.250    1.250    2.250    3.500    3.000 
#    4.500    0.625    0.000    0.000    0.000    0.000 
#    0.000    0.000    0.000    0.000    0.000    0.000 
#
# Total GULP energy -89074.660956 kJ/mol
# GULP energy per Si atom -5567.166310 kJ/mol
# Density = 2.185495 g / cm^3
# Si number density = 21.904806 Si / 1000 Ang^3
#
#
#
# Elastic Constant Matrix: (Units=GPa)
#
#
# Indices 1 2 3 4 5 6 
#
# 1 66.6627 27.7461 16.2957 13.0902 -17.1600 -27.6730
# 2 27.7461 45.0770 19.7792 9.2299 -6.2458 -11.2226
# 3 16.2957 19.7792 96.8229 24.9855 -1.5245 -11.7087
# 4 13.0902 9.2299 24.9855 43.1234 1.4375 -6.8372
# 5 -17.1600 -6.2458 -1.5245 1.4375 31.2913 -0.0859
# 6 -27.6730 -11.2226 -11.7087 -6.8372 -0.0859 28.7815
#
#
#
# Elastic Compliance Matrix: (Units=1/GPa)
#
#
# Indices 1 2 3 4 5 6 
#
# 1 0.039713 -0.013247 0.001731 -0.005735 0.019571 0.032418
# 2 -0.013247 0.031640 -0.004394 -0.000534 -0.001145 -0.002317
# 3 0.001731 -0.004394 0.013110 -0.006626 0.001025 0.003713
# 4 -0.005735 -0.000534 -0.006626 0.028794 -0.004902 -0.001592
# 5 0.019571 -0.001145 0.001025 -0.004902 0.042786 0.017751
# 6 0.032418 -0.002317 0.003713 -0.001592 0.017751 0.066195
#
#
# Mechanical properties :
#
#
# Convention : Reuss Voigt Hill
#
# Bulk Modulus (GPa) = 18.99659 37.35606 28.17633
# Shear Modulus (GPa) = 18.40907 30.28869 24.34888
#
# Velocity S-wave (km/s) = 2.90213 3.72256 3.33765
# Velocity P-wave (km/s) = 4.46329 5.96384 5.26728
#
# Compressibility (1/GPa) = 0.05264103
#
# Stress axis : x y z
#
# Youngs Moduli (GPa) = 25.18095 31.60562 76.28037
#
# Poissons Ratio (x) = 0.41867 -0.13201
# Poissons Ratio (y) = 0.33356 0.33521
# Poissons Ratio (z) = -0.04358 0.13889
#
# Static dielectric constant tensor:
#      x y z
#    x 1.821710 0.049060 -0.016490 
#    y 0.049060 1.735940 0.011860 
#    z -0.016490 0.011860 1.844710 
# 
# From -- ./inp_files/282054.got.cif
#   From: 2010.05.17/outbox.cif.g08.bks.cpg/sg2_142_cif.got.tgz:282054.got - 2010.06.03 11:33:40.
