data_PCOD9014403
_publ_section_title
;
Structure prediction by ZEFSAII (Michael W. Deem and Ramdas Pophale) SiO2 
 PCOD9014403
Probable space group: P -1
;
_chemical_formula_sum "Si O2"
_cell_formula_units_Z 16
_cell_length_a 7.072167
_cell_length_b 9.124061
_cell_length_c 16.145419
_cell_angle_alpha 123.830179
_cell_angle_beta 50.755926
_cell_angle_gamma 92.683855
_cell_volume 589.913703
_symmetry_space_group_name_H-M "P -1"
_symmetry_group_IT_number 2
_symmetry_cell_setting 'triclinic'
loop_
_space_group_symop_operation_xyz
x,y,z
-x,-y,-z
loop_
_atom_site_type_symbol
_atom_site_label
_atom_site_fract_x
_atom_site_fract_y
_atom_site_fract_z
Si Si1 0.892970 0.815520 0.892803
Si Si2 0.259473 0.663765 0.420801
Si Si3 0.356778 0.206823 0.537271
Si Si4 0.699784 0.585005 0.006214
Si Si5 0.728573 0.003265 0.715331
Si Si6 0.443015 0.776771 0.816405
Si Si7 0.814500 0.448724 0.416716
Si Si8 0.918398 0.845253 0.248605
O O1 0.184159 0.784864 0.839877
O O2 0.962370 0.728516 0.755039
O O3 0.797956 0.687638 0.938992
O O4 0.687925 0.051644 0.024447
O O5 0.493672 0.713146 0.411315
O O6 0.396223 0.452799 0.268183
O O7 0.157625 0.594569 0.509453
O O8 0.988824 0.872871 0.542269
O O9 0.189549 0.359389 0.560727
O O10 0.142067 0.182520 0.647371
O O11 0.612779 0.018267 0.363532
O O12 0.510656 0.776116 0.176568
O O13 0.500000 0.500000 0.000000
O O14 0.954533 0.371925 0.897995
O O15 0.589181 0.869810 0.744454
O O16 0.872607 0.061981 0.771035
O O17 0.500000 0.500000 0.500000
#
# Coordination Sequence:
#
# PCOD9014403 Si02
#       8
#     2   2   2   2   2   2   2   2
#     4  10  18  30  49  75  94 126 166 198 239 287
#     4  10  18  31  48  72 102 131 155 194 248 293
#     4   9  16  26  47  73  92 121 163 204 243 276
#     4   9  16  29  46  70 100 122 152 211 245 268
#     4   9  19  28  45  73  98 128 163 194 243 284
#     4  10  18  30  47  69 102 127 161 199 234 289
#     4  10  17  30  48  74 103 125 156 199 244 290
#     4   9  15  27  46  69  98 118 162 209 241 271
#
# _framework density 27.122612
#
# number of rings (size 3 to 8) (size 9 to 14) (size 15 to 20)
#    0.000    2.500    3.750    0.375    0.000    0.000 
#    0.000    2.500    0.000    0.750    0.000    3.500 
#   15.000    0.625    0.000    0.000    0.000    0.000 
#
# Total GULP energy -89413.352502 kJ/mol
# GULP energy per Si atom -5588.334531 kJ/mol
# Density = 2.706088 g / cm^3
# Si number density = 27.122612 Si / 1000 Ang^3
#
#
#
# Elastic Constant Matrix: (Units=GPa)
#
#
# Indices 1 2 3 4 5 6 
#
# 1 46.5636 33.7418 29.0810 -0.3173 -11.8607 17.8858
# 2 33.7418 148.6433 38.1944 18.9071 -8.1764 29.7324
# 3 29.0810 38.1944 167.7338 64.3607 -30.7883 4.9557
# 4 -0.3173 18.9071 64.3607 62.7966 -2.8155 -8.0239
# 5 -11.8607 -8.1764 -30.7883 -2.8155 42.4561 9.6167
# 6 17.8858 29.7324 4.9557 -8.0239 9.6167 46.9218
#
#
#
# Elastic Compliance Matrix: (Units=1/GPa)
#
#
# Indices 1 2 3 4 5 6 
#
# 1 0.034106 -0.004774 -0.005789 0.006622 0.007041 -0.009675
# 2 -0.004774 0.009311 0.000908 -0.004349 0.002038 -0.005337
# 3 -0.005789 0.000908 0.014334 -0.015143 0.008923 -0.004301
# 4 0.006622 -0.004349 -0.015143 0.033570 -0.009918 0.009604
# 5 0.007041 0.002038 0.008923 -0.009918 0.034842 -0.013755
# 6 -0.009675 -0.005337 -0.004301 0.009604 -0.013755 0.033298
#
#
# Mechanical properties :
#
#
# Convention : Reuss Voigt Hill
#
# Bulk Modulus (GPa) = 26.01396 62.77501 44.39448
# Shear Modulus (GPa) = 26.09824 47.89648 36.99736
#
# Velocity S-wave (km/s) = 3.10535 4.20685 3.69735
# Velocity P-wave (km/s) = 4.74022 6.84046 5.88479
#
# Compressibility (1/GPa) = 0.03844090
#
# Stress axis : x y z
#
# Youngs Moduli (GPa) = 29.32050 107.40163 69.76371
#
# Poissons Ratio (x) = 0.51278 0.40384
# Poissons Ratio (y) = 0.13999 -0.06336
# Poissons Ratio (z) = 0.16973 -0.09754
#
# Static dielectric constant tensor:
#      x y z
#    x 2.132750 0.055050 -0.058260 
#    y 0.055050 2.154230 0.094210 
#    z -0.058260 0.094210 2.214420 
# 
# From -- ./inp_files/435777.got.cif
#   From: 2010.05.17/outbox.cif.g08.bks.cpg/sg2_218_cif.got.tgz:435777.got - 2010.06.03 11:33:40.
