data_PCOD9014903
_publ_section_title
;
Structure prediction by ZEFSAII (Michael W. Deem and Ramdas Pophale) SiO2 
 PCOD9014903
Probable space group: P -1
;
_chemical_formula_sum "Si O2"
_cell_formula_units_Z 16
_cell_length_a 17.069747
_cell_length_b 9.047419
_cell_length_c 7.236131
_cell_angle_alpha 99.315695
_cell_angle_beta 92.616315
_cell_angle_gamma 142.659520
_cell_volume 639.892452
_symmetry_space_group_name_H-M "P -1"
_symmetry_group_IT_number 2
_symmetry_cell_setting 'triclinic'
loop_
_space_group_symop_operation_xyz
x,y,z
-x,-y,-z
loop_
_atom_site_type_symbol
_atom_site_label
_atom_site_fract_x
_atom_site_fract_y
_atom_site_fract_z
Si Si1 0.030510 0.012283 0.222106
Si Si2 0.261629 0.596988 0.337408
Si Si3 0.391248 0.324067 0.618540
Si Si4 0.251800 0.375199 0.767514
Si Si5 0.870260 0.224493 0.334076
Si Si6 0.314487 0.807357 0.777804
Si Si7 0.020193 0.360531 0.037093
Si Si8 0.563043 0.351506 0.853100
O O1 0.907955 0.879099 0.307021
O O2 0.029307 0.830007 0.168303
O O3 0.162087 0.311411 0.344075
O O4 0.000000 0.000000 0.000000
O O5 0.307650 0.771696 0.546739
O O6 0.170737 0.547200 0.166882
O O7 0.386070 0.696860 0.291095
O O8 0.500000 0.500000 0.500000
O O9 0.344632 0.422929 0.654156
O O10 0.483011 0.371468 0.779721
O O11 0.242227 0.014749 0.582207
O O12 0.286070 0.602882 0.815300
O O13 0.303358 0.394111 0.974323
O O14 0.797604 0.242639 0.214264
O O15 0.000000 0.500000 0.500000
O O16 0.929119 0.203993 0.182079
O O17 0.454354 0.095752 0.914667
O O18 0.000000 0.500000 0.000000
#
# Coordination Sequence:
#
# PCOD9014903 Si02
#       8
#     2   2   2   2   2   2   2   2
#     4  10  21  41  69  99 135 174 229 287 348 404
#     4  11  22  43  68  98 143 178 226 284 348 416
#     4  11  26  48  69 103 142 191 240 289 355 426
#     4  12  23  45  72 102 137 180 240 289 352 420
#     4  11  24  46  71 104 147 184 235 298 351 420
#     4  11  25  43  67 101 142 185 228 280 358 416
#     4  11  22  43  70 107 140 178 232 292 356 416
#     4  11  24  45  69  96 143 184 229 289 348 425
#
# _framework density 25.004203
#
# number of rings (size 3 to 8) (size 9 to 14) (size 15 to 20)
#    0.000    1.000    3.750    4.125    0.000    1.500 
#    6.750    0.000    0.000    0.000    0.000    0.000 
#    0.000    0.000    0.000    0.000    0.000    0.000 
#
# Total GULP energy -89337.740847 kJ/mol
# GULP energy per Si atom -5583.608803 kJ/mol
# Density = 2.494729 g / cm^3
# Si number density = 25.004203 Si / 1000 Ang^3
#
#
#
# Elastic Constant Matrix: (Units=GPa)
#
#
# Indices 1 2 3 4 5 6 
#
# 1 173.1825 56.2809 25.0762 -7.3161 -6.0694 18.2638
# 2 56.2809 145.3994 18.2809 -0.0411 6.0030 14.0212
# 3 25.0762 18.2809 53.2163 4.5284 1.2315 19.2976
# 4 -7.3161 -0.0411 4.5284 35.6502 9.8836 1.5217
# 5 -6.0694 6.0030 1.2315 9.8836 51.8233 -12.7377
# 6 18.2638 14.0212 19.2976 1.5217 -12.7377 54.3221
#
#
#
# Elastic Compliance Matrix: (Units=1/GPa)
#
#
# Indices 1 2 3 4 5 6 
#
# 1 0.007069 -0.002387 -0.002369 0.001602 0.000656 -0.000810
# 2 -0.002387 0.008134 -0.001200 0.000147 -0.001524 -0.001232
# 3 -0.002369 -0.001200 0.023341 -0.002553 -0.002074 -0.007601
# 4 0.001602 0.000147 -0.002553 0.030465 -0.006057 -0.001943
# 5 0.000656 -0.001524 -0.002074 -0.006057 0.022305 0.006310
# 6 -0.000810 -0.001232 -0.007601 -0.001943 0.006310 0.023233
#
#
# Mechanical properties :
#
#
# Convention : Reuss Voigt Hill
#
# Bulk Modulus (GPa) = 37.54733 63.45270 50.50001
# Shear Modulus (GPa) = 36.94489 46.50315 41.72402
#
# Velocity S-wave (km/s) = 3.84806 4.31723 4.08938
# Velocity P-wave (km/s) = 5.89851 7.09107 6.52210
#
# Compressibility (1/GPa) = 0.02663306
#
# Stress axis : x y z
#
# Youngs Moduli (GPa) = 141.46185 122.93754 42.84308
#
# Poissons Ratio (x) = 0.29345 0.10148
# Poissons Ratio (y) = 0.33766 0.05141
# Poissons Ratio (z) = 0.33509 0.14751
#
# Static dielectric constant tensor:
#      x y z
#    x 2.009220 -0.024790 -0.034880 
#    y -0.024790 1.995490 -0.047160 
#    z -0.034880 -0.047160 2.056910 
# 
# From -- ./inp_files/298846.got.cif
#   From: 2010.05.17/outbox.cif.g08.bks.cpg/sg2_150_cif.got.tgz:298846.got - 2010.06.03 11:33:40.
