data_PCOD9014991
_publ_section_title
;
Structure prediction by ZEFSAII (Michael W. Deem and Ramdas Pophale) SiO2 
 PCOD9014991
Probable space group: P -1
;
_chemical_formula_sum "Si O2"
_cell_formula_units_Z 10
_cell_length_a 13.467275
_cell_length_b 5.274980
_cell_length_c 13.271292
_cell_angle_alpha 112.786109
_cell_angle_beta 30.242202
_cell_angle_gamma 121.006586
_cell_volume 403.333429
_symmetry_space_group_name_H-M "P -1"
_symmetry_group_IT_number 2
_symmetry_cell_setting 'triclinic'
loop_
_space_group_symop_operation_xyz
x,y,z
-x,-y,-z
loop_
_atom_site_type_symbol
_atom_site_label
_atom_site_fract_x
_atom_site_fract_y
_atom_site_fract_z
Si Si1 0.632666 0.289565 0.858638
Si Si2 0.128071 0.416310 0.963035
Si Si3 0.536876 0.947460 0.231888
Si Si4 0.675669 0.838304 0.399468
Si Si5 0.068308 0.238383 0.195591
O O1 0.637577 0.190211 0.723979
O O2 0.853501 0.506872 0.749764
O O3 0.500000 0.500000 0.000000
O O4 0.500000 0.000000 0.000000
O O5 0.007078 0.363919 0.166478
O O6 0.200567 0.165292 0.813203
O O7 0.342359 0.703191 0.842533
O O8 0.000000 0.500000 0.000000
O O9 0.443241 0.948599 0.425783
O O10 0.721983 0.822057 0.032073
O O11 0.500000 0.500000 0.500000
O O12 0.864153 0.927309 0.334229
#
# Coordination Sequence:
#
# PCOD9014991 Si02
#       5
#     2   2   2   2   2
#     4  10  21  41  70  95 125 174 222 264 327 390
#     4  11  21  39  63  89 129 167 210 259 329 384
#     4  10  22  41  62  92 127 163 220 263 322 386
#     4  10  23  39  60  97 125 166 215 261 322 393
#     4  11  22  41  67  86 131 172 205 274 324 375
#
# _framework density 24.793382999999999
#
# number of rings (size 3 to 8) (size 9 to 14) (size 15 to 20)
#    0.000    1.600    4.000    0.600    0.000    1.600 
#    7.200    0.000    0.000    6.000    0.000    0.000 
#    0.000    0.000    0.000    0.000    0.000    0.000 
#
# Total GULP energy -55712.135771 kJ/mol
# GULP energy per Si atom -5571.213577 kJ/mol
# Density = 2.473695 g / cm^3
# Si number density = 24.793383 Si / 1000 Ang^3
#
#
#
# Elastic Constant Matrix: (Units=GPa)
#
#
# Indices 1 2 3 4 5 6 
#
# 1 153.4609 73.0491 27.6078 2.5509 -4.7536 51.0020
# 2 73.0491 114.3362 32.0327 10.0680 -2.6625 38.1170
# 3 27.6078 32.0327 100.8536 10.5470 -11.5020 13.1671
# 4 2.5509 10.0680 10.5470 43.8072 11.8977 -4.7399
# 5 -4.7536 -2.6625 -11.5020 11.8977 36.6201 -1.0584
# 6 51.0020 38.1170 13.1671 -4.7399 -1.0584 72.6769
#
#
#
# Elastic Compliance Matrix: (Units=1/GPa)
#
#
# Indices 1 2 3 4 5 6 
#
# 1 0.010593 -0.005018 -0.000616 -0.000007 0.000684 -0.004681
# 2 -0.005018 0.014064 -0.002255 -0.002928 0.000509 -0.003629
# 3 -0.000616 -0.002255 0.011795 -0.003614 0.004615 -0.000690
# 4 -0.000007 -0.002928 -0.003614 0.027554 -0.010190 0.003844
# 5 0.000684 0.000509 0.004615 -0.010190 0.032142 -0.001780
# 6 -0.004681 -0.003629 -0.000690 0.003844 -0.001780 0.019298
#
#
# Mechanical properties :
#
#
# Convention : Reuss Voigt Hill
#
# Bulk Modulus (GPa) = 48.37310 70.44778 59.41044
# Shear Modulus (GPa) = 36.20210 46.35158 41.27684
#
# Velocity S-wave (km/s) = 3.82534 4.32848 4.08466
# Velocity P-wave (km/s) = 6.25010 7.31140 6.80148
#
# Compressibility (1/GPa) = 0.02067265
#
# Stress axis : x y z
#
# Youngs Moduli (GPa) = 94.40467 71.10547 84.78511
#
# Poissons Ratio (x) = 0.35681 0.05223
# Poissons Ratio (y) = 0.47373 0.19119
# Poissons Ratio (z) = 0.05815 0.16035
#
# Static dielectric constant tensor:
#      x y z
#    x 2.064630 0.024320 -0.052810 
#    y 0.024320 2.032330 -0.077120 
#    z -0.052810 -0.077120 2.041140 
# 
# From -- ./inp_files/372750.got.cif
#   From: 2010.05.17/outbox.cif.g08.bks.cpg/sg2_187_cif.got.tgz:372750.got - 2010.06.03 11:33:40.
