data_PCOD9014540
_publ_section_title
;
Structure prediction by ZEFSAII (Michael W. Deem and Ramdas Pophale) SiO2 
 PCOD9014540
Probable space group: P -1
;
_chemical_formula_sum "Si O2"
_cell_formula_units_Z 14
_cell_length_a 25.778297
_cell_length_b 6.829953
_cell_length_c 19.082240
_cell_angle_alpha 75.845990
_cell_angle_beta 164.344375
_cell_angle_gamma 95.369475
_cell_volume 738.657811
_symmetry_space_group_name_H-M "P -1"
_symmetry_group_IT_number 2
_symmetry_cell_setting 'triclinic'
loop_
_space_group_symop_operation_xyz
x,y,z
-x,-y,-z
loop_
_atom_site_type_symbol
_atom_site_label
_atom_site_fract_x
_atom_site_fract_y
_atom_site_fract_z
Si Si1 0.353671 0.673320 0.070105
Si Si2 0.838334 0.598841 0.714530
Si Si3 0.045079 0.247724 0.370101
Si Si4 0.273953 0.944060 0.554361
Si Si5 0.241291 0.473280 0.811524
Si Si6 0.150622 0.554926 0.405474
Si Si7 0.685162 0.133604 0.135600
O O1 0.605794 0.602815 0.423380
O O2 0.335298 0.489190 0.009957
O O3 0.259129 0.895496 0.872342
O O4 0.193185 0.719478 0.922192
O O5 0.780122 0.861180 0.592950
O O6 0.944442 0.442643 0.795286
O O7 0.000000 0.500000 0.000000
O O8 0.161537 0.085130 0.467524
O O9 0.022672 0.497807 0.302778
O O10 0.207841 0.104035 0.659896
O O11 0.174000 0.778878 0.425263
O O12 0.548774 0.763635 0.930165
O O13 0.220962 0.704458 0.727824
O O14 0.000000 0.500000 0.500000
O O15 0.411668 0.316622 0.767658
#
# Coordination Sequence:
#
# PCOD9014540 Si02
#       7
#     2   2   2   2   2   2   2
#     4   9  21  38  54  89 120 148 204 245 277 345
#     4  10  21  41  68  83 107 155 204 251 295 340
#     4  11  20  33  61  83 122 163 185 236 296 347
#     4  10  22  39  58  88 120 155 197 239 291 355
#     4   9  20  35  56  86 125 154 191 232 282 348
#     4   9  20  39  51  87 122 148 195 242 279 355
#     4   8  18  33  54  78 119 163 189 222 280 342
#
# _framework density 18.953294
#
# number of rings (size 3 to 8) (size 9 to 14) (size 15 to 20)
#    0.857    1.714    1.429    0.857    2.000    7.429 
#    0.000    2.857    0.000    1.714    0.000    0.000 
#    0.000    0.000    0.000    0.000    0.000    0.000 
#
# Total GULP energy -78008.404062 kJ/mol
# GULP energy per Si atom -5572.028862 kJ/mol
# Density = 1.891016 g / cm^3
# Si number density = 18.953294 Si / 1000 Ang^3
#
#
#
# Elastic Constant Matrix: (Units=GPa)
#
#
# Indices 1 2 3 4 5 6 
#
# 1 113.6062 45.3935 68.3703 14.3896 15.0369 21.0232
# 2 45.3935 92.6485 41.8938 19.6379 1.6903 18.0244
# 3 68.3703 41.8938 102.8098 22.9895 -6.7307 8.1964
# 4 14.3896 19.6379 22.9895 25.1402 -5.0191 8.6915
# 5 15.0369 1.6903 -6.7307 -5.0191 27.8462 -2.5807
# 6 21.0232 18.0244 8.1964 8.6915 -2.5807 22.4878
#
#
#
# Elastic Compliance Matrix: (Units=1/GPa)
#
#
# Indices 1 2 3 4 5 6 
#
# 1 0.025061 -0.001556 -0.016882 0.005667 -0.018381 -0.020328
# 2 -0.001556 0.016168 -0.003732 -0.006097 -0.002895 -0.008120
# 3 -0.016882 -0.003732 0.025047 -0.013079 0.014556 0.016370
# 4 0.005667 -0.006097 -0.013079 0.060341 0.003302 -0.018587
# 5 -0.018381 -0.002895 0.014556 0.003302 0.051876 0.018876
# 6 -0.020328 -0.008120 0.016370 -0.018587 0.018876 0.073364
#
#
# Mechanical properties :
#
#
# Convention : Reuss Voigt Hill
#
# Bulk Modulus (GPa) = 45.58853 68.93107 57.25980
# Shear Modulus (GPa) = 16.47402 25.32199 20.89800
#
# Velocity S-wave (km/s) = 2.95140 3.65913 3.32415
# Velocity P-wave (km/s) = 5.97659 7.36886 6.70894
#
# Compressibility (1/GPa) = 0.02193534
#
# Stress axis : x y z
#
# Youngs Moduli (GPa) = 39.90327 61.84908 39.92546
#
# Poissons Ratio (x) = 0.09625 0.67400
# Poissons Ratio (y) = 0.06210 0.14902
# Poissons Ratio (z) = 0.67363 0.23085
#
# Static dielectric constant tensor:
#      x y z
#    x 1.693000 0.003680 0.036910 
#    y 0.003680 1.735780 0.019990 
#    z 0.036910 0.019990 1.658560 
# 
# From -- ./inp_files/540254.got.cif
#   From: 2010.05.17/outbox.cif.g08.bks.cpg/sg2_271_cif.got.tgz:540254.got - 2010.06.03 11:33:40.
