data_PCOD9014601
_publ_section_title
;
Structure prediction by ZEFSAII (Michael W. Deem and Ramdas Pophale) SiO2 
 PCOD9014601
Probable space group: P -1
;
_chemical_formula_sum "Si O2"
_cell_formula_units_Z 16
_cell_length_a 17.005470
_cell_length_b 11.055516
_cell_length_c 18.619054
_cell_angle_alpha 136.375145
_cell_angle_beta 20.593117
_cell_angle_gamma 147.392975
_cell_volume 623.634298
_symmetry_space_group_name_H-M "P -1"
_symmetry_group_IT_number 2
_symmetry_cell_setting 'triclinic'
loop_
_space_group_symop_operation_xyz
x,y,z
-x,-y,-z
loop_
_atom_site_type_symbol
_atom_site_label
_atom_site_fract_x
_atom_site_fract_y
_atom_site_fract_z
Si Si1 0.411345 0.752822 0.974585
Si Si2 0.642811 0.482354 0.202821
Si Si3 0.728105 0.738746 0.362109
Si Si4 0.714795 0.268294 0.688357
Si Si5 0.925157 0.015973 0.453101
Si Si6 0.374897 0.964747 0.476006
Si Si7 0.714777 0.545123 0.918354
Si Si8 0.353987 0.234180 0.800869
O O1 0.231526 0.602998 0.992283
O O2 0.747708 0.843095 0.731808
O O3 0.231068 0.578180 0.120993
O O4 0.500000 0.000000 0.000000
O O5 0.854848 0.674233 0.166066
O O6 0.577396 0.600172 0.251898
O O7 0.338702 0.236389 0.391306
O O8 0.500000 0.500000 0.500000
O O9 0.546868 0.791176 0.494946
O O10 0.934347 0.948943 0.334070
O O11 0.542003 0.073397 0.689557
O O12 0.570564 0.350228 0.893111
O O13 0.000000 0.500000 0.500000
O O14 0.834240 0.172307 0.595199
O O15 0.496874 0.875397 0.383017
O O16 0.020016 0.780192 0.722505
O O17 0.579293 0.626740 0.120805
O O18 0.000000 0.000000 0.000000
#
# Coordination Sequence:
#
# PCOD9014601 Si02
#       8
#     2   2   2   2   2   2   2   2
#     4  11  24  39  60 102 136 166 218 270 323 385
#     4  10  22  40  67  87 132 170 215 261 323 391
#     4   9  20  43  68  91 119 175 225 257 321 388
#     4   9  20  39  66  92 124 170 218 255 328 378
#     4  10  21  41  68  94 128 174 218 266 324 384
#     4  10  22  43  68  91 132 172 207 271 326 381
#     4  10  23  39  63  94 130 166 216 260 321 383
#     4  11  25  42  61 101 129 166 219 263 323 388
#
# _framework density 25.656061000000001
#
# number of rings (size 3 to 8) (size 9 to 14) (size 15 to 20)
#    0.000    2.000    0.000    1.875    8.750    2.500 
#   13.500    0.625    0.000    0.000    0.000    0.000 
#    0.000    0.000    0.000    0.000    0.000    0.000 
#
# Total GULP energy -89314.185856 kJ/mol
# GULP energy per Si atom -5582.136616 kJ/mol
# Density = 2.559767 g / cm^3
# Si number density = 25.656061 Si / 1000 Ang^3
#
#
#
# Elastic Constant Matrix: (Units=GPa)
#
#
# Indices 1 2 3 4 5 6 
#
# 1 53.3027 35.6791 30.3329 4.1189 39.8302 1.5956
# 2 35.6791 166.0377 48.3479 14.4101 16.7543 -32.6363
# 3 30.3329 48.3479 82.0849 -9.2745 19.1611 -4.7531
# 4 4.1189 14.4101 -9.2745 48.9555 8.4056 26.7516
# 5 39.8302 16.7543 19.1611 8.4056 48.4030 17.6723
# 6 1.5956 -32.6363 -4.7531 26.7516 17.6723 68.0625
#
#
#
# Elastic Compliance Matrix: (Units=1/GPa)
#
#
# Indices 1 2 3 4 5 6 
#
# 1 0.065922 -0.003570 -0.009713 -0.003332 -0.052616 0.011036
# 2 -0.003570 0.010701 -0.005414 -0.008295 -0.000154 0.008137
# 3 -0.009713 -0.005414 0.018962 0.008267 0.002753 -0.005008
# 4 -0.003332 -0.008295 0.008267 0.033681 0.002804 -0.017288
# 5 -0.052616 -0.000154 0.002753 0.002804 0.068871 -0.017632
# 6 0.011036 0.008137 -0.005008 -0.017288 -0.017632 0.029359
#
#
# Mechanical properties :
#
#
# Convention : Reuss Voigt Hill
#
# Bulk Modulus (GPa) = 17.18456 58.90502 38.04479
# Shear Modulus (GPa) = 17.58791 45.55523 31.57157
#
# Velocity S-wave (km/s) = 2.62110 4.21837 3.51175
# Velocity P-wave (km/s) = 3.98407 6.83634 5.59501
#
# Compressibility (1/GPa) = 0.05819179
#
# Stress axis : x y z
#
# Youngs Moduli (GPa) = 15.16953 93.44709 52.73701
#
# Poissons Ratio (x) = 0.33357 0.51223
# Poissons Ratio (y) = 0.05415 0.28552
# Poissons Ratio (z) = 0.14734 0.50593
#
# Static dielectric constant tensor:
#      x y z
#    x 2.150930 0.006430 -0.022680 
#    y 0.006430 2.022510 0.012750 
#    z -0.022680 0.012750 1.829590 
# 
# From -- ./inp_files/601431.got.cif
#   From: 2010.05.17/outbox.cif.g08.bks.cpg/sg2_301_cif.got.tgz:601431.got - 2010.06.03 11:33:40.
