data_PCOD9014547
_publ_section_title
;
Structure prediction by ZEFSAII (Michael W. Deem and Ramdas Pophale) SiO2 
 PCOD9014547
Probable space group: P -1
;
_chemical_formula_sum "Si O2"
_cell_formula_units_Z 16
_cell_length_a 25.782525
_cell_length_b 4.940852
_cell_length_c 6.158401
_cell_angle_alpha 81.053256
_cell_angle_beta 83.067908
_cell_angle_gamma 109.136628
_cell_volume 719.640705
_symmetry_space_group_name_H-M "P -1"
_symmetry_group_IT_number 2
_symmetry_cell_setting 'triclinic'
loop_
_space_group_symop_operation_xyz
x,y,z
-x,-y,-z
loop_
_atom_site_type_symbol
_atom_site_label
_atom_site_fract_x
_atom_site_fract_y
_atom_site_fract_z
Si Si1 0.058209 0.675674 0.338786
Si Si2 0.486546 0.265512 0.229211
Si Si3 0.297558 0.424047 0.493556
Si Si4 0.791784 0.830527 0.081709
Si Si5 0.100752 0.273183 0.063742
Si Si6 0.753657 0.154187 0.682510
Si Si7 0.138202 0.721441 0.644787
Si Si8 0.428052 0.632272 0.454286
O O1 0.082470 0.457324 0.229957
O O2 0.101263 0.832252 0.489275
O O3 0.000000 0.500000 0.500000
O O4 0.061016 0.937085 0.143133
O O5 0.445161 0.366413 0.389897
O O6 0.541890 0.295015 0.335890
O O7 0.455579 0.919262 0.252024
O O8 0.500000 0.500000 0.000000
O O9 0.258749 0.393793 0.729201
O O10 0.280350 0.106968 0.430792
O O11 0.362205 0.547782 0.503118
O O12 0.280486 0.630450 0.307814
O O13 0.831808 0.051851 0.210117
O O14 0.834325 0.704908 0.953684
O O15 0.766870 0.008115 0.909178
O O16 0.099668 0.425198 0.815462
O O17 0.812777 0.321532 0.516048
#
# Coordination Sequence:
#
# PCOD9014547 Si02
#       8
#     2   2   2   2   2   2   2   2
#     4  12  29  46  68  99 130 166 217 276 324 385
#     4  10  21  41  68  89 127 181 219 262 324 377
#     4  11  25  40  63 100 135 167 213 277 319 380
#     4  11  25  43  69  98 126 179 216 260 328 406
#     4  12  24  45  69  95 128 169 216 259 327 396
#     4  11  24  40  65  92 133 170 214 257 330 385
#     4  11  24  43  72  91 131 169 215 265 323 393
#     4  10  22  40  62  98 131 166 222 270 316 379
#
# _framework density 22.233317
#
# number of rings (size 3 to 8) (size 9 to 14) (size 15 to 20)
#    0.000    1.000    3.750    1.500    5.250    3.000 
#    0.000    0.000    0.000    0.000    0.000    0.000 
#    0.000    0.000    0.000    0.000    0.000    0.000 
#
# Total GULP energy -89516.922336 kJ/mol
# GULP energy per Si atom -5594.807646 kJ/mol
# Density = 2.218271 g / cm^3
# Si number density = 22.233317 Si / 1000 Ang^3
#
#
#
# Elastic Constant Matrix: (Units=GPa)
#
#
# Indices 1 2 3 4 5 6 
#
# 1 73.1828 13.8719 15.9755 6.7525 -7.9265 3.6395
# 2 13.8719 74.1379 -3.6483 -8.0336 -8.2869 -12.0202
# 3 15.9755 -3.6483 65.0821 -15.1384 4.9710 1.2419
# 4 6.7525 -8.0336 -15.1384 27.8420 -3.5232 3.7401
# 5 -7.9265 -8.2869 4.9710 -3.5232 19.5269 -6.9630
# 6 3.6395 -12.0202 1.2419 3.7401 -6.9630 28.6926
#
#
#
# Elastic Compliance Matrix: (Units=1/GPa)
#
#
# Indices 1 2 3 4 5 6 
#
# 1 0.017288 -0.004112 -0.006748 -0.008233 0.005031 -0.001329
# 2 -0.004112 0.017838 0.002873 0.007711 0.009862 0.009258
# 3 -0.006748 0.002873 0.020700 0.013326 -0.005025 -0.001793
# 4 -0.008233 0.007711 0.013326 0.048174 0.004718 -0.001437
# 5 0.005031 0.009862 -0.005025 0.004718 0.066421 0.019215
# 6 -0.001329 0.009258 -0.001793 -0.001437 0.019215 0.043827
#
#
# Mechanical properties :
#
#
# Convention : Reuss Voigt Hill
#
# Bulk Modulus (GPa) = 25.09299 29.42234 27.25767
# Shear Modulus (GPa) = 20.53330 27.62589 24.07959
#
# Velocity S-wave (km/s) = 3.04227 3.52880 3.29453
# Velocity P-wave (km/s) = 4.86326 5.46492 5.17285
#
# Compressibility (1/GPa) = 0.03985177
#
# Stress axis : x y z
#
# Youngs Moduli (GPa) = 57.84502 56.05948 48.30850
#
# Poissons Ratio (x) = 0.23052 0.32598
# Poissons Ratio (y) = 0.23787 -0.13879
# Poissons Ratio (z) = 0.39034 -0.16106
#
# Static dielectric constant tensor:
#      x y z
#    x 1.773580 -0.011450 0.000550 
#    y -0.011450 1.826800 0.007030 
#    z 0.000550 0.007030 1.824540 
# 
# From -- ./inp_files/121459.got.cif
#   From: 2010.05.17/outbox.cif.g08.bks.cpg/sg2_61_cif.got.tgz:121459.got - 2010.06.03 11:33:40.
