data_PCOD9014176
_publ_section_title
;
Structure prediction by ZEFSAII (Michael W. Deem and Ramdas Pophale) SiO2 
 PCOD9014176
Probable space group: P -1
;
_chemical_formula_sum "Si O2"
_cell_formula_units_Z 15
_cell_length_a 12.106401
_cell_length_b 20.372826
_cell_length_c 13.900394
_cell_angle_alpha 156.940706
_cell_angle_beta 149.436063
_cell_angle_gamma 29.065713
_cell_volume 622.593565
_symmetry_space_group_name_H-M "P -1"
_symmetry_group_IT_number 2
_symmetry_cell_setting 'triclinic'
loop_
_space_group_symop_operation_xyz
x,y,z
-x,-y,-z
loop_
_atom_site_type_symbol
_atom_site_label
_atom_site_fract_x
_atom_site_fract_y
_atom_site_fract_z
Si Si1 0.880456 0.878922 0.304495
Si Si2 0.453769 0.605340 0.749669
Si Si3 0.730355 0.544067 0.225558
Si Si4 0.597305 0.846966 0.671213
Si Si5 0.072463 0.964273 0.894080
Si Si6 0.442959 0.825414 0.236310
Si Si7 0.741649 0.704088 0.784359
Si Si8 0.000000 0.500000 0.000000
O O1 0.665691 0.042341 0.417692
O O2 0.769985 0.796429 0.027436
O O3 0.004268 0.698623 0.222308
O O4 0.000000 0.000000 0.500000
O O5 0.229627 0.747251 0.710867
O O6 0.388249 0.432745 0.482955
O O7 0.713617 0.571185 0.858485
O O8 0.454342 0.703912 0.986289
O O9 0.724868 0.638778 0.450505
O O10 0.646320 0.698923 0.289392
O O11 0.986793 0.398377 0.190685
O O12 0.500000 0.500000 0.000000
O O13 0.598328 0.841759 0.779057
O O14 0.748507 0.948177 0.879822
O O15 0.833150 0.079062 0.810738
O O16 0.000000 0.000000 0.000000
O O17 0.500000 0.000000 0.500000
#
# Coordination Sequence:
#
# PCOD9014176 Si02
#       8
#     2   2   2   2   2   2   2   1
#     4  12  28  52  76 113 155 202 262 319 385 471
#     4  11  23  46  67 105 146 195 255 312 378 464
#     4  12  23  40  69 110 140 193 254 309 388 454
#     4  12  24  46  71 104 147 202 252 306 391 456
#     4  10  21  41  67 100 141 189 246 306 372 455
#     4  11  22  39  67 101 143 188 240 314 375 440
#     4  12  26  48  73 107 156 202 253 322 392 461
#     4  12  26  48  80 108 152 202 264 318 386 458
#
# _framework density 24.092766000000001
#
# number of rings (size 3 to 8) (size 9 to 14) (size 15 to 20)
#    0.000    0.533    1.333    8.800    0.000    0.533 
#    4.800    0.000    0.000    0.000    0.000    0.000 
#    0.000    0.000    0.000    0.000    0.000    0.000 
#
# Total GULP energy -83542.737322 kJ/mol
# GULP energy per Si atom -5569.515821 kJ/mol
# Density = 2.403793 g / cm^3
# Si number density = 24.092766 Si / 1000 Ang^3
#
#
#
# Elastic Constant Matrix: (Units=GPa)
#
#
# Indices 1 2 3 4 5 6 
#
# 1 49.1100 21.8948 57.8955 2.3947 18.3381 -3.4663
# 2 21.8948 132.8711 13.2620 10.2642 -1.7437 -10.8799
# 3 57.8955 13.2620 114.6357 7.3589 33.4172 -0.1446
# 4 2.3947 10.2642 7.3589 28.1571 1.8368 6.4510
# 5 18.3381 -1.7437 33.4172 1.8368 60.2303 -11.4414
# 6 -3.4663 -10.8799 -0.1446 6.4510 -11.4414 45.0615
#
#
#
# Elastic Compliance Matrix: (Units=1/GPa)
#
#
# Indices 1 2 3 4 5 6 
#
# 1 0.056234 -0.006810 -0.027315 0.004649 -0.002037 0.001411
# 2 -0.006810 0.008984 0.002142 -0.003984 0.001775 0.002673
# 3 -0.027315 0.002142 0.024058 -0.003875 -0.005287 -0.002294
# 4 0.004649 -0.003984 -0.003875 0.039241 -0.001851 -0.006705
# 5 -0.002037 0.001775 -0.005287 -0.001851 0.021395 0.005952
# 6 0.001411 0.002673 -0.002294 -0.006705 0.005952 0.025410
#
#
# Mechanical properties :
#
#
# Convention : Reuss Voigt Hill
#
# Bulk Modulus (GPa) = 39.51178 53.63570 46.57374
# Shear Modulus (GPa) = 20.18353 40.26075 30.22214
#
# Velocity S-wave (km/s) = 2.89752 4.09231 3.54560
# Velocity P-wave (km/s) = 5.25639 6.68130 6.01122
#
# Compressibility (1/GPa) = 0.02530891
#
# Stress axis : x y z
#
# Youngs Moduli (GPa) = 17.78273 111.30328 41.56641
#
# Poissons Ratio (x) = 0.75801 1.13541
# Poissons Ratio (y) = 0.12111 -0.08903
# Poissons Ratio (z) = 0.48574 -0.23840
#
# Static dielectric constant tensor:
#      x y z
#    x 70.560760 37.946910 98.912680 
#    y 37.946910 22.847800 54.765540 
#    z 98.912680 54.765540 144.580910 
# 
# From -- ./inp_files/420082.got.cif
#   From: 2010.05.17/outbox.cif.g08.bks.cpg/sg2_211_cif.got.tgz:420082.got - 2010.06.03 11:33:40.
