data_PCOD9014887
_publ_section_title
;
Structure prediction by ZEFSAII (Michael W. Deem and Ramdas Pophale) SiO2 
 PCOD9014887
Probable space group: P -1
;
_chemical_formula_sum "Si O2"
_cell_formula_units_Z 14
_cell_length_a 14.539103
_cell_length_b 6.914572
_cell_length_c 27.779658
_cell_angle_alpha 128.985386
_cell_angle_beta 15.098050
_cell_angle_gamma 127.879422
_cell_volume 565.134677
_symmetry_space_group_name_H-M "P -1"
_symmetry_group_IT_number 2
_symmetry_cell_setting 'triclinic'
loop_
_space_group_symop_operation_xyz
x,y,z
-x,-y,-z
loop_
_atom_site_type_symbol
_atom_site_label
_atom_site_fract_x
_atom_site_fract_y
_atom_site_fract_z
Si Si1 0.250788 0.777165 0.476543
Si Si2 0.340339 0.222196 0.029278
Si Si3 0.273672 0.225111 0.953408
Si Si4 0.495366 0.984228 0.292803
Si Si5 0.382692 0.275953 0.157036
Si Si6 0.536900 0.175717 0.461011
Si Si7 0.294549 0.489998 0.497467
O O1 0.413033 0.779466 0.342781
O O2 0.287738 0.048594 0.526748
O O3 0.451992 0.604637 0.386115
O O4 0.841473 0.694055 0.675439
O O5 0.923493 0.189467 0.244733
O O6 0.500000 0.500000 0.000000
O O7 0.395346 0.165943 0.936260
O O8 0.512692 0.008195 0.940786
O O9 0.302785 0.523578 0.977401
O O10 0.504439 0.110981 0.776233
O O11 0.879916 0.112663 0.128186
O O12 0.234794 0.203062 0.471941
O O13 0.077287 0.367571 0.289236
O O14 0.488040 0.441018 0.553526
O O15 0.500000 0.000000 0.500000
#
# Coordination Sequence:
#
# PCOD9014887 Si02
#       7
#     2   2   2   2   2   2   2
#     4   9  22  43  64  99 131 183 224 273 332 404
#     4  12  27  46  70 102 141 174 221 286 343 405
#     4  11  27  45  67 106 131 183 224 286 334 394
#     4  11  24  46  72  94 139 178 239 269 330 407
#     4  10  26  43  66 100 140 172 225 275 349 390
#     4  10  21  41  69  98 132 175 229 270 337 397
#     4   9  23  41  69 100 133 178 224 279 327 405
#
# _framework density 24.772856000000001
#
# number of rings (size 3 to 8) (size 9 to 14) (size 15 to 20)
#    0.857    0.857    1.429    0.857    8.000    6.286 
#    0.000    2.857    0.000    0.000    0.000    0.000 
#    0.000    0.000    0.000    0.000    0.000    0.000 
#
# Total GULP energy -78175.458633 kJ/mol
# GULP energy per Si atom -5583.961331 kJ/mol
# Density = 2.471647 g / cm^3
# Si number density = 24.772856 Si / 1000 Ang^3
#
#
#
# Elastic Constant Matrix: (Units=GPa)
#
#
# Indices 1 2 3 4 5 6 
#
# 1 143.1858 34.9607 43.6572 4.3151 36.1948 -3.2664
# 2 34.9607 82.9187 15.4530 -5.5582 -0.5564 -10.5382
# 3 43.6572 15.4530 82.5959 -21.3662 15.3161 -13.6747
# 4 4.3151 -5.5582 -21.3662 50.3415 -7.3899 4.7523
# 5 36.1948 -0.5564 15.3161 -7.3899 45.0995 -3.5825
# 6 -3.2664 -10.5382 -13.6747 4.7523 -3.5825 29.0198
#
#
#
# Elastic Compliance Matrix: (Units=1/GPa)
#
#
# Indices 1 2 3 4 5 6 
#
# 1 0.012332 -0.004959 -0.005783 -0.005071 -0.009098 -0.003431
# 2 -0.004959 0.014936 0.000441 0.002475 0.004838 0.005266
# 3 -0.005783 0.000441 0.018137 0.007638 0.000282 0.006840
# 4 -0.005071 0.002475 0.007638 0.024577 0.005580 0.000591
# 5 -0.009098 0.004838 0.000282 0.005580 0.030650 0.003736
# 6 -0.003431 0.005266 0.006840 0.000591 0.003736 0.039573
#
#
# Mechanical properties :
#
#
# Convention : Reuss Voigt Hill
#
# Bulk Modulus (GPa) = 40.31532 55.20469 47.76000
# Shear Modulus (GPa) = 29.57263 39.20079 34.38671
#
# Velocity S-wave (km/s) = 3.45882 3.98227 3.72974
# Velocity P-wave (km/s) = 5.67984 6.59373 6.15377
#
# Compressibility (1/GPa) = 0.02480447
#
# Stress axis : x y z
#
# Youngs Moduli (GPa) = 81.08734 66.95202 55.13473
#
# Poissons Ratio (x) = 0.33200 0.31886
# Poissons Ratio (y) = 0.40210 -0.02434
# Poissons Ratio (z) = 0.46896 -0.02956
#
# Static dielectric constant tensor:
#      x y z
#    x 1.972370 -0.011160 -0.005020 
#    y -0.011160 2.051060 0.017950 
#    z -0.005020 0.017950 1.998580 
# 
# From -- ./inp_files/619075.got.cif
#   From: 2010.05.17/outbox.cif.g08.bks.cpg/sg2_310_cif.got.tgz:619075.got - 2010.06.03 11:33:40.
