data_PCOD9014376
_publ_section_title
;
Structure prediction by ZEFSAII (Michael W. Deem and Ramdas Pophale) SiO2 
 PCOD9014376
Probable space group: P -1
;
_chemical_formula_sum "Si O2"
_cell_formula_units_Z 15
_cell_length_a 11.264003
_cell_length_b 9.144993
_cell_length_c 9.461042
_cell_angle_alpha 117.721764
_cell_angle_beta 121.721250
_cell_angle_gamma 45.305702
_cell_volume 581.925590
_symmetry_space_group_name_H-M "P -1"
_symmetry_group_IT_number 2
_symmetry_cell_setting 'triclinic'
loop_
_space_group_symop_operation_xyz
x,y,z
-x,-y,-z
loop_
_atom_site_type_symbol
_atom_site_label
_atom_site_fract_x
_atom_site_fract_y
_atom_site_fract_z
Si Si1 0.028432 0.017098 0.362453
Si Si2 0.513507 0.765870 0.164996
Si Si3 0.110495 0.051459 0.996228
Si Si4 0.547949 0.718464 0.832470
Si Si5 0.338279 0.005035 0.580540
Si Si6 0.000000 0.500000 0.000000
Si Si7 0.573376 0.559699 0.371778
Si Si8 0.847303 0.403147 0.701722
O O1 0.139184 0.101946 0.460036
O O2 0.158594 0.768229 0.302552
O O3 0.869653 0.076183 0.191843
O O4 0.000000 0.000000 0.500000
O O5 0.571570 0.569232 0.206362
O O6 0.613099 0.842392 0.340536
O O7 0.551326 0.735391 0.008612
O O8 0.304206 0.938358 0.127958
O O9 0.031693 0.289922 0.019904
O O10 0.000000 0.000000 0.000000
O O11 0.406235 0.924508 0.748411
O O12 0.496699 0.569780 0.690608
O O13 0.745582 0.605131 0.838188
O O14 0.456318 0.790752 0.468913
O O15 0.028366 0.368443 0.811279
O O16 0.759156 0.450957 0.517743
#
# Coordination Sequence:
#
# PCOD9014376 Si02
#       8
#     2   2   2   2   2   1   2   2
#     4  11  22  40  68  93 135 183 232 278 344 426
#     4  12  26  39  66 107 135 167 231 295 338 402
#     4  11  25  45  69 101 140 183 227 282 356 418
#     4  11  21  40  67  92 132 174 225 276 342 403
#     4  11  21  41  66  95 128 175 231 278 336 411
#     4  10  24  44  70  96 138 184 230 278 344 428
#     4  11  21  40  66  94 130 173 222 282 343 404
#     4  10  21  41  67  96 126 185 227 272 351 415
#
# _framework density 25.776491
#
# number of rings (size 3 to 8) (size 9 to 14) (size 15 to 20)
#    0.000    1.067    2.667    5.200    1.867    3.200 
#    0.000    0.000    0.000    4.800    0.000    0.000 
#    0.000    0.000    0.000    0.000    0.000    0.000 
#
# Total GULP energy -83571.541468 kJ/mol
# GULP energy per Si atom -5571.436098 kJ/mol
# Density = 2.571782 g / cm^3
# Si number density = 25.776491 Si / 1000 Ang^3
#
#
#
# Elastic Constant Matrix: (Units=GPa)
#
#
# Indices 1 2 3 4 5 6 
#
# 1 90.9430 30.1531 24.5097 11.0012 12.4471 17.5859
# 2 30.1531 85.6668 14.2696 -8.8124 10.7065 11.2517
# 3 24.5097 14.2696 124.2553 0.8598 15.7611 17.5469
# 4 11.0012 -8.8124 0.8598 37.6838 9.0846 2.0523
# 5 12.4471 10.7065 15.7611 9.0846 47.0357 -1.2737
# 6 17.5859 11.2517 17.5469 2.0523 -1.2737 35.5795
#
#
#
# Elastic Compliance Matrix: (Units=1/GPa)
#
#
# Indices 1 2 3 4 5 6 
#
# 1 0.014610 -0.004544 -0.001440 -0.004649 -0.001583 -0.004862
# 2 -0.004544 0.014645 -0.000006 0.005703 -0.003307 -0.002830
# 3 -0.001440 -0.000006 0.009284 0.001166 -0.003063 -0.004042
# 4 -0.004649 0.005703 0.001166 0.030877 -0.006479 -0.002094
# 5 -0.001583 -0.003307 -0.003063 -0.006479 0.024835 0.004602
# 6 -0.004862 -0.002830 -0.004042 -0.002094 0.004602 0.033683
#
#
# Mechanical properties :
#
#
# Convention : Reuss Voigt Hill
#
# Bulk Modulus (GPa) = 37.65302 48.74778 43.20040
# Shear Modulus (GPa) = 33.60956 39.52197 36.56577
#
# Velocity S-wave (km/s) = 3.61485 3.91993 3.77048
# Velocity P-wave (km/s) = 5.66234 6.28017 5.97924
#
# Compressibility (1/GPa) = 0.02655830
#
# Stress axis : x y z
#
# Youngs Moduli (GPa) = 68.44615 68.28152 107.71257
#
# Poissons Ratio (x) = 0.31029 0.15515
# Poissons Ratio (y) = 0.31103 0.00063
# Poissons Ratio (z) = 0.09859 0.00040
#
# Static dielectric constant tensor:
#      x y z
#    x 1.788050 -0.036540 -0.354740 
#    y -0.036540 2.231690 0.168760 
#    z -0.354740 0.168760 1.834710 
# 
# From -- ./inp_files/242878.got.cif
#   From: 2010.05.17/outbox.cif.g08.bks.cpg/sg2_122_cif.got.tgz:242878.got - 2010.06.03 11:33:40.
