data_PCOD9014972
_publ_section_title
;
Structure prediction by ZEFSAII (Michael W. Deem and Ramdas Pophale) SiO2 
 PCOD9014972
Probable space group: P -1
;
_chemical_formula_sum "Si O2"
_cell_formula_units_Z 16
_cell_length_a 16.284204
_cell_length_b 7.960481
_cell_length_c 7.372368
_cell_angle_alpha 108.771054
_cell_angle_beta 86.998809
_cell_angle_gamma 47.689053
_cell_volume 617.796695
_symmetry_space_group_name_H-M "P -1"
_symmetry_group_IT_number 2
_symmetry_cell_setting 'triclinic'
loop_
_space_group_symop_operation_xyz
x,y,z
-x,-y,-z
loop_
_atom_site_type_symbol
_atom_site_label
_atom_site_fract_x
_atom_site_fract_y
_atom_site_fract_z
Si Si1 0.438765 0.227384 0.793186
Si Si2 0.441323 0.554169 0.718719
Si Si3 0.779394 0.105407 0.358691
Si Si4 0.888163 0.717517 0.719337
Si Si5 0.944099 0.349160 0.890472
Si Si6 0.361666 0.026034 0.082639
Si Si7 0.270515 0.222470 0.747576
Si Si8 0.793746 0.246074 0.792714
O O1 0.502280 0.290635 0.707415
O O2 0.545872 0.993814 0.830313
O O3 0.371445 0.196741 0.656090
O O4 0.328514 0.497424 0.007550
O O5 0.500000 0.500000 0.500000
O O6 0.307140 0.708445 0.730110
O O7 0.430699 0.735928 0.917579
O O8 0.762804 0.240829 0.589576
O O9 0.744459 0.957595 0.359799
O O10 0.915320 0.901747 0.205686
O O11 0.924314 0.562176 0.850472
O O12 0.000000 0.500000 0.500000
O O13 0.758814 0.825371 0.737469
O O14 0.855261 0.977517 0.789122
O O15 0.885444 0.266876 0.779041
O O16 0.865191 0.489205 0.131510
O O17 0.315539 0.156087 0.933019
#
# Coordination Sequence:
#
# PCOD9014972 Si02
#       8
#     2   2   2   2   2   2   2   2
#     4  11  22  43  69  96 128 176 231 267 328 411
#     4  11  24  39  63  97 131 172 221 275 337 393
#     4  11  22  41  62  91 139 169 209 278 343 376
#     4  11  22  38  67 102 128 167 231 271 324 395
#     4  10  22  42  66  95 133 177 224 273 326 402
#     4  10  21  41  70  92 131 175 224 275 333 390
#     4   9  22  41  64  99 133 172 214 283 338 392
#     4  11  23  42  70  98 128 178 230 272 327 401
#
# _framework density 25.898489000000001
#
# number of rings (size 3 to 8) (size 9 to 14) (size 15 to 20)
#    0.000    1.500    2.500    2.250    1.750    0.000 
#    4.500    3.750    0.000    0.000    0.000    0.000 
#    0.000    0.000    0.000    0.000    0.000    0.000 
#
# Total GULP energy -89487.428554 kJ/mol
# GULP energy per Si atom -5592.964285 kJ/mol
# Density = 2.583954 g / cm^3
# Si number density = 25.898489 Si / 1000 Ang^3
#
#
#
# Elastic Constant Matrix: (Units=GPa)
#
#
# Indices 1 2 3 4 5 6 
#
# 1 135.5587 14.7038 39.9900 10.9615 2.2598 -21.5110
# 2 14.7038 64.3749 13.1577 8.7770 3.1898 -7.8894
# 3 39.9900 13.1577 99.5744 18.1747 -0.1503 -14.3284
# 4 10.9615 8.7770 18.1747 43.4273 -0.9385 -6.4504
# 5 2.2598 3.1898 -0.1503 -0.9385 43.7339 5.7750
# 6 -21.5110 -7.8894 -14.3284 -6.4504 5.7750 51.3362
#
#
#
# Elastic Compliance Matrix: (Units=1/GPa)
#
#
# Indices 1 2 3 4 5 6 
#
# 1 0.008838 -0.000984 -0.002949 -0.000404 -0.000769 0.002765
# 2 -0.000984 0.016594 -0.001116 -0.002419 -0.001438 0.001684
# 3 -0.002949 -0.001116 0.012318 -0.003957 -0.000011 0.001535
# 4 -0.000404 -0.002419 -0.003957 0.025508 0.000533 0.001500
# 5 -0.000769 -0.001438 -0.000011 0.000533 0.023433 -0.003115
# 6 0.002765 0.001684 0.001535 0.001500 -0.003115 0.021864
#
#
# Mechanical properties :
#
#
# Convention : Reuss Voigt Hill
#
# Bulk Modulus (GPa) = 36.16329 48.35678 42.26003
# Shear Modulus (GPa) = 39.10226 43.14324 41.12275
#
# Velocity S-wave (km/s) = 3.88987 4.08592 3.98910
# Velocity P-wave (km/s) = 5.84538 6.40093 6.12945
#
# Compressibility (1/GPa) = 0.02765235
#
# Stress axis : x y z
#
# Youngs Moduli (GPa) = 113.15148 60.26159 81.18410
#
# Poissons Ratio (x) = 0.05929 0.23941
# Poissons Ratio (y) = 0.11133 0.09059
# Poissons Ratio (z) = 0.33368 0.06724
#
# Static dielectric constant tensor:
#      x y z
#    x 2.139950 0.013740 -0.055170 
#    y 0.013740 2.045760 -0.040140 
#    z -0.055170 -0.040140 2.143340 
# 
# From -- ./inp_files/296104.got.cif
#   From: 2010.05.17/outbox.cif.g08.bks.cpg/sg2_149_cif.got.tgz:296104.got - 2010.06.03 11:33:40.
