data_PCOD9014907
_publ_section_title
;
Structure prediction by ZEFSAII (Michael W. Deem and Ramdas Pophale) SiO2 
 PCOD9014907
Probable space group: P -1
;
_chemical_formula_sum "Si O2"
_cell_formula_units_Z 14
_cell_length_a 8.238738
_cell_length_b 7.050322
_cell_length_c 17.037800
_cell_angle_alpha 77.219881
_cell_angle_beta 33.138638
_cell_angle_gamma 73.375709
_cell_volume 518.078933
_symmetry_space_group_name_H-M "P -1"
_symmetry_group_IT_number 2
_symmetry_cell_setting 'triclinic'
loop_
_space_group_symop_operation_xyz
x,y,z
-x,-y,-z
loop_
_atom_site_type_symbol
_atom_site_label
_atom_site_fract_x
_atom_site_fract_y
_atom_site_fract_z
Si Si1 0.000000 0.500000 0.000000
Si Si2 0.023486 0.486902 0.300191
Si Si3 0.679971 0.223364 0.061719
Si Si4 0.798207 0.927747 0.334337
Si Si5 0.500000 0.000000 0.000000
Si Si6 0.498060 0.959424 0.286452
Si Si7 0.027064 0.302330 0.152938
Si Si8 0.921762 0.309054 0.508544
O O1 0.076321 0.643025 0.027781
O O2 0.152380 0.633134 0.859158
O O3 0.955769 0.718375 0.322996
O O4 0.957591 0.449334 0.239698
O O5 0.841058 0.372418 0.445020
O O6 0.366098 0.381091 0.184341
O O7 0.676722 0.046255 0.139545
O O8 0.643055 0.125227 0.001719
O O9 0.686033 0.911063 0.293222
O O10 0.500000 0.000000 0.500000
O O11 0.017082 0.090224 0.223820
O O12 0.636867 0.779179 0.007733
O O13 0.349859 0.776771 0.335883
O O14 0.213516 0.133887 0.407549
O O15 0.000000 0.500000 0.500000
#
# Coordination Sequence:
#
# PCOD9014907 Si02
#       8
#     1   2   2   2   1   2   2   2
#     4  12  26  48  78 110 156 192 262 310 376 450
#     4  10  25  45  70 107 148 191 248 304 382 446
#     4  10  24  50  74 111 149 203 248 313 378 451
#     4  12  25  44  74 106 150 193 249 314 377 449
#     4  10  26  48  78 102 152 194 254 302 384 448
#     4  10  22  43  65 101 147 185 249 303 370 442
#     4  11  27  47  72 110 146 198 245 314 375 447
#     4  10  21  41  69  99 140 193 242 303 372 447
#
# _framework density 27.02291
#
# number of rings (size 3 to 8) (size 9 to 14) (size 15 to 20)
#    0.000    1.429    1.429    1.714    4.000   10.857 
#    2.571    0.000    0.000    0.000    0.000    0.000 
#    0.000    0.000    0.000    0.000    0.000    0.000 
#
# Total GULP energy -77996.184976 kJ/mol
# GULP energy per Si atom -5571.156070 kJ/mol
# Density = 2.696141 g / cm^3
# Si number density = 27.022910 Si / 1000 Ang^3
#
#
#
# Elastic Constant Matrix: (Units=GPa)
#
#
# Indices 1 2 3 4 5 6 
#
# 1 114.4362 45.1983 35.4361 -4.9742 17.6346 27.2906
# 2 45.1983 164.9783 54.6619 -2.0771 -9.7885 17.4306
# 3 35.4361 54.6619 79.3830 -7.5212 -4.1942 -1.2813
# 4 -4.9742 -2.0771 -7.5212 46.3624 1.7111 -6.8311
# 5 17.6346 -9.7885 -4.1942 1.7111 32.7855 -0.3470
# 6 27.2906 17.4306 -1.2813 -6.8311 -0.3470 60.5460
#
#
#
# Elastic Compliance Matrix: (Units=1/GPa)
#
#
# Indices 1 2 3 4 5 6 
#
# 1 0.013962 -0.001909 -0.005483 -0.000022 -0.008843 -0.005913
# 2 -0.001909 0.008614 -0.005047 -0.001017 0.002986 -0.001824
# 3 -0.005483 -0.005047 0.019063 0.002826 0.003783 0.004668
# 4 -0.000022 -0.001017 0.002826 0.022445 -0.001071 0.002889
# 5 -0.008843 0.002986 0.003783 -0.001071 0.036724 0.003296
# 6 -0.005913 -0.001824 0.004668 0.002889 0.003296 0.020150
#
#
# Mechanical properties :
#
#
# Convention : Reuss Voigt Hill
#
# Bulk Modulus (GPa) = 59.66179 69.93224 64.79701
# Shear Modulus (GPa) = 33.02017 42.83886 37.92951
#
# Velocity S-wave (km/s) = 3.49941 3.98588 3.75054
# Velocity P-wave (km/s) = 6.20113 6.86425 6.54110
#
# Compressibility (1/GPa) = 0.01676115
#
# Stress axis : x y z
#
# Youngs Moduli (GPa) = 71.62307 116.09440 52.45713
#
# Poissons Ratio (x) = 0.22158 0.28762
# Poissons Ratio (y) = 0.13670 0.26476
# Poissons Ratio (z) = 0.39271 0.58596
#
# Static dielectric constant tensor:
#      x y z
#    x 2.139460 -0.075840 -0.026630 
#    y -0.075840 2.227620 -0.140740 
#    z -0.026630 -0.140740 2.029490 
# 
# From -- ./inp_files/553401.got.cif
#   From: 2010.05.17/outbox.cif.g08.bks.cpg/sg2_277_cif.got.tgz:553401.got - 2010.06.03 11:33:40.
