data_PCOD9014402
_publ_section_title
;
Structure prediction by ZEFSAII (Michael W. Deem and Ramdas Pophale) SiO2 
 PCOD9014402
Probable space group: P -1
;
_chemical_formula_sum "Si O2"
_cell_formula_units_Z 14
_cell_length_a 14.165789
_cell_length_b 9.169104
_cell_length_c 19.959079
_cell_angle_alpha 61.267879
_cell_angle_beta 20.088468
_cell_angle_gamma 73.113948
_cell_volume 659.870683
_symmetry_space_group_name_H-M "P -1"
_symmetry_group_IT_number 2
_symmetry_cell_setting 'triclinic'
loop_
_space_group_symop_operation_xyz
x,y,z
-x,-y,-z
loop_
_atom_site_type_symbol
_atom_site_label
_atom_site_fract_x
_atom_site_fract_y
_atom_site_fract_z
Si Si1 0.355010 0.822842 0.581578
Si Si2 0.287444 0.553914 0.086538
Si Si3 0.349350 0.021093 0.273224
Si Si4 0.783270 0.548478 0.183688
Si Si5 0.600033 0.491491 0.134195
Si Si6 0.607754 0.126029 0.228349
Si Si7 0.647921 0.350992 0.640541
O O1 0.439438 0.660570 0.583621
O O2 0.500000 0.000000 0.500000
O O3 0.490061 0.942866 0.396216
O O4 0.961112 0.682301 0.868459
O O5 0.930473 0.424064 0.381592
O O6 0.500000 0.500000 0.000000
O O7 0.398136 0.777303 0.975418
O O8 0.361790 0.534443 0.964145
O O9 0.464808 0.048917 0.267557
O O10 0.385095 0.844629 0.265661
O O11 0.000000 0.000000 0.500000
O O12 0.619336 0.635513 0.228151
O O13 0.000000 0.500000 0.000000
O O14 0.007089 0.718673 0.050786
O O15 0.503632 0.283433 0.278351
O O16 0.333059 0.530081 0.331927
#
# Coordination Sequence:
#
# PCOD9014402 Si02
#       7
#     2   2   2   2   2   2   2
#     4  11  18  34  67  97 138 177 211 279 337 396
#     4  11  25  47  69  95 139 181 229 290 336 396
#     4  11  25  46  67  98 140 178 235 294 327 402
#     4  11  21  41  63 105 144 172 226 286 334 422
#     4  10  23  42  66 101 136 174 231 278 331 413
#     4  10  21  41  67  96 145 179 215 293 340 394
#     4  12  23  44  74  98 137 185 226 276 358 405
#
# _framework density 21.216280000000001
#
# number of rings (size 3 to 8) (size 9 to 14) (size 15 to 20)
#    0.000    1.143    5.714    0.857    0.000    4.571 
#    0.000   12.143    0.000    0.000    0.000    0.000 
#    0.000    0.000    0.000    0.000    0.000    0.000 
#
# Total GULP energy -77938.611923 kJ/mol
# GULP energy per Si atom -5567.043709 kJ/mol
# Density = 2.116799 g / cm^3
# Si number density = 21.216280 Si / 1000 Ang^3
#
#
#
# Elastic Constant Matrix: (Units=GPa)
#
#
# Indices 1 2 3 4 5 6 
#
# 1 29.5505 8.5271 44.0544 11.5848 9.2215 -18.2550
# 2 8.5271 125.6670 38.0892 -3.2649 14.1464 -28.8446
# 3 44.0544 38.0892 28.1264 -15.1392 4.0129 -9.1466
# 4 11.5848 -3.2649 -15.1392 42.5896 -11.7655 8.1214
# 5 9.2215 14.1464 4.0129 -11.7655 31.6466 -4.5645
# 6 -18.2550 -28.8446 -9.1466 8.1214 -4.5645 36.4893
#
#
#
# Elastic Compliance Matrix: (Units=1/GPa)
#
#
# Indices 1 2 3 4 5 6 
#
# 1 -0.004915 -0.007618 0.021491 0.010813 0.005437 -0.004820
# 2 -0.007618 0.008056 0.003800 0.003473 -0.000181 0.002714
# 3 0.021491 0.003800 -0.003860 -0.012424 -0.010028 0.014299
# 4 0.010813 0.003473 -0.012424 0.017018 0.003442 0.001684
# 5 0.005437 -0.000181 -0.010028 0.003442 0.033143 0.003444
# 6 -0.004820 0.002714 0.014299 0.001684 0.003444 0.030780
#
#
# Mechanical properties :
#
#
# Convention : Reuss Voigt Hill
#
# Bulk Modulus (GPa) = 28.87863 40.52058 34.69960
# Shear Modulus (GPa) = 88.62274 28.32332 58.47303
#
# Velocity S-wave (km/s) = 6.47007 3.65770 5.25550
# Velocity P-wave (km/s) = 8.33407 6.08101 7.29505
#
# Compressibility (1/GPa) = 0.03462768
#
# Stress axis : x y z
#
# Youngs Moduli (GPa) = -203.47544 124.12610 -259.04856
#
# Poissons Ratio (x) = 0.94559 5.56728
# Poissons Ratio (y) = -1.55006 0.98433
# Poissons Ratio (z) = 4.37294 -0.47165
#
# Static dielectric constant tensor:
#      x y z
#    x 1.827750 0.019660 -0.028310 
#    y 0.019660 1.896370 0.145990 
#    z -0.028310 0.145990 2.030330 
# 
# From -- ./inp_files/597337.got.cif
#   From: 2010.05.17/outbox.cif.g08.bks.cpg/sg2_299_cif.got.tgz:597337.got - 2010.06.03 11:33:40.
