data_PCOD9014094
_publ_section_title
;
Structure prediction by ZEFSAII (Michael W. Deem and Ramdas Pophale) SiO2 
 PCOD9014094
Probable space group: P -1
;
_chemical_formula_sum "Si O2"
_cell_formula_units_Z 14
_cell_length_a 7.184719
_cell_length_b 15.906832
_cell_length_c 11.719775
_cell_angle_alpha 49.865238
_cell_angle_beta 71.138422
_cell_angle_gamma 44.345602
_cell_volume 691.607708
_symmetry_space_group_name_H-M "P -1"
_symmetry_group_IT_number 2
_symmetry_cell_setting 'triclinic'
loop_
_space_group_symop_operation_xyz
x,y,z
-x,-y,-z
loop_
_atom_site_type_symbol
_atom_site_label
_atom_site_fract_x
_atom_site_fract_y
_atom_site_fract_z
Si Si1 0.287398 0.184765 0.898251
Si Si2 0.697439 0.147505 0.972063
Si Si3 0.283142 0.903262 0.456980
Si Si4 0.284810 0.186623 0.390981
Si Si5 0.303042 0.149763 0.170630
Si Si6 0.748851 0.293390 0.519236
Si Si7 0.239000 0.648081 0.272755
O O1 0.728841 0.180485 0.567926
O O2 0.060179 0.279473 0.764786
O O3 0.146454 0.227981 0.013514
O O4 0.500000 0.000000 0.000000
O O5 0.481134 0.213200 0.854314
O O6 0.694827 0.275908 0.891219
O O7 0.590533 0.100497 0.126851
O O8 0.000000 0.000000 0.000000
O O9 0.542713 0.791594 0.590342
O O10 0.313721 0.014701 0.304030
O O11 0.000000 0.000000 0.500000
O O12 0.204862 0.241920 0.227333
O O13 0.016715 0.249174 0.453662
O O14 0.500000 0.000000 0.500000
O O15 0.475248 0.465625 0.384993
O O16 0.773530 0.295493 0.648026
#
# Coordination Sequence:
#
# PCOD9014094 Si02
#       7
#     2   2   2   2   2   2   2
#     4  10  22  38  65  98 127 170 224 269 316 399
#     4  10  22  38  67  92 133 170 214 274 317 389
#     4  11  22  39  70  98 129 171 218 278 324 380
#     4  10  21  41  66  97 128 168 226 271 322 389
#     4   9  22  39  64 103 122 161 231 266 328 373
#     4  11  26  43  66  97 140 174 216 274 330 401
#     4  11  25  44  64 100 136 178 215 266 345 385
#
# _framework density 20.242688999999999
#
# number of rings (size 3 to 8) (size 9 to 14) (size 15 to 20)
#    0.857    0.857    4.286    0.000   10.000    2.286 
#    0.000    4.286    0.000    0.000    0.000    0.000 
#    0.000    0.000    0.000    0.000    0.000    0.000 
#
# Total GULP energy -78011.113865 kJ/mol
# GULP energy per Si atom -5572.222419 kJ/mol
# Density = 2.019662 g / cm^3
# Si number density = 20.242689 Si / 1000 Ang^3
#
#
#
# Elastic Constant Matrix: (Units=GPa)
#
#
# Indices 1 2 3 4 5 6 
#
# 1 124.2670 37.2688 32.0737 7.5194 12.5697 -21.1235
# 2 37.2688 77.4700 32.8383 6.8397 0.5917 -19.3952
# 3 32.0737 32.8383 70.2615 12.9987 -0.8780 -10.3240
# 4 7.5194 6.8397 12.9987 32.3264 -12.5897 5.6820
# 5 12.5697 0.5917 -0.8780 -12.5897 35.3596 4.8797
# 6 -21.1235 -19.3952 -10.3240 5.6820 4.8797 29.5317
#
#
#
# Elastic Compliance Matrix: (Units=1/GPa)
#
#
# Indices 1 2 3 4 5 6 
#
# 1 0.011819 -0.001984 -0.002173 -0.005938 -0.007548 0.008781
# 2 -0.001984 0.019366 -0.005864 -0.004175 -0.002700 0.010499
# 3 -0.002173 -0.005864 0.019800 -0.007464 -0.001742 0.003240
# 4 -0.005938 -0.004175 -0.007464 0.048994 0.022580 -0.022757
# 5 -0.007548 -0.002700 -0.001742 0.022580 0.041628 -0.019004
# 6 0.008781 0.010499 0.003240 -0.022757 -0.019004 0.055689
#
#
# Mechanical properties :
#
#
# Convention : Reuss Voigt Hill
#
# Bulk Modulus (GPa) = 32.31839 52.92890 42.62365
# Shear Modulus (GPa) = 21.96315 30.76472 26.36393
#
# Velocity S-wave (km/s) = 3.29749 3.90268 3.61278
# Velocity P-wave (km/s) = 5.52251 6.81996 6.20524
#
# Compressibility (1/GPa) = 0.03094213
#
# Stress axis : x y z
#
# Youngs Moduli (GPa) = 84.61268 51.63639 50.50382
#
# Poissons Ratio (x) = 0.10246 0.10976
# Poissons Ratio (y) = 0.16789 0.29616
# Poissons Ratio (z) = 0.18388 0.30280
#
# Static dielectric constant tensor:
#      x y z
#    x 1.750620 0.006840 0.028350 
#    y 0.006840 1.703290 0.013100 
#    z 0.028350 0.013100 1.823060 
# 
# From -- ./inp_files/406194.got.cif
#   From: 2010.05.17/outbox.cif.g08.bks.cpg/sg2_204_cif.got.tgz:406194.got - 2010.06.03 11:33:40.
