data_PCOD9014641
_publ_section_title
;
Structure prediction by ZEFSAII (Michael W. Deem and Ramdas Pophale) SiO2 
 PCOD9014641
Probable space group: P -1
;
_chemical_formula_sum "Si O2"
_cell_formula_units_Z 14
_cell_length_a 15.540406
_cell_length_b 10.466858
_cell_length_c 8.536130
_cell_angle_alpha 116.799410
_cell_angle_beta 56.700748
_cell_angle_gamma 144.622451
_cell_volume 671.877063
_symmetry_space_group_name_H-M "P -1"
_symmetry_group_IT_number 2
_symmetry_cell_setting 'triclinic'
loop_
_space_group_symop_operation_xyz
x,y,z
-x,-y,-z
loop_
_atom_site_type_symbol
_atom_site_label
_atom_site_fract_x
_atom_site_fract_y
_atom_site_fract_z
Si Si1 0.324423 0.093507 0.864943
Si Si2 0.881367 0.281011 0.899750
Si Si3 0.809136 0.782311 0.052844
Si Si4 0.021464 0.182694 0.516512
Si Si5 0.636977 0.093848 0.795473
Si Si6 0.266755 0.068532 0.566559
Si Si7 0.320122 0.577596 0.237913
O O1 0.241194 0.159719 0.001836
O O2 0.511345 0.306647 0.813734
O O3 0.268515 0.989447 0.688745
O O4 0.263429 0.920527 0.958358
O O5 0.975118 0.239954 0.732183
O O6 0.803003 0.271166 0.822234
O O7 0.000000 0.500000 0.000000
O O8 0.715395 0.750195 0.279682
O O9 0.746022 0.564579 0.935343
O O10 0.000000 0.000000 0.000000
O O11 0.896920 0.087532 0.449405
O O12 0.192258 0.403058 0.400129
O O13 0.000000 0.000000 0.500000
O O14 0.623548 0.915662 0.644771
O O15 0.652563 0.226104 0.715043
O O16 0.500000 0.000000 0.000000
#
# Coordination Sequence:
#
# PCOD9014641 Si02
#       7
#     2   2   2   2   2   2   2
#     4  10  23  43  69 100 136 171 233 271 341 396
#     4  11  26  41  68 101 136 176 230 277 325 415
#     4  10  21  41  68  96 128 177 222 268 333 399
#     4  11  25  44  68  99 135 176 229 276 338 401
#     4  11  25  46  66  99 140 175 224 281 342 393
#     4   9  24  43  69  93 137 175 223 278 332 410
#     4  12  23  42  73  96 137 184 213 286 342 392
#
# _framework density 20.837145
#
# number of rings (size 3 to 8) (size 9 to 14) (size 15 to 20)
#    0.857    0.571    2.857    1.286    6.000    2.857 
#    0.000    1.429    0.000    0.000    0.000    0.000 
#    0.000    0.000    0.000    0.000    0.000    0.000 
#
# Total GULP energy -77963.451561 kJ/mol
# GULP energy per Si atom -5568.817969 kJ/mol
# Density = 2.078972 g / cm^3
# Si number density = 20.837145 Si / 1000 Ang^3
#
#
#
# Elastic Constant Matrix: (Units=GPa)
#
#
# Indices 1 2 3 4 5 6 
#
# 1 114.4549 40.4109 25.2980 -10.5997 -15.2553 10.3291
# 2 40.4109 74.5986 42.1237 -6.0774 -11.0563 4.4333
# 3 25.2980 42.1237 117.2077 3.6310 -20.5903 -1.4898
# 4 -10.5997 -6.0774 3.6310 42.8850 -1.2244 -0.7291
# 5 -15.2553 -11.0563 -20.5903 -1.2244 32.0721 2.3566
# 6 10.3291 4.4333 -1.4898 -0.7291 2.3566 21.3525
#
#
#
# Elastic Compliance Matrix: (Units=1/GPa)
#
#
# Indices 1 2 3 4 5 6 
#
# 1 0.011834 -0.005278 -0.000046 0.002216 0.004233 -0.005023
# 2 -0.005278 0.020069 -0.006028 0.002037 0.000766 -0.002049
# 3 -0.000046 -0.006028 0.011699 -0.001682 0.005240 0.001454
# 4 0.002216 0.002037 -0.001682 0.024328 0.001676 -0.000967
# 5 0.004233 0.000766 0.005240 0.001676 0.037319 -0.005903
# 6 -0.005023 -0.002049 0.001454 -0.000967 -0.005903 0.050408
#
#
# Mechanical properties :
#
#
# Convention : Reuss Voigt Hill
#
# Bulk Modulus (GPa) = 47.85117 57.99183 52.92150
# Shear Modulus (GPa) = 26.97906 32.49049 29.73477
#
# Velocity S-wave (km/s) = 3.60218 3.95303 3.78167
# Velocity P-wave (km/s) = 6.34942 6.98045 6.67240
#
# Compressibility (1/GPa) = 0.02089813
#
# Stress axis : x y z
#
# Youngs Moduli (GPa) = 84.50557 49.82711 85.47436
#
# Poissons Ratio (x) = 0.26298 0.00395
# Poissons Ratio (y) = 0.44600 0.51525
# Poissons Ratio (z) = 0.00390 0.30037
#
# Static dielectric constant tensor:
#      x y z
#    x 1.839950 -0.057610 0.001620 
#    y -0.057610 1.788430 0.034080 
#    z 0.001620 0.034080 1.805030 
# 
# From -- ./inp_files/332242.got.cif
#   From: 2010.05.17/outbox.cif.g08.bks.cpg/sg2_167_cif.got.tgz:332242.got - 2010.06.03 11:33:40.
