data_PCOD9014466
_publ_section_title
;
Structure prediction by ZEFSAII (Michael W. Deem and Ramdas Pophale) SiO2 
 PCOD9014466
Probable space group: P -1
;
_chemical_formula_sum "Si O2"
_cell_formula_units_Z 14
_cell_length_a 8.818315
_cell_length_b 11.737815
_cell_length_c 8.617564
_cell_angle_alpha 132.874558
_cell_angle_beta 111.990946
_cell_angle_gamma 66.241043
_cell_volume 591.553780
_symmetry_space_group_name_H-M "P -1"
_symmetry_group_IT_number 2
_symmetry_cell_setting 'triclinic'
loop_
_space_group_symop_operation_xyz
x,y,z
-x,-y,-z
loop_
_atom_site_type_symbol
_atom_site_label
_atom_site_fract_x
_atom_site_fract_y
_atom_site_fract_z
Si Si1 0.363935 0.042074 0.619278
Si Si2 0.486592 0.318113 0.109263
Si Si3 0.754008 0.407267 0.069190
Si Si4 0.939546 0.854266 0.920232
Si Si5 0.350827 0.920500 0.810905
Si Si6 0.843254 0.437158 0.798917
Si Si7 0.879247 0.728862 0.457904
O O1 0.195020 0.119762 0.537550
O O2 0.500000 0.000000 0.500000
O O3 0.357436 0.905885 0.615114
O O4 0.420975 0.179459 0.866775
O O5 0.591873 0.391251 0.089370
O O6 0.612139 0.240538 0.223298
O O7 0.314086 0.432605 0.204472
O O8 0.782769 0.586316 0.262992
O O9 0.911439 0.280674 0.082254
O O10 0.763106 0.368529 0.853666
O O11 0.860996 0.775870 0.674037
O O12 0.812561 0.945127 0.083857
O O13 0.000000 0.000000 0.000000
O O14 0.500000 0.000000 0.000000
O O15 0.933679 0.333880 0.595053
O O16 0.000000 0.500000 0.000000
#
# Coordination Sequence:
#
# PCOD9014466 Si02
#       7
#     2   2   2   2   2   2   2
#     4  11  23  43  71 101 135 176 239 277 348 412
#     4  11  21  43  68 103 136 184 222 283 352 405
#     4  11  23  42  70 100 144 177 228 287 341 411
#     4  12  25  47  68 101 141 181 233 286 345 404
#     4  10  23  42  71  95 138 183 226 280 346 405
#     4  10  21  41  67  99 140 180 224 279 343 408
#     4  11  24  44  69 102 134 187 231 280 344 411
#
# _framework density 23.666488000000001
#
# number of rings (size 3 to 8) (size 9 to 14) (size 15 to 20)
#    0.000    1.143    4.286    3.429    6.000    0.000 
#    5.143    3.571    0.000    0.000    0.000    0.000 
#    0.000    0.000    0.000    0.000    0.000    0.000 
#
# Total GULP energy -78262.656905 kJ/mol
# GULP energy per Si atom -5590.189779 kJ/mol
# Density = 2.361262 g / cm^3
# Si number density = 23.666488 Si / 1000 Ang^3
#
#
#
# Elastic Constant Matrix: (Units=GPa)
#
#
# Indices 1 2 3 4 5 6 
#
# 1 113.2557 25.5544 14.9441 0.4721 -32.5674 -7.9883
# 2 25.5544 123.8571 21.9353 -16.9423 -22.3939 -11.5837
# 3 14.9441 21.9353 72.4628 -7.2473 -15.6813 -1.7484
# 4 0.4721 -16.9423 -7.2473 14.1753 4.7116 -5.2695
# 5 -32.5674 -22.3939 -15.6813 4.7116 41.2334 1.6731
# 6 -7.9883 -11.5837 -1.7484 -5.2695 1.6731 48.5787
#
#
#
# Elastic Compliance Matrix: (Units=1/GPa)
#
#
# Indices 1 2 3 4 5 6 
#
# 1 0.011858 -0.001334 -0.000583 -0.004981 0.008958 0.000762
# 2 -0.001334 0.011257 -0.001060 0.013370 0.002976 0.003775
# 3 -0.000583 -0.001060 0.015748 0.005634 0.004281 0.000682
# 4 -0.004981 0.013370 0.005634 0.096525 -0.006097 0.013252
# 5 0.008958 0.002976 0.004281 -0.006097 0.035250 0.000461
# 6 0.000762 0.003775 0.000682 0.013252 0.000461 0.023057
#
#
# Mechanical properties :
#
#
# Convention : Reuss Voigt Hill
#
# Bulk Modulus (GPa) = 30.38725 48.27147 39.32936
# Shear Modulus (GPa) = 23.73977 37.27361 30.50669
#
# Velocity S-wave (km/s) = 3.17061 3.97287 3.59419
# Velocity P-wave (km/s) = 5.12555 6.44095 5.82053
#
# Compressibility (1/GPa) = 0.03290854
#
# Stress axis : x y z
#
# Youngs Moduli (GPa) = 84.33239 88.83547 63.50104
#
# Poissons Ratio (x) = 0.11849 0.03702
# Poissons Ratio (y) = 0.11248 0.06732
# Poissons Ratio (z) = 0.04917 0.09418
#
# Static dielectric constant tensor:
#      x y z
#    x 2.080500 -0.025220 -0.261390 
#    y -0.025220 1.974140 0.024360 
#    z -0.261390 0.024360 2.455520 
# 
# From -- ./inp_files/185201.got.cif
#   From: 2010.05.17/outbox.cif.g08.bks.cpg/sg2_93_cif.got.tgz:185201.got - 2010.06.03 11:33:40.
