data_PCOD9014687
_publ_section_title
;
Structure prediction by ZEFSAII (Michael W. Deem and Ramdas Pophale) SiO2 
 PCOD9014687
Probable space group: P -1
;
_chemical_formula_sum "Si O2"
_cell_formula_units_Z 16
_cell_length_a 18.825628
_cell_length_b 9.362325
_cell_length_c 12.310052
_cell_angle_alpha 31.095025
_cell_angle_beta 141.138320
_cell_angle_gamma 134.574899
_cell_volume 698.949010
_symmetry_space_group_name_H-M "P -1"
_symmetry_group_IT_number 2
_symmetry_cell_setting 'triclinic'
loop_
_space_group_symop_operation_xyz
x,y,z
-x,-y,-z
loop_
_atom_site_type_symbol
_atom_site_label
_atom_site_fract_x
_atom_site_fract_y
_atom_site_fract_z
Si Si1 0.349364 0.026815 0.359288
Si Si2 0.690002 0.676441 0.670664
Si Si3 0.889213 0.671491 0.743936
Si Si4 0.444714 0.187314 0.148959
Si Si5 0.813212 0.395843 0.620202
Si Si6 0.977301 0.283933 0.469597
Si Si7 0.525009 0.107418 0.838904
Si Si8 0.919454 0.836777 0.097749
O O1 0.284335 0.177874 0.277454
O O2 0.358546 0.177239 0.155098
O O3 0.473175 0.029935 0.561215
O O4 0.306933 0.694469 0.519418
O O5 0.809071 0.662740 0.759476
O O6 0.615270 0.379665 0.782770
O O7 0.601023 0.844348 0.387933
O O8 0.812004 0.533325 0.645439
O O9 0.928026 0.991823 0.550689
O O10 0.000000 0.500000 0.000000
O O11 0.419858 0.073975 0.071057
O O12 0.500000 0.500000 0.000000
O O13 0.910160 0.573251 0.550708
O O14 0.841171 0.077050 0.875147
O O15 0.013316 0.204622 0.684508
O O16 0.892567 0.521770 0.226788
O O17 0.500000 0.000000 0.000000
O O18 0.000000 0.000000 0.000000
#
# Coordination Sequence:
#
# PCOD9014687 Si02
#       8
#     2   2   2   2   2   2   2   2
#     4  10  23  41  66  98 131 173 225 278 348 402
#     4  10  24  43  68  97 140 173 223 289 336 412
#     4  12  25  45  65  98 144 187 232 283 343 405
#     4  10  21  41  68  98 135 168 215 286 341 422
#     4  11  23  41  64  94 130 176 228 282 332 403
#     4  10  22  41  64  88 129 175 231 277 332 397
#     4  10  21  45  71 103 132 174 223 276 357 408
#     4   9  20  38  63  89 117 168 217 281 326 383
#
# _framework density 22.891514000000001
#
# number of rings (size 3 to 8) (size 9 to 14) (size 15 to 20)
#    0.000    1.750    1.250    1.875    5.250    4.000 
#   11.250    0.000    0.000    0.000    0.000    0.000 
#    0.000    0.000    0.000    0.000    0.000    0.000 
#
# Total GULP energy -89212.555916 kJ/mol
# GULP energy per Si atom -5575.784745 kJ/mol
# Density = 2.283941 g / cm^3
# Si number density = 22.891514 Si / 1000 Ang^3
#
#
#
# Elastic Constant Matrix: (Units=GPa)
#
#
# Indices 1 2 3 4 5 6 
#
# 1 176.2512 59.8412 48.8494 -7.6440 -35.1235 -22.5764
# 2 59.8412 138.6804 31.7983 -29.2212 -14.7892 -33.3383
# 3 48.8494 31.7983 91.3294 -17.2152 -15.2873 -5.6024
# 4 -7.6440 -29.2212 -17.2152 33.8080 -3.4756 2.4672
# 5 -35.1235 -14.7892 -15.2873 -3.4756 33.5314 5.3465
# 6 -22.5764 -33.3383 -5.6024 2.4672 5.3465 49.5226
#
#
#
# Elastic Compliance Matrix: (Units=1/GPa)
#
#
# Indices 1 2 3 4 5 6 
#
# 1 0.008656 -0.002218 -0.002845 -0.000851 0.006469 0.001476
# 2 -0.002218 0.012089 -0.000351 0.009601 0.002839 0.006303
# 3 -0.002845 -0.000351 0.014596 0.006984 0.004355 -0.000700
# 4 -0.000851 0.009601 0.006984 0.042033 0.010301 0.003659
# 5 0.006469 0.002839 0.004355 0.010301 0.040835 0.000431
# 6 0.001476 0.006303 -0.000700 0.003659 0.000431 0.024800
#
#
# Mechanical properties :
#
#
# Convention : Reuss Voigt Hill
#
# Bulk Modulus (GPa) = 40.79437 76.35987 58.57712
# Shear Modulus (GPa) = 30.86247 41.09055 35.97651
#
# Velocity S-wave (km/s) = 3.67578 4.24136 3.96865
# Velocity P-wave (km/s) = 5.98953 7.57728 6.82970
#
# Compressibility (1/GPa) = 0.02451319
#
# Stress axis : x y z
#
# Youngs Moduli (GPa) = 115.52160 82.71842 68.51240
#
# Poissons Ratio (x) = 0.18344 0.19492
# Poissons Ratio (y) = 0.25619 0.02408
# Poissons Ratio (z) = 0.32866 0.02907
#
# Static dielectric constant tensor:
#      x y z
#    x 2.655330 1.214570 0.774060 
#    y 1.214570 3.814220 1.132140 
#    z 0.774060 1.132140 2.519850 
# 
# From -- ./inp_files/461765.got.cif
#   From: 2010.05.17/outbox.cif.g08.bks.cpg/sg2_231_cif.got.tgz:461765.got - 2010.06.03 11:33:40.
