data_PCOD9014404
_publ_section_title
;
Structure prediction by ZEFSAII (Michael W. Deem and Ramdas Pophale) SiO2 
 PCOD9014404
Probable space group: P -1
;
_chemical_formula_sum "Si O2"
_cell_formula_units_Z 16
_cell_length_a 14.589802
_cell_length_b 9.080114
_cell_length_c 9.132048
_cell_angle_alpha 106.166674
_cell_angle_beta 48.980614
_cell_angle_gamma 90.239085
_cell_volume 849.641267
_symmetry_space_group_name_H-M "P -1"
_symmetry_group_IT_number 2
_symmetry_cell_setting 'triclinic'
loop_
_space_group_symop_operation_xyz
x,y,z
-x,-y,-z
loop_
_atom_site_type_symbol
_atom_site_label
_atom_site_fract_x
_atom_site_fract_y
_atom_site_fract_z
Si Si1 0.106890 0.552451 0.997841
Si Si2 0.964912 0.857291 0.407495
Si Si3 0.463833 0.627774 0.447524
Si Si4 0.128096 0.396512 0.409279
Si Si5 0.215085 0.609788 0.600840
Si Si6 0.120496 0.965299 0.754253
Si Si7 0.636635 0.020298 0.312720
Si Si8 0.289361 0.319069 0.949019
O O1 0.187022 0.609212 0.802950
O O2 0.184030 0.399692 0.962722
O O3 0.000000 0.500000 0.000000
O O4 0.063638 0.698147 0.197615
O O5 0.884542 0.776505 0.579222
O O6 0.906180 0.936372 0.339408
O O7 0.000000 0.000000 0.500000
O O8 0.500000 0.500000 0.500000
O O9 0.363532 0.584891 0.430783
O O10 0.583948 0.645963 0.235616
O O11 0.397598 0.795327 0.640388
O O12 0.160409 0.479140 0.544000
O O13 0.000000 0.500000 0.500000
O O14 0.237955 0.391401 0.177015
O O15 0.149538 0.777621 0.645540
O O16 0.247892 0.994694 0.698941
O O17 0.000000 0.000000 0.000000
O O18 0.688409 0.870302 0.113891
O O19 0.500000 0.000000 0.500000
#
# Coordination Sequence:
#
# PCOD9014404 Si02
#       8
#     2   2   2   2   2   2   2   2
#     4  12  21  38  66  95 123 173 218 258 318 390
#     4  12  26  39  61  98 137 167 212 270 334 380
#     4  10  21  41  67  97 120 166 220 268 312 382
#     4  12  25  41  60  92 134 172 206 262 328 389
#     4  11  23  40  65  91 127 166 219 263 323 383
#     4  11  23  37  64  96 125 163 215 273 319 379
#     4   9  22  40  64  92 127 168 216 265 323 383
#     4  11  23  40  65  90 133 167 214 262 322 387
#
# _framework density 18.831475000000001
#
# number of rings (size 3 to 8) (size 9 to 14) (size 15 to 20)
#    0.000    1.000    5.000    1.500    3.500    0.500 
#    0.000    0.000    0.000    7.500    0.000    0.000 
#    0.000    0.000    0.000    0.000    0.000    0.000 
#
# Total GULP energy -89158.261772 kJ/mol
# GULP energy per Si atom -5572.391361 kJ/mol
# Density = 1.878861 g / cm^3
# Si number density = 18.831475 Si / 1000 Ang^3
#
#
#
# Elastic Constant Matrix: (Units=GPa)
#
#
# Indices 1 2 3 4 5 6 
#
# 1 91.7470 46.1148 36.4013 4.4362 -16.7812 5.8314
# 2 46.1148 123.1520 31.4829 0.9420 -3.1118 -5.4433
# 3 36.4013 31.4829 97.8688 -2.0482 -2.4006 -1.1492
# 4 4.4362 0.9420 -2.0482 36.2357 -0.7713 4.0372
# 5 -16.7812 -3.1118 -2.4006 -0.7713 21.2779 1.5154
# 6 5.8314 -5.4433 -1.1492 4.0372 1.5154 43.4579
#
#
#
# Elastic Compliance Matrix: (Units=1/GPa)
#
#
# Indices 1 2 3 4 5 6 
#
# 1 0.018262 -0.005421 -0.004801 -0.001687 0.013261 -0.003562
# 2 -0.005421 0.010529 -0.001421 0.000009 -0.003046 0.002114
# 3 -0.004801 -0.001421 0.012430 0.001185 -0.002604 0.000776
# 4 -0.001687 0.000009 0.001185 0.028133 -0.000008 -0.002354
# 5 0.013261 -0.003046 -0.002604 -0.000008 0.057017 -0.004217
# 6 -0.003562 0.002114 0.000776 -0.002354 -0.004217 0.024140
#
#
# Mechanical properties :
#
#
# Convention : Reuss Voigt Hill
#
# Bulk Modulus (GPa) = 55.74680 60.08508 57.91594
# Shear Modulus (GPa) = 27.81265 33.44556 30.62911
#
# Velocity S-wave (km/s) = 3.84725 4.21889 4.03735
# Velocity P-wave (km/s) = 7.02868 7.46378 7.24949
#
# Compressibility (1/GPa) = 0.01793825
#
# Stress axis : x y z
#
# Youngs Moduli (GPa) = 54.75756 94.97189 80.44817
#
# Poissons Ratio (x) = 0.51481 0.38620
# Poissons Ratio (y) = 0.29682 0.11429
# Poissons Ratio (z) = 0.26287 0.13493
#
# Static dielectric constant tensor:
#      x y z
#    x 1.634750 0.023730 -0.006620 
#    y 0.023730 1.681570 0.009200 
#    z -0.006620 0.009200 1.672970 
# 
# From -- ./inp_files/176629.got.cif
#   From: 2010.05.17/outbox.cif.g08.bks.cpg/sg2_89_cif.got.tgz:176629.got - 2010.06.03 11:33:40.
