data_PCOD9014983
_publ_section_title
;
Structure prediction by ZEFSAII (Michael W. Deem and Ramdas Pophale) SiO2 
 PCOD9014983
Probable space group: P -1
;
_chemical_formula_sum "Si O2"
_cell_formula_units_Z 14
_cell_length_a 7.678228
_cell_length_b 11.637182
_cell_length_c 7.049043
_cell_angle_alpha 121.690420
_cell_angle_beta 80.546274
_cell_angle_gamma 105.402321
_cell_volume 516.457729
_symmetry_space_group_name_H-M "P -1"
_symmetry_group_IT_number 2
_symmetry_cell_setting 'triclinic'
loop_
_space_group_symop_operation_xyz
x,y,z
-x,-y,-z
loop_
_atom_site_type_symbol
_atom_site_label
_atom_site_fract_x
_atom_site_fract_y
_atom_site_fract_z
Si Si1 0.868253 0.185230 0.942186
Si Si2 0.935350 0.220886 0.546620
Si Si3 0.495485 0.589367 0.324564
Si Si4 0.075580 0.484594 0.264327
Si Si5 0.231933 0.101699 0.169874
Si Si6 0.482605 0.691444 0.853561
Si Si7 0.522229 0.128009 0.466607
O O1 0.908949 0.144158 0.685920
O O2 0.870008 0.057129 0.967595
O O3 0.675860 0.228300 0.022159
O O4 0.003318 0.327856 0.086589
O O5 0.975124 0.385754 0.723122
O O6 0.738571 0.182386 0.445997
O O7 0.099013 0.183211 0.370447
O O8 0.289374 0.517327 0.263961
O O9 0.505825 0.640925 0.587034
O O10 0.583867 0.458203 0.163823
O O11 0.541204 0.733325 0.327289
O O12 0.000000 0.500000 0.500000
O O13 0.330848 0.193514 0.058415
O O14 0.398648 0.085830 0.267677
O O15 0.500000 0.000000 0.500000
#
# Coordination Sequence:
#
# PCOD9014983 Si02
#       7
#     2   2   2   2   2   2   2
#     4  12  24  41  68 105 134 173 231 287 335 397
#     4  11  25  46  69  99 138 182 224 280 346 403
#     4   9  20  40  66  92 128 185 220 267 338 410
#     4  11  22  43  67  95 138 179 227 277 337 409
#     4  11  24  45  71  96 141 183 222 279 347 405
#     4  10  21  42  69  97 134 177 227 276 343 398
#     4  10  21  41  70  93 131 180 223 271 338 402
#
# _framework density 27.107735999999999
#
# number of rings (size 3 to 8) (size 9 to 14) (size 15 to 20)
#    0.000    1.429    2.857    2.143    4.000    0.000 
#    5.143    2.857    0.000    0.000    0.000    0.000 
#    0.000    0.000    0.000    0.000    0.000    0.000 
#
# Total GULP energy -78407.231419 kJ/mol
# GULP energy per Si atom -5600.516530 kJ/mol
# Density = 2.704604 g / cm^3
# Si number density = 27.107736 Si / 1000 Ang^3
#
#
#
# Elastic Constant Matrix: (Units=GPa)
#
#
# Indices 1 2 3 4 5 6 
#
# 1 97.4995 40.8249 28.7973 9.8102 -11.8692 7.3264
# 2 40.8249 185.0779 28.3421 44.1182 -3.4755 -2.1050
# 3 28.7973 28.3421 71.9550 13.1975 -0.5475 -0.9500
# 4 9.8102 44.1182 13.1975 62.5744 -2.2581 -3.3640
# 5 -11.8692 -3.4755 -0.5475 -2.2581 35.2626 10.8143
# 6 7.3264 -2.1050 -0.9500 -3.3640 10.8143 43.3884
#
#
#
# Elastic Compliance Matrix: (Units=1/GPa)
#
#
# Indices 1 2 3 4 5 6 
#
# 1 0.013483 -0.002330 -0.004576 0.000486 0.005436 -0.003807
# 2 -0.002330 0.007132 -0.001061 -0.004431 -0.000537 0.000507
# 3 -0.004576 -0.001061 0.016520 -0.002013 -0.001951 0.001413
# 4 0.000486 -0.004431 -0.002013 0.019531 0.000635 0.001015
# 5 0.005436 -0.000537 -0.001951 0.000635 0.032952 -0.009151
# 6 -0.003807 0.000507 0.001413 0.001015 -0.009151 0.026105
#
#
# Mechanical properties :
#
#
# Convention : Reuss Voigt Hill
#
# Bulk Modulus (GPa) = 47.17127 61.16234 54.16681
# Shear Modulus (GPa) = 36.04261 45.34961 40.69611
#
# Velocity S-wave (km/s) = 3.65033 4.09460 3.87883
# Velocity P-wave (km/s) = 5.93344 6.70567 6.33134
#
# Compressibility (1/GPa) = 0.02119934
#
# Stress axis : x y z
#
# Youngs Moduli (GPa) = 74.16858 140.22070 60.53273
#
# Poissons Ratio (x) = 0.32676 0.27701
# Poissons Ratio (y) = 0.17284 0.06423
# Poissons Ratio (z) = 0.33940 0.14878
#
# Static dielectric constant tensor:
#      x y z
#    x 2.126950 -0.045770 0.100540 
#    y -0.045770 2.182150 0.003060 
#    z 0.100540 0.003060 2.114210 
# 
# From -- ./inp_files/183067.got.cif
#   From: 2010.05.17/outbox.cif.g08.bks.cpg/sg2_92_cif.got.tgz:183067.got - 2010.06.03 11:33:40.
