data_PCOD9014352
_publ_section_title
;
Structure prediction by ZEFSAII (Michael W. Deem and Ramdas Pophale) SiO2 
 PCOD9014352
Probable space group: P -1
;
_chemical_formula_sum "Si O2"
_cell_formula_units_Z 16
_cell_length_a 5.175726
_cell_length_b 7.145329
_cell_length_c 23.151409
_cell_angle_alpha 118.253639
_cell_angle_beta 93.344690
_cell_angle_gamma 63.456775
_cell_volume 661.819893
_symmetry_space_group_name_H-M "P -1"
_symmetry_group_IT_number 2
_symmetry_cell_setting 'triclinic'
loop_
_space_group_symop_operation_xyz
x,y,z
-x,-y,-z
loop_
_atom_site_type_symbol
_atom_site_label
_atom_site_fract_x
_atom_site_fract_y
_atom_site_fract_z
Si Si1 0.822962 0.802351 0.315308
Si Si2 0.978389 0.738458 0.791182
Si Si3 0.158171 0.061792 0.303230
Si Si4 0.809175 0.466745 0.443825
Si Si5 0.727899 0.090007 0.465931
Si Si6 0.404810 0.795622 0.088740
Si Si7 0.712905 0.339712 0.100158
Si Si8 0.846255 0.827104 0.016215
O O1 0.986552 0.516391 0.265313
O O2 0.041965 0.897534 0.309218
O O3 0.749464 0.880627 0.392943
O O4 0.511225 0.933956 0.296019
O O5 0.973669 0.880507 0.754219
O O6 0.230112 0.672284 0.832905
O O7 0.685933 0.939735 0.848596
O O8 0.011080 0.320102 0.371862
O O9 0.711103 0.283395 0.445121
O O10 0.548488 0.737705 0.472694
O O11 0.000000 0.500000 0.500000
O O12 0.000000 0.000000 0.500000
O O13 0.484925 0.599826 0.111597
O O14 0.674564 0.725914 0.038158
O O15 0.125537 0.807461 0.053748
O O16 0.653307 0.118535 0.050012
O O17 0.009798 0.284209 0.059702
#
# Coordination Sequence:
#
# PCOD9014352 Si02
#       8
#     2   2   2   2   2   2   2   2
#     4  11  26  47  67  98 136 180 226 278 341 415
#     4  11  27  43  70  97 138 184 226 274 336 412
#     4  11  26  47  69  97 140 179 226 283 346 404
#     4  10  21  41  67  95 129 171 223 286 342 404
#     4  10  23  40  67  99 129 171 225 287 347 404
#     4  11  24  44  68 100 135 179 221 280 339 395
#     4  10  23  44  69 103 134 175 229 277 336 402
#     4  10  24  43  71 101 135 174 224 283 337 396
#
# _framework density 24.17576
#
# number of rings (size 3 to 8) (size 9 to 14) (size 15 to 20)
#    0.000    1.500    1.250    1.500    1.750   17.000 
#    0.000    0.000    0.000    0.000    0.000    0.000 
#    0.000    0.000    0.000    0.000    0.000    0.000 
#
# Total GULP energy -89473.172406 kJ/mol
# GULP energy per Si atom -5592.073275 kJ/mol
# Density = 2.412073 g / cm^3
# Si number density = 24.175760 Si / 1000 Ang^3
#
#
#
# Elastic Constant Matrix: (Units=GPa)
#
#
# Indices 1 2 3 4 5 6 
#
# 1 59.1161 7.7527 4.3516 3.9128 2.0726 -10.5950
# 2 7.7527 129.1707 52.1891 9.8663 13.1561 -13.1939
# 3 4.3516 52.1891 128.8499 10.5640 5.9021 4.8879
# 4 3.9128 9.8663 10.5640 64.8479 3.6388 2.6742
# 5 2.0726 13.1561 5.9021 3.6388 22.3785 4.2082
# 6 -10.5950 -13.1939 4.8879 2.6742 4.2082 37.8572
#
#
#
# Elastic Compliance Matrix: (Units=1/GPa)
#
#
# Indices 1 2 3 4 5 6 
#
# 1 0.018100 0.000067 -0.000648 -0.001089 -0.002405 0.005517
# 2 0.000067 0.010583 -0.004138 -0.000811 -0.005937 0.004959
# 3 -0.000648 -0.004138 0.009606 -0.000813 0.000633 -0.002877
# 4 -0.001089 -0.000811 -0.000813 0.015887 -0.001521 -0.001436
# 5 -0.002405 -0.005937 0.000633 -0.001521 0.050036 -0.008279
# 6 0.005517 0.004959 -0.002877 -0.001436 -0.008279 0.031080
#
#
# Mechanical properties :
#
#
# Convention : Reuss Voigt Hill
#
# Bulk Modulus (GPa) = 34.66216 49.52483 42.09350
# Shear Modulus (GPa) = 32.39444 41.87293 37.13368
#
# Velocity S-wave (km/s) = 3.66451 4.16627 3.92342
# Velocity P-wave (km/s) = 5.68098 6.60860 6.16227
#
# Compressibility (1/GPa) = 0.02884990
#
# Stress axis : x y z
#
# Youngs Moduli (GPa) = 55.24869 94.49260 104.10303
#
# Poissons Ratio (x) = -0.00636 0.06750
# Poissons Ratio (y) = -0.00372 0.43082
# Poissons Ratio (z) = 0.03582 0.39105
#
# Static dielectric constant tensor:
#      x y z
#    x 1.926520 -0.003840 -0.020640 
#    y -0.003840 1.920590 0.016950 
#    z -0.020640 0.016950 1.938920 
# 
# From -- ./inp_files/603847.got.cif
#   From: 2010.05.17/outbox.cif.g08.bks.cpg/sg2_302_cif.got.tgz:603847.got - 2010.06.03 11:33:40.
