data_PCOD9014571
_publ_section_title
;
Structure prediction by ZEFSAII (Michael W. Deem and Ramdas Pophale) SiO2 
 PCOD9014571
Probable space group: P -1
;
_chemical_formula_sum "Si O2"
_cell_formula_units_Z 16
_cell_length_a 13.071084
_cell_length_b 8.706307
_cell_length_c 9.801737
_cell_angle_alpha 91.054384
_cell_angle_beta 107.811959
_cell_angle_gamma 131.037052
_cell_volume 762.793197
_symmetry_space_group_name_H-M "P -1"
_symmetry_group_IT_number 2
_symmetry_cell_setting 'triclinic'
loop_
_space_group_symop_operation_xyz
x,y,z
-x,-y,-z
loop_
_atom_site_type_symbol
_atom_site_label
_atom_site_fract_x
_atom_site_fract_y
_atom_site_fract_z
Si Si1 0.761511 0.957578 0.263100
Si Si2 0.010362 0.994432 0.241260
Si Si3 0.434533 0.647286 0.452818
Si Si4 0.217620 0.937885 0.431779
Si Si5 0.475361 0.513415 0.721422
Si Si6 0.296053 0.021362 0.058259
Si Si7 0.949743 0.741000 0.972205
Si Si8 0.242343 0.713732 0.230512
O O1 0.783463 0.084911 0.406811
O O2 0.633330 0.705719 0.242910
O O3 0.908424 0.003000 0.290702
O O4 0.718967 0.008193 0.110697
O O5 0.123966 0.998520 0.366116
O O6 0.089208 0.183481 0.166430
O O7 0.911806 0.783361 0.100506
O O8 0.610287 0.864797 0.538454
O O9 0.386893 0.535107 0.578681
O O10 0.431226 0.506756 0.339498
O O11 0.346692 0.704201 0.359629
O O12 0.163658 0.746684 0.309815
O O13 0.585344 0.728073 0.856811
O O14 0.330521 0.905056 0.159495
O O15 0.129697 0.902565 0.040378
O O16 0.871871 0.503925 0.904847
#
# Coordination Sequence:
#
# PCOD9014571 Si02
#       8
#     2   2   2   2   2   2   2   2
#     4  10  24  40  66  96 130 166 210 258 318 374
#     4  10  21  41  68  92 126 163 219 264 304 369
#     4  10  23  38  68  98 119 165 221 262 309 364
#     4  11  22  43  63  96 129 165 208 263 317 372
#     4  10  21  41  68  92 126 163 219 264 304 369
#     4  11  22  43  63  96 129 165 208 263 317 372
#     4  10  23  38  68  98 119 165 221 262 309 364
#     4  12  24  38  68  94 132 164 208 264 318 376
#
# _framework density 20.975542999999998
#
# number of rings (size 3 to 8) (size 9 to 14) (size 15 to 20)
#    0.000    1.500    2.500    1.500   10.500    0.000 
#    0.000    6.250    0.000    0.000    0.000    0.000 
#    0.000    0.000    0.000    0.000    0.000    0.000 
#
# Total GULP energy -89399.792923 kJ/mol
# GULP energy per Si atom -5587.487058 kJ/mol
# Density = 2.092780 g / cm^3
# Si number density = 20.975543 Si / 1000 Ang^3
#
#
#
# Elastic Constant Matrix: (Units=GPa)
#
#
# Indices 1 2 3 4 5 6 
#
# 1 39.2246 15.2344 21.1833 -13.6275 9.7133 -7.7362
# 2 15.2344 53.8824 30.5695 1.9167 -5.2786 -11.7900
# 3 21.1833 30.5695 104.0373 -29.6545 -9.3524 -13.8219
# 4 -13.6275 1.9167 -29.6545 35.7964 -3.5092 3.4229
# 5 9.7133 -5.2786 -9.3524 -3.5092 36.4833 -0.8513
# 6 -7.7362 -11.7900 -13.8219 3.4229 -0.8513 27.0003
#
#
#
# Elastic Compliance Matrix: (Units=1/GPa)
#
#
# Indices 1 2 3 4 5 6 
#
# 1 0.038163 -0.010572 -0.001653 0.012321 -0.010845 0.003568
# 2 -0.010572 0.028905 -0.008878 -0.013227 0.003608 0.006838
# 3 -0.001653 -0.008878 0.017583 0.014633 0.005140 0.002958
# 4 0.012321 -0.013227 0.014633 0.045791 0.002951 -0.000467
# 5 -0.010845 0.003608 0.005140 0.002951 0.032462 0.001749
# 6 0.003568 0.006838 0.002958 -0.000467 0.001749 0.042673
#
#
# Mechanical properties :
#
#
# Convention : Reuss Voigt Hill
#
# Bulk Modulus (GPa) = 23.56004 36.79096 30.17550
# Shear Modulus (GPa) = 19.08891 28.53314 23.81103
#
# Velocity S-wave (km/s) = 3.01999 3.69223 3.37290
# Velocity P-wave (km/s) = 4.83911 5.97953 5.43929
#
# Compressibility (1/GPa) = 0.04244475
#
# Stress axis : x y z
#
# Youngs Moduli (GPa) = 26.20345 34.59576 56.87243
#
# Poissons Ratio (x) = 0.36575 0.09401
# Poissons Ratio (y) = 0.27703 0.50492
# Poissons Ratio (z) = 0.04332 0.30715
#
# Static dielectric constant tensor:
#      x y z
#    x 1.752690 -0.018930 0.027000 
#    y -0.018930 1.770270 0.012390 
#    z 0.027000 0.012390 1.802600 
# 
# From -- ./inp_files/295569.got.cif
#   From: 2010.05.17/outbox.cif.g08.bks.cpg/sg2_148_cif.got.tgz:295569.got - 2010.06.03 11:33:40.
