data_PCOD9014247
_publ_section_title
;
Structure prediction by ZEFSAII (Michael W. Deem and Ramdas Pophale) SiO2 
 PCOD9014247
Probable space group: P -1
;
_chemical_formula_sum "Si O2"
_cell_formula_units_Z 14
_cell_length_a 13.227890
_cell_length_b 8.744817
_cell_length_c 9.439869
_cell_angle_alpha 96.672995
_cell_angle_beta 75.410555
_cell_angle_gamma 148.892257
_cell_volume 535.057212
_symmetry_space_group_name_H-M "P -1"
_symmetry_group_IT_number 2
_symmetry_cell_setting 'triclinic'
loop_
_space_group_symop_operation_xyz
x,y,z
-x,-y,-z
loop_
_atom_site_type_symbol
_atom_site_label
_atom_site_fract_x
_atom_site_fract_y
_atom_site_fract_z
Si Si1 0.216850 0.683560 0.463028
Si Si2 0.020177 0.844928 0.167035
Si Si3 0.936906 0.765575 0.699841
Si Si4 0.181094 0.576103 0.036424
Si Si5 0.240507 0.915556 0.723935
Si Si6 0.371282 0.337079 0.887037
Si Si7 0.360841 0.054979 0.193252
O O1 0.174050 0.450703 0.420050
O O2 0.000000 0.500000 0.500000
O O3 0.297278 0.842230 0.602658
O O4 0.342866 0.920159 0.317655
O O5 0.007707 0.987090 0.273770
O O6 0.163246 0.914737 0.219148
O O7 0.143582 0.045923 0.998909
O O8 0.833797 0.516781 0.123361
O O9 0.806172 0.540216 0.858829
O O10 0.147578 0.934689 0.659211
O O11 0.342360 0.915873 0.049909
O O12 0.956498 0.363554 0.135588
O O13 0.408855 0.224573 0.781887
O O14 0.451566 0.591069 0.812127
O O15 0.500000 0.500000 0.000000
#
# Coordination Sequence:
#
# PCOD9014247 Si02
#       7
#     2   2   2   2   2   2   2
#     4   9  16  33  50  68  92 124 167 192 222 278
#     4  10  17  30  48  72 102 118 153 198 237 277
#     4   8  16  28  52  72  90 128 153 192 241 264
#     4   8  16  28  49  68  90 124 159 185 232 273
#     4   8  16  31  53  65  91 128 159 187 229 280
#     4   9  19  30  46  74  99 120 151 193 243 278
#     4  10  18  29  47  74  92 127 158 191 232 276
#
# _framework density 26.165426
#
# number of rings (size 3 to 8) (size 9 to 14) (size 15 to 20)
#    0.857    2.286    1.429    0.857    0.000    0.571 
#    0.000    5.714    0.000    3.429    0.000    0.000 
#    0.000    0.000    0.000    0.000    0.000    0.000 
#
# Total GULP energy -78095.942824 kJ/mol
# GULP energy per Si atom -5578.281630 kJ/mol
# Density = 2.610587 g / cm^3
# Si number density = 26.165426 Si / 1000 Ang^3
#
#
#
# Elastic Constant Matrix: (Units=GPa)
#
#
# Indices 1 2 3 4 5 6 
#
# 1 66.6973 4.3033 40.2161 14.2079 -13.5789 -21.7071
# 2 4.3033 127.0070 88.0402 39.1809 6.4238 -21.1936
# 3 40.2161 88.0402 144.2624 69.9360 -5.8918 -15.5519
# 4 14.2079 39.1809 69.9360 66.8699 -8.0858 -9.7860
# 5 -13.5789 6.4238 -5.8918 -8.0858 28.6260 4.5459
# 6 -21.7071 -21.1936 -15.5519 -9.7860 4.5459 28.6564
#
#
#
# Elastic Compliance Matrix: (Units=1/GPa)
#
#
# Indices 1 2 3 4 5 6 
#
# 1 0.033974 0.013163 -0.019061 0.009930 0.007709 0.027294
# 2 0.013163 0.020951 -0.017050 0.005044 -0.003478 0.018487
# 3 -0.019061 -0.017050 0.030934 -0.021070 -0.002081 -0.017125
# 4 0.009930 0.005044 -0.021070 0.034327 0.007289 0.010384
# 5 0.007709 -0.003478 -0.002081 0.007289 0.041307 -0.001925
# 6 0.027294 0.018487 -0.017125 0.010384 -0.001925 0.063801
#
#
# Mechanical properties :
#
#
# Convention : Reuss Voigt Hill
#
# Bulk Modulus (GPa) = 25.02273 67.00956 46.01614
# Shear Modulus (GPa) = 17.57405 38.52427 28.04916
#
# Velocity S-wave (km/s) = 2.59444 3.84126 3.27768
# Velocity P-wave (km/s) = 4.30800 6.73345 5.65235
#
# Compressibility (1/GPa) = 0.03996366
#
# Stress axis : x y z
#
# Youngs Moduli (GPa) = 29.43424 47.73012 32.32705
#
# Poissons Ratio (x) = -0.62826 0.61618
# Poissons Ratio (y) = -0.38744 0.55117
# Poissons Ratio (z) = 0.56104 0.81378
#
# Static dielectric constant tensor:
#      x y z
#    x 2.175540 0.051150 0.001270 
#    y 0.051150 2.279930 0.002700 
#    z 0.001270 0.002700 2.106310 
# 
# From -- ./inp_files/330465.got.cif
#   From: 2010.05.17/outbox.cif.g08.bks.cpg/sg2_166_cif.got.tgz:330465.got - 2010.06.03 11:33:40.
