data_PCOD9014605
_publ_section_title
;
Structure prediction by ZEFSAII (Michael W. Deem and Ramdas Pophale) SiO2 
 PCOD9014605
Probable space group: P -1
;
_chemical_formula_sum "Si O2"
_cell_formula_units_Z 15
_cell_length_a 7.989382
_cell_length_b 8.078767
_cell_length_c 16.910839
_cell_angle_alpha 107.983515
_cell_angle_beta 137.257681
_cell_angle_gamma 50.852139
_cell_volume 549.062036
_symmetry_space_group_name_H-M "P -1"
_symmetry_group_IT_number 2
_symmetry_cell_setting 'triclinic'
loop_
_space_group_symop_operation_xyz
x,y,z
-x,-y,-z
loop_
_atom_site_type_symbol
_atom_site_label
_atom_site_fract_x
_atom_site_fract_y
_atom_site_fract_z
Si Si1 0.000000 0.000000 0.500000
Si Si2 0.725324 0.881738 0.656526
Si Si3 0.838844 0.221853 0.791112
Si Si4 0.179653 0.102012 0.741829
Si Si5 0.067889 0.264868 0.473580
Si Si6 0.932383 0.373391 0.113971
Si Si7 0.358463 0.845316 0.028545
Si Si8 0.340982 0.375679 0.142795
O O1 0.033080 0.107957 0.610698
O O2 0.182619 0.749069 0.574395
O O3 0.825698 0.795181 0.589648
O O4 0.991008 0.690746 0.777541
O O5 0.359606 0.998837 0.570098
O O6 0.702587 0.097367 0.699594
O O7 0.614020 0.441807 0.798291
O O8 0.935232 0.269326 0.749401
O O9 0.144453 0.057720 0.929085
O O10 0.348414 0.862674 0.809942
O O11 0.445855 0.134143 0.836247
O O12 0.000000 0.500000 0.500000
O O13 0.626192 0.628914 0.037064
O O14 0.245875 0.313740 0.179201
O O15 0.853117 0.221885 0.025720
O O16 0.000000 0.500000 0.000000
#
# Coordination Sequence:
#
# PCOD9014605 Si02
#       8
#     1   2   2   2   2   2   2   2
#     4  12  28  48  70 112 144 182 250 298 348 430
#     4  10  24  48  70  97 142 184 242 285 357 439
#     4  11  22  44  69  99 138 182 226 291 355 426
#     4  12  24  43  68  99 141 181 233 293 354 424
#     4  11  26  49  73 104 140 192 242 300 352 421
#     4  10  22  41  66 103 132 184 228 283 363 426
#     4  10  21  41  68  94 138 180 221 287 351 419
#     4  12  24  40  68 105 135 178 236 290 361 424
#
# _framework density 27.319317000000002
#
# number of rings (size 3 to 8) (size 9 to 14) (size 15 to 20)
#    0.000    1.067    4.000    2.000    3.733    0.533 
#    2.400    2.000    0.000    0.000    0.000    0.000 
#    0.000    0.000    0.000    0.000    0.000    0.000 
#
# Total GULP energy -83669.471117 kJ/mol
# GULP energy per Si atom -5577.964741 kJ/mol
# Density = 2.725714 g / cm^3
# Si number density = 27.319317 Si / 1000 Ang^3
#
#
#
# Elastic Constant Matrix: (Units=GPa)
#
#
# Indices 1 2 3 4 5 6 
#
# 1 62.8240 15.3622 29.4559 4.0896 0.1284 -1.8449
# 2 15.3622 151.2834 41.7382 15.0749 1.5484 2.6852
# 3 29.4559 41.7382 152.9552 10.7231 0.6034 4.7978
# 4 4.0896 15.0749 10.7231 54.5489 8.0121 11.2680
# 5 0.1284 1.5484 0.6034 8.0121 53.1291 0.9093
# 6 -1.8449 2.6852 4.7978 11.2680 0.9093 38.5065
#
#
#
# Elastic Compliance Matrix: (Units=1/GPa)
#
#
# Indices 1 2 3 4 5 6 
#
# 1 0.017712 -0.000874 -0.003165 -0.000798 0.000113 0.001535
# 2 -0.000874 0.007336 -0.001722 -0.001662 0.000056 0.000146
# 3 -0.003165 -0.001722 0.007687 -0.000644 0.000081 -0.000803
# 4 -0.000798 -0.001662 -0.000644 0.020610 -0.002951 -0.005803
# 5 0.000113 0.000056 0.000081 -0.002951 0.019257 0.000400
# 6 0.001535 0.000146 -0.000803 -0.005803 0.000400 0.027822
#
#
# Mechanical properties :
#
#
# Convention : Reuss Voigt Hill
#
# Bulk Modulus (GPa) = 47.14032 60.01945 53.57989
# Shear Modulus (GPa) = 42.01032 47.93734 44.97383
#
# Velocity S-wave (km/s) = 3.92567 4.19346 4.06178
# Velocity P-wave (km/s) = 6.15147 6.74271 6.45387
#
# Compressibility (1/GPa) = 0.02121326
#
# Stress axis : x y z
#
# Youngs Moduli (GPa) = 56.45892 136.30719 130.08533
#
# Poissons Ratio (x) = 0.11917 0.41173
# Poissons Ratio (y) = 0.04936 0.22399
# Poissons Ratio (z) = 0.17869 0.23470
#
# Static dielectric constant tensor:
#      x y z
#    x 1.505550 -0.022210 -0.203980 
#    y -0.022210 2.199690 -0.065600 
#    z -0.203980 -0.065600 2.119870 
# 
# From -- ./inp_files/493497.got.cif
#   From: 2010.05.17/outbox.cif.g08.bks.cpg/sg2_247_cif.got.tgz:493497.got - 2010.06.03 11:33:40.
