data_PCOD9014890
_publ_section_title
;
Structure prediction by ZEFSAII (Michael W. Deem and Ramdas Pophale) SiO2 
 PCOD9014890
Probable space group: P -1
;
_chemical_formula_sum "Si O2"
_cell_formula_units_Z 14
_cell_length_a 14.479837
_cell_length_b 9.682429
_cell_length_c 4.928324
_cell_angle_alpha 83.779936
_cell_angle_beta 117.966896
_cell_angle_gamma 113.658746
_cell_volume 556.240558
_symmetry_space_group_name_H-M "P -1"
_symmetry_group_IT_number 2
_symmetry_cell_setting 'triclinic'
loop_
_space_group_symop_operation_xyz
x,y,z
-x,-y,-z
loop_
_atom_site_type_symbol
_atom_site_label
_atom_site_fract_x
_atom_site_fract_y
_atom_site_fract_z
Si Si1 0.382257 0.698765 0.687129
Si Si2 0.174385 0.406806 0.297070
Si Si3 0.490309 0.338420 0.627851
Si Si4 0.037109 0.659730 0.665711
Si Si5 0.274869 0.883240 0.807153
Si Si6 0.136790 0.230770 0.777946
Si Si7 0.736646 0.937130 0.751048
O O1 0.257537 0.566914 0.491913
O O2 0.365633 0.833661 0.793503
O O3 0.458149 0.646666 0.005130
O O4 0.196313 0.374235 0.029365
O O5 0.041761 0.376883 0.166037
O O6 0.438929 0.723266 0.465968
O O7 0.188132 0.280551 0.540609
O O8 0.500000 0.500000 0.500000
O O9 0.361893 0.217076 0.455192
O O10 0.000000 0.500000 0.500000
O O11 0.172194 0.741563 0.834663
O O12 0.989567 0.774340 0.427189
O O13 0.228983 0.949995 0.477816
O O14 0.315049 0.001563 0.082575
O O15 0.159457 0.094892 0.967685
#
# Coordination Sequence:
#
# PCOD9014890 Si02
#       7
#     2   2   2   2   2   2   2
#     4  12  24  44  70 103 135 173 231 276 336 392
#     4  10  21  41  69  98 133 170 224 287 320 391
#     4  12  27  46  75  99 130 180 226 283 340 393
#     4  10  24  44  71 101 135 179 226 272 339 394
#     4  12  27  44  70 101 140 182 217 276 337 404
#     4  10  23  42  67  94 141 172 223 279 327 396
#     4  12  27  46  66 100 140 177 228 274 340 399
#
# _framework density 25.168966000000001
#
# number of rings (size 3 to 8) (size 9 to 14) (size 15 to 20)
#    0.857    0.000    1.429    5.571    2.000    6.286 
#    0.000    0.000    0.000    0.000    0.000    0.000 
#    0.000    0.000    0.000    0.000    0.000    0.000 
#
# Total GULP energy -78325.245829 kJ/mol
# GULP energy per Si atom -5594.660416 kJ/mol
# Density = 2.511168 g / cm^3
# Si number density = 25.168966 Si / 1000 Ang^3
#
#
#
# Elastic Constant Matrix: (Units=GPa)
#
#
# Indices 1 2 3 4 5 6 
#
# 1 108.6111 15.4576 12.0241 5.1637 -11.2924 -7.9380
# 2 15.4576 55.3109 12.1485 -2.0137 10.2792 -11.9307
# 3 12.0241 12.1485 93.1157 -14.0785 -14.8326 -4.6509
# 4 5.1637 -2.0137 -14.0785 34.9325 -11.2947 -5.7599
# 5 -11.2924 10.2792 -14.8326 -11.2947 35.4478 0.5275
# 6 -7.9380 -11.9307 -4.6509 -5.7599 0.5275 28.4888
#
#
#
# Elastic Compliance Matrix: (Units=1/GPa)
#
#
# Indices 1 2 3 4 5 6 
#
# 1 0.010224 -0.003278 -0.000234 -0.000286 0.003999 0.001306
# 2 -0.003278 0.023497 -0.004159 -0.001838 -0.010304 0.008067
# 3 -0.000234 -0.004159 0.014424 0.009233 0.010076 0.002228
# 4 -0.000286 -0.001838 0.009233 0.039014 0.016614 0.008238
# 5 0.003999 -0.010304 0.010076 0.016614 0.041967 0.001026
# 6 0.001306 0.008067 0.002228 0.008238 0.001026 0.040854
#
#
# Mechanical properties :
#
#
# Convention : Reuss Voigt Hill
#
# Bulk Modulus (GPa) = 30.48259 37.36646 33.92453
# Shear Modulus (GPa) = 25.47675 34.26768 29.87221
#
# Velocity S-wave (km/s) = 3.18501 3.69386 3.44883
# Velocity P-wave (km/s) = 5.06588 5.75076 5.41915
#
# Compressibility (1/GPa) = 0.03280561
#
# Stress axis : x y z
#
# Youngs Moduli (GPa) = 97.80502 42.55824 69.32673
#
# Poissons Ratio (x) = 0.13951 0.01619
# Poissons Ratio (y) = 0.32061 0.28831
# Poissons Ratio (z) = 0.02284 0.17699
#
# Static dielectric constant tensor:
#      x y z
#    x 1.990820 -0.024860 0.059220 
#    y -0.024860 1.967640 -0.033540 
#    z 0.059220 -0.033540 1.974930 
# 
# From -- ./inp_files/103784.got.cif
#   From: 2010.05.17/outbox.cif.g08.bks.cpg/sg2_52_cif.got.tgz:103784.got - 2010.06.03 11:33:40.
