data_PCOD9014264
_publ_section_title
;
Structure prediction by ZEFSAII (Michael W. Deem and Ramdas Pophale) SiO2 
 PCOD9014264
Probable space group: P -1
;
_chemical_formula_sum "Si O2"
_cell_formula_units_Z 16
_cell_length_a 7.769612
_cell_length_b 8.951721
_cell_length_c 23.537224
_cell_angle_alpha 139.200844
_cell_angle_beta 121.410603
_cell_angle_gamma 50.423036
_cell_volume 822.003594
_symmetry_space_group_name_H-M "P -1"
_symmetry_group_IT_number 2
_symmetry_cell_setting 'triclinic'
loop_
_space_group_symop_operation_xyz
x,y,z
-x,-y,-z
loop_
_atom_site_type_symbol
_atom_site_label
_atom_site_fract_x
_atom_site_fract_y
_atom_site_fract_z
Si Si1 0.063227 0.625419 0.697055
Si Si2 0.260530 0.242252 0.785124
Si Si3 0.425229 0.697424 0.857167
Si Si4 0.837109 0.451224 0.697859
Si Si5 0.533890 0.969085 0.851417
Si Si6 0.345037 0.870617 0.268594
Si Si7 0.504446 0.775452 0.397501
Si Si8 0.753335 0.220616 0.029647
O O1 0.215306 0.660514 0.783618
O O2 0.245649 0.446808 0.632190
O O3 0.933042 0.477061 0.660757
O O4 0.886306 0.894731 0.720071
O O5 0.466319 0.133806 0.744584
O O6 0.238271 0.512613 0.882285
O O7 0.039635 0.280662 0.724922
O O8 0.327421 0.064572 0.800263
O O9 0.480929 0.860524 0.868188
O O10 0.631426 0.416457 0.816349
O O11 0.352913 0.816556 0.940443
O O12 0.732176 0.734817 0.787290
O O13 0.650897 0.347528 0.638717
O O14 0.608992 0.187142 0.943703
O O15 0.414291 0.878629 0.348166
O O16 0.500000 0.000000 0.500000
O O17 0.000000 0.000000 0.000000
#
# Coordination Sequence:
#
# PCOD9014264 Si02
#       8
#     2   2   2   2   2   2   2   2
#     4  11  21  43  67  95 126 171 212 261 316 390
#     4  11  23  40  66  94 127 178 218 261 317 379
#     4  10  22  40  59  93 132 167 219 269 309 372
#     4  12  22  43  69  91 128 172 213 261 322 385
#     4  12  22  38  63  95 125 177 222 260 321 371
#     4  10  21  41  67  91 129 166 211 262 319 379
#     4  11  26  45  67 100 131 160 208 270 325 388
#     4  11  21  39  58  88 138 172 216 271 313 360
#
# _framework density 19.464635000000001
#
# number of rings (size 3 to 8) (size 9 to 14) (size 15 to 20)
#    0.000    1.000    8.750    0.750    1.750    1.000 
#    0.000    1.250    0.000    0.000    0.000    0.000 
#    0.000    0.000    0.000    0.000    0.000    0.000 
#
# Total GULP energy -89348.668021 kJ/mol
# GULP energy per Si atom -5584.291751 kJ/mol
# Density = 1.942033 g / cm^3
# Si number density = 19.464635 Si / 1000 Ang^3
#
#
#
# Elastic Constant Matrix: (Units=GPa)
#
#
# Indices 1 2 3 4 5 6 
#
# 1 103.0028 44.5540 53.6179 17.7823 1.7026 -12.6094
# 2 44.5540 134.7428 23.0927 11.0497 -10.0507 -18.9135
# 3 53.6179 23.0927 80.6771 7.6797 2.4811 -2.2026
# 4 17.7823 11.0497 7.6797 14.1648 -1.0269 -4.8178
# 5 1.7026 -10.0507 2.4811 -1.0269 10.6817 6.3590
# 6 -12.6094 -18.9135 -2.2026 -4.8178 6.3590 24.7637
#
#
#
# Elastic Compliance Matrix: (Units=1/GPa)
#
#
# Indices 1 2 3 4 5 6 
#
# 1 0.020296 -0.003447 -0.010565 -0.015664 -0.009139 0.006062
# 2 -0.003447 0.009823 -0.000540 -0.001306 0.007733 0.003460
# 3 -0.010565 -0.000540 0.019324 0.001968 -0.001094 -0.003409
# 4 -0.015664 -0.001306 0.001968 0.093322 0.004972 0.008081
# 5 -0.009139 0.007733 -0.001094 0.004972 0.120193 -0.028742
# 6 0.006062 0.003460 -0.003409 0.008081 -0.028742 0.054760
#
#
# Mechanical properties :
#
#
# Convention : Reuss Voigt Hill
#
# Bulk Modulus (GPa) = 49.16287 62.32798 55.74542
# Shear Modulus (GPa) = 14.14020 23.06592 18.60306
#
# Velocity S-wave (km/s) = 2.69821 3.44614 3.09485
# Velocity P-wave (km/s) = 5.91773 6.92280 6.43990
#
# Compressibility (1/GPa) = 0.02034055
#
# Stress axis : x y z
#
# Youngs Moduli (GPa) = 49.27068 101.79825 51.74888
#
# Poissons Ratio (x) = 0.35088 0.54670
# Poissons Ratio (y) = 0.16983 0.02795
# Poissons Ratio (z) = 0.52052 0.05498
#
# Static dielectric constant tensor:
#      x y z
#    x 1.711560 0.019940 0.008000 
#    y 0.019940 1.699820 0.002880 
#    z 0.008000 0.002880 1.658560 
# 
# From -- ./inp_files/600580.got.cif
#   From: 2010.05.17/outbox.cif.g08.bks.cpg/sg2_301_cif.got.tgz:600580.got - 2010.06.03 11:33:40.
