data_PCOD9014243
_publ_section_title
;
Structure prediction by ZEFSAII (Michael W. Deem and Ramdas Pophale) SiO2 
 PCOD9014243
Probable space group: P -1
;
_chemical_formula_sum "Si O2"
_cell_formula_units_Z 14
_cell_length_a 12.417156
_cell_length_b 20.357640
_cell_length_c 23.777048
_cell_angle_alpha 161.256143
_cell_angle_beta 160.103340
_cell_angle_gamma 27.391276
_cell_volume 657.119953
_symmetry_space_group_name_H-M "P -1"
_symmetry_group_IT_number 2
_symmetry_cell_setting 'triclinic'
loop_
_space_group_symop_operation_xyz
x,y,z
-x,-y,-z
loop_
_atom_site_type_symbol
_atom_site_label
_atom_site_fract_x
_atom_site_fract_y
_atom_site_fract_z
Si Si1 0.212515 0.468629 0.663028
Si Si2 0.765437 0.261878 0.836763
Si Si3 0.090551 0.816240 0.972108
Si Si4 0.712343 0.657006 0.765858
Si Si5 0.751251 0.202601 0.145662
Si Si6 0.393921 0.260940 0.760907
Si Si7 0.218677 0.953401 0.747943
O O1 0.511055 0.369658 0.760134
O O2 0.054097 0.629114 0.758874
O O3 0.321412 0.607329 0.776086
O O4 0.971477 0.295264 0.379340
O O5 0.565682 0.169016 0.715667
O O6 0.982353 0.098948 0.781626
O O7 0.041838 0.408046 0.118767
O O8 0.919542 0.757007 0.898663
O O9 0.456876 0.824360 0.177845
O O10 0.946915 0.037954 0.071300
O O11 0.500000 0.500000 0.500000
O O12 0.460739 0.821916 0.797025
O O13 0.440528 0.087846 0.924270
O O14 0.500000 0.500000 0.000000
O O15 0.025269 0.207564 0.531997
#
# Coordination Sequence:
#
# PCOD9014243 Si02
#       7
#     2   2   2   2   2   2   2
#     4  11  23  44  68  89 128 172 217 254 322 370
#     4  11  23  37  64  95 124 169 202 255 328 378
#     4  10  21  41  67  89 126 170 209 260 319 377
#     4  10  23  38  61  95 131 157 206 261 318 382
#     4  10  25  44  64  94 124 171 220 267 297 373
#     4  11  21  40  64  95 129 160 206 256 323 390
#     4  11  23  40  63  93 132 161 210 264 310 374
#
# _framework density 21.305091000000001
#
# number of rings (size 3 to 8) (size 9 to 14) (size 15 to 20)
#    0.000    1.429    1.429    3.857    2.000    2.857 
#    0.000    0.714    0.000    0.000    0.000    0.000 
#    0.000    0.000    0.000    0.000    0.000    0.000 
#
# Total GULP energy -78085.219186 kJ/mol
# GULP energy per Si atom -5577.515656 kJ/mol
# Density = 2.125660 g / cm^3
# Si number density = 21.305091 Si / 1000 Ang^3
#
#
#
# Elastic Constant Matrix: (Units=GPa)
#
#
# Indices 1 2 3 4 5 6 
#
# 1 63.1003 40.8302 43.3920 -2.5163 -14.7169 -19.6159
# 2 40.8302 93.8994 56.0231 -4.9032 -5.9934 -22.9383
# 3 43.3920 56.0231 170.7115 -18.7049 -8.5765 -4.8380
# 4 -2.5163 -4.9032 -18.7049 29.6513 -6.0603 -8.7229
# 5 -14.7169 -5.9934 -8.5765 -6.0603 36.2296 9.3765
# 6 -19.6159 -22.9383 -4.8380 -8.7229 9.3765 41.8102
#
#
#
# Elastic Compliance Matrix: (Units=1/GPa)
#
#
# Indices 1 2 3 4 5 6 
#
# 1 0.027139 -0.007259 -0.003671 0.002425 0.007510 0.007147
# 2 -0.007259 0.017549 -0.003691 0.001417 -0.002398 0.006628
# 3 -0.003671 -0.003691 0.008433 0.003983 0.001129 -0.002193
# 4 0.002425 0.001417 0.003983 0.040787 0.006548 0.009417
# 5 0.007510 -0.002398 0.001129 0.006548 0.032549 -0.003595
# 6 0.007147 0.006628 -0.002193 0.009417 -0.003595 0.033424
#
#
# Mechanical properties :
#
#
# Convention : Reuss Voigt Hill
#
# Bulk Modulus (GPa) = 41.87715 67.57799 54.72757
# Shear Modulus (GPa) = 25.37011 34.03594 29.70302
#
# Velocity S-wave (km/s) = 3.45454 4.00127 3.73792
# Velocity P-wave (km/s) = 5.96745 7.28937 6.66128
#
# Compressibility (1/GPa) = 0.02387937
#
# Stress axis : x y z
#
# Youngs Moduli (GPa) = 36.84713 56.98477 118.57900
#
# Poissons Ratio (x) = 0.41365 0.43525
# Poissons Ratio (y) = 0.26747 0.43770
# Poissons Ratio (z) = 0.13525 0.21034
#
# Static dielectric constant tensor:
#      x y z
#    x 1.573770 0.099180 -0.352650 
#    y 0.099180 1.753240 0.185190 
#    z -0.352650 0.185190 1.558060 
# 
# From -- ./inp_files/276482.got.cif
#   From: 2010.05.17/outbox.cif.g08.bks.cpg/sg2_139_cif.got.tgz:276482.got - 2010.06.03 11:33:40.
