data_PCOD9014835
_publ_section_title
;
Structure prediction by ZEFSAII (Michael W. Deem and Ramdas Pophale) SiO2 
 PCOD9014835
Probable space group: P -1
;
_chemical_formula_sum "Si O2"
_cell_formula_units_Z 16
_cell_length_a 5.215351
_cell_length_b 16.255036
_cell_length_c 17.668116
_cell_angle_alpha 25.782626
_cell_angle_beta 98.753373
_cell_angle_gamma 89.120482
_cell_volume 602.094547
_symmetry_space_group_name_H-M "P -1"
_symmetry_group_IT_number 2
_symmetry_cell_setting 'triclinic'
loop_
_space_group_symop_operation_xyz
x,y,z
-x,-y,-z
loop_
_atom_site_type_symbol
_atom_site_label
_atom_site_fract_x
_atom_site_fract_y
_atom_site_fract_z
Si Si1 0.288841 0.826086 0.815593
Si Si2 0.157709 0.137766 0.430747
Si Si3 0.790267 0.834473 0.225671
Si Si4 0.506733 0.757871 0.410210
Si Si5 0.951968 0.110643 0.096701
Si Si6 0.264800 0.461943 0.641230
Si Si7 0.986606 0.459034 0.279582
Si Si8 0.773894 0.706652 0.845028
O O1 0.288338 0.865369 0.871558
O O2 0.559815 0.657493 0.932849
O O3 0.985542 0.811515 0.801733
O O4 0.333316 0.994364 0.623495
O O5 0.970168 0.332936 0.309021
O O6 0.323505 0.200133 0.320269
O O7 0.000000 0.000000 0.500000
O O8 0.535567 0.863214 0.246145
O O9 0.739151 0.749197 0.214235
O O10 0.018459 0.643230 0.438059
O O11 0.872884 0.029713 0.080921
O O12 0.514911 0.533870 0.570854
O O13 0.747422 0.690814 0.538345
O O14 0.220986 0.920836 0.293886
O O15 0.984042 0.326878 0.915344
O O16 0.244741 0.488704 0.708542
O O17 0.000000 0.500000 0.000000
#
# Coordination Sequence:
#
# PCOD9014835 Si02
#       8
#     2   2   2   2   2   2   2   2
#     4  11  24  44  68  98 139 179 233 287 358 424
#     4  10  23  46  70  97 134 179 231 292 357 424
#     4   9  19  38  66  97 140 179 226 281 342 416
#     4  10  21  41  69  95 135 182 230 280 347 413
#     4  11  25  42  65 103 137 185 228 287 345 420
#     4   9  19  39  65 101 135 180 229 279 343 413
#     4  11  24  44  67  98 137 177 233 286 351 425
#     4  11  24  44  69 101 135 178 230 295 360 427
#
# _framework density 26.573902
#
# number of rings (size 3 to 8) (size 9 to 14) (size 15 to 20)
#    0.000    1.750    0.000    4.125    3.500    2.500 
#    9.000    1.250    0.000    0.000    0.000    0.000 
#    0.000    0.000    0.000    0.000    0.000    0.000 
#
# Total GULP energy -89250.229276 kJ/mol
# GULP energy per Si atom -5578.139330 kJ/mol
# Density = 2.651342 g / cm^3
# Si number density = 26.573902 Si / 1000 Ang^3
#
#
#
# Elastic Constant Matrix: (Units=GPa)
#
#
# Indices 1 2 3 4 5 6 
#
# 1 67.0324 24.2043 -9.2678 0.0545 -4.8998 -2.0261
# 2 24.2043 135.8952 29.2808 -42.3038 -10.8791 15.4847
# 3 -9.2678 29.2808 95.7822 -2.2442 -6.5854 6.2400
# 4 0.0545 -42.3038 -2.2442 44.5214 13.3557 -7.9301
# 5 -4.8998 -10.8791 -6.5854 13.3557 35.8939 -2.5128
# 6 -2.0261 15.4847 6.2400 -7.9301 -2.5128 27.8789
#
#
#
# Elastic Compliance Matrix: (Units=1/GPa)
#
#
# Indices 1 2 3 4 5 6 
#
# 1 0.017823 -0.005761 0.003448 -0.006021 0.003724 0.002346
# 2 -0.005761 0.013476 -0.004318 0.012703 -0.002469 -0.003546
# 3 0.003448 -0.004318 0.012269 -0.004605 0.003047 -0.001132
# 4 -0.006021 0.012703 -0.004605 0.038484 -0.011897 0.003412
# 5 0.003724 -0.002469 0.003047 -0.011897 0.032642 0.000518
# 6 0.002346 -0.003546 -0.001132 0.003412 0.000518 0.039280
#
#
# Mechanical properties :
#
#
# Convention : Reuss Voigt Hill
#
# Bulk Modulus (GPa) = 32.99701 43.01605 38.00653
# Shear Modulus (GPa) = 28.19462 38.62499 33.40980
#
# Velocity S-wave (km/s) = 3.26082 3.81661 3.54961
# Velocity P-wave (km/s) = 5.15958 5.97030 5.57968
#
# Compressibility (1/GPa) = 0.03030577
#
# Stress axis : x y z
#
# Youngs Moduli (GPa) = 56.10699 74.20587 81.50357
#
# Poissons Ratio (x) = 0.42750 -0.28101
# Poissons Ratio (y) = 0.32323 0.35195
# Poissons Ratio (z) = -0.19345 0.32043
#
# Static dielectric constant tensor:
#      x y z
#    x 7.025500 -0.770400 2.961120 
#    y -0.770400 2.342050 -0.546800 
#    z 2.961120 -0.546800 4.010600 
# 
# From -- ./inp_files/550021.got.cif
#   From: 2010.05.17/outbox.cif.g08.bks.cpg/sg2_276_cif.got.tgz:550021.got - 2010.06.03 11:33:40.
