data_PCOD9014535
_publ_section_title
;
Structure prediction by ZEFSAII (Michael W. Deem and Ramdas Pophale) SiO2 
 PCOD9014535
Probable space group: P -1
;
_chemical_formula_sum "Si O2"
_cell_formula_units_Z 12
_cell_length_a 9.267796
_cell_length_b 8.309913
_cell_length_c 20.246962
_cell_angle_alpha 139.802395
_cell_angle_beta 37.586318
_cell_angle_gamma 112.723630
_cell_volume 510.127542
_symmetry_space_group_name_H-M "P -1"
_symmetry_group_IT_number 2
_symmetry_cell_setting 'triclinic'
loop_
_space_group_symop_operation_xyz
x,y,z
-x,-y,-z
loop_
_atom_site_type_symbol
_atom_site_label
_atom_site_fract_x
_atom_site_fract_y
_atom_site_fract_z
Si Si1 0.817553 0.297744 0.613970
Si Si2 0.262249 0.400014 0.131716
Si Si3 0.720987 0.356087 0.315555
Si Si4 0.581116 0.683258 0.344773
Si Si5 0.869018 0.706380 0.048728
Si Si6 0.320799 0.922622 0.233707
O O1 0.681954 0.566365 0.800610
O O2 0.581200 0.296351 0.656286
O O3 0.000000 0.000000 0.500000
O O4 0.053990 0.241217 0.456001
O O5 0.221937 0.690279 0.199542
O O6 0.971473 0.413333 0.244919
O O7 0.517747 0.125352 0.909723
O O8 0.500000 0.500000 0.500000
O O9 0.541244 0.505347 0.360873
O O10 0.862750 0.004324 0.154086
O O11 0.500000 0.000000 0.500000
O O12 0.914042 0.485841 0.147655
O O13 0.560889 0.806215 0.166879
O O14 0.000000 0.500000 0.000000
#
# Coordination Sequence:
#
# PCOD9014535 Si02
#       6
#     2   2   2   2   2   2
#     4  10  21  41  68 106 149 190 241 300 370 449
#     4  10  21  42  71 104 144 192 239 304 376 437
#     4  12  26  49  75 110 153 196 255 314 369 454
#     4  12  25  45  75 109 151 197 249 306 379 447
#     4  12  25  46  77 109 145 199 256 311 377 446
#     4  10  21  41  75 102 151 192 242 306 379 440
#
# _framework density 23.523530000000001
#
# number of rings (size 3 to 8) (size 9 to 14) (size 15 to 20)
#    0.000    1.000    1.667    6.500    2.333    0.000 
#    3.000    6.667    0.000    0.000    0.000    0.000 
#    0.000    0.000    0.000    0.000    0.000    0.000 
#
# Total GULP energy -67097.212199 kJ/mol
# GULP energy per Si atom -5591.434350 kJ/mol
# Density = 2.346999 g / cm^3
# Si number density = 23.523530 Si / 1000 Ang^3
#
#
#
# Elastic Constant Matrix: (Units=GPa)
#
#
# Indices 1 2 3 4 5 6 
#
# 1 157.5523 50.1922 23.9357 -12.7969 7.4981 7.7022
# 2 50.1922 110.9676 37.8857 -13.1769 1.9830 0.7403
# 3 23.9357 37.8857 125.5818 -43.6204 27.5528 2.6209
# 4 -12.7969 -13.1769 -43.6204 50.2331 -6.6834 -5.4600
# 5 7.4981 1.9830 27.5528 -6.6834 44.8402 -15.7479
# 6 7.7022 0.7403 2.6209 -5.4600 -15.7479 41.8322
#
#
#
# Elastic Compliance Matrix: (Units=1/GPa)
#
#
# Indices 1 2 3 4 5 6 
#
# 1 0.007643 -0.003421 0.000336 0.000876 -0.001893 -0.001966
# 2 -0.003421 0.011705 -0.003693 -0.000449 0.002842 0.001665
# 3 0.000336 -0.003693 0.014423 0.010272 -0.008147 -0.002626
# 4 0.000876 -0.000449 0.010272 0.029046 -0.001219 0.002535
# 5 -0.001893 0.002842 -0.008147 -0.001219 0.031741 0.012599
# 6 -0.001966 0.001665 -0.002626 0.002535 0.012599 0.029476
#
#
# Mechanical properties :
#
#
# Convention : Reuss Voigt Hill
#
# Bulk Modulus (GPa) = 49.46956 68.68099 59.07527
# Shear Modulus (GPa) = 34.64311 46.18698 40.41504
#
# Velocity S-wave (km/s) = 3.84174 4.43588 4.14946
# Velocity P-wave (km/s) = 6.38389 7.44957 6.93723
#
# Compressibility (1/GPa) = 0.02021445
#
# Stress axis : x y z
#
# Youngs Moduli (GPa) = 130.83487 85.43616 69.33229
#
# Poissons Ratio (x) = 0.29226 -0.02328
# Poissons Ratio (y) = 0.44757 0.25607
# Poissons Ratio (z) = -0.04394 0.31554
#
# Static dielectric constant tensor:
#      x y z
#    x 1.908990 -0.017290 0.039920 
#    y -0.017290 1.935060 -0.019230 
#    z 0.039920 -0.019230 1.955690 
# 
# From -- ./inp_files/587570.got.cif
#   From: 2010.05.17/outbox.cif.g08.bks.cpg/sg2_294_cif.got.tgz:587570.got - 2010.06.03 11:33:40.
