data_PCOD9014419
_publ_section_title
;
Structure prediction by ZEFSAII (Michael W. Deem and Ramdas Pophale) SiO2 
 PCOD9014419
Probable space group: P -1
;
_chemical_formula_sum "Si O2"
_cell_formula_units_Z 16
_cell_length_a 18.107477
_cell_length_b 9.302159
_cell_length_c 11.429958
_cell_angle_alpha 79.419456
_cell_angle_beta 52.076773
_cell_angle_gamma 36.273265
_cell_volume 668.433998
_symmetry_space_group_name_H-M "P -1"
_symmetry_group_IT_number 2
_symmetry_cell_setting 'triclinic'
loop_
_space_group_symop_operation_xyz
x,y,z
-x,-y,-z
loop_
_atom_site_type_symbol
_atom_site_label
_atom_site_fract_x
_atom_site_fract_y
_atom_site_fract_z
Si Si1 0.069113 0.174293 0.721666
Si Si2 0.393172 0.514134 0.423780
Si Si3 0.383545 0.961227 0.522666
Si Si4 0.604023 0.113303 0.987394
Si Si5 0.668413 0.304730 0.000495
Si Si6 0.143269 0.437470 0.346052
Si Si7 0.334288 0.326621 0.398959
Si Si8 0.805404 0.321741 0.064221
O O1 0.265984 0.791611 0.596012
O O2 0.165487 0.195354 0.656684
O O3 0.992669 0.271066 0.648729
O O4 0.874137 0.389413 0.952237
O O5 0.563503 0.183669 0.381626
O O6 0.490592 0.481400 0.233388
O O7 0.240435 0.603344 0.506604
O O8 0.578924 0.641707 0.297161
O O9 0.370473 0.153125 0.487406
O O10 0.425165 0.456118 0.042463
O O11 0.677903 0.887814 0.858047
O O12 0.755510 0.035662 0.893077
O O13 0.530486 0.127809 0.170766
O O14 0.796327 0.226467 0.976390
O O15 0.217507 0.412321 0.393183
O O16 0.000000 0.500000 0.500000
O O17 0.000000 0.000000 0.000000
#
# Coordination Sequence:
#
# PCOD9014419 Si02
#       8
#     2   2   2   2   2   2   2   2
#     4  12  24  41  69  98 131 176 219 271 325 391
#     4  11  23  42  67  96 130 178 218 268 330 382
#     4  12  23  46  67  94 141 172 219 273 319 398
#     4  10  22  42  67  96 130 173 219 273 331 394
#     4  10  21  41  67  97 134 170 219 278 327 382
#     4  12  23  40  62  96 130 166 216 270 330 387
#     4  11  24  42  68  95 131 176 215 271 336 387
#     4  12  23  39  67  98 126 174 219 263 326 384
#
# _framework density 23.936547000000001
#
# number of rings (size 3 to 8) (size 9 to 14) (size 15 to 20)
#    0.000    0.750    3.750    4.875    0.000    1.500 
#    0.000    0.000    0.000    5.250    0.000    0.000 
#    0.000    0.000    0.000    0.000    0.000    0.000 
#
# Total GULP energy -89353.786958 kJ/mol
# GULP energy per Si atom -5584.611685 kJ/mol
# Density = 2.388207 g / cm^3
# Si number density = 23.936547 Si / 1000 Ang^3
#
#
#
# Elastic Constant Matrix: (Units=GPa)
#
#
# Indices 1 2 3 4 5 6 
#
# 1 126.5661 23.4983 24.3807 -0.7220 -20.2550 7.0584
# 2 23.4983 111.6336 16.9196 -27.5258 -12.3884 3.1055
# 3 24.3807 16.9196 73.0182 -21.2063 -5.4617 9.4346
# 4 -0.7220 -27.5258 -21.2063 32.1352 1.7010 3.4115
# 5 -20.2550 -12.3884 -5.4617 1.7010 18.9205 -11.0524
# 6 7.0584 3.1055 9.4346 3.4115 -11.0524 39.4217
#
#
#
# Elastic Compliance Matrix: (Units=1/GPa)
#
#
# Indices 1 2 3 4 5 6 
#
# 1 0.010579 -0.001612 -0.004040 -0.004687 0.011114 0.002721
# 2 -0.001612 0.012521 0.001418 0.011377 0.005594 -0.000453
# 3 -0.004040 0.001418 0.019624 0.014862 -0.002637 -0.006110
# 4 -0.004687 0.011377 0.014862 0.051686 -0.003167 -0.008975
# 5 0.011114 0.005594 -0.002637 -0.003167 0.080176 0.020953
# 6 0.002721 -0.000453 -0.006110 -0.008975 0.020953 0.033029
#
#
# Mechanical properties :
#
#
# Convention : Reuss Voigt Hill
#
# Bulk Modulus (GPa) = 29.19264 48.97946 39.08605
# Shear Modulus (GPa) = 21.97780 34.52342 28.25061
#
# Velocity S-wave (km/s) = 3.03342 3.80187 3.43917
# Velocity P-wave (km/s) = 4.94885 6.30705 5.66878
#
# Compressibility (1/GPa) = 0.03425521
#
# Stress axis : x y z
#
# Youngs Moduli (GPa) = 94.52935 79.86653 50.95728
#
# Poissons Ratio (x) = 0.12878 0.20587
# Poissons Ratio (y) = 0.15242 -0.07226
# Poissons Ratio (z) = 0.38190 -0.11326
#
# Static dielectric constant tensor:
#      x y z
#    x 1.884560 -0.057800 0.006810 
#    y -0.057800 1.872120 -0.002750 
#    z 0.006810 -0.002750 2.022610 
# 
# From -- ./inp_files/211930.got.cif
#   From: 2010.05.17/outbox.cif.g08.bks.cpg/sg2_106_cif.got.tgz:211930.got - 2010.06.03 11:33:40.
