data_PCOD9014067
_publ_section_title
;
Structure prediction by ZEFSAII (Michael W. Deem and Ramdas Pophale) SiO2 
 PCOD9014067
Probable space group: P -1
;
_chemical_formula_sum "Si O2"
_cell_formula_units_Z 16
_cell_length_a 11.452522
_cell_length_b 13.858429
_cell_length_c 9.009097
_cell_angle_alpha 146.434444
_cell_angle_beta 114.772727
_cell_angle_gamma 75.576167
_cell_volume 703.409608
_symmetry_space_group_name_H-M "P -1"
_symmetry_group_IT_number 2
_symmetry_cell_setting 'triclinic'
loop_
_space_group_symop_operation_xyz
x,y,z
-x,-y,-z
loop_
_atom_site_type_symbol
_atom_site_label
_atom_site_fract_x
_atom_site_fract_y
_atom_site_fract_z
Si Si1 0.220366 0.904406 0.605734
Si Si2 0.873902 0.395762 0.389846
Si Si3 0.754098 0.316018 0.916095
Si Si4 0.494097 0.119141 0.007433
Si Si5 0.303811 0.571296 0.406281
Si Si6 0.461324 0.124079 0.513050
Si Si7 0.754402 0.676047 0.220014
Si Si8 0.022607 0.891447 0.726716
O O1 0.167672 0.802832 0.295150
O O2 0.261853 0.737592 0.504998
O O3 0.126801 0.975166 0.763527
O O4 0.339829 0.060536 0.815355
O O5 0.786002 0.489668 0.574969
O O6 0.000000 0.500000 0.500000
O O7 0.925611 0.268943 0.371568
O O8 0.782155 0.302026 0.086685
O O9 0.599815 0.251674 0.710820
O O10 0.785542 0.519549 0.142190
O O11 0.554229 0.324663 0.326380
O O12 0.500000 0.000000 0.000000
O O13 0.582842 0.023139 0.824568
O O14 0.291873 0.416960 0.080348
O O15 0.357508 0.235936 0.653580
O O16 0.500000 0.000000 0.500000
O O17 0.888040 0.820977 0.476674
O O18 0.000000 0.000000 0.000000
#
# Coordination Sequence:
#
# PCOD9014067 Si02
#       8
#     2   2   2   2   2   2   2   2
#     4   8  19  37  64  90 128 169 211 258 321 378
#     4  11  22  40  65  94 132 167 212 259 322 379
#     4  10  21  41  66  96 124 171 214 266 315 377
#     4   9  18  38  65  92 121 170 212 257 324 375
#     4   9  20  37  64  94 125 171 208 266 313 382
#     4  11  24  41  66  94 130 170 207 270 322 375
#     4  11  24  42  64  97 129 166 219 259 321 383
#     4  11  25  41  64  95 129 175 213 262 314 391
#
# _framework density 22.746348000000001
#
# number of rings (size 3 to 8) (size 9 to 14) (size 15 to 20)
#    0.000    2.000    1.250    1.875    8.750    1.500 
#    0.000    6.875    0.000    0.000    0.000    0.000 
#    0.000    0.000    0.000    0.000    0.000    0.000 
#
# Total GULP energy -89200.858140 kJ/mol
# GULP energy per Si atom -5575.053634 kJ/mol
# Density = 2.269458 g / cm^3
# Si number density = 22.746348 Si / 1000 Ang^3
#
#
#
# Elastic Constant Matrix: (Units=GPa)
#
#
# Indices 1 2 3 4 5 6 
#
# 1 135.7488 23.1716 83.4962 -5.7940 -18.4253 26.2782
# 2 23.1716 45.7347 27.9000 -11.4797 -12.3068 15.6872
# 3 83.4962 27.9000 157.7844 -23.3249 -20.3950 8.0218
# 4 -5.7940 -11.4797 -23.3249 32.1583 12.7368 -4.4311
# 5 -18.4253 -12.3068 -20.3950 12.7368 36.2926 -9.4698
# 6 26.2782 15.6872 8.0218 -4.4311 -9.4698 28.9442
#
#
#
# Elastic Compliance Matrix: (Units=1/GPa)
#
#
# Indices 1 2 3 4 5 6 
#
# 1 0.014069 0.000502 -0.007453 -0.005008 0.001987 -0.011097
# 2 0.000502 0.031027 -0.003862 0.005180 0.003026 -0.014419
# 3 -0.007453 -0.003862 0.011679 0.006279 0.001076 0.006936
# 4 -0.005008 0.005180 0.006279 0.041352 -0.011063 0.002710
# 5 0.001987 0.003026 0.001076 -0.011063 0.035705 0.006247
# 6 -0.011097 -0.014419 0.006936 0.002710 0.006247 0.052975
#
#
# Mechanical properties :
#
#
# Convention : Reuss Voigt Hill
#
# Bulk Modulus (GPa) = 28.45008 67.60038 48.02523
# Shear Modulus (GPa) = 22.71174 33.12569 27.91871
#
# Velocity S-wave (km/s) = 3.16330 3.82030 3.50722
# Velocity P-wave (km/s) = 5.08691 7.01736 6.12862
#
# Compressibility (1/GPa) = 0.03514929
#
# Stress axis : x y z
#
# Youngs Moduli (GPa) = 71.07790 32.23012 85.62024
#
# Poissons Ratio (x) = -0.01619 0.63815
# Poissons Ratio (y) = -0.03571 0.33069
# Poissons Ratio (z) = 0.52976 0.12448
#
# Static dielectric constant tensor:
#      x y z
#    x 1.997570 -0.039390 0.047140 
#    y -0.039390 1.822620 -0.013960 
#    z 0.047140 -0.013960 1.932140 
# 
# From -- ./inp_files/274924.got.cif
#   From: 2010.05.17/outbox.cif.g08.bks.cpg/sg2_138_cif.got.tgz:274924.got - 2010.06.03 11:33:40.
