data_PCOD9014488
_publ_section_title
;
Structure prediction by ZEFSAII (Michael W. Deem and Ramdas Pophale) SiO2 
 PCOD9014488
Probable space group: P -1
;
_chemical_formula_sum "Si O2"
_cell_formula_units_Z 16
_cell_length_a 9.648514
_cell_length_b 9.094471
_cell_length_c 11.098194
_cell_angle_alpha 89.241801
_cell_angle_beta 99.463479
_cell_angle_gamma 47.369599
_cell_volume 696.251665
_symmetry_space_group_name_H-M "P -1"
_symmetry_group_IT_number 2
_symmetry_cell_setting 'triclinic'
loop_
_space_group_symop_operation_xyz
x,y,z
-x,-y,-z
loop_
_atom_site_type_symbol
_atom_site_label
_atom_site_fract_x
_atom_site_fract_y
_atom_site_fract_z
Si Si1 0.487369 0.306594 0.248649
Si Si2 0.594757 0.591328 0.022497
Si Si3 0.922167 0.982319 0.367788
Si Si4 0.536135 0.621521 0.282868
Si Si5 0.050973 0.623478 0.246307
Si Si6 0.010092 0.172008 0.013631
Si Si7 0.163147 0.044430 0.283358
Si Si8 0.052895 0.559342 0.620624
O O1 0.484227 0.266686 0.106789
O O2 0.490298 0.482331 0.262625
O O3 0.276593 0.414904 0.266907
O O4 0.693425 0.113090 0.335283
O O5 0.817972 0.389910 0.035673
O O6 0.500000 0.500000 0.000000
O O7 0.546246 0.678692 0.147775
O O8 0.031652 0.755999 0.348649
O O9 0.000000 0.000000 0.500000
O O10 0.985252 0.056943 0.275016
O O11 0.747380 0.498017 0.367530
O O12 0.365690 0.817086 0.333244
O O13 0.972622 0.763398 0.114550
O O14 0.930296 0.567752 0.265173
O O15 0.160212 0.094557 0.142948
O O16 0.000000 0.000000 0.000000
O O17 0.115025 0.207440 0.367049
O O18 0.000000 0.500000 0.500000
#
# Coordination Sequence:
#
# PCOD9014488 Si02
#       8
#     2   2   2   2   2   2   2   2
#     4  10  21  41  68 101 134 169 224 289 330 397
#     4   9  17  33  62 100 131 163 215 275 337 390
#     4  12  24  40  68 102 132 178 234 275 328 404
#     4  11  22  41  71  99 129 183 227 270 343 408
#     4  11  26  42  68 106 133 175 229 283 341 392
#     4  11  19  38  69 102 137 165 224 288 336 401
#     4  12  23  43  72  97 130 188 222 274 348 397
#     4  12  28  49  65  94 147 185 224 279 335 406
#
# _framework density 22.980194000000001
#
# number of rings (size 3 to 8) (size 9 to 14) (size 15 to 20)
#    0.000    1.000    5.000    3.000    1.750    3.500 
#    0.000    0.625    0.000    0.000    0.000    0.000 
#    0.000    0.000    0.000    0.000    0.000    0.000 
#
# Total GULP energy -89395.795485 kJ/mol
# GULP energy per Si atom -5587.237218 kJ/mol
# Density = 2.292789 g / cm^3
# Si number density = 22.980194 Si / 1000 Ang^3
#
#
#
# Elastic Constant Matrix: (Units=GPa)
#
#
# Indices 1 2 3 4 5 6 
#
# 1 59.4991 8.5614 2.4340 -2.9236 -2.7499 -3.6574
# 2 8.5614 83.3026 29.8795 18.3958 -1.9240 -15.2766
# 3 2.4340 29.8795 74.2865 7.6107 7.2749 -10.3486
# 4 -2.9236 18.3958 7.6107 37.2939 6.6745 3.8206
# 5 -2.7499 -1.9240 7.2749 6.6745 24.0223 -8.9322
# 6 -3.6574 -15.2766 -10.3486 3.8206 -8.9322 32.3750
#
#
#
# Elastic Compliance Matrix: (Units=1/GPa)
#
#
# Indices 1 2 3 4 5 6 
#
# 1 0.017337 -0.001902 0.000020 0.001829 0.001822 0.001354
# 2 -0.001902 0.019119 -0.005932 -0.011371 0.010405 0.011123
# 3 0.000020 -0.005932 0.016452 0.000401 -0.005202 0.000979
# 4 0.001829 -0.011371 0.000401 0.036801 -0.016195 -0.013842
# 5 0.001822 0.010405 -0.005202 -0.016195 0.056540 0.020963
# 6 0.001354 0.011123 0.000979 -0.013842 0.020963 0.044020
#
#
# Mechanical properties :
#
#
# Convention : Reuss Voigt Hill
#
# Bulk Modulus (GPa) = 26.82516 33.20424 30.01470
# Shear Modulus (GPa) = 22.90184 30.48580 26.69382
#
# Velocity S-wave (km/s) = 3.16031 3.64622 3.41192
# Velocity P-wave (km/s) = 5.00152 5.67512 5.34894
#
# Compressibility (1/GPa) = 0.03727844
#
# Stress axis : x y z
#
# Youngs Moduli (GPa) = 57.67951 52.30407 60.78457
#
# Poissons Ratio (x) = 0.09951 -0.00122
# Poissons Ratio (y) = 0.10973 0.36059
# Poissons Ratio (z) = -0.00116 0.31028
#
# Static dielectric constant tensor:
#      x y z
#    x 1.851870 0.009370 -0.064370 
#    y 0.009370 1.850320 -0.041320 
#    z -0.064370 -0.041320 1.940910 
# 
# From -- ./inp_files/354501.got.cif
#   From: 2010.05.17/outbox.cif.g08.bks.cpg/sg2_178_cif.got.tgz:354501.got - 2010.06.03 11:33:40.
