data_PCOD9014316
_publ_section_title
;
Structure prediction by ZEFSAII (Michael W. Deem and Ramdas Pophale) SiO2 
 PCOD9014316
Probable space group: P -1
;
_chemical_formula_sum "Si O2"
_cell_formula_units_Z 15
_cell_length_a 6.013733
_cell_length_b 20.181638
_cell_length_c 8.572214
_cell_angle_alpha 51.638284
_cell_angle_beta 116.318522
_cell_angle_gamma 125.127858
_cell_volume 661.134699
_symmetry_space_group_name_H-M "P -1"
_symmetry_group_IT_number 2
_symmetry_cell_setting 'triclinic'
loop_
_space_group_symop_operation_xyz
x,y,z
-x,-y,-z
loop_
_atom_site_type_symbol
_atom_site_label
_atom_site_fract_x
_atom_site_fract_y
_atom_site_fract_z
Si Si1 0.374890 0.171199 0.177399
Si Si2 0.000000 0.500000 0.500000
Si Si3 0.233750 0.302489 0.162646
Si Si4 0.657151 0.147033 0.792736
Si Si5 0.839501 0.430795 0.191195
Si Si6 0.909899 0.241912 0.428960
Si Si7 0.712487 0.301777 0.831099
Si Si8 0.907521 0.006886 0.138661
O O1 0.248492 0.219189 0.189154
O O2 0.661715 0.183466 0.320417
O O3 0.455148 0.239609 0.950777
O O4 0.184223 0.064080 0.236450
O O5 0.920794 0.469534 0.333877
O O6 0.750013 0.399676 0.629318
O O7 0.516809 0.393863 0.108680
O O8 0.182013 0.270732 0.372232
O O9 0.985632 0.322325 0.989242
O O10 0.847053 0.180947 0.651211
O O11 0.711192 0.234286 0.790528
O O12 0.757136 0.075831 0.008515
O O13 0.331379 0.091766 0.739369
O O14 0.889682 0.337536 0.326788
O O15 0.000000 0.500000 0.000000
O O16 0.000000 0.000000 0.000000
#
# Coordination Sequence:
#
# PCOD9014316 Si02
#       8
#     2   1   2   2   2   2   2   2
#     4  10  21  41  67  94 126 177 215 270 336 390
#     4  12  24  40  70  98 132 176 218 280 328 398
#     4  10  22  43  66  89 135 176 208 276 337 386
#     4  11  23  41  64 100 130 168 224 271 326 401
#     4  11  24  45  65 100 134 176 228 277 330 400
#     4  10  23  41  64  93 137 168 215 278 324 399
#     4  11  22  42  66  95 134 171 225 270 327 401
#     4  11  23  40  69  95 130 172 218 277 338 392
#
# _framework density 22.688267
#
# number of rings (size 3 to 8) (size 9 to 14) (size 15 to 20)
#    0.000    1.333    4.000    2.400    0.000    5.867 
#    2.400    4.667    0.000    0.000    0.000    0.000 
#    0.000    0.000    0.000    0.000    0.000    0.000 
#
# Total GULP energy -83576.970166 kJ/mol
# GULP energy per Si atom -5571.798011 kJ/mol
# Density = 2.263663 g / cm^3
# Si number density = 22.688267 Si / 1000 Ang^3
#
#
#
# Elastic Constant Matrix: (Units=GPa)
#
#
# Indices 1 2 3 4 5 6 
#
# 1 48.3233 19.4219 9.3781 1.0244 -25.0906 11.8106
# 2 19.4219 157.7104 28.0815 13.9029 -10.2326 11.7243
# 3 9.3781 28.0815 88.2888 1.6313 -31.7444 9.9798
# 4 1.0244 13.9029 1.6313 31.9331 -7.3806 -8.6083
# 5 -25.0906 -10.2326 -31.7444 -7.3806 38.8537 -2.8331
# 6 11.8106 11.7243 9.9798 -8.6083 -2.8331 26.2163
#
#
#
# Elastic Compliance Matrix: (Units=1/GPa)
#
#
# Indices 1 2 3 4 5 6 
#
# 1 0.042062 -0.003966 0.011026 0.003342 0.034555 -0.016541
# 2 -0.003966 0.007720 -0.003179 -0.004703 -0.004198 -0.002453
# 3 0.011026 -0.003179 0.020184 0.003194 0.022817 -0.007714
# 4 0.003342 -0.004703 0.003194 0.039562 0.012041 0.013674
# 5 0.034555 -0.004198 0.022817 0.012041 0.067061 -0.011175
# 6 -0.016541 -0.002453 -0.007714 0.013674 -0.011175 0.052912
#
#
# Mechanical properties :
#
#
# Convention : Reuss Voigt Hill
#
# Bulk Modulus (GPa) = 12.86568 45.34283 29.10426
# Shear Modulus (GPa) = 20.18997 35.23002 27.70999
#
# Velocity S-wave (km/s) = 2.98633 3.94482 3.49855
# Velocity P-wave (km/s) = 4.19212 6.38571 5.40144
#
# Compressibility (1/GPa) = 0.07772614
#
# Stress axis : x y z
#
# Youngs Moduli (GPa) = 23.77460 129.53607 49.54534
#
# Poissons Ratio (x) = 0.51375 -0.54628
# Poissons Ratio (y) = 0.09429 0.15752
# Poissons Ratio (z) = -0.26213 0.41183
#
# Static dielectric constant tensor:
#      x y z
#    x 1.878380 0.051200 0.007350 
#    y 0.051200 1.830500 -0.004060 
#    z 0.007350 -0.004060 1.894460 
# 
# From -- ./inp_files/36056.got.cif
#   From: 2010.05.17/outbox.cif.g08.bks.cpg/sg2_19_cif.got.tgz:36056.got - 2010.06.03 11:33:40.
