data_PCOD9014734
_publ_section_title
;
Structure prediction by ZEFSAII (Michael W. Deem and Ramdas Pophale) SiO2 
 PCOD9014734
Probable space group: P -1
;
_chemical_formula_sum "Si O2"
_cell_formula_units_Z 16
_cell_length_a 11.737848
_cell_length_b 8.622781
_cell_length_c 9.092534
_cell_angle_alpha 62.056857
_cell_angle_beta 95.507814
_cell_angle_gamma 114.640220
_cell_volume 733.279032
_symmetry_space_group_name_H-M "P -1"
_symmetry_group_IT_number 2
_symmetry_cell_setting 'triclinic'
loop_
_space_group_symop_operation_xyz
x,y,z
-x,-y,-z
loop_
_atom_site_type_symbol
_atom_site_label
_atom_site_fract_x
_atom_site_fract_y
_atom_site_fract_z
Si Si1 0.259206 0.803908 0.674330
Si Si2 0.996012 0.499506 0.676365
Si Si3 0.735238 0.877540 0.245657
Si Si4 0.785757 0.632073 0.576913
Si Si5 0.718835 0.882730 0.693883
Si Si6 0.550909 0.253345 0.763156
Si Si7 0.512606 0.188044 0.124196
Si Si8 0.112572 0.949018 0.090096
O O1 0.135764 0.614688 0.704079
O O2 0.371999 0.761467 0.771657
O O3 0.229027 0.928366 0.741233
O O4 0.298597 0.947838 0.475166
O O5 0.000000 0.500000 0.500000
O O6 0.908536 0.608881 0.655181
O O7 0.931442 0.280213 0.821106
O O8 0.805666 0.755404 0.375613
O O9 0.584411 0.755906 0.297235
O O10 0.772225 0.940633 0.056090
O O11 0.741501 0.744713 0.641281
O O12 0.672207 0.421691 0.633296
O O13 0.596255 0.772938 0.827750
O O14 0.838682 0.979657 0.772253
O O15 0.543469 0.043579 0.813003
O O16 0.558438 0.279155 0.929356
O O17 0.000000 0.000000 0.000000
#
# Coordination Sequence:
#
# PCOD9014734 Si02
#       8
#     2   2   2   2   2   2   2   2
#     4  10  24  41  71 101 135 181 231 280 338 401
#     4  12  26  47  71 100 133 182 234 278 338 419
#     4  10  23  45  67 101 140 181 223 282 343 403
#     4  11  26  42  72 101 138 179 230 281 337 412
#     4  11  23  45  67 103 141 180 224 287 342 398
#     4  10  21  41  69 101 136 183 228 279 340 403
#     4  10  21  42  70 101 139 178 229 284 340 399
#     4  12  26  45  71  99 140 183 225 282 349 403
#
# _framework density 21.819799
#
# number of rings (size 3 to 8) (size 9 to 14) (size 15 to 20)
#    0.000    1.250    2.500    2.250    5.250    3.000 
#    4.500    0.000    0.000    0.000    0.000    0.000 
#    0.000    0.000    0.000    0.000    0.000    0.000 
#
# Total GULP energy -89568.854416 kJ/mol
# GULP energy per Si atom -5598.053401 kJ/mol
# Density = 2.177014 g / cm^3
# Si number density = 21.819799 Si / 1000 Ang^3
#
#
#
# Elastic Constant Matrix: (Units=GPa)
#
#
# Indices 1 2 3 4 5 6 
#
# 1 81.3338 22.5278 14.9102 4.8013 15.5821 5.2431
# 2 22.5278 71.4829 23.2307 7.7533 8.1201 27.4683
# 3 14.9102 23.2307 78.5752 6.6099 9.6747 0.7789
# 4 4.8013 7.7533 6.6099 30.4962 6.8882 5.6634
# 5 15.5821 8.1201 9.6747 6.8882 38.0538 4.1840
# 6 5.2431 27.4683 0.7789 5.6634 4.1840 31.4265
#
#
#
# Elastic Compliance Matrix: (Units=1/GPa)
#
#
# Indices 1 2 3 4 5 6 
#
# 1 0.014540 -0.004645 -0.000775 -0.000254 -0.004979 0.002362
# 2 -0.004645 0.025932 -0.006591 -0.000521 0.000525 -0.021703
# 3 -0.000775 -0.006591 0.015240 -0.002106 -0.002453 0.006219
# 4 -0.000254 -0.000521 -0.002106 0.035536 -0.005113 -0.005173
# 5 -0.004979 0.000525 -0.002453 -0.005113 0.030046 -0.002646
# 6 0.002362 -0.021703 0.006219 -0.005173 -0.002646 0.051526
#
#
# Mechanical properties :
#
#
# Convention : Reuss Voigt Hill
#
# Bulk Modulus (GPa) = 31.55503 39.19214 35.37359
# Shear Modulus (GPa) = 24.10743 31.37684 27.74213
#
# Velocity S-wave (km/s) = 3.32752 3.79621 3.56957
# Velocity P-wave (km/s) = 5.40890 6.10046 5.76506
#
# Compressibility (1/GPa) = 0.03169067
#
# Stress axis : x y z
#
# Youngs Moduli (GPa) = 68.77417 38.56251 65.61722
#
# Poissons Ratio (x) = 0.17912 0.05084
# Poissons Ratio (y) = 0.31946 0.43248
# Poissons Ratio (z) = 0.05328 0.25416
#
# Static dielectric constant tensor:
#      x y z
#    x 1.793310 -0.011470 0.000960 
#    y -0.011470 1.756430 -0.009680 
#    z 0.000960 -0.009680 1.792050 
# 
# From -- ./inp_files/207988.got.cif
#   From: 2010.05.17/outbox.cif.g08.bks.cpg/sg2_104_cif.got.tgz:207988.got - 2010.06.03 11:33:40.
