data_PCOD9014123
_publ_section_title
;
Structure prediction by ZEFSAII (Michael W. Deem and Ramdas Pophale) SiO2 
 PCOD9014123
Probable space group: P -1
;
_chemical_formula_sum "Si O2"
_cell_formula_units_Z 14
_cell_length_a 9.289364
_cell_length_b 22.007255
_cell_length_c 8.087139
_cell_angle_alpha 35.984009
_cell_angle_beta 52.851914
_cell_angle_gamma 39.314482
_cell_volume 614.364416
_symmetry_space_group_name_H-M "P -1"
_symmetry_group_IT_number 2
_symmetry_cell_setting 'triclinic'
loop_
_space_group_symop_operation_xyz
x,y,z
-x,-y,-z
loop_
_atom_site_type_symbol
_atom_site_label
_atom_site_fract_x
_atom_site_fract_y
_atom_site_fract_z
Si Si1 0.841299 0.512283 0.352102
Si Si2 0.795988 0.301888 0.731561
Si Si3 0.233852 0.700916 0.632778
Si Si4 0.290636 0.444874 0.266088
Si Si5 0.323441 0.100796 0.767342
Si Si6 0.828035 0.979310 0.253546
Si Si7 0.502509 0.773250 0.829605
O O1 0.758702 0.435234 0.497417
O O2 0.782862 0.525292 0.556820
O O3 0.111457 0.434640 0.321232
O O4 0.713249 0.654084 0.049641
O O5 0.740563 0.297009 0.588375
O O6 0.064559 0.189976 0.815887
O O7 0.646135 0.276560 0.000604
O O8 0.444980 0.677080 0.637072
O O9 0.993137 0.837674 0.538319
O O10 0.253481 0.572650 0.939241
O O11 0.313636 0.030886 0.766142
O O12 0.401325 0.186345 0.465807
O O13 0.500000 0.000000 0.000000
O O14 0.663844 0.098062 0.227166
O O15 0.000000 0.000000 0.000000
#
# Coordination Sequence:
#
# PCOD9014123 Si02
#       7
#     2   2   2   2   2   2   2
#     4  11  23  42  66 100 131 174 221 269 335 392
#     4  11  24  46  66  96 138 176 219 271 334 401
#     4  10  21  41  66  98 130 174 217 271 333 391
#     4  10  22  39  65 101 133 166 222 277 322 392
#     4  11  27  45  67 103 132 172 228 279 330 390
#     4  11  21  45  72  92 133 180 220 269 331 401
#     4  12  24  45  73  93 136 184 218 269 337 400
#
# _framework density 22.787779
#
# number of rings (size 3 to 8) (size 9 to 14) (size 15 to 20)
#    0.000    1.143    4.286    2.571    0.000    7.429 
#    5.143    0.000    0.000    0.000    0.000    0.000 
#    0.000    0.000    0.000    0.000    0.000    0.000 
#
# Total GULP energy -78369.496319 kJ/mol
# GULP energy per Si atom -5597.821166 kJ/mol
# Density = 2.273591 g / cm^3
# Si number density = 22.787779 Si / 1000 Ang^3
#
#
#
# Elastic Constant Matrix: (Units=GPa)
#
#
# Indices 1 2 3 4 5 6 
#
# 1 123.4415 68.6362 68.7840 -13.2727 -6.8391 -45.7725
# 2 68.6362 72.3382 16.5976 -19.3394 9.2503 -8.4531
# 3 68.7840 16.5976 115.6507 6.6026 5.0009 -13.7729
# 4 -13.2727 -19.3394 6.6026 40.4033 -9.5664 -9.6625
# 5 -6.8391 9.2503 5.0009 -9.5664 36.9313 -6.0472
# 6 -45.7725 -8.4531 -13.7729 -9.6625 -6.0472 35.0819
#
#
#
# Elastic Compliance Matrix: (Units=1/GPa)
#
#
# Indices 1 2 3 4 5 6 
#
# 1 -0.048188 0.031303 0.020013 -0.027463 -0.036634 -0.061352
# 2 0.031303 -0.002421 -0.015410 0.028160 0.023314 0.045984
# 3 0.020013 -0.015410 0.001131 0.009051 0.014310 0.027802
# 4 -0.027463 0.028160 0.009051 0.019612 -0.011910 -0.022145
# 5 -0.036634 0.023314 0.014310 -0.011910 0.002992 -0.039327
# 6 -0.061352 0.045984 0.027802 -0.022145 -0.039327 -0.042427
#
#
# Mechanical properties :
#
#
# Convention : Reuss Voigt Hill
#
# Bulk Modulus (GPa) = 44.77299 68.82957 56.80128
# Shear Modulus (GPa) = -37.40565 32.97748 -2.21408
#
# Velocity S-wave (km/s) = -4.05591 3.80828 -0.98677
# Velocity P-wave (km/s) = 1.49781 7.04326 4.86642
#
# Compressibility (1/GPa) = 0.02233490
#
# Stress axis : x y z
#
# Youngs Moduli (GPa) = -20.75196 -413.05090 884.42558
#
# Poissons Ratio (x) = 12.92985 -17.70037
# Poissons Ratio (y) = 0.64960 13.62896
# Poissons Ratio (z) = 0.41532 -6.36510
#
# Static dielectric constant tensor:
#      x y z
#    x 1.842820 -0.016180 -0.028180 
#    y -0.016180 1.881900 0.008060 
#    z -0.028180 0.008060 1.815730 
# 
# From -- ./inp_files/225783.got.cif
#   From: 2010.05.17/outbox.cif.g08.bks.cpg/sg2_113_cif.got.tgz:225783.got - 2010.06.03 11:33:40.
