data_PCOD9014338
_publ_section_title
;
Structure prediction by ZEFSAII (Michael W. Deem and Ramdas Pophale) SiO2 
 PCOD9014338
Probable space group: P -1
;
_chemical_formula_sum "Si O2"
_cell_formula_units_Z 16
_cell_length_a 6.670209
_cell_length_b 11.453667
_cell_length_c 28.215302
_cell_angle_alpha 27.996611
_cell_angle_beta 129.613370
_cell_angle_gamma 138.084247
_cell_volume 674.673971
_symmetry_space_group_name_H-M "P -1"
_symmetry_group_IT_number 2
_symmetry_cell_setting 'triclinic'
loop_
_space_group_symop_operation_xyz
x,y,z
-x,-y,-z
loop_
_atom_site_type_symbol
_atom_site_label
_atom_site_fract_x
_atom_site_fract_y
_atom_site_fract_z
Si Si1 0.393809 0.478885 0.561223
Si Si2 0.570860 0.028832 0.239682
Si Si3 0.873636 0.576355 0.871368
Si Si4 0.643531 0.840939 0.991120
Si Si5 0.846242 0.826296 0.927214
Si Si6 0.552944 0.691220 0.183662
Si Si7 0.838041 0.977713 0.384095
Si Si8 0.492435 0.292096 0.401959
O O1 0.576222 0.765156 0.455816
O O2 0.136309 0.236587 0.574769
O O3 0.348498 0.559409 0.578048
O O4 0.585424 0.315398 0.655835
O O5 0.339310 0.131904 0.156888
O O6 0.827270 0.119214 0.204772
O O7 0.727467 0.142799 0.273507
O O8 0.711564 0.503935 0.822029
O O9 0.589850 0.438122 0.913902
O O10 0.026178 0.388841 0.976309
O O11 0.642230 0.756103 0.967429
O O12 0.533531 0.074726 0.894415
O O13 0.000000 0.000000 0.000000
O O14 0.148780 0.134151 0.865128
O O15 0.606648 0.516526 0.295364
O O16 0.133408 0.176367 0.386928
O O17 0.500000 0.000000 0.500000
#
# Coordination Sequence:
#
# PCOD9014338 Si02
#       8
#     2   2   2   2   2   2   2   2
#     4   9  21  44  69  94 133 180 223 288 350 408
#     4  10  21  41  67  94 140 179 219 293 348 402
#     4  11  21  40  63  96 138 173 233 286 334 424
#     4  11  20  38  67  95 130 182 228 282 344 403
#     4  11  22  38  65  95 131 185 223 276 354 411
#     4  11  22  40  63  99 137 174 234 288 333 419
#     4   9  21  43  69  96 134 178 232 290 341 415
#     4  12  25  41  69 101 136 182 232 289 346 415
#
# _framework density 23.715159
#
# number of rings (size 3 to 8) (size 9 to 14) (size 15 to 20)
#    0.750    0.750    3.750    2.250    1.750    1.000 
#    2.250    2.500    0.000    0.000    0.000    0.000 
#    0.000    0.000    0.000    0.000    0.000    0.000 
#
# Total GULP energy -89172.002362 kJ/mol
# GULP energy per Si atom -5573.250148 kJ/mol
# Density = 2.366118 g / cm^3
# Si number density = 23.715159 Si / 1000 Ang^3
#
#
#
# Elastic Constant Matrix: (Units=GPa)
#
#
# Indices 1 2 3 4 5 6 
#
# 1 78.8895 18.8957 46.6130 8.0656 4.6644 14.1302
# 2 18.8957 64.2745 3.9537 16.3167 -3.6022 7.8379
# 3 46.6130 3.9537 126.9675 10.3806 -4.6976 21.2959
# 4 8.0656 16.3167 10.3806 40.3423 -3.4195 -13.8624
# 5 4.6644 -3.6022 -4.6976 -3.4195 48.0094 10.7625
# 6 14.1302 7.8379 21.2959 -13.8624 10.7625 58.5433
#
#
#
# Elastic Compliance Matrix: (Units=1/GPa)
#
#
# Indices 1 2 3 4 5 6 
#
# 1 0.017939 -0.004730 -0.006295 -0.000644 -0.002514 -0.001097
# 2 -0.004730 0.019983 0.002887 -0.009479 0.002762 -0.005336
# 3 -0.006295 0.002887 0.011272 -0.004106 0.002630 -0.004423
# 4 -0.000644 -0.009479 -0.004106 0.033512 -0.001144 0.011063
# 5 -0.002514 0.002762 0.002630 -0.001144 0.022611 -0.005147
# 6 -0.001097 -0.005336 -0.004423 0.011063 -0.005147 0.023236
#
#
# Mechanical properties :
#
#
# Convention : Reuss Voigt Hill
#
# Bulk Modulus (GPa) = 30.37967 45.45069 37.91518
# Shear Modulus (GPa) = 32.09184 42.75695 37.42440
#
# Velocity S-wave (km/s) = 3.68261 4.25071 3.97681
# Velocity P-wave (km/s) = 5.56059 6.58014 6.09173
#
# Compressibility (1/GPa) = 0.03291675
#
# Stress axis : x y z
#
# Youngs Moduli (GPa) = 55.74298 50.04216 88.71373
#
# Poissons Ratio (x) = 0.23672 0.55846
# Poissons Ratio (y) = 0.26369 -0.25608
# Poissons Ratio (z) = 0.35091 -0.14445
#
# Static dielectric constant tensor:
#      x y z
#    x 1.935460 -0.022340 -0.003390 
#    y -0.022340 1.978530 -0.020160 
#    z -0.003390 -0.020160 1.946520 
# 
# From -- ./inp_files/615497.got.cif
#   From: 2010.05.17/outbox.cif.g08.bks.cpg/sg2_308_cif.got.tgz:615497.got - 2010.06.03 11:33:40.
