data_PCOD9014620
_publ_section_title
;
Structure prediction by ZEFSAII (Michael W. Deem and Ramdas Pophale) SiO2 
 PCOD9014620
Probable space group: P -1
;
_chemical_formula_sum "Si O2"
_cell_formula_units_Z 16
_cell_length_a 12.560820
_cell_length_b 9.303418
_cell_length_c 9.290779
_cell_angle_alpha 96.714838
_cell_angle_beta 46.995684
_cell_angle_gamma 94.680209
_cell_volume 788.531163
_symmetry_space_group_name_H-M "P -1"
_symmetry_group_IT_number 2
_symmetry_cell_setting 'triclinic'
loop_
_space_group_symop_operation_xyz
x,y,z
-x,-y,-z
loop_
_atom_site_type_symbol
_atom_site_label
_atom_site_fract_x
_atom_site_fract_y
_atom_site_fract_z
Si Si1 0.849740 0.589650 0.163402
Si Si2 0.152998 0.581345 0.342950
Si Si3 0.652682 0.057277 0.068671
Si Si4 0.673381 0.931575 0.712698
Si Si5 0.069018 0.898337 0.546409
Si Si6 0.333538 0.602498 0.893843
Si Si7 0.892458 0.893296 0.997081
Si Si8 0.320796 0.395716 0.383218
O O1 0.727285 0.490372 0.191054
O O2 0.868672 0.744243 0.086624
O O3 0.788298 0.613604 0.382442
O O4 0.000000 0.500000 0.000000
O O5 0.121485 0.750138 0.410265
O O6 0.263416 0.525062 0.354512
O O7 0.000000 0.500000 0.500000
O O8 0.235604 0.552884 0.114105
O O9 0.478237 0.044854 0.226565
O O10 0.691998 0.225378 0.074251
O O11 0.741125 0.967603 0.095201
O O12 0.683018 0.006525 0.869724
O O13 0.692765 0.760894 0.698627
O O14 0.796597 0.005158 0.512066
O O15 0.000000 0.000000 0.500000
O O16 0.967650 0.863203 0.769971
O O17 0.507448 0.583204 0.744073
O O18 0.000000 0.000000 0.000000
#
# Coordination Sequence:
#
# PCOD9014620 Si02
#       8
#     2   2   2   2   2   2   2   2
#     4  12  26  46  64  93 137 178 218 269 331 400
#     4  12  24  39  63 100 128 169 219 272 328 387
#     4  10  22  42  67  98 130 173 209 280 325 393
#     4  10  21  41  68  95 134 163 221 266 338 378
#     4  12  22  40  65  96 129 172 220 273 327 390
#     4  11  23  44  68  95 131 170 221 270 336 388
#     4  12  25  42  66  97 132 176 224 266 331 397
#     4  11  25  43  67  95 131 176 218 273 329 392
#
# _framework density 20.290891999999999
#
# number of rings (size 3 to 8) (size 9 to 14) (size 15 to 20)
#    0.000    0.750    2.500    5.250    1.750    1.000 
#    0.000    6.875    0.000    0.000    0.000    0.000 
#    0.000    0.000    0.000    0.000    0.000    0.000 
#
# Total GULP energy -89399.068935 kJ/mol
# GULP energy per Si atom -5587.441808 kJ/mol
# Density = 2.024471 g / cm^3
# Si number density = 20.290892 Si / 1000 Ang^3
#
#
#
# Elastic Constant Matrix: (Units=GPa)
#
#
# Indices 1 2 3 4 5 6 
#
# 1 84.2282 59.6040 1.3090 7.1639 -13.2558 -17.7579
# 2 59.6040 113.1906 -6.0558 8.7664 -19.0312 -8.3087
# 3 1.3090 -6.0558 50.9662 2.4322 -19.7705 -15.6766
# 4 7.1639 8.7664 2.4322 30.2917 6.6438 -0.9574
# 5 -13.2558 -19.0312 -19.7705 6.6438 29.6079 -0.7680
# 6 -17.7579 -8.3087 -15.6766 -0.9574 -0.7680 43.9345
#
#
#
# Elastic Compliance Matrix: (Units=1/GPa)
#
#
# Indices 1 2 3 4 5 6 
#
# 1 0.021461 -0.008689 0.004503 -0.004459 0.008256 0.008685
# 2 -0.008689 0.017240 0.009480 -0.006917 0.015157 0.003245
# 3 0.004503 0.009480 0.043267 -0.015665 0.041019 0.019427
# 4 -0.004459 -0.006917 -0.015665 0.042933 -0.026750 -0.008232
# 5 0.008256 0.015157 0.041019 -0.026750 0.081169 0.021676
# 6 0.008685 0.003245 0.019427 -0.008232 0.021676 0.034017
#
#
# Mechanical properties :
#
#
# Convention : Reuss Voigt Hill
#
# Bulk Modulus (GPa) = 10.80442 39.78881 25.29662
# Shear Modulus (GPa) = 19.20487 33.66865 26.43676
#
# Velocity S-wave (km/s) = 3.07982 4.07787 3.61347
# Velocity P-wave (km/s) = 4.24069 6.46713 5.46842
#
# Compressibility (1/GPa) = 0.09255467
#
# Stress axis : x y z
#
# Youngs Moduli (GPa) = 46.59621 58.00573 23.11249
#
# Poissons Ratio (x) = 0.50401 -0.10408
# Poissons Ratio (y) = 0.40488 -0.21909
# Poissons Ratio (z) = -0.20983 -0.54987
#
# Static dielectric constant tensor:
#      x y z
#    x 1.725900 0.003780 -0.033640 
#    y 0.003780 1.678130 -0.009160 
#    z -0.033640 -0.009160 1.749280 
# 
# From -- ./inp_files/243531.got.cif
#   From: 2010.05.17/outbox.cif.g08.bks.cpg/sg2_122_cif.got.tgz:243531.got - 2010.06.03 11:33:40.
