data_PCOD9014265
_publ_section_title
;
Structure prediction by ZEFSAII (Michael W. Deem and Ramdas Pophale) SiO2 
 PCOD9014265
Probable space group: P -1
;
_chemical_formula_sum "Si O2"
_cell_formula_units_Z 16
_cell_length_a 12.463118
_cell_length_b 9.681997
_cell_length_c 9.835594
_cell_angle_alpha 41.219497
_cell_angle_beta 75.212091
_cell_angle_gamma 96.163784
_cell_volume 667.489586
_symmetry_space_group_name_H-M "P -1"
_symmetry_group_IT_number 2
_symmetry_cell_setting 'triclinic'
loop_
_space_group_symop_operation_xyz
x,y,z
-x,-y,-z
loop_
_atom_site_type_symbol
_atom_site_label
_atom_site_fract_x
_atom_site_fract_y
_atom_site_fract_z
Si Si1 0.642999 0.594693 0.940044
Si Si2 0.406061 0.887989 0.740698
Si Si3 0.196002 0.683215 0.518043
Si Si4 0.113284 0.959083 0.547998
Si Si5 0.872111 0.110404 0.866113
Si Si6 0.600013 0.774832 0.288594
Si Si7 0.564054 0.890244 0.927251
Si Si8 0.989441 0.795914 0.984294
O O1 0.753962 0.800335 0.664131
O O2 0.633939 0.731839 0.977373
O O3 0.500000 0.500000 0.000000
O O4 0.677351 0.377847 0.098441
O O5 0.445433 0.805742 0.930320
O O6 0.500000 0.000000 0.500000
O O7 0.391052 0.105928 0.653359
O O8 0.146194 0.425787 0.786202
O O9 0.136361 0.801667 0.547809
O O10 0.344765 0.845397 0.352780
O O11 0.158335 0.726938 0.346140
O O12 0.000000 0.000000 0.500000
O O13 0.065895 0.822181 0.805131
O O14 0.746088 0.876690 0.126314
O O15 0.968573 0.026935 0.833823
O O16 0.934086 0.236744 0.892129
O O17 0.500000 0.500000 0.500000
O O18 0.557722 0.882160 0.096229
#
# Coordination Sequence:
#
# PCOD9014265 Si02
#       8
#     2   2   2   2   2   2   2   2
#     4   9  21  42  64  89 133 170 208 271 323 385
#     4  11  23  39  64  96 126 174 215 260 329 393
#     4  10  21  41  67  91 129 167 216 272 323 391
#     4  11  22  39  65  98 127 167 221 270 323 385
#     4  10  24  43  60  94 130 168 215 266 332 382
#     4  11  24  41  65  94 129 165 218 273 321 394
#     4   9  21  41  63  93 128 167 215 267 328 385
#     4  11  23  41  66  91 128 173 212 267 328 390
#
# _framework density 23.970410000000001
#
# number of rings (size 3 to 8) (size 9 to 14) (size 15 to 20)
#    0.000    1.750    1.250    1.875    1.750    7.000 
#    9.000    0.000    0.000    0.000    0.000    0.000 
#    0.000    0.000    0.000    0.000    0.000    0.000 
#
# Total GULP energy -89112.146093 kJ/mol
# GULP energy per Si atom -5569.509131 kJ/mol
# Density = 2.391585 g / cm^3
# Si number density = 23.970410 Si / 1000 Ang^3
#
#
#
# Elastic Constant Matrix: (Units=GPa)
#
#
# Indices 1 2 3 4 5 6 
#
# 1 42.3472 10.6430 -0.5186 5.4185 -16.5347 -5.1525
# 2 10.6430 98.7497 45.0997 17.2414 -3.4127 -4.8955
# 3 -0.5186 45.0997 116.1196 1.5158 -18.6212 -3.2199
# 4 5.4185 17.2414 1.5158 46.4079 0.3000 -3.3067
# 5 -16.5347 -3.4127 -18.6212 0.3000 24.4276 -1.2187
# 6 -5.1525 -4.8955 -3.2199 -3.3067 -1.2187 22.9436
#
#
#
# Elastic Compliance Matrix: (Units=1/GPa)
#
#
# Indices 1 2 3 4 5 6 
#
# 1 0.039357 -0.005882 0.007969 -0.002159 0.032424 0.010113
# 2 -0.005882 0.014315 -0.006659 -0.004383 -0.007015 -0.000206
# 3 0.007969 -0.006659 0.013726 0.001231 0.015075 0.003273
# 4 -0.002159 -0.004383 0.001231 0.023545 -0.001321 0.002076
# 5 0.032424 -0.007015 0.015075 -0.001321 0.073993 0.011640
# 6 0.010113 -0.000206 0.003273 0.002076 0.011640 0.047189
#
#
# Mechanical properties :
#
#
# Convention : Reuss Voigt Hill
#
# Bulk Modulus (GPa) = 17.16692 40.85164 29.00928
# Shear Modulus (GPa) = 20.77382 32.22198 26.49790
#
# Velocity S-wave (km/s) = 2.94708 3.67037 3.32843
# Velocity P-wave (km/s) = 4.33100 5.91960 5.18648
#
# Compressibility (1/GPa) = 0.05825157
#
# Stress axis : x y z
#
# Youngs Moduli (GPa) = 25.40845 69.85888 72.85499
#
# Poissons Ratio (x) = 0.41092 -0.58055
# Poissons Ratio (y) = 0.14946 0.48516
# Poissons Ratio (z) = -0.20247 0.46521
#
# Static dielectric constant tensor:
#      x y z
#    x 1.754900 0.441250 -0.687000 
#    y 0.441250 1.195800 1.098810 
#    z -0.687000 1.098810 0.248220 
# 
# From -- ./inp_files/297378.got.cif
#   From: 2010.05.17/outbox.cif.g08.bks.cpg/sg2_149_cif.got.tgz:297378.got - 2010.06.03 11:33:40.
