data_PCOD9014366
_publ_section_title
;
Structure prediction by ZEFSAII (Michael W. Deem and Ramdas Pophale) SiO2 
 PCOD9014366
Probable space group: P -1
;
_chemical_formula_sum "Si O2"
_cell_formula_units_Z 13
_cell_length_a 6.919074
_cell_length_b 17.791712
_cell_length_c 11.337243
_cell_angle_alpha 153.956349
_cell_angle_beta 63.889532
_cell_angle_gamma 105.769147
_cell_volume 522.465379
_symmetry_space_group_name_H-M "P -1"
_symmetry_group_IT_number 2
_symmetry_cell_setting 'triclinic'
loop_
_space_group_symop_operation_xyz
x,y,z
-x,-y,-z
loop_
_atom_site_type_symbol
_atom_site_label
_atom_site_fract_x
_atom_site_fract_y
_atom_site_fract_z
Si Si1 0.345533 0.785400 0.713460
Si Si2 0.722182 0.922852 0.188272
Si Si3 0.000000 0.000000 0.000000
Si Si4 0.111310 0.612193 0.713430
Si Si5 0.730436 0.438706 0.777984
Si Si6 0.440091 0.739723 0.128959
Si Si7 0.810945 0.528661 0.249100
O O1 0.297357 0.671121 0.672887
O O2 0.213960 0.752767 0.577841
O O3 0.608309 0.699390 0.498020
O O4 0.193354 0.989081 0.043893
O O5 0.519763 0.833656 0.128975
O O6 0.837125 0.923800 0.033854
O O7 0.629040 0.118823 0.547028
O O8 0.917079 0.802690 0.054238
O O9 0.194399 0.496630 0.643831
O O10 0.000000 0.500000 0.500000
O O11 0.941079 0.456917 0.818620
O O12 0.500000 0.500000 0.000000
O O13 0.658604 0.579731 0.889345
O O14 0.247994 0.647127 0.027899
#
# Coordination Sequence:
#
# PCOD9014366 Si02
#       7
#     2   2   1   2   2   2   2
#     4  10  22  38  64  95 129 170 218 271 328 398
#     4  10  21  41  67  95 136 176 217 276 336 385
#     4  10  22  42  68  92 140 178 210 276 342 380
#     4  11  19  39  68  93 129 172 219 275 329 388
#     4  11  22  41  67  94 132 173 219 282 329 390
#     4  10  22  41  66  99 128 176 226 272 331 398
#     4  11  22  40  70  97 126 176 226 273 328 399
#
# _framework density 24.882034000000001
#
# number of rings (size 3 to 8) (size 9 to 14) (size 15 to 20)
#    0.000    1.538    3.077    2.308    0.000    3.077 
#    0.000    0.769    3.385    0.000    0.000    0.000 
#    0.000    0.000    0.000    0.000    0.000    0.000 
#
# Total GULP energy -72456.816626 kJ/mol
# GULP energy per Si atom -5573.601279 kJ/mol
# Density = 2.482540 g / cm^3
# Si number density = 24.882034 Si / 1000 Ang^3
#
#
#
# Elastic Constant Matrix: (Units=GPa)
#
#
# Indices 1 2 3 4 5 6 
#
# 1 146.6231 41.2193 37.0748 7.5509 -12.4299 24.4340
# 2 41.2193 149.7670 23.8391 -12.5329 -6.6923 19.7662
# 3 37.0748 23.8391 90.2850 7.1127 -9.3567 11.5795
# 4 7.5509 -12.5329 7.1127 36.1727 3.7598 -15.1172
# 5 -12.4299 -6.6923 -9.3567 3.7598 43.3213 3.1991
# 6 24.4340 19.7662 11.5795 -15.1172 3.1991 47.2599
#
#
#
# Elastic Compliance Matrix: (Units=1/GPa)
#
#
# Indices 1 2 3 4 5 6 
#
# 1 0.009143 -0.001784 -0.001986 -0.004563 0.002694 -0.005136
# 2 -0.001784 0.007782 -0.001384 0.002861 0.000224 -0.001094
# 3 -0.001986 -0.001384 0.013286 -0.004298 0.002696 -0.003207
# 4 -0.004563 0.002861 -0.004298 0.037128 -0.006089 0.014504
# 5 0.002694 0.000224 0.002696 -0.006089 0.025431 -0.005816
# 6 -0.005136 -0.001094 -0.003207 0.014504 -0.005816 0.030091
#
#
# Mechanical properties :
#
#
# Convention : Reuss Voigt Hill
#
# Bulk Modulus (GPa) = 50.24292 65.66015 57.95154
# Shear Modulus (GPa) = 35.76406 44.32024 40.04215
#
# Velocity S-wave (km/s) = 3.79535 4.22502 4.01593
# Velocity P-wave (km/s) = 6.28033 7.08851 6.69662
#
# Compressibility (1/GPa) = 0.01990330
#
# Stress axis : x y z
#
# Youngs Moduli (GPa) = 109.37086 128.50148 75.26507
#
# Poissons Ratio (x) = 0.22922 0.14949
# Poissons Ratio (y) = 0.19510 0.10418
# Poissons Ratio (z) = 0.21723 0.17787
#
# Static dielectric constant tensor:
#      x y z
#    x 2.117020 0.032190 -0.113320 
#    y 0.032190 2.084570 0.151510 
#    z -0.113320 0.151510 2.543990 
# 
# From -- ./inp_files/369240.got.cif
#   From: 2010.05.17/outbox.cif.g08.bks.cpg/sg2_185_cif.got.tgz:369240.got - 2010.06.03 11:33:40.
