data_PCOD9014688
_publ_section_title
;
Structure prediction by ZEFSAII (Michael W. Deem and Ramdas Pophale) SiO2 
 PCOD9014688
Probable space group: P -1
;
_chemical_formula_sum "Si O2"
_cell_formula_units_Z 10
_cell_length_a 12.038054
_cell_length_b 12.532864
_cell_length_c 6.676743
_cell_angle_alpha 142.727764
_cell_angle_beta 117.754127
_cell_angle_gamma 47.613675
_cell_volume 444.911387
_symmetry_space_group_name_H-M "P -1"
_symmetry_group_IT_number 2
_symmetry_cell_setting 'triclinic'
loop_
_space_group_symop_operation_xyz
x,y,z
-x,-y,-z
loop_
_atom_site_type_symbol
_atom_site_label
_atom_site_fract_x
_atom_site_fract_y
_atom_site_fract_z
Si Si1 0.600042 0.645167 0.481007
Si Si2 0.665661 0.862298 0.537687
Si Si3 0.794668 0.468071 0.768913
Si Si4 0.087206 0.089761 0.314864
Si Si5 0.728027 0.235555 0.685154
O O1 0.645419 0.791834 0.632380
O O2 0.664390 0.578962 0.657666
O O3 0.419946 0.759950 0.487698
O O4 0.673616 0.428507 0.087229
O O5 0.764081 0.961470 0.756858
O O6 0.500000 0.000000 0.500000
O O7 0.761961 0.649524 0.166213
O O8 0.784824 0.295820 0.630213
O O9 0.957524 0.339974 0.607337
O O10 0.149335 0.979025 0.417379
O O11 0.000000 0.000000 0.000000
#
# Coordination Sequence:
#
# PCOD9014688 Si02
#       5
#     2   2   2   2   2
#     4  10  21  42  69  98 129 176 219 268 324 392
#     4  11  25  46  67  95 137 173 221 271 321 395
#     4  11  24  42  68 100 131 172 218 273 331 382
#     4  12  24  45  68 100 134 174 215 274 333 383
#     4  10  21  41  68  98 136 168 220 269 322 397
#
# _framework density 22.476386999999999
#
# number of rings (size 3 to 8) (size 9 to 14) (size 15 to 20)
#    0.000    1.200    4.000    1.800    0.000    3.200 
#    7.200    0.000    0.000    0.000    0.000    0.000 
#    0.000    0.000    0.000    0.000    0.000    0.000 
#
# Total GULP energy -55973.371192 kJ/mol
# GULP energy per Si atom -5597.337119 kJ/mol
# Density = 2.242523 g / cm^3
# Si number density = 22.476387 Si / 1000 Ang^3
#
#
#
# Elastic Constant Matrix: (Units=GPa)
#
#
# Indices 1 2 3 4 5 6 
#
# 1 135.2661 26.6383 26.9703 -14.2840 33.8990 -8.4342
# 2 26.6383 111.2964 7.2891 -23.4063 21.3661 -8.4896
# 3 26.9703 7.2891 44.5858 -2.1400 8.2529 -7.0853
# 4 -14.2840 -23.4063 -2.1400 34.6997 -6.2904 -7.6855
# 5 33.8990 21.3661 8.2529 -6.2904 29.6392 2.8713
# 6 -8.4342 -8.4896 -7.0853 -7.6855 2.8713 42.4719
#
#
#
# Elastic Compliance Matrix: (Units=1/GPa)
#
#
# Indices 1 2 3 4 5 6 
#
# 1 0.011788 0.000871 -0.004264 0.003649 -0.012469 0.003307
# 2 0.000871 0.012574 0.000217 0.008323 -0.008822 0.004825
# 3 -0.004264 0.000217 0.026121 0.000328 -0.002851 0.003806
# 4 0.003649 0.008323 0.000328 0.037461 -0.003229 0.009440
# 5 -0.012469 -0.008822 -0.002851 -0.003229 0.055344 -0.009041
# 6 0.003307 0.004825 0.003806 0.009440 -0.009041 0.028121
#
#
# Mechanical properties :
#
#
# Convention : Reuss Voigt Hill
#
# Bulk Modulus (GPa) = 22.66009 45.88262 34.27135
# Shear Modulus (GPa) = 25.97777 36.71220 31.34499
#
# Velocity S-wave (km/s) = 3.40337 4.04588 3.73845
# Velocity P-wave (km/s) = 5.05445 6.50258 5.82370
#
# Compressibility (1/GPa) = 0.04413045
#
# Stress axis : x y z
#
# Youngs Moduli (GPa) = 84.83350 79.52606 38.28313
#
# Poissons Ratio (x) = -0.06929 0.16325
# Poissons Ratio (y) = -0.07391 -0.00829
# Poissons Ratio (z) = 0.36176 -0.01722
#
# Static dielectric constant tensor:
#      x y z
#    x 1.850740 0.010820 0.005630 
#    y 0.010820 1.772840 0.036350 
#    z 0.005630 0.036350 1.843170 
# 
# From -- ./inp_files/15207.got.cif
#   From: 2010.05.17/outbox.cif.g08.bks.cpg/sg2_8_cif.got.tgz:15207.got - 2010.06.03 11:33:40.
