data_PCOD9014025
_publ_section_title
;
Structure prediction by ZEFSAII (Michael W. Deem and Ramdas Pophale) SiO2 
 PCOD9014025
Probable space group: P -1
;
_chemical_formula_sum "Si O2"
_cell_formula_units_Z 16
_cell_length_a 9.488771
_cell_length_b 7.412571
_cell_length_c 14.559093
_cell_angle_alpha 107.753410
_cell_angle_beta 127.940592
_cell_angle_gamma 101.496415
_cell_volume 659.316421
_symmetry_space_group_name_H-M "P -1"
_symmetry_group_IT_number 2
_symmetry_cell_setting 'triclinic'
loop_
_space_group_symop_operation_xyz
x,y,z
-x,-y,-z
loop_
_atom_site_type_symbol
_atom_site_label
_atom_site_fract_x
_atom_site_fract_y
_atom_site_fract_z
Si Si1 0.897648 0.105852 0.591289
Si Si2 0.777077 0.295973 0.409560
Si Si3 0.630621 0.639683 0.222698
Si Si4 0.125180 0.915807 0.982423
Si Si5 0.472849 0.810295 0.894134
Si Si6 0.378476 0.397500 0.564009
Si Si7 0.208554 0.570714 0.291049
Si Si8 0.250422 0.679148 0.121820
O O1 0.802407 0.124406 0.457135
O O2 0.867463 0.285508 0.663292
O O3 0.136658 0.171611 0.682238
O O4 0.779302 0.864933 0.553795
O O5 0.655651 0.202718 0.250530
O O6 0.683900 0.419109 0.451445
O O7 0.000000 0.500000 0.500000
O O8 0.623034 0.429843 0.139504
O O9 0.619915 0.593306 0.321286
O O10 0.416909 0.641714 0.127310
O O11 0.260193 0.882917 0.108070
O O12 0.288483 0.115470 0.018124
O O13 0.984511 0.680168 0.840415
O O14 0.000000 0.000000 0.000000
O O15 0.500000 0.000000 0.000000
O O16 0.596392 0.460229 0.614729
O O17 0.300456 0.704719 0.252691
O O18 0.000000 0.500000 0.000000
#
# Coordination Sequence:
#
# PCOD9014025 Si02
#       8
#     2   2   2   2   2   2   2   2
#     4  12  23  42  70  96 135 179 225 286 350 399
#     4  11  24  42  68  98 138 181 230 278 346 422
#     4  10  21  41  66  94 132 171 227 276 337 421
#     4  11  22  41  69  91 131 181 222 277 349 405
#     4  11  23  41  66  99 135 173 228 288 334 405
#     4  10  22  42  65  94 136 180 222 283 342 403
#     4  10  23  43  62  99 134 166 235 293 325 416
#     4   9  20  41  64  88 130 176 216 267 343 405
#
# _framework density 24.267558000000001
#
# number of rings (size 3 to 8) (size 9 to 14) (size 15 to 20)
#    0.000    1.500    2.500    4.500    3.500    0.500 
#    2.250    9.375    0.000    0.000    0.000    0.000 
#    0.000    0.000    0.000    0.000    0.000    0.000 
#
# Total GULP energy -89269.407344 kJ/mol
# GULP energy per Si atom -5579.337959 kJ/mol
# Density = 2.421232 g / cm^3
# Si number density = 24.267558 Si / 1000 Ang^3
#
#
#
# Elastic Constant Matrix: (Units=GPa)
#
#
# Indices 1 2 3 4 5 6 
#
# 1 119.6610 0.4759 56.2759 -6.1736 5.4944 -39.2270
# 2 0.4759 74.5591 31.6841 3.0340 3.7751 -25.3513
# 3 56.2759 31.6841 92.1579 13.9794 6.3301 -17.2341
# 4 -6.1736 3.0340 13.9794 27.7270 -13.1186 -0.0197
# 5 5.4944 3.7751 6.3301 -13.1186 41.5788 7.2967
# 6 -39.2270 -25.3513 -17.2341 -0.0197 7.2967 44.0811
#
#
#
# Elastic Compliance Matrix: (Units=1/GPa)
#
#
# Indices 1 2 3 4 5 6 
#
# 1 0.025996 0.015948 -0.018150 0.011844 -0.002892 0.025693
# 2 0.015948 0.028473 -0.015317 0.005817 -0.004984 0.025406
# 3 -0.018150 -0.015317 0.027677 -0.018110 -0.003765 -0.013525
# 4 0.011844 0.005817 -0.018110 0.055468 0.017474 0.003937
# 5 -0.002892 -0.004984 -0.003765 0.017474 0.033146 -0.012390
# 6 0.025693 0.025406 -0.013525 0.003937 -0.012390 0.056925
#
#
# Mechanical properties :
#
#
# Convention : Reuss Voigt Hill
#
# Bulk Modulus (GPa) = 21.22818 51.47219 36.35018
# Shear Modulus (GPa) = 17.95808 35.87352 26.91580
#
# Velocity S-wave (km/s) = 2.72325 3.84897 3.33397
# Velocity P-wave (km/s) = 4.31911 6.40384 5.46186
#
# Compressibility (1/GPa) = 0.04710720
#
# Stress axis : x y z
#
# Youngs Moduli (GPa) = 38.46755 35.12067 36.13121
#
# Poissons Ratio (x) = -0.56009 0.65580
# Poissons Ratio (y) = -0.61346 0.55340
# Poissons Ratio (z) = 0.69820 0.53793
#
# Static dielectric constant tensor:
#      x y z
#    x 1.979440 0.042680 0.030000 
#    y 0.042680 2.044950 -0.017030 
#    z 0.030000 -0.017030 2.072430 
# 
# From -- ./inp_files/556447.got.cif
#   From: 2010.05.17/outbox.cif.g08.bks.cpg/sg2_279_cif.got.tgz:556447.got - 2010.06.03 11:33:40.
