data_PCOD9014651
_publ_section_title
;
Structure prediction by ZEFSAII (Michael W. Deem and Ramdas Pophale) SiO2 
 PCOD9014651
Probable space group: P -1
;
_chemical_formula_sum "Si O2"
_cell_formula_units_Z 16
_cell_length_a 9.299480
_cell_length_b 15.081513
_cell_length_c 8.796234
_cell_angle_alpha 40.074082
_cell_angle_beta 68.200107
_cell_angle_gamma 69.996974
_cell_volume 733.947523
_symmetry_space_group_name_H-M "P -1"
_symmetry_group_IT_number 2
_symmetry_cell_setting 'triclinic'
loop_
_space_group_symop_operation_xyz
x,y,z
-x,-y,-z
loop_
_atom_site_type_symbol
_atom_site_label
_atom_site_fract_x
_atom_site_fract_y
_atom_site_fract_z
Si Si1 0.686106 0.931643 0.325189
Si Si2 0.473150 0.297174 0.171139
Si Si3 0.059589 0.423237 0.730144
Si Si4 0.229392 0.129250 0.974608
Si Si5 0.022514 0.909690 0.264960
Si Si6 0.245850 0.635880 0.535105
Si Si7 0.254246 0.560011 0.984210
Si Si8 0.486977 0.786205 0.062247
O O1 0.553487 0.852856 0.558207
O O2 0.717451 0.872422 0.220302
O O3 0.845685 0.903583 0.394874
O O4 0.638438 0.093681 0.110056
O O5 0.640256 0.344693 0.084812
O O6 0.343487 0.406208 0.155531
O O7 0.451040 0.298610 0.997453
O O8 0.117062 0.265898 0.875471
O O9 0.198928 0.502625 0.638991
O O10 0.000000 0.500000 0.500000
O O11 0.918227 0.433935 0.890780
O O12 0.380677 0.136945 0.007914
O O13 0.135940 0.994748 0.209472
O O14 0.107564 0.758760 0.400976
O O15 0.000000 0.000000 0.000000
O O16 0.255560 0.607746 0.746861
O O17 0.401548 0.691701 0.335663
#
# Coordination Sequence:
#
# PCOD9014651 Si02
#       8
#     2   2   2   2   2   2   2   2
#     4  11  23  44  70  94 141 181 223 278 342 404
#     4  11  25  44  67  98 138 181 228 277 344 407
#     4  12  25  43  71 100 138 181 229 278 343 407
#     4  11  24  41  69 102 133 174 232 277 335 405
#     4  10  21  41  68  96 133 180 224 270 339 403
#     4  12  24  43  72  98 139 181 225 286 338 403
#     4  11  26  45  68  99 138 179 227 283 345 403
#     4  12  25  42  70 100 137 176 234 278 340 403
#
# _framework density 21.799925000000002
#
# number of rings (size 3 to 8) (size 9 to 14) (size 15 to 20)
#    0.000    0.750    2.500    6.375    3.500    5.000 
#    0.000    1.250    0.000    0.000    0.000    0.000 
#    0.000    0.000    0.000    0.000    0.000    0.000 
#
# Total GULP energy -89567.702900 kJ/mol
# GULP energy per Si atom -5597.981431 kJ/mol
# Density = 2.175031 g / cm^3
# Si number density = 21.799925 Si / 1000 Ang^3
#
#
#
# Elastic Constant Matrix: (Units=GPa)
#
#
# Indices 1 2 3 4 5 6 
#
# 1 82.5784 10.9358 -8.0042 12.1977 -15.2386 23.5923
# 2 10.9358 74.2783 11.2704 2.5052 -13.0287 10.3641
# 3 -8.0042 11.2704 65.1085 8.5600 -8.8587 12.1513
# 4 12.1977 2.5052 8.5600 23.9162 2.6673 7.9085
# 5 -15.2386 -13.0287 -8.8587 2.6673 31.7607 -5.8151
# 6 23.5923 10.3641 12.1513 7.9085 -5.8151 37.0965
#
#
#
# Elastic Compliance Matrix: (Units=1/GPa)
#
#
# Indices 1 2 3 4 5 6 
#
# 1 0.019198 -0.000326 0.007068 -0.009824 0.009898 -0.010787
# 2 -0.000326 0.015013 -0.001364 -0.000643 0.005202 -0.002588
# 3 0.007068 -0.001364 0.020126 -0.009040 0.007822 -0.007553
# 4 -0.009824 -0.000643 -0.009040 0.052809 -0.012638 -0.003851
# 5 0.009898 0.005202 0.007822 -0.012638 0.041406 -0.001126
# 6 -0.010787 -0.002588 -0.007553 -0.003851 -0.001126 0.037659
#
#
# Mechanical properties :
#
#
# Convention : Reuss Voigt Hill
#
# Bulk Modulus (GPa) = 15.36246 27.81878 21.59062
# Shear Modulus (GPa) = 25.36123 32.40556 28.88339
#
# Velocity S-wave (km/s) = 3.41451 3.85970 3.64391
# Velocity P-wave (km/s) = 4.75474 5.71416 5.25639
#
# Compressibility (1/GPa) = 0.06509372
#
# Stress axis : x y z
#
# Youngs Moduli (GPa) = 52.08994 66.60888 49.68589
#
# Poissons Ratio (x) = 0.02172 -0.35119
# Poissons Ratio (y) = 0.01699 0.06775
# Poissons Ratio (z) = -0.36818 0.09083
#
# Static dielectric constant tensor:
#      x y z
#    x 1.811460 -0.017340 -0.001710 
#    y -0.017340 1.783650 -0.007760 
#    z -0.001710 -0.007760 1.761020 
# 
# From -- ./inp_files/205043.got.cif
#   From: 2010.05.17/outbox.cif.g08.bks.cpg/sg2_103_cif.got.tgz:205043.got - 2010.06.03 11:33:40.
