data_PCOD9014281
_publ_section_title
;
Structure prediction by ZEFSAII (Michael W. Deem and Ramdas Pophale) SiO2 
 PCOD9014281
Probable space group: P -1
;
_chemical_formula_sum "Si O2"
_cell_formula_units_Z 16
_cell_length_a 14.863021
_cell_length_b 7.630141
_cell_length_c 12.925629
_cell_angle_alpha 101.292321
_cell_angle_beta 54.405750
_cell_angle_gamma 138.327117
_cell_volume 710.916921
_symmetry_space_group_name_H-M "P -1"
_symmetry_group_IT_number 2
_symmetry_cell_setting 'triclinic'
loop_
_space_group_symop_operation_xyz
x,y,z
-x,-y,-z
loop_
_atom_site_type_symbol
_atom_site_label
_atom_site_fract_x
_atom_site_fract_y
_atom_site_fract_z
Si Si1 0.282661 0.862004 0.989997
Si Si2 0.172488 0.097201 0.386550
Si Si3 0.578232 0.333545 0.191945
Si Si4 0.353254 0.241534 0.486654
Si Si5 0.698915 0.488001 0.819921
Si Si6 0.871351 0.022031 0.033361
Si Si7 0.222791 0.793328 0.255985
Si Si8 0.988682 0.119037 0.183949
O O1 0.315843 0.717362 0.892080
O O2 0.485418 0.183842 0.924669
O O3 0.195223 0.897378 0.979019
O O4 0.184133 0.723687 0.151810
O O5 0.303690 0.285941 0.419662
O O6 0.264855 0.288178 0.242908
O O7 0.114476 0.817051 0.380529
O O8 0.000000 0.000000 0.500000
O O9 0.453560 0.198783 0.362800
O O10 0.705496 0.670667 0.130381
O O11 0.428891 0.126341 0.176942
O O12 0.500000 0.500000 0.500000
O O13 0.160868 0.003079 0.648670
O O14 0.780904 0.405462 0.712015
O O15 0.813764 0.641728 0.866402
O O16 0.950471 0.176204 0.110195
O O17 0.020826 0.098308 0.877937
#
# Coordination Sequence:
#
# PCOD9014281 Si02
#       8
#     2   2   2   2   2   2   2   2
#     4  11  22  40  69 100 122 167 219 256 322 384
#     4  11  23  40  64  94 122 166 215 255 317 381
#     4  10  21  41  67  92 128 171 211 264 318 381
#     4  11  22  42  66  89 131 173 209 262 324 381
#     4  11  22  41  65  94 128 159 213 265 317 376
#     4  11  23  41  67  91 132 170 217 261 313 386
#     4  10  22  38  65  96 130 162 202 272 317 371
#     4  11  23  40  63  96 130 172 207 268 325 368
#
# _framework density 22.506145
#
# number of rings (size 3 to 8) (size 9 to 14) (size 15 to 20)
#    0.000    1.250    2.500    5.250    0.000    2.000 
#    2.250    8.750    0.000    0.000    0.000    0.000 
#    0.000    0.000    0.000    0.000    0.000    0.000 
#
# Total GULP energy -89207.822398 kJ/mol
# GULP energy per Si atom -5575.488900 kJ/mol
# Density = 2.245492 g / cm^3
# Si number density = 22.506145 Si / 1000 Ang^3
#
#
#
# Elastic Constant Matrix: (Units=GPa)
#
#
# Indices 1 2 3 4 5 6 
#
# 1 173.7939 35.9081 47.2379 25.3478 1.6728 14.5996
# 2 35.9081 67.0656 16.9014 17.0552 9.7095 26.5345
# 3 47.2379 16.9014 112.5432 13.9502 -13.1843 4.7139
# 4 25.3478 17.0552 13.9502 33.2756 3.8601 -0.3948
# 5 1.6728 9.7095 -13.1843 3.8601 40.5584 10.2906
# 6 14.5996 26.5345 4.7139 -0.3948 10.2906 41.7123
#
#
#
# Elastic Compliance Matrix: (Units=1/GPa)
#
#
# Indices 1 2 3 4 5 6 
#
# 1 0.007428 -0.002041 -0.002304 -0.003666 0.000059 -0.001090
# 2 -0.002041 0.025164 -0.001125 -0.010875 -0.001490 -0.014902
# 3 -0.002304 -0.001125 0.010911 -0.002761 0.004382 -0.000818
# 4 -0.003666 -0.010875 -0.002761 0.040218 -0.004509 0.010006
# 5 0.000059 -0.001490 0.004382 -0.004509 0.028552 -0.006655
# 6 -0.001090 -0.014902 -0.000818 0.010006 -0.006655 0.035664
#
#
# Mechanical properties :
#
#
# Convention : Reuss Voigt Hill
#
# Bulk Modulus (GPa) = 30.70959 61.49974 46.10467
# Shear Modulus (GPa) = 29.45843 39.99961 34.72902
#
# Velocity S-wave (km/s) = 3.62181 4.22035 3.93248
# Velocity P-wave (km/s) = 5.58252 7.15077 6.41475
#
# Compressibility (1/GPa) = 0.03256312
#
# Stress axis : x y z
#
# Youngs Moduli (GPa) = 134.63325 39.73882 91.64838
#
# Poissons Ratio (x) = 0.08112 0.21117
# Poissons Ratio (y) = 0.27482 0.10307
# Poissons Ratio (z) = 0.31022 0.04469
#
# Static dielectric constant tensor:
#      x y z
#    x 1.805340 -0.001880 -0.027080 
#    y -0.001880 1.931970 -0.005800 
#    z -0.027080 -0.005800 1.919110 
# 
# From -- ./inp_files/444721.got.cif
#   From: 2010.05.17/outbox.cif.g08.bks.cpg/sg2_223_cif.got.tgz:444721.got - 2010.06.03 11:33:40.
