data_PCOD9014699
_publ_section_title
;
Structure prediction by ZEFSAII (Michael W. Deem and Ramdas Pophale) SiO2 
 PCOD9014699
Probable space group: P -1
;
_chemical_formula_sum "Si O2"
_cell_formula_units_Z 14
_cell_length_a 8.741033
_cell_length_b 10.852579
_cell_length_c 16.792013
_cell_angle_alpha 157.845527
_cell_angle_beta 62.956835
_cell_angle_gamma 114.839210
_cell_volume 535.023369
_symmetry_space_group_name_H-M "P -1"
_symmetry_group_IT_number 2
_symmetry_cell_setting 'triclinic'
loop_
_space_group_symop_operation_xyz
x,y,z
-x,-y,-z
loop_
_atom_site_type_symbol
_atom_site_label
_atom_site_fract_x
_atom_site_fract_y
_atom_site_fract_z
Si Si1 0.767623 0.842748 0.555964
Si Si2 0.344560 0.726798 0.288080
Si Si3 0.158067 0.655396 0.509302
Si Si4 0.103214 0.194923 0.734866
Si Si5 0.376510 0.650846 0.906640
Si Si6 0.500202 0.371969 0.320598
Si Si7 0.931083 0.644814 0.818910
O O1 0.640253 0.566869 0.456591
O O2 0.913713 0.595712 0.337864
O O3 0.635187 0.072083 0.676465
O O4 0.904028 0.103682 0.714748
O O5 0.506478 0.617084 0.235222
O O6 0.224367 0.408881 0.115838
O O7 0.219507 0.981629 0.517377
O O8 0.329964 0.576813 0.466779
O O9 0.149510 0.463305 0.311842
O O10 0.000000 0.500000 0.500000
O O11 0.144596 0.031888 0.712650
O O12 0.181435 0.550048 0.912995
O O13 0.411850 0.646131 0.800660
O O14 0.439246 0.004057 0.133289
O O15 0.000000 0.000000 0.000000
#
# Coordination Sequence:
#
# PCOD9014699 Si02
#       7
#     2   2   2   2   2   2   2
#     4  10  20  31  53  85 117 150 182 240 297 345
#     4  10  17  30  48  81 116 143 180 232 293 338
#     4  10  22  40  58  81 117 161 197 229 285 362
#     4  10  19  34  53  84 114 153 190 236 290 344
#     4  11  20  31  54  86 120 139 194 248 293 335
#     4  11  21  33  55  86 115 152 188 243 296 338
#     4  10  20  34  54  87 116 146 191 244 291 327
#
# _framework density 26.167082000000001
#
# number of rings (size 3 to 8) (size 9 to 14) (size 15 to 20)
#    0.000    2.000    4.286    3.857    2.000    0.000 
#    0.000    3.571    0.000    0.000    0.000   11.000 
#    0.000    0.000    0.000    0.000    0.000    0.000 
#
# Total GULP energy -78149.764412 kJ/mol
# GULP energy per Si atom -5582.126029 kJ/mol
# Density = 2.610752 g / cm^3
# Si number density = 26.167082 Si / 1000 Ang^3
#
#
#
# Elastic Constant Matrix: (Units=GPa)
#
#
# Indices 1 2 3 4 5 6 
#
# 1 172.0695 42.4547 50.1440 21.6150 18.9192 19.2874
# 2 42.4547 82.1066 50.5477 42.3742 26.1114 14.2847
# 3 50.1440 50.5477 96.8373 36.4591 22.1996 9.6042
# 4 21.6150 42.3742 36.4591 50.0706 13.9457 12.2997
# 5 18.9192 26.1114 22.1996 13.9457 39.4868 25.3785
# 6 19.2874 14.2847 9.6042 12.2997 25.3785 54.7857
#
#
#
# Elastic Compliance Matrix: (Units=1/GPa)
#
#
# Indices 1 2 3 4 5 6 
#
# 1 0.007268 -0.002578 -0.002924 0.001490 0.000624 -0.001997
# 2 -0.002578 0.028051 -0.004796 -0.016942 -0.010682 0.003186
# 3 -0.002924 -0.004796 0.017812 -0.007024 -0.004888 0.002998
# 4 0.001490 -0.016942 -0.007024 0.038966 0.004279 -0.005606
# 5 0.000624 -0.010682 -0.004888 0.004279 0.045202 -0.018477
# 6 -0.001997 0.003186 0.002998 -0.005606 -0.018477 0.027418
#
#
# Mechanical properties :
#
#
# Convention : Reuss Voigt Hill
#
# Bulk Modulus (GPa) = 30.73565 70.81180 50.77372
# Shear Modulus (GPa) = 25.48989 42.72640 34.10814
#
# Velocity S-wave (km/s) = 3.12448 4.04521 3.61428
# Velocity P-wave (km/s) = 4.97874 6.99560 6.07151
#
# Compressibility (1/GPa) = 0.03253551
#
# Stress axis : x y z
#
# Youngs Moduli (GPa) = 137.59350 35.64928 56.14329
#
# Poissons Ratio (x) = 0.09190 0.16414
# Poissons Ratio (y) = 0.35469 0.26926
# Poissons Ratio (z) = 0.40227 0.17097
#
# Static dielectric constant tensor:
#      x y z
#    x 2.051460 -0.017400 0.068610 
#    y -0.017400 2.211990 -0.002070 
#    z 0.068610 -0.002070 2.143440 
# 
# From -- ./inp_files/210643.got.cif
#   From: 2010.05.17/outbox.cif.g08.bks.cpg/sg2_106_cif.got.tgz:210643.got - 2010.06.03 11:33:40.
