data_PCOD9014663
_publ_section_title
;
Structure prediction by ZEFSAII (Michael W. Deem and Ramdas Pophale) SiO2 
 PCOD9014663
Probable space group: P -1
;
_chemical_formula_sum "Si O2"
_cell_formula_units_Z 14
_cell_length_a 10.975584
_cell_length_b 14.129899
_cell_length_c 7.652156
_cell_angle_alpha 110.796720
_cell_angle_beta 115.519449
_cell_angle_gamma 29.588628
_cell_volume 528.290378
_symmetry_space_group_name_H-M "P -1"
_symmetry_group_IT_number 2
_symmetry_cell_setting 'triclinic'
loop_
_space_group_symop_operation_xyz
x,y,z
-x,-y,-z
loop_
_atom_site_type_symbol
_atom_site_label
_atom_site_fract_x
_atom_site_fract_y
_atom_site_fract_z
Si Si1 0.366152 0.599672 0.219029
Si Si2 0.264363 0.131865 0.570847
Si Si3 0.419427 0.249849 0.348428
Si Si4 0.728404 0.237538 0.392586
Si Si5 0.688652 0.697622 0.070873
Si Si6 0.090998 0.019973 0.925341
Si Si7 0.223987 0.496294 0.692268
O O1 0.571621 0.381473 0.225090
O O2 0.253372 0.685129 0.404354
O O3 0.527349 0.590243 0.230522
O O4 0.106770 0.761175 0.055953
O O5 0.243736 0.238038 0.760750
O O6 0.010069 0.293767 0.402372
O O7 0.500000 0.000000 0.500000
O O8 0.352365 0.974732 0.623037
O O9 0.539536 0.280744 0.397378
O O10 0.269289 0.368219 0.511387
O O11 0.267861 0.323451 0.124543
O O12 0.940447 0.030488 0.302266
O O13 0.804388 0.532870 0.151660
O O14 0.379490 0.875893 0.017729
O O15 0.000000 0.000000 0.000000
#
# Coordination Sequence:
#
# PCOD9014663 Si02
#       7
#     2   2   2   2   2   2   2
#     4  10  21  41  68  97 129 176 216 272 328 393
#     4  12  26  47  72  98 131 180 226 277 340 395
#     4  10  24  46  68 100 134 178 225 278 332 391
#     4   9  22  40  65  97 132 175 220 266 331 392
#     4  11  24  46  68 101 136 177 222 280 329 396
#     4  11  22  40  64  97 138 167 217 267 329 392
#     4  11  24  46  70  98 137 174 227 274 334 397
#
# _framework density 26.500575000000001
#
# number of rings (size 3 to 8) (size 9 to 14) (size 15 to 20)
#    0.000    1.429    2.857    1.286    0.000   11.429 
#    7.714    0.000    0.000    0.000    0.000    0.000 
#    0.000    0.000    0.000    0.000    0.000    0.000 
#
# Total GULP energy -78341.752572 kJ/mol
# GULP energy per Si atom -5595.839469 kJ/mol
# Density = 2.644026 g / cm^3
# Si number density = 26.500575 Si / 1000 Ang^3
#
#
#
# Elastic Constant Matrix: (Units=GPa)
#
#
# Indices 1 2 3 4 5 6 
#
# 1 88.1717 23.0568 25.1819 -12.8917 -14.8706 4.9120
# 2 23.0568 121.2217 30.1584 -32.8657 -12.3131 20.5621
# 3 25.1819 30.1584 119.5164 -15.9995 -10.7484 -1.4679
# 4 -12.8917 -32.8657 -15.9995 53.5545 -0.5791 -12.5097
# 5 -14.8706 -12.3131 -10.7484 -0.5791 41.1596 -5.5208
# 6 4.9120 20.5621 -1.4679 -12.5097 -5.5208 55.0465
#
#
#
# Elastic Compliance Matrix: (Units=1/GPa)
#
#
# Indices 1 2 3 4 5 6 
#
# 1 0.013116 -0.001099 -0.001865 0.001977 0.003955 0.000036
# 2 -0.001099 0.011001 -0.001656 0.005406 0.002188 -0.002607
# 3 -0.001865 -0.001656 0.009578 0.001788 0.001572 0.001604
# 4 0.001977 0.005406 0.001788 0.023891 0.003623 0.003645
# 5 0.003955 0.002188 0.001572 0.003623 0.027165 0.002420
# 6 0.000036 -0.002607 0.001604 0.003645 0.002420 0.020251
#
#
# Mechanical properties :
#
#
# Convention : Reuss Voigt Hill
#
# Bulk Modulus (GPa) = 40.89265 53.96711 47.42988
# Shear Modulus (GPa) = 40.85179 46.65297 43.75238
#
# Velocity S-wave (km/s) = 3.93051 4.20032 4.06765
# Velocity P-wave (km/s) = 6.00524 6.62815 6.32437
#
# Compressibility (1/GPa) = 0.02445427
#
# Stress axis : x y z
#
# Youngs Moduli (GPa) = 76.24425 90.90452 104.40167
#
# Poissons Ratio (x) = 0.09991 0.19475
# Poissons Ratio (y) = 0.08380 0.17287
# Poissons Ratio (z) = 0.14222 0.15052
#
# Static dielectric constant tensor:
#      x y z
#    x 1.994790 -0.016820 -0.002530 
#    y -0.016820 2.056460 -0.028110 
#    z -0.002530 -0.028110 2.334220 
# 
# From -- ./inp_files/273427.got.cif
#   From: 2010.05.17/outbox.cif.g08.bks.cpg/sg2_137_cif.got.tgz:273427.got - 2010.06.03 11:33:40.
