data_PCOD9014380
_publ_section_title
;
Structure prediction by ZEFSAII (Michael W. Deem and Ramdas Pophale) SiO2 
 PCOD9014380
Probable space group: P -1
;
_chemical_formula_sum "Si O2"
_cell_formula_units_Z 16
_cell_length_a 16.277948
_cell_length_b 22.370106
_cell_length_c 8.343025
_cell_angle_alpha 69.502663
_cell_angle_beta 105.076815
_cell_angle_gamma 162.773823
_cell_volume 811.904197
_symmetry_space_group_name_H-M "P -1"
_symmetry_group_IT_number 2
_symmetry_cell_setting 'triclinic'
loop_
_space_group_symop_operation_xyz
x,y,z
-x,-y,-z
loop_
_atom_site_type_symbol
_atom_site_label
_atom_site_fract_x
_atom_site_fract_y
_atom_site_fract_z
Si Si1 0.264495 0.733007 0.355168
Si Si2 0.508476 0.275014 0.163595
Si Si3 0.429153 0.977585 0.312564
Si Si4 0.029973 0.948587 0.001911
Si Si5 0.256504 0.965266 0.438891
Si Si6 0.757225 0.800235 0.689923
Si Si7 0.904429 0.369733 0.971943
Si Si8 0.686855 0.598397 0.371553
O O1 0.209598 0.769140 0.324676
O O2 0.558228 0.927795 0.417553
O O3 0.281617 0.737568 0.170436
O O4 0.000000 0.500000 0.500000
O O5 0.356798 0.109264 0.337874
O O6 0.417174 0.271751 0.223924
O O7 0.830648 0.481240 0.104051
O O8 0.358715 0.169970 0.010507
O O9 0.500000 0.000000 0.500000
O O10 0.340798 0.985928 0.302634
O O11 0.707729 0.182501 0.152383
O O12 0.924784 0.876088 0.833782
O O13 0.846692 0.765749 0.183428
O O14 0.000000 0.000000 0.000000
O O15 0.914273 0.720719 0.478713
O O16 0.518264 0.591291 0.664323
O O17 0.000000 0.000000 0.500000
O O18 0.000000 0.500000 0.000000
O O19 0.500000 0.500000 0.500000
#
# Coordination Sequence:
#
# PCOD9014380 Si02
#       8
#     2   2   2   2   2   2   2   2
#     4  11  22  41  66  91 132 168 216 266 313 387
#     4  10  21  41  67  96 129 166 217 263 322 386
#     4  10  22  42  61  92 129 168 214 261 316 379
#     4   9  20  42  65  94 132 161 216 265 319 387
#     4  10  21  42  63  95 130 168 214 263 321 383
#     4  11  23  44  68  96 129 170 211 269 328 384
#     4  12  22  42  66  95 132 171 212 268 320 373
#     4  11  23  42  68  96 132 165 212 272 320 385
#
# _framework density 19.706759000000002
#
# number of rings (size 3 to 8) (size 9 to 14) (size 15 to 20)
#    0.000    1.500    2.500    3.750    1.750    0.000 
#   18.000    0.000    0.000    0.000    0.000    0.000 
#    0.000    0.000    0.000    0.000    0.000    0.000 
#
# Total GULP energy -89095.774061 kJ/mol
# GULP energy per Si atom -5568.485879 kJ/mol
# Density = 1.966191 g / cm^3
# Si number density = 19.706759 Si / 1000 Ang^3
#
#
#
# Elastic Constant Matrix: (Units=GPa)
#
#
# Indices 1 2 3 4 5 6 
#
# 1 80.3520 58.3393 21.7005 10.5954 -8.4708 -17.0662
# 2 58.3393 165.5092 66.3873 21.7300 -5.6134 -1.3749
# 3 21.7005 66.3873 104.8180 12.1457 3.5262 -5.4902
# 4 10.5954 21.7300 12.1457 38.5086 -1.3385 6.5615
# 5 -8.4708 -5.6134 3.5262 -1.3385 34.0672 -1.4090
# 6 -17.0662 -1.3749 -5.4902 6.5615 -1.4090 43.6984
#
#
#
# Elastic Compliance Matrix: (Units=1/GPa)
#
#
# Indices 1 2 3 4 5 6 
#
# 1 0.019586 -0.006605 0.000790 -0.003162 0.003913 0.008142
# 2 -0.006605 0.010803 -0.005381 -0.002124 0.000504 -0.002580
# 3 0.000790 -0.005381 0.013159 -0.001741 -0.002038 0.001988
# 4 -0.003162 -0.002124 -0.001741 0.029601 -0.000040 -0.005967
# 5 0.003913 0.000504 -0.002038 -0.000040 0.030714 0.002284
# 6 0.008142 -0.002580 0.001988 -0.005967 0.002284 0.027202
#
#
# Mechanical properties :
#
#
# Convention : Reuss Voigt Hill
#
# Bulk Modulus (GPa) = 47.26723 71.50371 59.38547
# Shear Modulus (GPa) = 31.15076 36.87165 34.01120
#
# Velocity S-wave (km/s) = 3.98013 4.33022 4.15886
# Velocity P-wave (km/s) = 6.72007 7.83350 7.29805
#
# Compressibility (1/GPa) = 0.02115631
#
# Stress axis : x y z
#
# Youngs Moduli (GPa) = 51.05616 92.56719 75.99240
#
# Poissons Ratio (x) = 0.61141 -0.06001
# Poissons Ratio (y) = 0.33723 0.40889
# Poissons Ratio (z) = -0.04032 0.49807
#
# Static dielectric constant tensor:
#      x y z
#    x 1.817910 0.023840 -0.019790 
#    y 0.023840 1.744130 0.012460 
#    z -0.019790 0.012460 1.705870 
# 
# From -- ./inp_files/318967.got.cif
#   From: 2010.05.17/outbox.cif.g08.bks.cpg/sg2_160_cif.got.tgz:318967.got - 2010.06.03 11:33:40.
