data_PCOD9014501
_publ_section_title
;
Structure prediction by ZEFSAII (Michael W. Deem and Ramdas Pophale) SiO2 
 PCOD9014501
Probable space group: P -1
;
_chemical_formula_sum "Si O2"
_cell_formula_units_Z 16
_cell_length_a 12.345046
_cell_length_b 10.590216
_cell_length_c 9.045192
_cell_angle_alpha 56.948755
_cell_angle_beta 44.026256
_cell_angle_gamma 72.634589
_cell_volume 679.894525
_symmetry_space_group_name_H-M "P -1"
_symmetry_group_IT_number 2
_symmetry_cell_setting 'triclinic'
loop_
_space_group_symop_operation_xyz
x,y,z
-x,-y,-z
loop_
_atom_site_type_symbol
_atom_site_label
_atom_site_fract_x
_atom_site_fract_y
_atom_site_fract_z
Si Si1 0.808047 0.202948 0.211282
Si Si2 0.052355 0.464456 0.139270
Si Si3 0.158596 0.241922 0.392481
Si Si4 0.459385 0.129169 0.572894
Si Si5 0.817791 0.103064 0.949890
Si Si6 0.730919 0.303479 0.686252
Si Si7 0.846692 0.050877 0.541268
Si Si8 0.615467 0.576291 0.712851
O O1 0.626703 0.172613 0.462356
O O2 0.909493 0.165237 0.274050
O O3 0.852517 0.375058 0.007348
O O4 0.838153 0.102668 0.105843
O O5 0.148584 0.336210 0.189876
O O6 0.894363 0.412775 0.419726
O O7 0.000000 0.500000 0.000000
O O8 0.232132 0.348934 0.385729
O O9 0.987498 0.155231 0.674737
O O10 0.245799 0.100640 0.350229
O O11 0.428614 0.280827 0.423533
O O12 0.500000 0.000000 0.500000
O O13 0.302637 0.053130 0.863440
O O14 0.724016 0.238337 0.901107
O O15 0.745489 0.149693 0.678031
O O16 0.618918 0.428863 0.697522
O O17 0.000000 0.000000 0.500000
O O18 0.500000 0.500000 0.000000
#
# Coordination Sequence:
#
# PCOD9014501 Si02
#       8
#     2   2   2   2   2   2   2   2
#     4  11  22  39  70  96 138 184 228 285 351 414
#     4  11  20  39  66  96 139 177 226 287 342 408
#     4  11  23  41  72 101 133 186 235 286 353 410
#     4  10  22  42  64  99 136 179 227 286 345 409
#     4  10  21  41  68 102 136 174 241 288 341 408
#     4  11  24  44  68 104 142 179 229 292 348 407
#     4  12  23  46  66 101 144 178 228 286 347 416
#     4  12  25  45  72 103 143 181 233 293 349 412
#
# _framework density 23.533061
#
# number of rings (size 3 to 8) (size 9 to 14) (size 15 to 20)
#    0.000    1.000    3.750    5.250    0.000    5.000 
#    2.250    3.125    0.000    0.000    0.000    0.000 
#    0.000    0.000    0.000    0.000    0.000    0.000 
#
# Total GULP energy -89107.998177 kJ/mol
# GULP energy per Si atom -5569.249886 kJ/mol
# Density = 2.347950 g / cm^3
# Si number density = 23.533061 Si / 1000 Ang^3
#
#
#
# Elastic Constant Matrix: (Units=GPa)
#
#
# Indices 1 2 3 4 5 6 
#
# 1 73.6976 15.4890 34.7368 -6.3025 25.7589 -11.9544
# 2 15.4890 142.2886 24.8698 -18.1303 21.6810 -18.0008
# 3 34.7368 24.8698 126.3235 -32.2341 5.3290 -15.3143
# 4 -6.3025 -18.1303 -32.2341 35.9519 -3.7216 14.7365
# 5 25.7589 21.6810 5.3290 -3.7216 43.6332 -9.5602
# 6 -11.9544 -18.0008 -15.3143 14.7365 -9.5602 28.9393
#
#
#
# Elastic Compliance Matrix: (Units=1/GPa)
#
#
# Indices 1 2 3 4 5 6 
#
# 1 0.020361 0.000458 -0.005805 -0.004245 -0.010990 0.004155
# 2 0.000458 0.008252 -0.000736 0.002113 -0.003509 0.002697
# 3 -0.005805 -0.000736 0.011989 0.009899 0.003054 -0.000544
# 4 -0.004245 0.002113 0.009899 0.044283 0.000146 -0.017703
# 5 -0.010990 -0.003509 0.003054 0.000146 0.031969 0.005380
# 6 0.004155 0.002697 -0.000544 -0.017703 0.005380 0.048453
#
#
# Mechanical properties :
#
#
# Convention : Reuss Voigt Hill
#
# Bulk Modulus (GPa) = 35.16892 54.72231 44.94561
# Shear Modulus (GPa) = 26.74484 39.51914 33.13199
#
# Velocity S-wave (km/s) = 3.37483 4.10238 3.75626
# Velocity P-wave (km/s) = 5.49207 6.76337 6.16060
#
# Compressibility (1/GPa) = 0.02843420
#
# Stress axis : x y z
#
# Youngs Moduli (GPa) = 49.11294 121.18272 83.41262
#
# Poissons Ratio (x) = -0.05544 0.48421
# Poissons Ratio (y) = -0.02247 0.06142
# Poissons Ratio (z) = 0.28510 0.08923
#
# Static dielectric constant tensor:
#      x y z
#    x 2.106570 0.167320 -0.057050 
#    y 0.167320 2.365210 -0.002100 
#    z -0.057050 -0.002100 1.873260 
# 
# From -- ./inp_files/261429.got.cif
#   From: 2010.05.17/outbox.cif.g08.bks.cpg/sg2_131_cif.got.tgz:261429.got - 2010.06.03 11:33:40.
