data_PCOD9014320
_publ_section_title
;
Structure prediction by ZEFSAII (Michael W. Deem and Ramdas Pophale) SiO2 
 PCOD9014320
Probable space group: P -1
;
_chemical_formula_sum "Si O2"
_cell_formula_units_Z 14
_cell_length_a 15.103874
_cell_length_b 6.714777
_cell_length_c 11.167618
_cell_angle_alpha 103.588794
_cell_angle_beta 57.457593
_cell_angle_gamma 135.941350
_cell_volume 641.359952
_symmetry_space_group_name_H-M "P -1"
_symmetry_group_IT_number 2
_symmetry_cell_setting 'triclinic'
loop_
_space_group_symop_operation_xyz
x,y,z
-x,-y,-z
loop_
_atom_site_type_symbol
_atom_site_label
_atom_site_fract_x
_atom_site_fract_y
_atom_site_fract_z
Si Si1 0.068407 0.708098 0.863130
Si Si2 0.797564 0.435508 0.846881
Si Si3 0.594069 0.833058 0.014766
Si Si4 0.314872 0.612030 0.319440
Si Si5 0.340375 0.989298 0.554895
Si Si6 0.411066 0.445958 0.407139
Si Si7 0.289867 0.291769 0.900264
O O1 0.946472 0.573258 0.828183
O O2 0.208353 0.774566 0.717188
O O3 0.146850 0.036403 0.885817
O O4 0.000000 0.500000 0.000000
O O5 0.806936 0.524249 0.715895
O O6 0.728304 0.524272 0.988800
O O7 0.681380 0.080257 0.885515
O O8 0.476069 0.816195 0.163081
O O9 0.709393 0.899243 0.035321
O O10 0.500000 0.500000 0.000000
O O11 0.307424 0.393150 0.371215
O O12 0.324998 0.805807 0.435042
O O13 0.323516 0.185143 0.528467
O O14 0.500256 0.245560 0.544202
O O15 0.549864 0.508207 0.257557
#
# Coordination Sequence:
#
# PCOD9014320 Si02
#       7
#     2   2   2   2   2   2   2
#     4  11  24  47  65  91 131 181 220 263 311 391
#     4  12  24  39  67  97 131 174 214 264 329 382
#     4  11  22  38  63  99 134 161 210 268 327 380
#     4  11  23  36  66  98 125 165 209 269 330 378
#     4  10  22  43  64  91 129 172 215 263 323 378
#     4   9  21  41  65  95 130 163 213 272 319 378
#     4  10  21  41  67  94 128 170 218 266 313 382
#
# _framework density 21.828617000000001
#
# number of rings (size 3 to 8) (size 9 to 14) (size 15 to 20)
#    0.000    1.429    2.857    2.143    4.000    0.571 
#   10.286    0.714    0.000    0.000    0.000    0.000 
#    0.000    0.000    0.000    0.000    0.000    0.000 
#
# Total GULP energy -78179.267470 kJ/mol
# GULP energy per Si atom -5584.233391 kJ/mol
# Density = 2.177893 g / cm^3
# Si number density = 21.828617 Si / 1000 Ang^3
#
#
#
# Elastic Constant Matrix: (Units=GPa)
#
#
# Indices 1 2 3 4 5 6 
#
# 1 108.5180 24.7521 14.3655 -9.5252 31.2073 12.1534
# 2 24.7521 90.7658 49.0918 14.3953 -1.6582 10.8676
# 3 14.3655 49.0918 93.9433 10.6422 13.4557 2.3878
# 4 -9.5252 14.3953 10.6422 41.2603 -9.5042 8.4772
# 5 31.2073 -1.6582 13.4557 -9.5042 33.8616 3.4505
# 6 12.1534 10.8676 2.3878 8.4772 3.4505 19.8493
#
#
#
# Elastic Compliance Matrix: (Units=1/GPa)
#
#
# Indices 1 2 3 4 5 6 
#
# 1 0.014851 -0.005335 0.002297 0.002638 -0.013589 -0.005213
# 2 -0.005335 0.019428 -0.010477 -0.001415 0.010379 -0.007310
# 3 0.002297 -0.010477 0.017747 -0.004277 -0.011496 0.006020
# 4 0.002638 -0.001415 -0.004277 0.031902 0.009747 -0.015645
# 5 -0.013589 0.010379 -0.011496 0.009747 0.050782 -0.008970
# 6 -0.005213 -0.007310 0.006020 -0.015645 -0.008970 0.065090
#
#
# Mechanical properties :
#
#
# Convention : Reuss Voigt Hill
#
# Bulk Modulus (GPa) = 40.00722 52.18290 46.09506
# Shear Modulus (GPa) = 21.26187 32.66210 26.96198
#
# Velocity S-wave (km/s) = 3.12434 3.87240 3.51831
# Velocity P-wave (km/s) = 5.60205 6.62960 6.13737
#
# Compressibility (1/GPa) = 0.02499549
#
# Stress axis : x y z
#
# Youngs Moduli (GPa) = 67.33474 51.47131 56.34862
#
# Poissons Ratio (x) = 0.27459 -0.12942
# Poissons Ratio (y) = 0.35921 0.59039
# Poissons Ratio (z) = -0.15466 0.53929
#
# Static dielectric constant tensor:
#      x y z
#    x 1.869200 0.032460 0.027550 
#    y 0.032460 1.812780 0.034610 
#    z 0.027550 0.034610 1.797840 
# 
# From -- ./inp_files/428330.got.cif
#   From: 2010.05.17/outbox.cif.g08.bks.cpg/sg2_215_cif.got.tgz:428330.got - 2010.06.03 11:33:40.
