data_PCOD9014812
_publ_section_title
;
Structure prediction by ZEFSAII (Michael W. Deem and Ramdas Pophale) SiO2 
 PCOD9014812
Probable space group: P -1
;
_chemical_formula_sum "Si O2"
_cell_formula_units_Z 14
_cell_length_a 8.581668
_cell_length_b 25.393006
_cell_length_c 12.368258
_cell_angle_alpha 149.618992
_cell_angle_beta 129.756827
_cell_angle_gamma 30.438064
_cell_volume 630.804973
_symmetry_space_group_name_H-M "P -1"
_symmetry_group_IT_number 2
_symmetry_cell_setting 'triclinic'
loop_
_space_group_symop_operation_xyz
x,y,z
-x,-y,-z
loop_
_atom_site_type_symbol
_atom_site_label
_atom_site_fract_x
_atom_site_fract_y
_atom_site_fract_z
Si Si1 0.209590 0.405174 0.670136
Si Si2 0.642504 0.930592 0.319313
Si Si3 0.496634 0.625445 0.704972
Si Si4 0.852202 0.039312 0.885684
Si Si5 0.565866 0.390144 0.959325
Si Si6 0.462728 0.652894 0.480565
Si Si7 0.600144 0.156178 0.585278
O O1 0.324677 0.466469 0.884912
O O2 0.259909 0.396335 0.549487
O O3 0.459007 0.222018 0.516792
O O4 0.830293 0.529560 0.741131
O O5 0.496482 0.881202 0.123687
O O6 0.500000 0.000000 0.500000
O O7 0.491145 0.093589 0.479139
O O8 0.044340 0.770537 0.192273
O O9 0.500000 0.500000 0.500000
O O10 0.500024 0.642005 0.606014
O O11 0.200988 0.829225 0.966459
O O12 0.123605 0.844088 0.619511
O O13 0.000000 0.000000 0.000000
O O14 0.483137 0.524975 0.228599
O O15 0.489825 0.315207 0.861548
O O16 0.000000 0.000000 0.500000
#
# Coordination Sequence:
#
# PCOD9014812 Si02
#       7
#     2   2   2   2   2   2   2
#     4  10  21  41  69  93 130 170 218 262 323 389
#     4  11  21  40  68  96 132 170 213 272 325 375
#     4  11  26  46  64  96 133 168 218 277 325 386
#     4  10  25  41  64  91 132 168 217 265 328 382
#     4   9  21  40  67  96 128 167 223 259 320 385
#     4  11  22  43  69  94 128 180 215 261 327 394
#     4   8  20  38  63  97 135 160 216 266 316 379
#
# _framework density 22.193864999999999
#
# number of rings (size 3 to 8) (size 9 to 14) (size 15 to 20)
#    0.857    1.143    0.000    2.571    4.000    3.429 
#    2.571    2.143    0.000    0.000    0.000    0.000 
#    0.000    0.000    0.000    0.000    0.000    0.000 
#
# Total GULP energy -77967.187602 kJ/mol
# GULP energy per Si atom -5569.084829 kJ/mol
# Density = 2.214335 g / cm^3
# Si number density = 22.193865 Si / 1000 Ang^3
#
#
#
# Elastic Constant Matrix: (Units=GPa)
#
#
# Indices 1 2 3 4 5 6 
#
# 1 68.0761 23.2353 38.1769 0.9183 29.1895 14.4565
# 2 23.2353 110.5674 32.5579 3.1097 6.6556 -7.4885
# 3 38.1769 32.5579 129.0943 17.2023 31.5719 0.0246
# 4 0.9183 3.1097 17.2023 32.4043 10.7403 8.6512
# 5 29.1895 6.6556 31.5719 10.7403 40.0660 4.4107
# 6 14.4565 -7.4885 0.0246 8.6512 4.4107 43.0236
#
#
#
# Elastic Compliance Matrix: (Units=1/GPa)
#
#
# Indices 1 2 3 4 5 6 
#
# 1 0.028791 -0.004723 -0.004228 0.010926 -0.018601 -0.010784
# 2 -0.004723 0.010672 -0.001832 -0.001927 0.003243 0.003501
# 3 -0.004228 -0.001832 0.011182 -0.004855 -0.004403 0.002523
# 4 0.010926 -0.001927 -0.004855 0.040680 -0.013530 -0.010797
# 5 -0.018601 0.003243 -0.004403 -0.013530 0.044521 0.004973
# 6 -0.010784 0.003501 0.002523 -0.010797 0.004973 0.029136
#
#
# Mechanical properties :
#
#
# Convention : Reuss Voigt Hill
#
# Bulk Modulus (GPa) = 34.38889 55.07533 44.73211
# Shear Modulus (GPa) = 25.47911 37.34996 31.41454
#
# Velocity S-wave (km/s) = 3.39193 4.10676 3.76634
# Velocity P-wave (km/s) = 5.55596 6.88162 6.25401
#
# Compressibility (1/GPa) = 0.02907916
#
# Stress axis : x y z
#
# Youngs Moduli (GPa) = 34.73347 93.70041 89.43099
#
# Poissons Ratio (x) = 0.44258 0.37810
# Poissons Ratio (y) = 0.16406 0.16381
# Poissons Ratio (z) = 0.14685 0.17163
#
# Static dielectric constant tensor:
#      x y z
#    x 1.876300 0.017480 -0.017790 
#    y 0.017480 1.845300 0.019430 
#    z -0.017790 0.019430 1.964900 
# 
# From -- ./inp_files/508869.got.cif
#   From: 2010.05.17/outbox.cif.g08.bks.cpg/sg2_255_cif.got.tgz:508869.got - 2010.06.03 11:33:40.
