data_PCOD9014524
_publ_section_title
;
Structure prediction by ZEFSAII (Michael W. Deem and Ramdas Pophale) SiO2 
 PCOD9014524
Probable space group: P -1
;
_chemical_formula_sum "Si O2"
_cell_formula_units_Z 16
_cell_length_a 14.377537
_cell_length_b 5.656183
_cell_length_c 10.459562
_cell_angle_alpha 53.711093
_cell_angle_beta 101.766824
_cell_angle_gamma 80.413397
_cell_volume 625.160297
_symmetry_space_group_name_H-M "P -1"
_symmetry_group_IT_number 2
_symmetry_cell_setting 'triclinic'
loop_
_space_group_symop_operation_xyz
x,y,z
-x,-y,-z
loop_
_atom_site_type_symbol
_atom_site_label
_atom_site_fract_x
_atom_site_fract_y
_atom_site_fract_z
Si Si1 0.310051 0.226817 0.286277
Si Si2 0.070867 0.805312 0.695843
Si Si3 0.289382 0.583038 0.690793
Si Si4 0.239378 0.692108 0.358206
Si Si5 0.401897 0.925218 0.906786
Si Si6 0.480415 0.746366 0.725939
Si Si7 0.202652 0.844336 0.912613
Si Si8 0.917032 0.848219 0.990467
O O1 0.260703 0.421492 0.342355
O O2 0.427096 0.200766 0.336956
O O3 0.310859 0.899218 0.330495
O O4 0.241742 0.479460 0.080447
O O5 0.185408 0.688275 0.706565
O O6 0.095241 0.988512 0.763703
O O7 0.044008 0.522529 0.845524
O O8 0.000000 0.000000 0.500000
O O9 0.250568 0.545869 0.549021
O O10 0.367765 0.771536 0.639246
O O11 0.362596 0.245087 0.870764
O O12 0.131260 0.977386 0.210902
O O13 0.458818 0.947739 0.786200
O O14 0.297058 0.879542 0.855990
O O15 0.464479 0.617158 0.099926
O O16 0.180843 0.019184 0.985663
O O17 0.000000 0.000000 0.000000
#
# Coordination Sequence:
#
# PCOD9014524 Si02
#       8
#     2   2   2   2   2   2   2   2
#     4  10  24  46  73 104 150 197 249 293 378 449
#     4  12  27  45  74 107 144 192 253 319 375 444
#     4  12  26  43  71 107 150 188 252 312 370 440
#     4  11  27  47  73 106 155 202 240 312 378 452
#     4  10  21  41  68 104 142 187 245 299 380 436
#     4  10  23  40  73 106 141 199 243 304 364 452
#     4  10  21  44  71  98 138 186 242 305 368 450
#     4  11  26  48  74 101 142 198 250 308 382 456
#
# _framework density 25.593434999999999
#
# number of rings (size 3 to 8) (size 9 to 14) (size 15 to 20)
#    0.000    1.250    3.750    0.375    5.250    5.000 
#    0.000    0.000    0.000    0.000    0.000    0.000 
#    0.000    0.000    0.000    0.000    0.000    0.000 
#
# Total GULP energy -89158.427149 kJ/mol
# GULP energy per Si atom -5572.401697 kJ/mol
# Density = 2.553518 g / cm^3
# Si number density = 25.593435 Si / 1000 Ang^3
#
#
#
# Elastic Constant Matrix: (Units=GPa)
#
#
# Indices 1 2 3 4 5 6 
#
# 1 108.5574 23.3330 9.7864 4.1608 16.8676 9.3620
# 2 23.3330 57.6619 22.0843 -8.7462 9.5284 7.9058
# 3 9.7864 22.0843 103.1079 2.5108 32.0180 17.3310
# 4 4.1608 -8.7462 2.5108 42.5337 2.1134 8.1425
# 5 16.8676 9.5284 32.0180 2.1134 35.1885 6.8408
# 6 9.3620 7.9058 17.3310 8.1425 6.8408 46.8086
#
#
#
# Elastic Compliance Matrix: (Units=1/GPa)
#
#
# Indices 1 2 3 4 5 6 
#
# 1 0.010974 -0.004326 0.001781 -0.001598 -0.005408 -0.001055
# 2 -0.004326 0.021795 -0.003976 0.005585 -0.000098 -0.002301
# 3 0.001781 -0.003976 0.014863 -0.000623 -0.012635 -0.003233
# 4 -0.001598 0.005585 -0.000623 0.025804 -0.000804 -0.004765
# 5 -0.005408 -0.000098 -0.012635 -0.000804 0.042644 -0.000316
# 6 -0.001055 -0.002301 -0.003233 -0.004765 -0.000316 0.024035
#
#
# Mechanical properties :
#
#
# Convention : Reuss Voigt Hill
#
# Bulk Modulus (GPa) = 28.91229 42.19274 35.55252
# Shear Modulus (GPa) = 30.36034 39.18106 34.77070
#
# Velocity S-wave (km/s) = 3.44794 3.91692 3.68989
# Velocity P-wave (km/s) = 5.21271 6.08095 5.66349
#
# Compressibility (1/GPa) = 0.03458736
#
# Stress axis : x y z
#
# Youngs Moduli (GPa) = 91.12775 45.88236 67.27928
#
# Poissons Ratio (x) = 0.19851 -0.11980
# Poissons Ratio (y) = 0.39426 0.26753
# Poissons Ratio (z) = -0.16227 0.18245
#
# Static dielectric constant tensor:
#      x y z
#    x 2.001770 0.035820 -0.031470 
#    y 0.035820 2.172600 0.021290 
#    z -0.031470 0.021290 2.090400 
# 
# From -- ./inp_files/46249.got.cif
#   From: 2010.05.17/outbox.cif.g08.bks.cpg/sg2_24_cif.got.tgz:46249.got - 2010.06.03 11:33:40.
