data_PCOD9014702
_publ_section_title
;
Structure prediction by ZEFSAII (Michael W. Deem and Ramdas Pophale) SiO2 
 PCOD9014702
Probable space group: P -1
;
_chemical_formula_sum "Si O2"
_cell_formula_units_Z 15
_cell_length_a 6.623005
_cell_length_b 15.735287
_cell_length_c 8.259990
_cell_angle_alpha 119.676124
_cell_angle_beta 105.767973
_cell_angle_gamma 57.444468
_cell_volume 630.372570
_symmetry_space_group_name_H-M "P -1"
_symmetry_group_IT_number 2
_symmetry_cell_setting 'triclinic'
loop_
_space_group_symop_operation_xyz
x,y,z
-x,-y,-z
loop_
_atom_site_type_symbol
_atom_site_label
_atom_site_fract_x
_atom_site_fract_y
_atom_site_fract_z
Si Si1 0.111854 0.531692 0.901415
Si Si2 0.010571 0.276463 0.407265
Si Si3 0.673374 0.222341 0.079881
Si Si4 0.377815 0.668120 0.166539
Si Si5 0.974846 0.856952 0.417371
Si Si6 0.946014 0.975875 0.225392
Si Si7 0.000000 0.500000 0.500000
Si Si8 0.545411 0.875929 0.862537
O O1 0.367325 0.425228 0.804208
O O2 0.971622 0.563834 0.731932
O O3 0.191787 0.620323 0.065839
O O4 0.000000 0.500000 0.000000
O O5 0.229510 0.192802 0.263949
O O6 0.773085 0.274607 0.285984
O O7 0.075877 0.221200 0.548048
O O8 0.978186 0.398959 0.496131
O O9 0.463074 0.196507 0.059355
O O10 0.593012 0.299492 0.977728
O O11 0.898757 0.105242 0.959494
O O12 0.253991 0.777178 0.353686
O O13 0.873796 0.902460 0.259100
O O14 0.905294 0.973194 0.602934
O O15 0.712263 0.089342 0.238575
O O16 0.500000 0.000000 0.000000
#
# Coordination Sequence:
#
# PCOD9014702 Si02
#       8
#     2   2   2   2   2   2   1   2
#     4  11  25  48  72 103 142 184 244 304 350 422
#     4  12  25  44  67 102 142 184 241 297 353 423
#     4  11  22  44  69  94 146 182 225 294 355 429
#     4  10  24  46  70  98 138 193 229 285 373 416
#     4  10  22  43  68  97 139 181 223 292 353 432
#     4  10  21  41  68  99 137 177 228 281 362 430
#     4  12  28  46  72 106 142 192 248 298 348 428
#     4  12  24  39  71 105 133 183 235 286 366 430
#
# _framework density 23.795452000000001
#
# number of rings (size 3 to 8) (size 9 to 14) (size 15 to 20)
#    0.000    1.067    4.000    2.000    3.733    0.533 
#    2.400    2.667    0.000    0.000    0.000    0.000 
#    0.000    0.000    0.000    0.000    0.000    0.000 
#
# Total GULP energy -83507.390338 kJ/mol
# GULP energy per Si atom -5567.159356 kJ/mol
# Density = 2.374129 g / cm^3
# Si number density = 23.795452 Si / 1000 Ang^3
#
#
#
# Elastic Constant Matrix: (Units=GPa)
#
#
# Indices 1 2 3 4 5 6 
#
# 1 59.9098 26.0026 29.3291 -3.9643 -9.1912 37.7168
# 2 26.0026 118.6813 17.0322 2.6421 -7.2116 48.7929
# 3 29.3291 17.0322 76.6941 2.0785 -1.7584 16.1953
# 4 -3.9643 2.6421 2.0785 43.0580 17.0772 -18.8021
# 5 -9.1912 -7.2116 -1.7584 17.0772 23.9998 -6.1870
# 6 37.7168 48.7929 16.1953 -18.8021 -6.1870 49.5923
#
#
#
# Elastic Compliance Matrix: (Units=1/GPa)
#
#
# Indices 1 2 3 4 5 6 
#
# 1 0.078064 0.031565 -0.012274 -0.060930 0.055384 -0.102610
# 2 0.031565 0.031914 -0.003433 -0.040842 0.033582 -0.065580
# 3 -0.012274 -0.003433 0.016553 0.003894 -0.005193 0.008136
# 4 -0.060930 -0.040842 0.003894 0.100212 -0.077343 0.113596
# 5 0.055384 0.033582 -0.005193 -0.077343 0.104484 -0.089755
# 6 -0.102610 -0.065580 0.008136 0.113596 -0.089755 0.191940
#
#
# Mechanical properties :
#
#
# Convention : Reuss Voigt Hill
#
# Bulk Modulus (GPa) = 6.31926 44.44587 25.38256
# Shear Modulus (GPa) = 9.18780 35.52477 22.35628
#
# Velocity S-wave (km/s) = 1.96711 3.86803 3.06848
# Velocity P-wave (km/s) = 2.79657 6.21834 4.82123
#
# Compressibility (1/GPa) = 0.15824643
#
# Stress axis : x y z
#
# Youngs Moduli (GPa) = 12.80996 31.33381 60.41372
#
# Poissons Ratio (x) = -0.98906 0.74153
# Poissons Ratio (y) = -0.40435 0.20742
# Poissons Ratio (z) = 0.15723 0.10758
#
# Static dielectric constant tensor:
#      x y z
#    x 1.947370 0.002120 0.038130 
#    y 0.002120 1.953610 -0.037160 
#    z 0.038130 -0.037160 1.874400 
# 
# From -- ./inp_files/134467.got.cif
#   From: 2010.05.17/outbox.cif.g08.bks.cpg/sg2_68_cif.got.tgz:134467.got - 2010.06.03 11:33:40.
