data_PCOD9014951
_publ_section_title
;
Structure prediction by ZEFSAII (Michael W. Deem and Ramdas Pophale) SiO2 
 PCOD9014951
Probable space group: P -1
;
_chemical_formula_sum "Si O2"
_cell_formula_units_Z 14
_cell_length_a 7.317184
_cell_length_b 4.982087
_cell_length_c 17.922243
_cell_angle_alpha 103.282915
_cell_angle_beta 117.014245
_cell_angle_gamma 71.687518
_cell_volume 549.655672
_symmetry_space_group_name_H-M "P -1"
_symmetry_group_IT_number 2
_symmetry_cell_setting 'triclinic'
loop_
_space_group_symop_operation_xyz
x,y,z
-x,-y,-z
loop_
_atom_site_type_symbol
_atom_site_label
_atom_site_fract_x
_atom_site_fract_y
_atom_site_fract_z
Si Si1 0.024028 0.618558 0.929846
Si Si2 0.780028 0.487982 0.755800
Si Si3 0.276477 0.008921 0.921638
Si Si4 0.443124 0.212147 0.617820
Si Si5 0.060052 0.080513 0.599637
Si Si6 0.955055 0.142920 0.256558
Si Si7 0.700093 0.633714 0.553451
O O1 0.186968 0.341686 0.908729
O O2 0.800374 0.640716 0.847684
O O3 0.127611 0.879565 0.944027
O O4 0.000000 0.500000 0.000000
O O5 0.556714 0.458469 0.679133
O O6 0.895973 0.157328 0.761243
O O7 0.926287 0.635197 0.741753
O O8 0.257844 0.843555 0.829831
O O9 0.500000 0.000000 0.000000
O O10 0.277793 0.301648 0.525231
O O11 0.295311 0.131447 0.648316
O O12 0.612068 0.931555 0.600013
O O13 0.000000 0.000000 0.500000
O O14 0.883313 0.371289 0.596975
O O15 0.054420 0.872571 0.655995
O O16 0.500000 0.500000 0.500000
#
# Coordination Sequence:
#
# PCOD9014951 Si02
#       7
#     2   2   2   2   2   2   2
#     4  10  21  41  70 106 140 182 232 291 353 441
#     4  10  24  45  72  97 143 199 231 291 382 429
#     4  10  21  42  71 104 140 188 228 285 371 428
#     4  11  26  44  73 105 138 193 249 308 366 435
#     4  12  26  45  73 108 142 190 257 308 359 434
#     4  10  25  45  70  98 147 193 236 297 366 441
#     4  11  24  46  72  99 145 189 242 310 380 423
#
# _framework density 25.470492
#
# number of rings (size 3 to 8) (size 9 to 14) (size 15 to 20)
#    0.000    1.429    1.429    2.143    6.000    2.286 
#    0.000    1.429    0.000    0.000    0.000    0.000 
#    0.000    0.000    0.000    0.000    0.000    0.000 
#
# Total GULP energy -78133.945231 kJ/mol
# GULP energy per Si atom -5580.996088 kJ/mol
# Density = 2.541252 g / cm^3
# Si number density = 25.470492 Si / 1000 Ang^3
#
#
#
# Elastic Constant Matrix: (Units=GPa)
#
#
# Indices 1 2 3 4 5 6 
#
# 1 84.8725 45.2922 46.8044 5.8774 11.8781 33.5842
# 2 45.2922 159.3464 38.1077 3.2562 12.6617 30.3480
# 3 46.8044 38.1077 200.5469 7.0701 2.1865 26.6616
# 4 5.8774 3.2562 7.0701 36.4425 12.8696 7.9526
# 5 11.8781 12.6617 2.1865 12.8696 36.6052 -3.4376
# 6 33.5842 30.3480 26.6616 7.9526 -3.4376 49.3656
#
#
#
# Elastic Compliance Matrix: (Units=1/GPa)
#
#
# Indices 1 2 3 4 5 6 
#
# 1 0.019986 -0.002254 -0.002690 0.002748 -0.007613 -0.011731
# 2 -0.002254 0.007900 -0.000536 0.001519 -0.002830 -0.003475
# 3 -0.002690 -0.000536 0.005841 -0.000799 0.000915 -0.000802
# 4 0.002748 0.001519 -0.000799 0.033931 -0.014127 -0.008822
# 5 -0.007613 -0.002830 0.000915 -0.014127 0.036737 0.011258
# 6 -0.011731 -0.003475 -0.000802 -0.008822 0.011258 0.033013
#
#
# Mechanical properties :
#
#
# Convention : Reuss Voigt Hill
#
# Bulk Modulus (GPa) = 43.92486 78.35272 61.13879
# Shear Modulus (GPa) = 32.05996 45.45344 38.75670
#
# Velocity S-wave (km/s) = 3.55168 4.22898 3.90504
# Velocity P-wave (km/s) = 5.83970 7.39423 6.66246
#
# Compressibility (1/GPa) = 0.02276615
#
# Stress axis : x y z
#
# Youngs Moduli (GPa) = 50.03471 126.57789 171.20529
#
# Poissons Ratio (x) = 0.28537 0.46061
# Poissons Ratio (y) = 0.11280 0.09172
# Poissons Ratio (z) = 0.13461 0.06781
#
# Static dielectric constant tensor:
#      x y z
#    x 2.093650 0.069090 -0.057990 
#    y 0.069090 2.086920 -0.016580 
#    z -0.057990 -0.016580 2.339920 
# 
# From -- ./inp_files/112194.got.cif
#   From: 2010.05.17/outbox.cif.g08.bks.cpg/sg2_57_cif.got.tgz:112194.got - 2010.06.03 11:33:40.
