data_PCOD9014493
_publ_section_title
;
Structure prediction by ZEFSAII (Michael W. Deem and Ramdas Pophale) SiO2 
 PCOD9014493
Probable space group: P -1
;
_chemical_formula_sum "Si O2"
_cell_formula_units_Z 12
_cell_length_a 11.180600
_cell_length_b 11.747478
_cell_length_c 9.019000
_cell_angle_alpha 44.688056
_cell_angle_beta 103.423985
_cell_angle_gamma 67.706891
_cell_volume 490.619969
_symmetry_space_group_name_H-M "P -1"
_symmetry_group_IT_number 2
_symmetry_cell_setting 'triclinic'
loop_
_space_group_symop_operation_xyz
x,y,z
-x,-y,-z
loop_
_atom_site_type_symbol
_atom_site_label
_atom_site_fract_x
_atom_site_fract_y
_atom_site_fract_z
Si Si1 0.384172 0.838656 0.535129
Si Si2 0.521603 0.115411 0.770819
Si Si3 0.214678 0.647124 0.024942
Si Si4 0.067929 0.279854 0.620585
Si Si5 0.888794 0.773169 0.655759
Si Si6 0.926613 0.110538 0.711725
O O1 0.407947 0.967386 0.307826
O O2 0.597535 0.523870 0.871508
O O3 0.223876 0.872277 0.399988
O O4 0.316869 0.973061 0.550106
O O5 0.311435 0.432087 0.384006
O O6 0.500000 0.000000 0.000000
O O7 0.718799 0.008148 0.983766
O O8 0.043505 0.748291 0.779906
O O9 0.116351 0.898193 0.849687
O O10 0.000000 0.500000 0.500000
O O11 0.130156 0.248919 0.499807
O O12 0.881966 0.347848 0.488229
O O13 0.000000 0.500000 0.000000
O O14 0.000000 0.000000 0.000000
#
# Coordination Sequence:
#
# PCOD9014493 Si02
#       6
#     2   2   2   2   2   2
#     4   9  22  43  71  98 134 191 225 286 355 402
#     4  10  21  41  68 101 141 174 237 286 336 409
#     4   9  23  44  69 102 135 187 231 287 352 406
#     4  12  27  44  69 107 137 182 236 292 344 420
#     4  11  23  44  70  98 145 185 227 288 356 412
#     4  11  22  44  73  99 142 182 230 292 354 410
#
# _framework density 24.458850000000002
#
# number of rings (size 3 to 8) (size 9 to 14) (size 15 to 20)
#    1.000    0.667    1.667    2.000    4.667    6.000 
#    3.000    1.667    0.000    0.000    0.000    0.000 
#    0.000    0.000    0.000    0.000    0.000    0.000 
#
# Total GULP energy -66811.017691 kJ/mol
# GULP energy per Si atom -5567.584808 kJ/mol
# Density = 2.440318 g / cm^3
# Si number density = 24.458850 Si / 1000 Ang^3
#
#
#
# Elastic Constant Matrix: (Units=GPa)
#
#
# Indices 1 2 3 4 5 6 
#
# 1 98.3869 59.3799 11.1584 -7.2941 -3.6160 1.9068
# 2 59.3799 216.7253 39.3975 1.9197 6.0445 -5.1758
# 3 11.1584 39.3975 81.0917 12.3127 -3.8034 -6.1386
# 4 -7.2941 1.9197 12.3127 34.9733 -9.7815 0.6821
# 5 -3.6160 6.0445 -3.8034 -9.7815 36.0356 1.0123
# 6 1.9068 -5.1758 -6.1386 0.6821 1.0123 39.5251
#
#
#
# Elastic Compliance Matrix: (Units=1/GPa)
#
#
# Indices 1 2 3 4 5 6 
#
# 1 0.012793 -0.003544 -0.000596 0.003913 0.002915 -0.001316
# 2 -0.003544 0.006095 -0.002395 -0.000763 -0.001856 0.000658
# 3 -0.000596 -0.002395 0.014515 -0.005015 0.000455 0.002044
# 4 0.003913 -0.000763 -0.005015 0.033835 0.009228 -0.001888
# 5 0.002915 -0.001856 0.000455 0.009228 0.030943 -0.001265
# 6 -0.001316 0.000658 0.002044 -0.001888 -0.001265 0.025832
#
#
# Mechanical properties :
#
#
# Convention : Reuss Voigt Hill
#
# Bulk Modulus (GPa) = 49.17976 68.45284 58.81630
# Shear Modulus (GPa) = 34.75594 41.19133 37.97363
#
# Velocity S-wave (km/s) = 3.77370 4.10824 3.94452
# Velocity P-wave (km/s) = 6.25608 7.10994 6.69663
#
# Compressibility (1/GPa) = 0.02033357
#
# Stress axis : x y z
#
# Youngs Moduli (GPa) = 78.16545 164.07355 68.89513
#
# Poissons Ratio (x) = 0.58153 0.04103
# Poissons Ratio (y) = 0.27705 0.16499
# Poissons Ratio (z) = 0.04655 0.39293
#
# Static dielectric constant tensor:
#      x y z
#    x 2.151640 -0.036010 -0.012660 
#    y -0.036010 1.939420 0.011040 
#    z -0.012660 0.011040 2.003050 
# 
# From -- ./inp_files/256984.got.cif
#   From: 2010.05.17/outbox.cif.g08.bks.cpg/sg2_129_cif.got.tgz:256984.got - 2010.06.03 11:33:40.
