data_PCOD9014073
_publ_section_title
;
Structure prediction by ZEFSAII (Michael W. Deem and Ramdas Pophale) SiO2 
 PCOD9014073
Probable space group: P -1
;
_chemical_formula_sum "Si O2"
_cell_formula_units_Z 14
_cell_length_a 8.327136
_cell_length_b 8.270343
_cell_length_c 18.118264
_cell_angle_alpha 132.349694
_cell_angle_beta 146.410405
_cell_angle_gamma 55.155599
_cell_volume 510.019732
_symmetry_space_group_name_H-M "P -1"
_symmetry_group_IT_number 2
_symmetry_cell_setting 'triclinic'
loop_
_space_group_symop_operation_xyz
x,y,z
-x,-y,-z
loop_
_atom_site_type_symbol
_atom_site_label
_atom_site_fract_x
_atom_site_fract_y
_atom_site_fract_z
Si Si1 0.891871 0.904522 0.585850
Si Si2 0.975612 0.770246 0.377338
Si Si3 0.387950 0.542198 0.126256
Si Si4 0.529621 0.288660 0.253524
Si Si5 0.802492 0.666465 0.714220
Si Si6 0.450714 0.855165 0.010359
Si Si7 0.293931 0.935351 0.287998
O O1 0.900295 0.938577 0.687024
O O2 0.963353 0.141404 0.653675
O O3 0.573513 0.853902 0.417696
O O4 0.130498 0.722779 0.598163
O O5 0.655761 0.684459 0.243907
O O6 0.176210 0.551664 0.394051
O O7 0.000000 0.000000 0.500000
O O8 0.479820 0.412647 0.195806
O O9 0.344097 0.361273 0.990861
O O10 0.169214 0.734425 0.131356
O O11 0.322623 0.374906 0.265346
O O12 0.478584 0.030672 0.139895
O O13 0.130092 0.758277 0.867615
O O14 0.620956 0.870742 0.674089
O O15 0.500000 0.000000 0.000000
#
# Coordination Sequence:
#
# PCOD9014073 Si02
#       7
#     2   2   2   2   2   2   2
#     4  11  24  41  64  93 138 171 226 267 330 393
#     4  11  22  43  64  95 128 174 220 273 330 397
#     4  10  21  41  66  96 131 173 223 273 328 387
#     4  11  23  43  67  99 133 178 218 276 330 393
#     4  11  24  42  69  97 135 172 222 273 334 395
#     4   9  20  42  69  95 130 173 223 275 328 388
#     4  11  23  43  63  98 132 178 223 272 329 395
#
# _framework density 27.449919000000001
#
# number of rings (size 3 to 8) (size 9 to 14) (size 15 to 20)
#    0.000    1.429    1.429    4.714    0.000    1.143 
#    5.143   14.286    0.000    0.000    0.000    0.000 
#    0.000    0.000    0.000    0.000    0.000    0.000 
#
# Total GULP energy -78363.555513 kJ/mol
# GULP energy per Si atom -5597.396822 kJ/mol
# Density = 2.738744 g / cm^3
# Si number density = 27.449919 Si / 1000 Ang^3
#
#
#
# Elastic Constant Matrix: (Units=GPa)
#
#
# Indices 1 2 3 4 5 6 
#
# 1 136.0919 17.2188 24.3058 14.2329 0.0970 -17.3275
# 2 17.2188 114.7233 45.4743 34.6352 -5.2191 -19.5583
# 3 24.3058 45.4743 124.1582 41.3551 -8.8703 -17.4356
# 4 14.2329 34.6352 41.3551 58.7979 -16.6365 -5.3576
# 5 0.0970 -5.2191 -8.8703 -16.6365 42.9270 6.9734
# 6 -17.3275 -19.5583 -17.4356 -5.3576 6.9734 54.9205
#
#
#
# Elastic Compliance Matrix: (Units=1/GPa)
#
#
# Indices 1 2 3 4 5 6 
#
# 1 0.007936 -0.000124 -0.000816 -0.001383 -0.001096 0.002205
# 2 -0.000124 0.011707 -0.002080 -0.005593 -0.001684 0.003138
# 3 -0.000816 -0.002080 0.011426 -0.006652 -0.000806 0.002083
# 4 -0.001383 -0.005593 -0.006652 0.027629 0.009145 -0.003006
# 5 -0.001096 -0.001684 -0.000806 0.009145 0.027079 -0.003748
# 6 0.002205 0.003138 0.002083 -0.003006 -0.003748 0.020865
#
#
# Mechanical properties :
#
#
# Convention : Reuss Voigt Hill
#
# Bulk Modulus (GPa) = 39.95455 60.99678 50.47567
# Shear Modulus (GPa) = 41.31363 50.52738 45.92050
#
# Velocity S-wave (km/s) = 3.88371 4.29501 4.09453
# Velocity P-wave (km/s) = 5.89050 6.84583 6.38606
#
# Compressibility (1/GPa) = 0.02502844
#
# Stress axis : x y z
#
# Youngs Moduli (GPa) = 126.01531 85.42125 87.51588
#
# Poissons Ratio (x) = 0.01059 0.07142
# Poissons Ratio (y) = 0.01563 0.18204
# Poissons Ratio (z) = 0.10284 0.17768
#
# Static dielectric constant tensor:
#      x y z
#    x 2.169340 -0.065660 0.038820 
#    y -0.065660 2.125700 -0.077010 
#    z 0.038820 -0.077010 2.201690 
# 
# From -- ./inp_files/587646.got.cif
#   From: 2010.05.17/outbox.cif.g08.bks.cpg/sg2_294_cif.got.tgz:587646.got - 2010.06.03 11:33:40.
