data_PCOD9014186
_publ_section_title
;
Structure prediction by ZEFSAII (Michael W. Deem and Ramdas Pophale) SiO2 
 PCOD9014186
Probable space group: P -1
;
_chemical_formula_sum "Si O2"
_cell_formula_units_Z 16
_cell_length_a 16.220786
_cell_length_b 8.455650
_cell_length_c 13.236928
_cell_angle_alpha 104.147033
_cell_angle_beta 52.505177
_cell_angle_gamma 60.353783
_cell_volume 765.787513
_symmetry_space_group_name_H-M "P -1"
_symmetry_group_IT_number 2
_symmetry_cell_setting 'triclinic'
loop_
_space_group_symop_operation_xyz
x,y,z
-x,-y,-z
loop_
_atom_site_type_symbol
_atom_site_label
_atom_site_fract_x
_atom_site_fract_y
_atom_site_fract_z
Si Si1 0.076240 0.120188 0.662891
Si Si2 0.682309 0.730609 0.512219
Si Si3 0.114968 0.328565 0.491859
Si Si4 0.518938 0.531159 0.774121
Si Si5 0.517243 0.315919 0.391047
Si Si6 0.803081 0.787525 0.246205
Si Si7 0.494001 0.821078 0.012748
Si Si8 0.655049 0.588698 0.055597
O O1 0.043915 0.287593 0.618761
O O2 0.169235 0.096007 0.682413
O O3 0.250957 0.775356 0.448639
O O4 0.873608 0.320634 0.881941
O O5 0.836025 0.578391 0.459804
O O6 0.659308 0.569273 0.486017
O O7 0.739405 0.731654 0.362331
O O8 0.484529 0.080250 0.750899
O O9 0.000000 0.500000 0.500000
O O10 0.318796 0.013053 0.246845
O O11 0.421911 0.709396 0.769359
O O12 0.440097 0.454833 0.844951
O O13 0.475117 0.723502 0.919951
O O14 0.500000 0.500000 0.500000
O O15 0.653191 0.021510 0.307901
O O16 0.000000 0.500000 0.000000
O O17 0.665771 0.570781 0.922547
O O18 0.500000 0.000000 0.000000
#
# Coordination Sequence:
#
# PCOD9014186 Si02
#       8
#     2   2   2   2   2   2   2   2
#     4  11  23  42  66  98 135 175 226 280 344 408
#     4  10  22  44  70  96 136 183 224 281 351 410
#     4  10  21  41  67 101 139 169 230 279 334 425
#     4  12  24  45  65  99 142 171 230 283 343 413
#     4  12  24  43  68  94 138 183 228 290 340 396
#     4  11  23  44  70  98 132 178 235 285 338 405
#     4  11  23  42  67  97 134 183 222 276 349 411
#     4  11  22  44  70  96 137 179 219 279 353 410
#
# _framework density 20.893522000000001
#
# number of rings (size 3 to 8) (size 9 to 14) (size 15 to 20)
#    0.000    1.000    5.000    3.750    0.000    3.500 
#    6.750    1.250    0.000    0.000    0.000    0.000 
#    0.000    0.000    0.000    0.000    0.000    0.000 
#
# Total GULP energy -89248.052249 kJ/mol
# GULP energy per Si atom -5578.003266 kJ/mol
# Density = 2.084597 g / cm^3
# Si number density = 20.893522 Si / 1000 Ang^3
#
#
#
# Elastic Constant Matrix: (Units=GPa)
#
#
# Indices 1 2 3 4 5 6 
#
# 1 119.4309 52.1912 26.0709 -12.0172 9.0838 2.2451
# 2 52.1912 87.7114 0.7004 -27.4229 0.7267 -23.3978
# 3 26.0709 0.7004 68.8960 -19.0226 2.0654 6.2984
# 4 -12.0172 -27.4229 -19.0226 19.4636 -7.8736 5.2218
# 5 9.0838 0.7267 2.0654 -7.8736 43.1500 -1.5561
# 6 2.2451 -23.3978 6.2984 5.2218 -1.5561 39.7668
#
#
#
# Elastic Compliance Matrix: (Units=1/GPa)
#
#
# Indices 1 2 3 4 5 6 
#
# 1 0.028275 -0.044806 -0.030338 -0.079268 -0.018696 -0.013477
# 2 -0.044806 0.106074 0.065433 0.194104 0.041039 0.030695
# 3 -0.030338 0.065433 0.062846 0.143178 0.028856 0.012587
# 4 -0.079268 0.194104 0.143178 0.440456 0.088436 0.041629
# 5 -0.018696 0.041039 0.028856 0.088436 0.041559 0.010645
# 6 -0.013477 0.030695 0.012587 0.041629 0.010645 0.036925
#
#
# Mechanical properties :
#
#
# Convention : Reuss Voigt Hill
#
# Bulk Modulus (GPa) = 5.62509 48.21815 26.92162
# Shear Modulus (GPa) = 6.29078 33.61446 19.95262
#
# Velocity S-wave (km/s) = 1.73707 4.01539 3.09361
# Velocity P-wave (km/s) = 2.59255 6.68027 5.06692
#
# Compressibility (1/GPa) = 0.17777498
#
# Stress axis : x y z
#
# Youngs Moduli (GPa) = 35.36706 9.42738 15.91185
#
# Poissons Ratio (x) = 0.42240 0.48273
# Poissons Ratio (y) = 1.58464 -1.04117
# Poissons Ratio (z) = 1.07296 -0.61686
#
# Static dielectric constant tensor:
#      x y z
#    x 1.785250 -0.029580 -0.091450 
#    y -0.029580 1.801820 0.000360 
#    z -0.091450 0.000360 1.663070 
# 
# From -- ./inp_files/447820.got.cif
#   From: 2010.05.17/outbox.cif.g08.bks.cpg/sg2_224_cif.got.tgz:447820.got - 2010.06.03 11:33:40.
