data_PCOD9014145
_publ_section_title
;
Structure prediction by ZEFSAII (Michael W. Deem and Ramdas Pophale) SiO2 
 PCOD9014145
Probable space group: P -1
;
_chemical_formula_sum "Si O2"
_cell_formula_units_Z 16
_cell_length_a 19.538555
_cell_length_b 12.958659
_cell_length_c 16.037686
_cell_angle_alpha 130.272124
_cell_angle_beta 150.599410
_cell_angle_gamma 28.051058
_cell_volume 794.690668
_symmetry_space_group_name_H-M "P -1"
_symmetry_group_IT_number 2
_symmetry_cell_setting 'triclinic'
loop_
_space_group_symop_operation_xyz
x,y,z
-x,-y,-z
loop_
_atom_site_type_symbol
_atom_site_label
_atom_site_fract_x
_atom_site_fract_y
_atom_site_fract_z
Si Si1 0.573121 0.794644 0.008709
Si Si2 0.193123 0.933484 0.114777
Si Si3 0.699359 0.697690 0.802013
Si Si4 0.965300 0.404779 0.092085
Si Si5 0.972370 0.870731 0.431481
Si Si6 0.318838 0.262840 0.712877
Si Si7 0.580124 0.543632 0.177030
Si Si8 0.698256 0.606672 0.582357
O O1 0.854829 0.515430 0.125411
O O2 0.583996 0.788817 0.116579
O O3 0.341277 0.894033 0.777910
O O4 0.500000 0.000000 0.000000
O O5 0.354215 0.724733 0.103693
O O6 0.418971 0.811190 0.349450
O O7 0.050586 0.181011 0.052754
O O8 0.000000 0.000000 0.000000
O O9 0.662587 0.617163 0.649032
O O10 0.481440 0.995557 0.716901
O O11 0.726011 0.632221 0.891781
O O12 0.000000 0.500000 0.000000
O O13 0.192652 0.330645 0.282171
O O14 0.139333 0.712481 0.610894
O O15 0.094006 0.665264 0.384908
O O16 0.000000 0.000000 0.500000
O O17 0.394589 0.328708 0.770735
O O18 0.000000 0.500000 0.500000
O O19 0.500000 0.500000 0.000000
#
# Coordination Sequence:
#
# PCOD9014145 Si02
#       8
#     2   2   2   2   2   2   2   2
#     4  12  22  42  67 102 132 173 228 278 341 412
#     4  11  27  45  66  98 136 181 226 277 349 411
#     4  10  21  41  66  99 129 173 226 284 339 406
#     4  11  23  40  71  94 134 172 225 280 336 407
#     4  11  24  42  68  96 133 180 222 274 344 409
#     4  12  26  40  69 105 138 175 231 292 346 405
#     4  11  26  46  67  98 139 182 226 282 345 414
#     4  10  22  42  69  94 128 175 222 279 341 404
#
# _framework density 20.133620000000001
#
# number of rings (size 3 to 8) (size 9 to 14) (size 15 to 20)
#    0.000    1.000    2.500    4.125    8.750    1.000 
#    0.000    0.625    0.000    0.000    0.000    0.000 
#    0.000    0.000    0.000    0.000    0.000    0.000 
#
# Total GULP energy -89346.513497 kJ/mol
# GULP energy per Si atom -5584.157094 kJ/mol
# Density = 2.008780 g / cm^3
# Si number density = 20.133620 Si / 1000 Ang^3
#
#
#
# Elastic Constant Matrix: (Units=GPa)
#
#
# Indices 1 2 3 4 5 6 
#
# 1 105.7670 18.0143 55.3557 5.7127 -0.1555 1.2609
# 2 18.0143 57.0633 38.5738 -2.6365 -0.4237 2.9679
# 3 55.3557 38.5738 116.7115 3.3434 0.9963 -1.1081
# 4 5.7127 -2.6365 3.3434 32.4921 -4.5256 -1.0439
# 5 -0.1555 -0.4237 0.9963 -4.5256 46.4151 5.7384
# 6 1.2609 2.9679 -1.1081 -1.0439 5.7384 41.5598
#
#
#
# Elastic Compliance Matrix: (Units=1/GPa)
#
#
# Indices 1 2 3 4 5 6 
#
# 1 0.012675 -0.000010 -0.005968 -0.001622 0.000086 -0.000596
# 2 -0.000010 0.022953 -0.007684 0.002716 0.000874 -0.001896
# 3 -0.005968 -0.007684 0.013986 -0.001065 -0.000638 0.001164
# 4 -0.001622 0.002716 -0.001065 0.031833 0.003122 0.000195
# 5 0.000086 0.000874 -0.000638 0.003122 0.022251 -0.003076
# 6 -0.000596 -0.001896 0.001164 0.000195 -0.003076 0.024676
#
#
# Mechanical properties :
#
#
# Convention : Reuss Voigt Hill
#
# Bulk Modulus (GPa) = 44.86815 55.93660 50.40238
# Shear Modulus (GPa) = 30.65072 35.26659 32.95865
#
# Velocity S-wave (km/s) = 3.90598 4.18978 4.05037
# Velocity P-wave (km/s) = 6.53267 7.15882 6.85290
#
# Compressibility (1/GPa) = 0.02228752
#
# Stress axis : x y z
#
# Youngs Moduli (GPa) = 78.89577 43.56773 71.50237
#
# Poissons Ratio (x) = 0.00045 0.42674
# Poissons Ratio (y) = 0.00081 0.54945
# Poissons Ratio (z) = 0.47086 0.33479
#
# Static dielectric constant tensor:
#      x y z
#    x 1.709590 -0.021420 -0.044050 
#    y -0.021420 1.797810 -0.059540 
#    z -0.044050 -0.059540 1.691740 
# 
# From -- ./inp_files/217001.got.cif
#   From: 2010.05.17/outbox.cif.g08.bks.cpg/sg2_109_cif.got.tgz:217001.got - 2010.06.03 11:33:40.
