data_PCOD9014556
_publ_section_title
;
Structure prediction by ZEFSAII (Michael W. Deem and Ramdas Pophale) SiO2 
 PCOD9014556
Probable space group: P -1
;
_chemical_formula_sum "Si O2"
_cell_formula_units_Z 14
_cell_length_a 15.554228
_cell_length_b 5.397901
_cell_length_c 9.487136
_cell_angle_alpha 55.154699
_cell_angle_beta 55.097422
_cell_angle_gamma 63.123096
_cell_volume 526.783287
_symmetry_space_group_name_H-M "P -1"
_symmetry_group_IT_number 2
_symmetry_cell_setting 'triclinic'
loop_
_space_group_symop_operation_xyz
x,y,z
-x,-y,-z
loop_
_atom_site_type_symbol
_atom_site_label
_atom_site_fract_x
_atom_site_fract_y
_atom_site_fract_z
Si Si1 0.566282 0.584298 0.279771
Si Si2 0.956546 0.102036 0.661680
Si Si3 0.684649 0.931965 0.422201
Si Si4 0.575512 0.442380 0.811323
Si Si5 0.223747 0.289002 0.000313
Si Si6 0.894236 0.032624 0.179690
Si Si7 0.233403 0.379955 0.293610
O O1 0.500000 0.500000 0.500000
O O2 0.486632 0.733008 0.184157
O O3 0.658565 0.780861 0.158300
O O4 0.633201 0.244580 0.293177
O O5 0.886828 0.444007 0.625906
O O6 0.000000 0.000000 0.500000
O O7 0.056445 0.031919 0.692758
O O8 0.868274 0.908391 0.860287
O O9 0.597802 0.717658 0.594755
O O10 0.722031 0.927145 0.556070
O O11 0.805529 0.829183 0.282974
O O12 0.693035 0.384316 0.789696
O O13 0.500000 0.500000 0.000000
O O14 0.168195 0.622570 0.888613
O O15 0.248198 0.315781 0.136217
O O16 0.000000 0.000000 0.000000
#
# Coordination Sequence:
#
# PCOD9014556 Si02
#       7
#     2   2   2   2   2   2   2
#     4  11  23  42  67 100 133 167 216 282 325 382
#     4  12  27  42  69  99 133 173 223 275 331 381
#     4   9  23  40  65  94 129 168 224 252 328 398
#     4  10  21  41  68  91 126 174 217 255 335 387
#     4  11  24  44  66  99 135 168 229 267 326 402
#     4  11  23  42  69  92 131 178 214 269 333 383
#     4  10  23  44  67  95 135 173 223 265 325 402
#
# _framework density 26.576394000000001
#
# number of rings (size 3 to 8) (size 9 to 14) (size 15 to 20)
#    0.857    0.571    2.857    1.714    2.000    6.857 
#    0.000    2.143    0.000    0.000    0.000    0.000 
#    0.000    0.000    0.000    0.000    0.000    0.000 
#
# Total GULP energy -78125.793889 kJ/mol
# GULP energy per Si atom -5580.413849 kJ/mol
# Density = 2.651591 g / cm^3
# Si number density = 26.576394 Si / 1000 Ang^3
#
#
#
# Elastic Constant Matrix: (Units=GPa)
#
#
# Indices 1 2 3 4 5 6 
#
# 1 190.0181 17.5009 41.0226 -0.3169 -17.0636 -1.6254
# 2 17.5009 39.6858 26.1311 -2.4609 -0.3546 1.6045
# 3 41.0226 26.1311 142.8535 -1.3514 -27.5226 14.1591
# 4 -0.3169 -2.4609 -1.3514 53.7260 -2.9174 -7.4828
# 5 -17.0636 -0.3546 -27.5226 -2.9174 69.4454 3.2671
# 6 -1.6254 1.6045 14.1591 -7.4828 3.2671 22.4695
#
#
#
# Elastic Compliance Matrix: (Units=1/GPa)
#
#
# Indices 1 2 3 4 5 6 
#
# 1 0.005792 -0.001725 -0.001313 0.000148 0.000839 0.001297
# 2 -0.001725 0.029629 -0.005611 0.001363 -0.002539 0.002118
# 3 -0.001313 -0.005611 0.009792 -0.000740 0.003812 -0.006665
# 4 0.000148 0.001363 -0.000740 0.019630 0.000251 0.006880
# 5 0.000839 -0.002539 0.003812 0.000251 0.016324 -0.004450
# 6 0.001297 0.002118 -0.006665 0.006880 -0.004450 0.051586
#
#
# Mechanical properties :
#
#
# Convention : Reuss Voigt Hill
#
# Bulk Modulus (GPa) = 35.82335 60.20743 48.01539
# Shear Modulus (GPa) = 31.37673 48.32168 39.84921
#
# Velocity S-wave (km/s) = 3.43975 4.26868 3.87644
# Velocity P-wave (km/s) = 5.41151 6.85560 6.17591
#
# Compressibility (1/GPa) = 0.02791476
#
# Stress axis : x y z
#
# Youngs Moduli (GPa) = 172.66017 33.75052 102.12873
#
# Poissons Ratio (x) = 0.05823 0.13410
# Poissons Ratio (y) = 0.29788 0.57300
# Poissons Ratio (z) = 0.22672 0.18936
#
# Static dielectric constant tensor:
#      x y z
#    x 2.068190 0.011570 -0.103330 
#    y 0.011570 2.144550 -0.037360 
#    z -0.103330 -0.037360 2.179930 
# 
# From -- ./inp_files/322166.got.cif
#   From: 2010.05.17/outbox.cif.g08.bks.cpg/sg2_162_cif.got.tgz:322166.got - 2010.06.03 11:33:40.
