data_PCOD9014809
_publ_section_title
;
Structure prediction by ZEFSAII (Michael W. Deem and Ramdas Pophale) SiO2 
 PCOD9014809
Probable space group: P -1
;
_chemical_formula_sum "Si O2"
_cell_formula_units_Z 15
_cell_length_a 12.274629
_cell_length_b 10.198566
_cell_length_c 8.041925
_cell_angle_alpha 57.066773
_cell_angle_beta 124.901354
_cell_angle_gamma 131.198252
_cell_volume 598.122872
_symmetry_space_group_name_H-M "P -1"
_symmetry_group_IT_number 2
_symmetry_cell_setting 'triclinic'
loop_
_space_group_symop_operation_xyz
x,y,z
-x,-y,-z
loop_
_atom_site_type_symbol
_atom_site_label
_atom_site_fract_x
_atom_site_fract_y
_atom_site_fract_z
Si Si1 0.669315 0.645072 0.674947
Si Si2 0.547095 0.258813 0.428111
Si Si3 0.226210 0.139176 0.697369
Si Si4 0.986281 0.846983 0.892740
Si Si5 0.000000 0.500000 0.000000
Si Si6 0.463466 0.694456 0.976919
Si Si7 0.760488 0.120762 0.662602
Si Si8 0.235323 0.813566 0.747229
O O1 0.520815 0.669502 0.540626
O O2 0.739567 0.702992 0.511842
O O3 0.615426 0.457747 0.847229
O O4 0.811241 0.789133 0.813657
O O5 0.693281 0.237913 0.614845
O O6 0.397200 0.067289 0.378943
O O7 0.582649 0.370168 0.209292
O O8 0.356259 0.216394 0.898294
O O9 0.061710 0.023748 0.719159
O O10 0.247963 0.990236 0.718489
O O11 0.975793 0.670787 0.918351
O O12 0.106864 0.885411 0.116928
O O13 0.873466 0.363872 0.121112
O O14 0.402962 0.833380 0.860835
O O15 0.823031 0.206616 0.478320
#
# Coordination Sequence:
#
# PCOD9014809 Si02
#       8
#     2   2   2   2   1   2   2   2
#     4  12  24  42  64 100 135 164 216 279 324 374
#     4  10  22  42  66  98 124 171 222 269 308 396
#     4  11  23  40  66  94 130 176 215 261 329 388
#     4  11  24  44  67  95 134 171 212 271 327 385
#     4  10  22  42  60  98 130 164 208 266 320 380
#     4  11  22  42  65  96 131 172 213 272 321 383
#     4  10  21  43  70  93 125 175 225 255 319 394
#     4  10  21  41  69  93 127 169 223 262 312 395
#
# _framework density 25.07846
#
# number of rings (size 3 to 8) (size 9 to 14) (size 15 to 20)
#    0.000    1.333    4.000    1.600    0.000    3.200 
#    2.400    0.000    0.000    0.000    0.000    0.000 
#    0.000    0.000    0.000    0.000    0.000    0.000 
#
# Total GULP energy -83662.953974 kJ/mol
# GULP energy per Si atom -5577.530265 kJ/mol
# Density = 2.502138 g / cm^3
# Si number density = 25.078460 Si / 1000 Ang^3
#
#
#
# Elastic Constant Matrix: (Units=GPa)
#
#
# Indices 1 2 3 4 5 6 
#
# 1 61.2454 17.0666 9.3097 -0.5067 0.3375 7.9047
# 2 17.0666 72.4327 30.0398 -17.1106 -4.1917 25.8512
# 3 9.3097 30.0398 101.5638 -3.3190 -5.3845 24.6698
# 4 -0.5067 -17.1106 -3.3190 34.3867 16.6937 -0.5315
# 5 0.3375 -4.1917 -5.3845 16.6937 30.8033 -5.1319
# 6 7.9047 25.8512 24.6698 -0.5315 -5.1319 29.1560
#
#
#
# Elastic Compliance Matrix: (Units=1/GPa)
#
#
# Indices 1 2 3 4 5 6 
#
# 1 0.017627 -0.004181 -0.000216 -0.001892 0.000074 -0.000911
# 2 -0.004181 0.027524 -0.002141 0.018006 -0.010159 -0.022920
# 3 -0.000216 -0.002141 0.012615 -0.000296 0.000642 -0.008609
# 4 -0.001892 0.018006 -0.000296 0.051668 -0.028802 -0.019330
# 5 0.000074 -0.010159 0.000642 -0.028802 0.049576 0.016646
# 6 -0.000911 -0.022920 -0.008609 -0.019330 0.016646 0.064729
#
#
# Mechanical properties :
#
#
# Convention : Reuss Voigt Hill
#
# Bulk Modulus (GPa) = 22.37620 38.67491 30.52555
# Shear Modulus (GPa) = 19.86398 30.79090 25.32744
#
# Velocity S-wave (km/s) = 2.81743 3.50777 3.18138
# Velocity P-wave (km/s) = 4.41880 5.64456 5.06886
#
# Compressibility (1/GPa) = 0.04469035
#
# Stress axis : x y z
#
# Youngs Moduli (GPa) = 56.73038 36.33133 79.27341
#
# Poissons Ratio (x) = 0.15192 0.01710
# Poissons Ratio (y) = 0.23722 0.16970
# Poissons Ratio (z) = 0.01224 0.07778
#
# Static dielectric constant tensor:
#      x y z
#    x 2.014850 -0.043970 -0.001800 
#    y -0.043970 1.996030 0.024250 
#    z -0.001800 0.024250 2.006360 
# 
# From -- ./inp_files/156837.got.cif
#   From: 2010.05.17/outbox.cif.g08.bks.cpg/sg2_79_cif.got.tgz:156837.got - 2010.06.03 11:33:40.
