data_PCOD9014725
_publ_section_title
;
Structure prediction by ZEFSAII (Michael W. Deem and Ramdas Pophale) SiO2 
 PCOD9014725
Probable space group: P -1
;
_chemical_formula_sum "Si O2"
_cell_formula_units_Z 14
_cell_length_a 17.897904
_cell_length_b 6.828348
_cell_length_c 9.286101
_cell_angle_alpha 129.688122
_cell_angle_beta 124.022978
_cell_angle_gamma 40.945750
_cell_volume 565.591499
_symmetry_space_group_name_H-M "P -1"
_symmetry_group_IT_number 2
_symmetry_cell_setting 'triclinic'
loop_
_space_group_symop_operation_xyz
x,y,z
-x,-y,-z
loop_
_atom_site_type_symbol
_atom_site_label
_atom_site_fract_x
_atom_site_fract_y
_atom_site_fract_z
Si Si1 0.067339 0.606291 0.544428
Si Si2 0.764968 0.479407 0.780185
Si Si3 0.321457 0.930194 0.447172
Si Si4 0.165332 0.767030 0.962995
Si Si5 0.419425 0.185545 0.859894
Si Si6 0.928191 0.514437 0.799013
Si Si7 0.447041 0.877282 0.279415
O O1 0.080929 0.806309 0.768533
O O2 0.004965 0.710333 0.371630
O O3 0.000000 0.500000 0.500000
O O4 0.201096 0.303710 0.504064
O O5 0.713837 0.285930 0.636465
O O6 0.849460 0.418856 0.718374
O O7 0.656320 0.848966 0.807290
O O8 0.835463 0.387869 0.961434
O O9 0.404697 0.937028 0.649371
O O10 0.387160 0.807188 0.305106
O O11 0.294775 0.496803 0.922492
O O12 0.543356 0.683229 0.166296
O O13 0.500000 0.000000 0.000000
O O14 0.859819 0.897279 0.868775
O O15 0.000000 0.500000 0.000000
O O16 0.500000 0.000000 0.500000
#
# Coordination Sequence:
#
# PCOD9014725 Si02
#       7
#     2   2   2   2   2   2   2
#     4  11  24  46  72 105 139 180 242 301 362 422
#     4  12  22  46  72 100 146 188 237 294 355 428
#     4  10  23  44  70 102 144 187 233 296 355 425
#     4  11  25  47  72 106 147 183 241 298 348 433
#     4  10  21  43  72 109 141 188 240 286 355 423
#     4  12  28  49  73 104 143 193 238 293 370 421
#     4  10  21  41  69 100 139 184 234 280 355 421
#
# _framework density 24.752846000000002
#
# number of rings (size 3 to 8) (size 9 to 14) (size 15 to 20)
#    0.000    1.143    4.286    0.857    2.000    4.000 
#    7.714    4.286    0.000    0.000    0.000    0.000 
#    0.000    0.000    0.000    0.000    0.000    0.000 
#
# Total GULP energy -78139.319749 kJ/mol
# GULP energy per Si atom -5581.379982 kJ/mol
# Density = 2.469651 g / cm^3
# Si number density = 24.752846 Si / 1000 Ang^3
#
#
#
# Elastic Constant Matrix: (Units=GPa)
#
#
# Indices 1 2 3 4 5 6 
#
# 1 161.7248 2.6522 53.9725 15.5671 -16.6847 19.4188
# 2 2.6522 63.8997 18.0398 -2.3544 -7.1443 5.8520
# 3 53.9725 18.0398 190.9904 2.1100 0.8575 26.3907
# 4 15.5671 -2.3544 2.1100 37.0388 3.2398 5.3599
# 5 -16.6847 -7.1443 0.8575 3.2398 53.7708 5.7861
# 6 19.4188 5.8520 26.3907 5.3599 5.7861 32.6235
#
#
#
# Elastic Compliance Matrix: (Units=1/GPa)
#
#
# Indices 1 2 3 4 5 6 
#
# 1 0.007767 0.000726 -0.001778 -0.002896 0.003074 -0.003385
# 2 0.000726 0.016622 -0.001393 0.001018 0.002711 -0.002935
# 3 -0.001778 -0.001393 0.006406 0.000905 -0.000469 -0.003940
# 4 -0.002896 0.001018 0.000905 0.028932 -0.002137 -0.003565
# 5 0.003074 0.002711 -0.000469 -0.002137 0.020612 -0.005241
# 6 -0.003385 -0.002935 -0.003940 -0.003565 -0.005241 0.037896
#
#
# Mechanical properties :
#
#
# Convention : Reuss Voigt Hill
#
# Bulk Modulus (GPa) = 38.60022 62.88267 50.74144
# Shear Modulus (GPa) = 37.94802 47.48330 42.71566
#
# Velocity S-wave (km/s) = 3.91970 4.38459 4.15865
# Velocity P-wave (km/s) = 6.00945 7.14788 6.60325
#
# Compressibility (1/GPa) = 0.02590659
#
# Stress axis : x y z
#
# Youngs Moduli (GPa) = 128.75068 60.16105 156.09670
#
# Poissons Ratio (x) = -0.04370 0.27748
# Poissons Ratio (y) = -0.09352 0.21747
# Poissons Ratio (z) = 0.22887 0.08381
#
# Static dielectric constant tensor:
#      x y z
#    x 2.152610 -0.012030 0.003380 
#    y -0.012030 2.072450 -0.061900 
#    z 0.003380 -0.061900 2.024620 
# 
# From -- ./inp_files/326489.got.cif
#   From: 2010.05.17/outbox.cif.g08.bks.cpg/sg2_164_cif.got.tgz:326489.got - 2010.06.03 11:33:40.
