data_PCOD9014707
_publ_section_title
;
Structure prediction by ZEFSAII (Michael W. Deem and Ramdas Pophale) SiO2 
 PCOD9014707
Probable space group: P -1
;
_chemical_formula_sum "Si O2"
_cell_formula_units_Z 15
_cell_length_a 9.811968
_cell_length_b 14.711250
_cell_length_c 11.724326
_cell_angle_alpha 35.121180
_cell_angle_beta 58.000808
_cell_angle_gamma 42.433327
_cell_volume 644.962925
_symmetry_space_group_name_H-M "P -1"
_symmetry_group_IT_number 2
_symmetry_cell_setting 'triclinic'
loop_
_space_group_symop_operation_xyz
x,y,z
-x,-y,-z
loop_
_atom_site_type_symbol
_atom_site_label
_atom_site_fract_x
_atom_site_fract_y
_atom_site_fract_z
Si Si1 0.530454 0.169451 0.551226
Si Si2 0.133783 0.142529 0.099107
Si Si3 0.214719 0.398413 0.660617
Si Si4 0.514469 0.457752 0.812507
Si Si5 0.923550 0.060637 0.102532
Si Si6 0.500000 0.500000 0.500000
Si Si7 0.827546 0.550764 0.935786
Si Si8 0.215190 0.203819 0.507487
O O1 0.344071 0.299956 0.590192
O O2 0.575106 0.319193 0.335080
O O3 0.432967 0.116785 0.554488
O O4 0.722791 0.991707 0.721192
O O5 0.095152 0.020177 0.155701
O O6 0.925158 0.345915 0.030866
O O7 0.232304 0.223583 0.899921
O O8 0.321440 0.472200 0.608555
O O9 0.976690 0.590595 0.555152
O O10 0.534308 0.456138 0.668934
O O11 0.372853 0.396895 0.970060
O O12 0.736543 0.298155 0.934363
O O13 0.837123 0.947596 0.301433
O O14 0.000000 0.000000 0.000000
O O15 0.791721 0.717438 0.695417
O O16 0.000000 0.500000 0.000000
#
# Coordination Sequence:
#
# PCOD9014707 Si02
#       8
#     2   2   2   2   2   1   2   2
#     4  11  24  41  72 104 140 188 239 301 360 427
#     4  11  26  45  71 107 147 187 239 300 363 430
#     4  10  21  41  68  99 148 184 234 288 369 416
#     4  11  25  45  73 100 146 188 241 291 372 421
#     4  12  27  44  75 113 148 187 241 303 363 429
#     4  10  22  38  76 104 130 178 236 298 354 418
#     4  11  27  50  74  98 146 196 246 297 362 434
#     4  11  25  44  70 102 146 187 244 293 362 430
#
# _framework density 23.257149999999999
#
# number of rings (size 3 to 8) (size 9 to 14) (size 15 to 20)
#    0.000    1.067    0.000    6.400   13.067    3.200 
#    0.000    0.000    0.000    0.000    0.000    0.000 
#    0.000    0.000    0.000    0.000    0.000    0.000 
#
# Total GULP energy -83733.540271 kJ/mol
# GULP energy per Si atom -5582.236018 kJ/mol
# Density = 2.320422 g / cm^3
# Si number density = 23.257150 Si / 1000 Ang^3
#
#
#
# Elastic Constant Matrix: (Units=GPa)
#
#
# Indices 1 2 3 4 5 6 
#
# 1 167.1912 0.5646 82.5844 1.4941 21.3905 1.2483
# 2 0.5646 50.7418 22.7094 2.7647 6.9591 -0.3912
# 3 82.5844 22.7094 154.4684 13.5533 -15.7505 -0.9073
# 4 1.4941 2.7647 13.5533 35.0445 -4.3461 -2.5369
# 5 21.3905 6.9591 -15.7505 -4.3461 31.1019 7.4083
# 6 1.2483 -0.3912 -0.9073 -2.5369 7.4083 23.7384
#
#
#
# Elastic Compliance Matrix: (Units=1/GPa)
#
#
# Indices 1 2 3 4 5 6 
#
# 1 0.012392 0.006030 -0.009130 0.000916 -0.015315 0.003976
# 2 0.006030 0.025599 -0.008472 -0.000574 -0.015317 0.004500
# 3 -0.009130 -0.008472 0.014474 -0.002858 0.016167 -0.004457
# 4 0.000916 -0.000574 -0.002858 0.030034 0.001646 0.002529
# 5 -0.015315 -0.015317 0.016167 0.001646 0.058563 -0.016930
# 6 0.003976 0.004500 -0.004457 0.002529 -0.016930 0.047374
#
#
# Mechanical properties :
#
#
# Convention : Reuss Voigt Hill
#
# Bulk Modulus (GPa) = 34.10738 64.90199 49.50469
# Shear Modulus (GPa) = 22.58818 35.74648 29.16733
#
# Velocity S-wave (km/s) = 3.11985 3.92473 3.54520
# Velocity P-wave (km/s) = 5.26071 6.96454 6.17171
#
# Compressibility (1/GPa) = 0.02931916
#
# Stress axis : x y z
#
# Youngs Moduli (GPa) = 80.69504 39.06420 69.08990
#
# Poissons Ratio (x) = -0.23554 0.63082
# Poissons Ratio (y) = -0.48656 0.58534
# Poissons Ratio (z) = 0.73678 0.33096
#
# Static dielectric constant tensor:
#      x y z
#    x 1.837980 0.027490 -0.011130 
#    y 0.027490 1.925740 -0.049040 
#    z -0.011130 -0.049040 1.853350 
# 
# From -- ./inp_files/398056.got.cif
#   From: 2010.05.17/outbox.cif.g08.bks.cpg/sg2_200_cif.got.tgz:398056.got - 2010.06.03 11:33:40.
