data_PCOD9015182
_publ_section_title
;
Structure prediction by ZEFSAII (Michael W. Deem and Ramdas Pophale) SiO2 
 PCOD9015182
Probable space group: P -1
;
_chemical_formula_sum "Si O2"
_cell_formula_units_Z 16
_cell_length_a 18.726092
_cell_length_b 7.375249
_cell_length_c 9.689565
_cell_angle_alpha 66.712485
_cell_angle_beta 143.710517
_cell_angle_gamma 96.036166
_cell_volume 669.067370
_symmetry_space_group_name_H-M "P -1"
_symmetry_group_IT_number 2
_symmetry_cell_setting 'triclinic'
loop_
_space_group_symop_operation_xyz
x,y,z
-x,-y,-z
loop_
_atom_site_type_symbol
_atom_site_label
_atom_site_fract_x
_atom_site_fract_y
_atom_site_fract_z
Si Si1 0.412908 0.211347 0.467479
Si Si2 0.868046 0.504985 0.000750
Si Si3 0.367599 0.890102 0.942252
Si Si4 0.502063 0.285281 0.319540
Si Si5 0.398430 0.330310 0.845727
Si Si6 0.961007 0.856405 0.091205
Si Si7 0.897940 0.185124 0.384701
Si Si8 0.237414 0.713887 0.296090
O O1 0.279184 0.319975 0.308307
O O2 0.538497 0.196225 0.753700
O O3 0.401175 0.338599 0.269675
O O4 0.442477 0.968378 0.545831
O O5 0.873642 0.329282 0.949127
O O6 0.959778 0.636072 0.097065
O O7 0.876767 0.395342 0.196277
O O8 0.466606 0.773681 0.004055
O O9 0.234394 0.854415 0.773252
O O10 0.342487 0.142434 0.816533
O O11 0.622302 0.341832 0.540514
O O12 0.439096 0.374175 0.048152
O O13 0.287307 0.550936 0.550612
O O14 0.038394 0.809791 0.369311
O O15 0.815349 0.032312 0.840496
O O16 0.000000 0.000000 0.000000
O O17 0.000000 0.000000 0.500000
#
# Coordination Sequence:
#
# PCOD9015182 Si02
#       8
#     2   2   2   2   2   2   2   2
#     4  10  21  41  72 106 139 187 228 305 365 437
#     4  12  26  49  78 104 146 190 249 303 367 433
#     4  10  23  42  72 108 146 188 243 294 377 430
#     4  10  22  38  65 110 148 175 231 291 375 429
#     4  10  23  40  71 111 148 184 234 317 366 432
#     4  12  31  50  75 105 146 198 250 300 356 440
#     4  12  28  49  74 106 149 199 248 299 356 444
#     4  12  24  44  74 104 146 185 243 299 360 436
#
# _framework density 23.913883999999999
#
# number of rings (size 3 to 8) (size 9 to 14) (size 15 to 20)
#    0.000    1.000    3.750    1.500    5.250    4.500 
#    0.000    0.000    0.000    0.000    0.000    0.000 
#    0.000    0.000    0.000    0.000    0.000    0.000 
#
# Total GULP energy -89376.955872 kJ/mol
# GULP energy per Si atom -5586.059742 kJ/mol
# Density = 2.385945 g / cm^3
# Si number density = 23.913884 Si / 1000 Ang^3
#
#
#
# Elastic Constant Matrix: (Units=GPa)
#
#
# Indices 1 2 3 4 5 6 
#
# 1 67.9472 3.0170 36.3191 22.0907 -17.0448 24.1690
# 2 3.0170 100.7803 21.9173 6.4856 -5.1397 24.9723
# 3 36.3191 21.9173 115.8945 7.9855 -20.8302 16.4874
# 4 22.0907 6.4856 7.9855 39.6393 -1.9098 -1.4345
# 5 -17.0448 -5.1397 -20.8302 -1.9098 41.9594 -0.5410
# 6 24.1690 24.9723 16.4874 -1.4345 -0.5410 31.3880
#
#
#
# Elastic Compliance Matrix: (Units=1/GPa)
#
#
# Indices 1 2 3 4 5 6 
#
# 1 0.045279 0.013153 -0.005926 -0.027019 0.015276 -0.043188
# 2 0.013153 0.016522 -0.002389 -0.010100 0.005432 -0.022386
# 3 -0.005926 -0.002389 0.011267 0.001591 0.002975 0.000669
# 4 -0.027019 -0.010100 0.001591 0.042255 -0.009116 0.029779
# 5 0.015276 0.005432 0.002975 -0.009116 0.031539 -0.017520
# 6 -0.043188 -0.022386 0.000669 0.029779 -0.017520 0.083632
#
#
# Mechanical properties :
#
#
# Convention : Reuss Voigt Hill
#
# Bulk Modulus (GPa) = 12.08544 45.23653 28.66099
# Shear Modulus (GPa) = 20.12866 37.48859 28.80863
#
# Velocity S-wave (km/s) = 2.90438 3.96365 3.47462
# Velocity P-wave (km/s) = 4.03880 6.31703 5.30174
#
# Compressibility (1/GPa) = 0.08274416
#
# Stress axis : x y z
#
# Youngs Moduli (GPa) = 22.08518 60.52369 88.75331
#
# Poissons Ratio (x) = -0.79605 0.52591
# Poissons Ratio (y) = -0.29048 0.21207
# Poissons Ratio (z) = 0.13087 0.14462
#
# Static dielectric constant tensor:
#      x y z
#    x 2.072520 -0.047290 0.043630 
#    y -0.047290 1.976350 -0.039140 
#    z 0.043630 -0.039140 1.892290 
# 
# From -- ./inp_files/328631.got.cif
#   From: 2010.05.17/outbox.cif.g08.bks.cpg/sg2_165_cif.got.tgz:328631.got - 2010.06.03 11:33:40.
