data_PCOD9015456
_publ_section_title
;
Structure prediction by ZEFSAII (Michael W. Deem and Ramdas Pophale) SiO2 
 PCOD9015456
Probable space group: P -1
;
_chemical_formula_sum "Si O2"
_cell_formula_units_Z 16
_cell_length_a 12.039812
_cell_length_b 22.888492
_cell_length_c 7.203973
_cell_angle_alpha 107.411787
_cell_angle_beta 123.949688
_cell_angle_gamma 28.511847
_cell_volume 688.043006
_symmetry_space_group_name_H-M "P -1"
_symmetry_group_IT_number 2
_symmetry_cell_setting 'triclinic'
loop_
_space_group_symop_operation_xyz
x,y,z
-x,-y,-z
loop_
_atom_site_type_symbol
_atom_site_label
_atom_site_fract_x
_atom_site_fract_y
_atom_site_fract_z
Si Si1 0.879625 0.122960 0.186444
Si Si2 0.161983 0.648959 0.413517
Si Si3 0.526660 0.197350 0.617992
Si Si4 0.869912 0.462666 0.818547
Si Si5 0.172308 0.092817 0.136669
Si Si6 0.017870 0.478673 0.279275
Si Si7 0.819343 0.782680 0.574959
Si Si8 0.804837 0.233205 0.571471
O O1 0.792860 0.185579 0.362355
O O2 0.008263 0.127203 0.189610
O O3 0.622966 0.194821 0.891433
O O4 0.161813 0.960254 0.313306
O O5 0.500000 0.500000 0.500000
O O6 0.988249 0.662634 0.174933
O O7 0.058269 0.759918 0.378872
O O8 0.111850 0.659157 0.595777
O O9 0.362770 0.310004 0.428757
O O10 0.291862 0.237972 0.479266
O O11 0.052320 0.435451 0.836814
O O12 0.539326 0.604600 0.547893
O O13 0.826839 0.502869 0.027772
O O14 0.134558 0.181900 0.199419
O O15 0.527314 0.928238 0.323299
O O16 0.007561 0.134314 0.842458
O O17 0.000000 0.500000 0.500000
#
# Coordination Sequence:
#
# PCOD9015456 Si02
#       8
#     2   2   2   2   2   2   2   2
#     4  10  21  43  62  98 132 164 209 268 317 395
#     4  10  22  41  60  91 128 168 212 265 312 373
#     4  10  22  38  69  94 128 169 214 258 332 379
#     4  10  24  40  58  93 125 156 230 257 304 390
#     4  10  22  39  67  94 129 168 211 260 326 380
#     4  11  22  41  64  86 123 174 203 267 322 371
#     4  10  21  42  62  98 130 161 215 271 307 389
#     4  11  22  40  65  90 127 174 207 261 328 378
#
# _framework density 23.254362
#
# number of rings (size 3 to 8) (size 9 to 14) (size 15 to 20)
#    0.000    1.750    1.250    2.250    1.750    2.500 
#    0.000   11.250    0.000    0.000    0.000    0.000 
#    0.000    0.000    0.000    0.000    0.000    0.000 
#
# Total GULP energy -89300.739099 kJ/mol
# GULP energy per Si atom -5581.296194 kJ/mol
# Density = 2.320143 g / cm^3
# Si number density = 23.254362 Si / 1000 Ang^3
#
#
#
# Elastic Constant Matrix: (Units=GPa)
#
#
# Indices 1 2 3 4 5 6 
#
# 1 71.4470 21.4544 4.1884 10.6173 9.8298 8.5390
# 2 21.4544 69.9932 33.5775 13.2004 0.0909 -1.5269
# 3 4.1884 33.5775 96.3867 12.3995 3.1033 12.5519
# 4 10.6173 13.2004 12.3995 39.6590 5.4168 9.2372
# 5 9.8298 0.0909 3.1033 5.4168 26.2391 8.8865
# 6 8.5390 -1.5269 12.5519 9.2372 8.8865 30.3663
#
#
#
# Elastic Compliance Matrix: (Units=1/GPa)
#
#
# Indices 1 2 3 4 5 6 
#
# 1 0.017114 -0.006124 0.002296 -0.001625 -0.004926 -0.004133
# 2 -0.006124 0.020691 -0.007256 -0.004783 0.001803 0.006689
# 3 0.002296 -0.007256 0.013764 -0.001007 -0.000099 -0.006364
# 4 -0.001625 -0.004783 -0.001007 0.029707 -0.002822 -0.007578
# 5 -0.004926 0.001803 -0.000099 -0.002822 0.044112 -0.010534
# 6 -0.004133 0.006689 -0.006364 -0.007578 -0.010534 0.042449
#
#
# Mechanical properties :
#
#
# Convention : Reuss Voigt Hill
#
# Bulk Modulus (GPa) = 34.01272 39.58527 36.79900
# Shear Modulus (GPa) = 25.02429 31.15998 28.09213
#
# Velocity S-wave (km/s) = 3.28397 3.66452 3.47945
# Velocity P-wave (km/s) = 5.38864 5.91309 5.65695
#
# Compressibility (1/GPa) = 0.02940076
#
# Stress axis : x y z
#
# Youngs Moduli (GPa) = 58.43106 48.33095 72.65200
#
# Poissons Ratio (x) = 0.29600 -0.16680
# Poissons Ratio (y) = 0.35786 0.52713
# Poissons Ratio (z) = -0.13415 0.35067
#
# Static dielectric constant tensor:
#      x y z
#    x 1.994610 0.007260 0.081700 
#    y 0.007260 1.905330 0.036420 
#    z 0.081700 0.036420 1.881440 
# 
# From -- ./inp_files/84473.got.cif
#   From: 2010.05.17/outbox.cif.g08.bks.cpg/sg2_43_cif.got.tgz:84473.got - 2010.06.03 11:33:40.
