data_PCOD9015081
_publ_section_title
;
Structure prediction by ZEFSAII (Michael W. Deem and Ramdas Pophale) SiO2 
 PCOD9015081
Probable space group: P -1
;
_chemical_formula_sum "Si O2"
_cell_formula_units_Z 14
_cell_length_a 8.254411
_cell_length_b 9.218428
_cell_length_c 8.734124
_cell_angle_alpha 108.823802
_cell_angle_beta 70.532499
_cell_angle_gamma 84.757923
_cell_volume 578.175686
_symmetry_space_group_name_H-M "P -1"
_symmetry_group_IT_number 2
_symmetry_cell_setting 'triclinic'
loop_
_space_group_symop_operation_xyz
x,y,z
-x,-y,-z
loop_
_atom_site_type_symbol
_atom_site_label
_atom_site_fract_x
_atom_site_fract_y
_atom_site_fract_z
Si Si1 0.611050 0.623330 0.386110
Si Si2 0.535900 0.326204 0.225191
Si Si3 0.168082 0.854972 0.125459
Si Si4 0.172217 0.868368 0.458576
Si Si5 0.265644 0.162156 0.080049
Si Si6 0.070151 0.615276 0.632264
Si Si7 0.254097 0.103356 0.725905
O O1 0.506354 0.515490 0.286277
O O2 0.500453 0.700117 0.594091
O O3 0.771505 0.494685 0.365002
O O4 0.690019 0.745985 0.309070
O O5 0.407849 0.244454 0.139639
O O6 0.729300 0.250430 0.077221
O O7 0.234454 0.789804 0.249868
O O8 0.958950 0.871941 0.181514
O O9 0.220352 0.022869 0.148494
O O10 0.123680 0.747845 0.553736
O O11 0.296802 0.963740 0.539945
O O12 0.000000 0.000000 0.500000
O O13 0.086178 0.296385 0.178272
O O14 0.323652 0.086024 0.871086
O O15 0.000000 0.500000 0.500000
#
# Coordination Sequence:
#
# PCOD9015081 Si02
#       7
#     2   2   2   2   2   2   2
#     4  11  26  48  69  99 141 187 223 279 344 413
#     4  11  26  47  66  96 150 183 217 279 360 404
#     4  11  23  45  72 101 138 177 228 290 338 403
#     4  10  21  41  71 102 131 173 230 282 331 397
#     4  12  24  42  71 106 136 178 230 287 341 402
#     4  12  22  41  75 102 132 177 234 281 333 399
#     4  11  24  44  74 102 133 177 243 280 328 406
#
# _framework density 24.214092999999998
#
# number of rings (size 3 to 8) (size 9 to 14) (size 15 to 20)
#    0.000    0.857    4.286    4.286    2.000    4.000 
#    5.143    1.429    0.000    0.000    0.000    0.000 
#    0.000    0.000    0.000    0.000    0.000    0.000 
#
# Total GULP energy -78405.094883 kJ/mol
# GULP energy per Si atom -5600.363920 kJ/mol
# Density = 2.415898 g / cm^3
# Si number density = 24.214093 Si / 1000 Ang^3
#
#
#
# Elastic Constant Matrix: (Units=GPa)
#
#
# Indices 1 2 3 4 5 6 
#
# 1 98.7702 38.7161 29.6861 2.1090 11.8535 14.6214
# 2 38.7161 136.1141 11.3475 -18.9939 23.6396 34.4775
# 3 29.6861 11.3475 91.5014 19.6818 13.0530 10.8949
# 4 2.1090 -18.9939 19.6818 40.2120 5.7735 3.7072
# 5 11.8535 23.6396 13.0530 5.7735 45.1046 16.7355
# 6 14.6214 34.4775 10.8949 3.7072 16.7355 55.5347
#
#
#
# Elastic Compliance Matrix: (Units=1/GPa)
#
#
# Indices 1 2 3 4 5 6 
#
# 1 0.012527 -0.003106 -0.003490 -0.000307 -0.000415 -0.000540
# 2 -0.003106 0.011255 -0.000685 0.006850 -0.003774 -0.005355
# 3 -0.003490 -0.000685 0.013871 -0.006643 -0.001735 -0.000411
# 4 -0.000307 0.006850 -0.006643 0.032338 -0.004347 -0.003718
# 5 -0.000415 -0.003774 -0.001735 -0.004347 0.027215 -0.005119
# 6 -0.000540 -0.005355 -0.000411 -0.003718 -0.005119 0.023345
#
#
# Mechanical properties :
#
#
# Convention : Reuss Voigt Hill
#
# Bulk Modulus (GPa) = 43.30702 53.98722 48.64712
# Shear Modulus (GPa) = 35.01095 44.61267 39.81181
#
# Velocity S-wave (km/s) = 3.80661 4.29701 4.05922
# Velocity P-wave (km/s) = 6.10281 6.85297 6.48874
#
# Compressibility (1/GPa) = 0.02309094
#
# Stress axis : x y z
#
# Youngs Moduli (GPa) = 79.82635 88.84604 72.09142
#
# Poissons Ratio (x) = 0.27600 0.25157
# Poissons Ratio (y) = 0.24798 0.04942
# Poissons Ratio (z) = 0.27856 0.06090
#
# Static dielectric constant tensor:
#      x y z
#    x 2.006770 -0.023300 -0.037260 
#    y -0.023300 1.896570 0.044630 
#    z -0.037260 0.044630 1.957920 
# 
# From -- ./inp_files/159554.got.cif
#   From: 2010.05.17/outbox.cif.g08.bks.cpg/sg2_80_cif.got.tgz:159554.got - 2010.06.03 11:33:40.
