data_PCOD9015403
_publ_section_title
;
Structure prediction by ZEFSAII (Michael W. Deem and Ramdas Pophale) SiO2 
 PCOD9015403
Probable space group: P -1
;
_chemical_formula_sum "Si O2"
_cell_formula_units_Z 12
_cell_length_a 7.469987
_cell_length_b 11.279722
_cell_length_c 8.938857
_cell_angle_alpha 122.194444
_cell_angle_beta 84.828191
_cell_angle_gamma 56.652562
_cell_volume 447.504321
_symmetry_space_group_name_H-M "P -1"
_symmetry_group_IT_number 2
_symmetry_cell_setting 'triclinic'
loop_
_space_group_symop_operation_xyz
x,y,z
-x,-y,-z
loop_
_atom_site_type_symbol
_atom_site_label
_atom_site_fract_x
_atom_site_fract_y
_atom_site_fract_z
Si Si1 0.457952 0.117015 0.933719
Si Si2 0.891868 0.483111 0.638284
Si Si3 0.320545 0.766247 0.845155
Si Si4 0.342538 0.910292 0.635869
Si Si5 0.661182 0.518965 0.189931
Si Si6 0.095395 0.731092 0.274819
O O1 0.427741 0.020943 0.743521
O O2 0.194857 0.346951 0.127453
O O3 0.664935 0.127403 0.948274
O O4 0.500000 0.000000 0.000000
O O5 0.620101 0.572513 0.663831
O O6 0.014510 0.288057 0.585762
O O7 0.000000 0.500000 0.500000
O O8 0.241856 0.885010 0.776979
O O9 0.224889 0.669959 0.843518
O O10 0.590978 0.694475 0.406963
O O11 0.110482 0.051781 0.633463
O O12 0.372067 0.638188 0.237107
O O13 0.829206 0.422403 0.963684
#
# Coordination Sequence:
#
# PCOD9015403 Si02
#       6
#     2   2   2   2   2   2
#     4   8  18  38  60  88 121 157 207 251 304 368
#     4   9  19  41  63  83 122 167 202 252 316 368
#     4   8  19  39  64  87 128 165 203 251 313 368
#     4  11  20  38  66  95 124 160 218 252 304 375
#     4  10  21  42  62  87 134 166 200 260 313 368
#     4  10  23  40  62  92 127 164 209 257 315 367
#
# _framework density 26.815382
#
# number of rings (size 3 to 8) (size 9 to 14) (size 15 to 20)
#    1.000    1.667    0.000    1.000    0.000    2.667 
#    3.000    8.333    0.000    0.000    0.000    0.000 
#    0.000    0.000    0.000    0.000    0.000    0.000 
#
# Total GULP energy -67058.680905 kJ/mol
# GULP energy per Si atom -5588.223409 kJ/mol
# Density = 2.675435 g / cm^3
# Si number density = 26.815382 Si / 1000 Ang^3
#
#
#
# Elastic Constant Matrix: (Units=GPa)
#
#
# Indices 1 2 3 4 5 6 
#
# 1 58.9260 23.0805 14.8638 -7.3160 -0.2348 -0.5465
# 2 23.0805 202.1932 31.2646 -2.1009 -7.5089 2.2666
# 3 14.8638 31.2646 101.3469 19.8384 19.3001 9.1670
# 4 -7.3160 -2.1009 19.8384 39.2356 7.2079 -1.7914
# 5 -0.2348 -7.5089 19.3001 7.2079 37.2181 -1.0637
# 6 -0.5465 2.2666 9.1670 -1.7914 -1.0637 32.7433
#
#
#
# Elastic Compliance Matrix: (Units=1/GPa)
#
#
# Indices 1 2 3 4 5 6 
#
# 1 0.019183 -0.001560 -0.003668 0.005294 0.000734 0.001769
# 2 -0.001560 0.005514 -0.002010 0.000661 0.002024 0.000257
# 3 -0.003668 -0.002010 0.014009 -0.006886 -0.006487 -0.004432
# 4 0.005294 0.000661 -0.006886 0.030535 -0.002074 0.003574
# 5 0.000734 0.002024 -0.006487 -0.002074 0.031121 0.002586
# 6 0.001769 0.000257 -0.004432 0.003574 0.002586 0.032073
#
#
# Mechanical properties :
#
#
# Convention : Reuss Voigt Hill
#
# Bulk Modulus (GPa) = 41.27239 55.65377 48.46308
# Shear Modulus (GPa) = 32.26036 41.38989 36.82512
#
# Velocity S-wave (km/s) = 3.47227 3.93302 3.70980
# Velocity P-wave (km/s) = 5.61251 6.43617 6.03840
#
# Compressibility (1/GPa) = 0.02422928
#
# Stress axis : x y z
#
# Youngs Moduli (GPa) = 52.12831 181.36108 71.38165
#
# Poissons Ratio (x) = 0.28295 0.26184
# Poissons Ratio (y) = 0.08133 0.14349
# Poissons Ratio (z) = 0.19122 0.36458
#
# Static dielectric constant tensor:
#      x y z
#    x 2.200690 -0.049710 0.031200 
#    y -0.049710 2.097340 0.019930 
#    z 0.031200 0.019930 2.125180 
# 
# From -- ./inp_files/166035.got.cif
#   From: 2010.05.17/outbox.cif.g08.bks.cpg/sg2_84_cif.got.tgz:166035.got - 2010.06.03 11:33:40.
