data_PCOD9015560
_publ_section_title
;
Structure prediction by ZEFSAII (Michael W. Deem and Ramdas Pophale) SiO2 
 PCOD9015560
Probable space group: P -1
;
_chemical_formula_sum "Si O2"
_cell_formula_units_Z 16
_cell_length_a 20.313643
_cell_length_b 17.159308
_cell_length_c 9.231299
_cell_angle_alpha 64.455103
_cell_angle_beta 54.391521
_cell_angle_gamma 18.305588
_cell_volume 722.591906
_symmetry_space_group_name_H-M "P -1"
_symmetry_group_IT_number 2
_symmetry_cell_setting 'triclinic'
loop_
_space_group_symop_operation_xyz
x,y,z
-x,-y,-z
loop_
_atom_site_type_symbol
_atom_site_label
_atom_site_fract_x
_atom_site_fract_y
_atom_site_fract_z
Si Si1 0.223144 0.753687 0.785192
Si Si2 0.467470 0.996089 0.202476
Si Si3 0.082464 0.248314 0.387466
Si Si4 0.532952 0.554151 0.006311
Si Si5 0.526227 0.887137 0.653009
Si Si6 0.055062 0.080132 0.560594
Si Si7 0.002197 0.352015 0.080691
Si Si8 0.024579 0.816709 0.757725
O O1 0.451669 0.489599 0.810521
O O2 0.149480 0.753951 0.765390
O O3 0.241292 0.820306 0.608895
O O4 0.000000 0.000000 0.000000
O O5 0.250457 0.140729 0.359976
O O6 0.384685 0.160683 0.272815
O O7 0.754911 0.667733 0.142479
O O8 0.500000 0.000000 0.000000
O O9 0.160324 0.069858 0.450500
O O10 0.132647 0.220909 0.177626
O O11 0.765691 0.582775 0.541890
O O12 0.500000 0.500000 0.000000
O O13 0.789459 0.340145 0.787670
O O14 0.284266 0.867955 0.058156
O O15 0.500000 0.000000 0.500000
O O16 0.237912 0.136909 0.840930
O O17 0.968528 0.157756 0.439651
O O18 0.889091 0.370011 0.191256
#
# Coordination Sequence:
#
# PCOD9015560 Si02
#       8
#     2   2   2   2   2   2   2   2
#     4  10  21  42  63  95 130 169 219 268 324 400
#     4  12  24  46  72  96 138 179 223 275 343 407
#     4  11  24  45  67 105 138 173 229 283 330 404
#     4  11  22  42  65  92 130 177 219 274 332 389
#     4  12  23  45  73  97 133 180 223 274 346 401
#     4  10  23  43  65  97 135 169 227 274 328 403
#     4  11  25  45  67 103 142 170 224 290 332 398
#     4  11  23  43  68  93 133 176 219 273 340 388
#
# _framework density 22.142510999999999
#
# number of rings (size 3 to 8) (size 9 to 14) (size 15 to 20)
#    0.000    1.000    5.000    2.625    0.000    2.500 
#   13.500    0.000    0.000    0.000    0.000    0.000 
#    0.000    0.000    0.000    0.000    0.000    0.000 
#
# Total GULP energy -89387.150217 kJ/mol
# GULP energy per Si atom -5586.696889 kJ/mol
# Density = 2.209211 g / cm^3
# Si number density = 22.142511 Si / 1000 Ang^3
#
#
#
# Elastic Constant Matrix: (Units=GPa)
#
#
# Indices 1 2 3 4 5 6 
#
# 1 96.1513 17.1304 21.5302 -21.3159 5.2078 0.6995
# 2 17.1304 56.2480 20.9032 -5.1937 -17.0094 3.6176
# 3 21.5302 20.9032 108.7975 -11.1161 4.3522 -7.0257
# 4 -21.3159 -5.1937 -11.1161 39.4627 -0.9654 -0.4056
# 5 5.2078 -17.0094 4.3522 -0.9654 33.6803 -0.1947
# 6 0.6995 3.6176 -7.0257 -0.4056 -0.1947 28.4474
#
#
#
# Elastic Compliance Matrix: (Units=1/GPa)
#
#
# Indices 1 2 3 4 5 6 
#
# 1 0.012909 -0.004156 -0.000984 0.006056 -0.003794 0.000028
# 2 -0.004156 0.025392 -0.004891 0.000020 0.014074 -0.004238
# 3 -0.000984 -0.004891 0.010874 0.001833 -0.003651 0.003333
# 4 0.006056 0.000020 0.001833 0.029130 -0.000324 0.000714
# 5 -0.003794 0.014074 -0.003651 -0.000324 0.037834 -0.002344
# 6 0.000028 -0.004238 0.003333 0.000714 -0.002344 0.036508
#
#
# Mechanical properties :
#
#
# Convention : Reuss Voigt Hill
#
# Bulk Modulus (GPa) = 34.34693 42.25827 38.30260
# Shear Modulus (GPa) = 27.41029 33.76029 30.58529
#
# Velocity S-wave (km/s) = 3.52220 3.90895 3.72061
# Velocity P-wave (km/s) = 5.66451 6.28485 5.98272
#
# Compressibility (1/GPa) = 0.02911468
#
# Stress axis : x y z
#
# Youngs Moduli (GPa) = 77.46648 39.38233 91.95994
#
# Poissons Ratio (x) = 0.16366 0.09047
# Poissons Ratio (y) = 0.32193 0.44976
# Poissons Ratio (z) = 0.07621 0.19261
#
# Static dielectric constant tensor:
#      x y z
#    x 1.832730 0.008930 -0.036960 
#    y 0.008930 1.856410 -0.007350 
#    z -0.036960 -0.007350 1.774300 
# 
# From -- ./inp_files/348425.got.cif
#   From: 2010.05.17/outbox.cif.g08.bks.cpg/sg2_175_cif.got.tgz:348425.got - 2010.06.03 11:33:40.
