data_PCOD9015433
_publ_section_title
;
Structure prediction by ZEFSAII (Michael W. Deem and Ramdas Pophale) SiO2 
 PCOD9015433
Probable space group: P -1
;
_chemical_formula_sum "Si O2"
_cell_formula_units_Z 16
_cell_length_a 8.785202
_cell_length_b 21.435661
_cell_length_c 6.787334
_cell_angle_alpha 134.259729
_cell_angle_beta 121.393652
_cell_angle_gamma 77.341045
_cell_volume 759.283247
_symmetry_space_group_name_H-M "P -1"
_symmetry_group_IT_number 2
_symmetry_cell_setting 'triclinic'
loop_
_space_group_symop_operation_xyz
x,y,z
-x,-y,-z
loop_
_atom_site_type_symbol
_atom_site_label
_atom_site_fract_x
_atom_site_fract_y
_atom_site_fract_z
Si Si1 0.068287 0.677646 0.942084
Si Si2 0.333842 0.595771 0.159177
Si Si3 0.733429 0.609014 0.271944
Si Si4 0.382623 0.918132 0.366610
Si Si5 0.479357 0.766871 0.842215
Si Si6 0.338976 0.863212 0.628436
Si Si7 0.187440 0.276528 0.806563
Si Si8 0.930182 0.088883 0.120579
O O1 0.920099 0.653046 0.614053
O O2 0.950539 0.680193 0.066140
O O3 0.200091 0.610369 0.923814
O O4 0.202903 0.776620 0.243284
O O5 0.545107 0.612912 0.266641
O O6 0.334840 0.674094 0.491215
O O7 0.274970 0.496416 0.984924
O O8 0.731511 0.658611 0.173614
O O9 0.420780 0.925082 0.638070
O O10 0.500000 0.000000 0.500000
O O11 0.421741 0.826985 0.105704
O O12 0.173952 0.916190 0.168068
O O13 0.482993 0.825299 0.774109
O O14 0.663320 0.742916 0.984002
O O15 0.215513 0.902558 0.786688
O O16 0.084360 0.180074 0.439874
O O17 0.000000 0.000000 0.000000
#
# Coordination Sequence:
#
# PCOD9015433 Si02
#       8
#     2   2   2   2   2   2   2   2
#     4  10  21  42  62  92 129 168 217 261 326 384
#     4  10  23  43  62  95 131 170 218 269 323 389
#     4  11  23  42  64  94 131 169 219 270 326 378
#     4  11  23  41  64  95 124 166 218 261 327 389
#     4  10  22  40  61  91 127 162 218 257 320 384
#     4   9  22  41  65  90 129 169 207 270 320 380
#     4  11  23  40  65  94 125 171 217 263 323 390
#     4  10  22  42  60  95 130 162 218 263 322 395
#
# _framework density 21.072505
#
# number of rings (size 3 to 8) (size 9 to 14) (size 15 to 20)
#    0.000    1.750    1.250    2.625    3.500    3.500 
#    2.250    0.000    0.000    0.000    0.000    0.000 
#    0.000    0.000    0.000    0.000    0.000    0.000 
#
# Total GULP energy -89392.486370 kJ/mol
# GULP energy per Si atom -5587.030398 kJ/mol
# Density = 2.102454 g / cm^3
# Si number density = 21.072505 Si / 1000 Ang^3
#
#
#
# Elastic Constant Matrix: (Units=GPa)
#
#
# Indices 1 2 3 4 5 6 
#
# 1 43.5924 55.2022 27.9914 -6.5482 9.6086 -3.7859
# 2 55.2022 148.3727 54.5567 -15.5369 -2.0467 -3.7520
# 3 27.9914 54.5567 91.7703 -21.5954 4.2675 -0.0050
# 4 -6.5482 -15.5369 -21.5954 33.8965 -16.4034 2.5201
# 5 9.6086 -2.0467 4.2675 -16.4034 31.5522 -7.6243
# 6 -3.7859 -3.7520 -0.0050 2.5201 -7.6243 44.4418
#
#
#
# Elastic Compliance Matrix: (Units=1/GPa)
#
#
# Indices 1 2 3 4 5 6 
#
# 1 0.057103 -0.020403 -0.007808 -0.015843 -0.025995 -0.000420
# 2 -0.020403 0.016101 -0.002071 0.007775 0.011874 0.001217
# 3 -0.007808 -0.002071 0.016839 0.011000 0.005562 -0.000508
# 4 -0.015843 0.007775 0.011000 0.052037 0.031312 0.001729
# 5 -0.025995 0.011874 0.005562 0.031312 0.057571 0.006890
# 6 -0.000420 0.001217 -0.000508 0.001729 0.006890 0.023652
#
#
# Mechanical properties :
#
#
# Convention : Reuss Voigt Hill
#
# Bulk Modulus (GPa) = 33.92094 62.13732 48.02913
# Shear Modulus (GPa) = 17.02456 31.71044 24.36750
#
# Velocity S-wave (km/s) = 2.84545 3.88342 3.40423
# Velocity P-wave (km/s) = 5.18918 7.04694 6.18817
#
# Compressibility (1/GPa) = 0.02948031
#
# Stress axis : x y z
#
# Youngs Moduli (GPa) = 17.51222 62.10833 59.38447
#
# Poissons Ratio (x) = 1.26717 0.46365
# Poissons Ratio (y) = 0.35730 0.12300
# Poissons Ratio (z) = 0.13673 0.12865
#
# Static dielectric constant tensor:
#      x y z
#    x 1.771350 -0.014640 0.005850 
#    y -0.014640 1.758430 -0.000360 
#    z 0.005850 -0.000360 1.799750 
# 
# From -- ./inp_files/46966.got.cif
#   From: 2010.05.17/outbox.cif.g08.bks.cpg/sg2_24_cif.got.tgz:46966.got - 2010.06.03 11:33:40.
