data_PCOD9015168
_publ_section_title
;
Structure prediction by ZEFSAII (Michael W. Deem and Ramdas Pophale) SiO2 
 PCOD9015168
Probable space group: P -1
;
_chemical_formula_sum "Si O2"
_cell_formula_units_Z 14
_cell_length_a 7.931604
_cell_length_b 15.320483
_cell_length_c 8.974666
_cell_angle_alpha 30.791185
_cell_angle_beta 98.940711
_cell_angle_gamma 105.253281
_cell_volume 533.075665
_symmetry_space_group_name_H-M "P -1"
_symmetry_group_IT_number 2
_symmetry_cell_setting 'triclinic'
loop_
_space_group_symop_operation_xyz
x,y,z
-x,-y,-z
loop_
_atom_site_type_symbol
_atom_site_label
_atom_site_fract_x
_atom_site_fract_y
_atom_site_fract_z
Si Si1 0.222668 0.920239 0.881730
Si Si2 0.668039 0.332095 0.510743
Si Si3 0.315531 0.362413 0.725240
Si Si4 0.381115 0.179665 0.277123
Si Si5 0.022687 0.211137 0.196458
Si Si6 0.753554 0.723828 0.484578
Si Si7 0.222772 0.633887 0.855664
O O1 0.060009 0.776250 0.997024
O O2 0.342130 0.004185 0.630249
O O3 0.171317 0.082782 0.719520
O O4 0.323162 0.832500 0.144017
O O5 0.749147 0.502235 0.374821
O O6 0.461748 0.317043 0.466395
O O7 0.773327 0.340903 0.358199
O O8 0.500000 0.500000 0.500000
O O9 0.216099 0.288384 0.670153
O O10 0.349304 0.200003 0.066405
O O11 0.229819 0.273537 0.172630
O O12 0.576833 0.284033 0.184898
O O13 0.900497 0.269078 0.213910
O O14 0.000000 0.000000 0.500000
O O15 0.818184 0.565244 0.798455
#
# Coordination Sequence:
#
# PCOD9015168 Si02
#       7
#     2   2   2   2   2   2   2
#     4  11  24  42  68 107 157 182 237 307 359 427
#     4  11  22  41  71 114 143 185 249 296 358 439
#     4  10  21  41  72 102 145 182 247 297 347 436
#     4  11  23  47  75 103 146 188 244 297 359 429
#     4  10  27  49  69 112 147 187 250 297 359 443
#     4  11  22  41  71 112 143 186 250 297 355 443
#     4  12  23  46  82 100 143 203 237 297 371 421
#
# _framework density 26.262685000000001
#
# number of rings (size 3 to 8) (size 9 to 14) (size 15 to 20)
#    0.000    1.143    4.286    2.571    2.000    4.571 
#    0.000   15.714    0.000    0.000    0.000    0.000 
#    0.000    0.000    0.000    0.000    0.000    0.000 
#
# Total GULP energy -78308.786626 kJ/mol
# GULP energy per Si atom -5593.484759 kJ/mol
# Density = 2.620291 g / cm^3
# Si number density = 26.262685 Si / 1000 Ang^3
#
#
#
# Elastic Constant Matrix: (Units=GPa)
#
#
# Indices 1 2 3 4 5 6 
#
# 1 161.2456 76.8800 41.3060 -3.8834 3.9045 -15.8335
# 2 76.8800 182.4512 46.6685 16.4803 -7.7926 -21.5195
# 3 41.3060 46.6685 186.2550 32.9321 13.9442 -26.1534
# 4 -3.8834 16.4803 32.9321 50.5826 -3.5546 -8.7078
# 5 3.9045 -7.7926 13.9442 -3.5546 33.8431 -7.2001
# 6 -15.8335 -21.5195 -26.1534 -8.7078 -7.2001 50.0948
#
#
#
# Elastic Compliance Matrix: (Units=1/GPa)
#
#
# Indices 1 2 3 4 5 6 
#
# 1 0.008289 -0.003329 -0.001299 0.002666 -0.000722 0.000871
# 2 -0.003329 0.007577 -0.000798 -0.001694 0.002679 0.001877
# 3 -0.001299 -0.000798 0.007106 -0.004378 -0.003047 0.001758
# 4 0.002666 -0.001694 -0.004378 0.024124 0.004199 0.002626
# 5 -0.000722 0.002679 -0.003047 0.004199 0.032966 0.004799
# 6 0.000871 0.001877 0.001758 0.002626 0.004799 0.023108
#
#
# Mechanical properties :
#
#
# Convention : Reuss Voigt Hill
#
# Bulk Modulus (GPa) = 82.51249 95.51785 89.01517
# Shear Modulus (GPa) = 42.35100 51.24392 46.79746
#
# Velocity S-wave (km/s) = 4.02007 4.42204 4.22583
# Velocity P-wave (km/s) = 7.28246 7.90707 7.60118
#
# Compressibility (1/GPa) = 0.01211938
#
# Stress axis : x y z
#
# Youngs Moduli (GPa) = 120.63878 131.98499 140.72743
#
# Poissons Ratio (x) = 0.43944 0.18281
# Poissons Ratio (y) = 0.40167 0.11225
# Poissons Ratio (z) = 0.15672 0.10527
#
# Static dielectric constant tensor:
#      x y z
#    x 2.207850 0.033990 -0.124900 
#    y 0.033990 2.115690 0.014150 
#    z -0.124900 0.014150 2.208910 
# 
# From -- ./inp_files/278688.got.cif
#   From: 2010.05.17/outbox.cif.g08.bks.cpg/sg2_140_cif.got.tgz:278688.got - 2010.06.03 11:33:40.
