data_PCOD9015282
_publ_section_title
;
Structure prediction by ZEFSAII (Michael W. Deem and Ramdas Pophale) SiO2 
 PCOD9015282
Probable space group: P -1
;
_chemical_formula_sum "Si O2"
_cell_formula_units_Z 12
_cell_length_a 5.168685
_cell_length_b 12.936510
_cell_length_c 8.856380
_cell_angle_alpha 52.805794
_cell_angle_beta 117.977379
_cell_angle_gamma 110.522454
_cell_volume 414.703256
_symmetry_space_group_name_H-M "P -1"
_symmetry_group_IT_number 2
_symmetry_cell_setting 'triclinic'
loop_
_space_group_symop_operation_xyz
x,y,z
-x,-y,-z
loop_
_atom_site_type_symbol
_atom_site_label
_atom_site_fract_x
_atom_site_fract_y
_atom_site_fract_z
Si Si1 0.314840 0.043641 0.620991
Si Si2 0.586693 0.805121 0.765892
Si Si3 0.428482 0.477837 0.745025
Si Si4 0.461219 0.304288 0.644424
Si Si5 0.881860 0.096667 0.006454
Si Si6 0.955808 0.393078 0.244777
O O1 0.400712 0.175740 0.429352
O O2 0.252189 0.998395 0.815147
O O3 0.525735 0.941518 0.703879
O O4 0.000000 0.000000 0.500000
O O5 0.315075 0.698725 0.817861
O O6 0.900219 0.795636 0.937720
O O7 0.431907 0.342464 0.777573
O O8 0.363347 0.576265 0.502767
O O9 0.202099 0.503100 0.790300
O O10 0.762744 0.535428 0.829040
O O11 0.650936 0.183587 0.787299
O O12 0.132792 0.299671 0.488191
O O13 0.000000 0.000000 0.000000
#
# Coordination Sequence:
#
# PCOD9015282 Si02
#       6
#     2   2   2   2   2   2
#     4   9  22  43  67  92 146 194 248 288 361 438
#     4  10  23  43  69 101 142 193 251 291 360 449
#     4   9  21  41  75 104 140 190 247 291 368 441
#     4   9  22  41  69 104 150 185 241 301 368 434
#     4  11  25  45  69 108 150 193 240 309 374 424
#     4  10  21  41  75 105 131 194 247 294 362 437
#
# _framework density 28.936356
#
# number of rings (size 3 to 8) (size 9 to 14) (size 15 to 20)
#    1.000    1.333    0.000    0.500    4.667    7.333 
#    0.000    2.500    0.000    0.000    0.000    0.000 
#    0.000    0.000    0.000    0.000    0.000    0.000 
#
# Total GULP energy -67180.378996 kJ/mol
# GULP energy per Si atom -5598.364916 kJ/mol
# Density = 2.887050 g / cm^3
# Si number density = 28.936356 Si / 1000 Ang^3
#
#
#
# Elastic Constant Matrix: (Units=GPa)
#
#
# Indices 1 2 3 4 5 6 
#
# 1 198.5050 56.3595 61.1750 -8.0717 -26.4645 -20.6363
# 2 56.3595 136.6572 37.1228 -2.3849 0.4652 -5.0952
# 3 61.1750 37.1228 122.1001 14.7263 -4.1197 3.1942
# 4 -8.0717 -2.3849 14.7263 54.3009 -1.8966 12.1521
# 5 -26.4645 0.4652 -4.1197 -1.8966 63.5145 -0.5737
# 6 -20.6363 -5.0952 3.1942 12.1521 -0.5737 76.5093
#
#
#
# Elastic Compliance Matrix: (Units=1/GPa)
#
#
# Indices 1 2 3 4 5 6 
#
# 1 0.007204 -0.002042 -0.003123 0.001545 0.002876 0.001714
# 2 -0.002042 0.008633 -0.001696 0.000499 -0.001009 0.000008
# 3 -0.003123 -0.001696 0.010663 -0.003256 -0.000702 -0.000889
# 4 0.001545 0.000499 -0.003256 0.020170 0.001008 -0.002610
# 5 0.002876 -0.001009 -0.000702 0.001008 0.016941 0.000705
# 6 0.001714 0.000008 -0.000889 -0.002610 0.000705 0.013990
#
#
# Mechanical properties :
#
#
# Convention : Reuss Voigt Hill
#
# Bulk Modulus (GPa) = 78.25863 85.17521 81.71692
# Shear Modulus (GPa) = 52.31171 59.03861 55.67516
#
# Velocity S-wave (km/s) = 4.25646 4.52186 4.39116
# Velocity P-wave (km/s) = 7.15964 7.53407 7.34924
#
# Compressibility (1/GPa) = 0.01277814
#
# Stress axis : x y z
#
# Youngs Moduli (GPa) = 138.81017 115.83723 93.78631
#
# Poissons Ratio (x) = 0.23650 0.29288
# Poissons Ratio (y) = 0.28341 0.15907
# Poissons Ratio (z) = 0.43348 0.19648
#
# Static dielectric constant tensor:
#      x y z
#    x 2.303410 0.072110 0.174020 
#    y 0.072110 2.547250 0.371720 
#    z 0.174020 0.371720 3.130730 
# 
# From -- ./inp_files/365659.got.cif
#   From: 2010.05.17/outbox.cif.g08.bks.cpg/sg2_183_cif.got.tgz:365659.got - 2010.06.03 11:33:40.
