data_PCOD9015938
_publ_section_title
;
Structure prediction by ZEFSAII (Michael W. Deem and Ramdas Pophale) SiO2 
 PCOD9015938
Probable space group: P -1
;
_chemical_formula_sum "Si O2"
_cell_formula_units_Z 16
_cell_length_a 15.532312
_cell_length_b 12.143286
_cell_length_c 14.576191
_cell_angle_alpha 33.056107
_cell_angle_beta 151.823481
_cell_angle_gamma 129.613306
_cell_volume 651.137494
_symmetry_space_group_name_H-M "P -1"
_symmetry_group_IT_number 2
_symmetry_cell_setting 'triclinic'
loop_
_space_group_symop_operation_xyz
x,y,z
-x,-y,-z
loop_
_atom_site_type_symbol
_atom_site_label
_atom_site_fract_x
_atom_site_fract_y
_atom_site_fract_z
Si Si1 0.056255 0.325112 0.282788
Si Si2 0.056400 0.200218 0.077049
Si Si3 0.233998 0.731322 0.652292
Si Si4 0.167424 0.205472 0.665774
Si Si5 0.705497 0.992298 0.735711
Si Si6 0.331782 0.883973 0.198071
Si Si7 0.676162 0.535326 0.695991
Si Si8 0.326802 0.533141 0.680622
O O1 0.157261 0.176011 0.567998
O O2 0.217563 0.338904 0.353528
O O3 0.954470 0.568703 0.060842
O O4 0.863283 0.316968 0.056497
O O5 0.202584 0.978898 0.420046
O O6 0.121067 0.160336 0.059853
O O7 0.840888 0.204537 0.893815
O O8 0.235293 0.603257 0.647920
O O9 0.050118 0.745187 0.531947
O O10 0.441483 0.612301 0.981304
O O11 0.234182 0.400589 0.622764
O O12 0.315574 0.997407 0.005998
O O13 0.719445 0.936413 0.894825
O O14 0.695975 0.237752 0.546223
O O15 0.500000 0.000000 0.500000
O O16 0.546737 0.694013 0.543995
O O17 0.500000 0.500000 0.500000
#
# Coordination Sequence:
#
# PCOD9015938 Si02
#       8
#     2   2   2   2   2   2   2   2
#     4  11  25  44  72  99 128 171 221 279 333 395
#     4  10  21  42  65  99 136 171 224 268 326 400
#     4   9  22  38  60  96 139 178 215 266 324 394
#     4  11  25  40  66  98 133 170 217 281 332 386
#     4  11  24  38  65 101 137 182 222 267 322 397
#     4  11  24  43  68  98 133 179 222 272 333 393
#     4  11  25  47  73  94 126 173 227 274 333 397
#     4  10  22  39  60  95 139 182 220 259 326 392
#
# _framework density 24.572382999999999
#
# number of rings (size 3 to 8) (size 9 to 14) (size 15 to 20)
#    0.000    1.500    1.250    2.250   10.500    2.500 
#    0.000    0.625    0.000    0.000    0.000    0.000 
#    0.000    0.000    0.000    0.000    0.000    0.000 
#
# Total GULP energy -89590.845311 kJ/mol
# GULP energy per Si atom -5599.427832 kJ/mol
# Density = 2.451646 g / cm^3
# Si number density = 24.572383 Si / 1000 Ang^3
#
#
#
# Elastic Constant Matrix: (Units=GPa)
#
#
# Indices 1 2 3 4 5 6 
#
# 1 106.7921 2.4455 27.4570 12.6811 -2.0323 -3.0975
# 2 2.4455 79.6973 13.0599 11.4701 -1.4444 1.4629
# 3 27.4570 13.0599 89.6872 22.3609 5.3659 4.9239
# 4 12.6811 11.4701 22.3609 37.1483 -5.3312 2.1201
# 5 -2.0323 -1.4444 5.3659 -5.3312 48.8847 5.9652
# 6 -3.0975 1.4629 4.9239 2.1201 5.9652 22.3782
#
#
#
# Elastic Compliance Matrix: (Units=1/GPa)
#
#
# Indices 1 2 3 4 5 6 
#
# 1 0.010403 0.000409 -0.002873 -0.002032 0.000274 0.002165
# 2 0.000409 0.013237 -0.001184 -0.003471 0.000193 -0.000271
# 3 -0.002873 -0.001184 0.014321 -0.007478 -0.002279 -0.002155
# 4 -0.002032 -0.003471 -0.007478 0.034025 0.004696 -0.002884
# 5 0.000274 0.000193 -0.002279 0.004696 0.021939 -0.005766
# 6 0.002165 -0.000271 -0.002155 -0.002884 -0.005766 0.047288
#
#
# Mechanical properties :
#
#
# Convention : Reuss Voigt Hill
#
# Bulk Modulus (GPa) = 32.61023 40.23350 36.42186
# Shear Modulus (GPa) = 31.50014 37.22986 34.36500
#
# Velocity S-wave (km/s) = 3.58429 3.89666 3.74374
# Velocity P-wave (km/s) = 5.51629 6.05428 5.79154
#
# Compressibility (1/GPa) = 0.03066523
#
# Stress axis : x y z
#
# Youngs Moduli (GPa) = 96.13007 75.54609 69.82824
#
# Poissons Ratio (x) = -0.03092 0.20060
# Poissons Ratio (y) = -0.03935 0.08268
# Poissons Ratio (z) = 0.27616 0.08945
#
# Static dielectric constant tensor:
#      x y z
#    x 1.967340 -0.068990 -0.074710 
#    y -0.068990 2.033170 0.020320 
#    z -0.074710 0.020320 1.986800 
# 
# From -- ./inp_files/534159.got.cif
#   From: 2010.05.17/outbox.cif.g08.bks.cpg/sg2_268_cif.got.tgz:534159.got - 2010.06.03 11:33:40.
