data_PCOD9015240
_publ_section_title
;
Structure prediction by ZEFSAII (Michael W. Deem and Ramdas Pophale) SiO2 
 PCOD9015240
Probable space group: P -1
;
_chemical_formula_sum "Si O2"
_cell_formula_units_Z 15
_cell_length_a 11.125512
_cell_length_b 10.884786
_cell_length_c 8.605709
_cell_angle_alpha 140.590895
_cell_angle_beta 97.262959
_cell_angle_gamma 101.120221
_cell_volume 582.275717
_symmetry_space_group_name_H-M "P -1"
_symmetry_group_IT_number 2
_symmetry_cell_setting 'triclinic'
loop_
_space_group_symop_operation_xyz
x,y,z
-x,-y,-z
loop_
_atom_site_type_symbol
_atom_site_label
_atom_site_fract_x
_atom_site_fract_y
_atom_site_fract_z
Si Si1 0.097759 0.532478 0.398430
Si Si2 0.000000 0.500000 0.000000
Si Si3 0.638194 0.178045 0.776021
Si Si4 0.155394 0.995784 0.410007
Si Si5 0.061629 0.056904 0.897640
Si Si6 0.651364 0.740336 0.823183
Si Si7 0.636811 0.557873 0.975970
Si Si8 0.370562 0.663660 0.727025
O O1 0.105035 0.311121 0.140710
O O2 0.252702 0.682942 0.629888
O O3 0.000000 0.500000 0.500000
O O4 0.031709 0.558160 0.253701
O O5 0.942555 0.238608 0.765261
O O6 0.690752 0.382924 0.863219
O O7 0.500000 0.000000 0.500000
O O8 0.733842 0.064365 0.710212
O O9 0.624418 0.269449 0.028303
O O10 0.245820 0.202304 0.730797
O O11 0.061340 0.062272 0.355378
O O12 0.204927 0.053151 0.914232
O O13 0.000000 0.000000 0.000000
O O14 0.610389 0.581738 0.814339
O O15 0.526241 0.789415 0.815813
O O16 0.664499 0.592411 0.543894
O O17 0.500000 0.500000 0.000000
#
# Coordination Sequence:
#
# PCOD9015240 Si02
#       8
#     2   1   2   2   2   2   2   2
#     4  10  22  44  73 109 150 208 256 319 407 474
#     4  10  24  48  72 110 166 196 262 328 384 490
#     4  12  25  47  78 111 156 205 268 335 399 480
#     4  11  26  46  76 113 151 209 266 325 408 474
#     4  10  24  44  68 105 152 199 256 328 402 477
#     4  10  23  43  68 110 153 195 267 324 400 479
#     4  12  25  47  77 109 155 211 262 330 405 477
#     4  10  21  41  73 106 147 204 260 322 397 468
#
# _framework density 25.760992000000002
#
# number of rings (size 3 to 8) (size 9 to 14) (size 15 to 20)
#    0.000    1.333    2.667    1.600    9.333    1.600 
#    0.000    0.667    0.000    0.000    0.000    0.000 
#    0.000    0.000    0.000    0.000    0.000    0.000 
#
# Total GULP energy -83630.628531 kJ/mol
# GULP energy per Si atom -5575.375235 kJ/mol
# Density = 2.570236 g / cm^3
# Si number density = 25.760992 Si / 1000 Ang^3
#
#
#
# Elastic Constant Matrix: (Units=GPa)
#
#
# Indices 1 2 3 4 5 6 
#
# 1 172.7620 30.5623 64.7826 -20.8023 20.5816 -10.0853
# 2 30.5623 91.6578 64.6370 -15.3176 15.7423 0.4666
# 3 64.7826 64.6370 180.7560 -30.8041 19.2294 -9.3241
# 4 -20.8023 -15.3176 -30.8041 50.5188 -7.6163 -7.5165
# 5 20.5816 15.7423 19.2294 -7.6163 52.3054 4.0949
# 6 -10.0853 0.4666 -9.3241 -7.5165 4.0949 29.9394
#
#
#
# Elastic Compliance Matrix: (Units=1/GPa)
#
#
# Indices 1 2 3 4 5 6 
#
# 1 0.007129 -0.000547 -0.001707 0.001822 -0.001951 0.002603
# 2 -0.000547 0.015075 -0.004886 0.000808 -0.002296 -0.001424
# 3 -0.001707 -0.004886 0.008740 0.003500 -0.000813 0.003213
# 4 0.001822 0.000808 0.003500 0.024166 0.000672 0.007666
# 5 -0.001951 -0.002296 -0.000813 0.000672 0.021257 -0.003613
# 6 0.002603 -0.001424 0.003213 0.007666 -0.003613 0.037719
#
#
# Mechanical properties :
#
#
# Convention : Reuss Voigt Hill
#
# Bulk Modulus (GPa) = 60.01016 85.01550 72.51283
# Shear Modulus (GPa) = 37.33542 45.56565 41.45054
#
# Velocity S-wave (km/s) = 3.81110 4.21026 4.01564
# Velocity P-wave (km/s) = 6.53540 7.53049 7.05052
#
# Compressibility (1/GPa) = 0.01666384
#
# Stress axis : x y z
#
# Youngs Moduli (GPa) = 140.27272 66.33552 114.41497
#
# Poissons Ratio (x) = 0.03627 0.19532
# Poissons Ratio (y) = 0.07671 0.55904
# Poissons Ratio (z) = 0.23947 0.32412
#
# Static dielectric constant tensor:
#      x y z
#    x 2.043490 0.015940 -0.015870 
#    y 0.015940 1.995290 0.022770 
#    z -0.015870 0.022770 2.058160 
# 
# From -- ./inp_files/261117.got.cif
#   From: 2010.05.17/outbox.cif.g08.bks.cpg/sg2_131_cif.got.tgz:261117.got - 2010.06.03 11:33:40.
