data_PCOD9015704
_publ_section_title
;
Structure prediction by ZEFSAII (Michael W. Deem and Ramdas Pophale) SiO2 
 PCOD9015704
Probable space group: P -1
;
_chemical_formula_sum "Si O2"
_cell_formula_units_Z 16
_cell_length_a 14.695951
_cell_length_b 9.524119
_cell_length_c 14.453927
_cell_angle_alpha 62.283246
_cell_angle_beta 28.930843
_cell_angle_gamma 74.695020
_cell_volume 816.566786
_symmetry_space_group_name_H-M "P -1"
_symmetry_group_IT_number 2
_symmetry_cell_setting 'triclinic'
loop_
_space_group_symop_operation_xyz
x,y,z
-x,-y,-z
loop_
_atom_site_type_symbol
_atom_site_label
_atom_site_fract_x
_atom_site_fract_y
_atom_site_fract_z
Si Si1 0.716439 0.148845 0.279377
Si Si2 0.784323 0.920041 0.433875
Si Si3 0.836611 0.371745 0.428253
Si Si4 0.971375 0.248078 0.836627
Si Si5 0.973105 0.920779 0.651636
Si Si6 0.412748 0.652228 0.529156
Si Si7 0.417066 0.982648 0.808801
Si Si8 0.480858 0.129481 0.901576
O O1 0.676547 0.314078 0.303656
O O2 0.500000 0.000000 0.500000
O O3 0.826457 0.090415 0.284170
O O4 0.862262 0.180471 0.052148
O O5 0.834831 0.794561 0.355778
O O6 0.551742 0.882868 0.674917
O O7 0.904965 0.956032 0.412040
O O8 0.742448 0.382064 0.407671
O O9 0.657424 0.306642 0.682736
O O10 0.980521 0.555133 0.269314
O O11 0.948948 0.236694 0.368874
O O12 0.804848 0.140015 0.947323
O O13 0.738801 0.860451 0.901843
O O14 0.000000 0.000000 0.500000
O O15 0.500000 0.500000 0.500000
O O16 0.565895 0.841741 0.311921
O O17 0.507110 0.044249 0.808472
O O18 0.500000 0.000000 0.000000
#
# Coordination Sequence:
#
# PCOD9015704 Si02
#       8
#     2   2   2   2   2   2   2   2
#     4  11  22  42  66  95 138 185 228 260 332 405
#     4  11  22  42  67  96 132 180 231 264 331 410
#     4  11  26  43  62 107 132 168 232 278 333 399
#     4  12  25  39  67  96 138 180 213 278 338 394
#     4  12  22  44  77  97 127 177 226 282 342 398
#     4  10  22  40  66  95 138 176 227 275 317 391
#     4  10  21  42  64  95 134 174 224 270 329 402
#     4  11  21  43  73  94 127 170 223 284 336 393
#
# _framework density 19.594232999999999
#
# number of rings (size 3 to 8) (size 9 to 14) (size 15 to 20)
#    0.000    1.000    8.750    0.375    1.750    4.500 
#    0.000    2.500    0.000    3.000    0.000    0.000 
#    0.000    0.000    0.000    0.000    0.000    0.000 
#
# Total GULP energy -89171.640482 kJ/mol
# GULP energy per Si atom -5573.227530 kJ/mol
# Density = 1.954964 g / cm^3
# Si number density = 19.594233 Si / 1000 Ang^3
#
#
#
# Elastic Constant Matrix: (Units=GPa)
#
#
# Indices 1 2 3 4 5 6 
#
# 1 79.9800 30.1961 8.6719 -1.4309 15.2137 -13.5905
# 2 30.1961 126.5452 23.5654 20.4426 4.8124 -7.0451
# 3 8.6719 23.5654 75.4311 9.1839 4.5565 -3.6849
# 4 -1.4309 20.4426 9.1839 40.1374 7.4347 -7.4936
# 5 15.2137 4.8124 4.5565 7.4347 29.9867 7.4019
# 6 -13.5905 -7.0451 -3.6849 -7.4936 7.4019 26.2004
#
#
#
# Elastic Compliance Matrix: (Units=1/GPa)
#
#
# Indices 1 2 3 4 5 6 
#
# 1 0.020251 -0.004768 -0.000207 0.009154 -0.015762 0.016265
# 2 -0.004768 0.010139 -0.002225 -0.005928 0.003260 -0.002676
# 3 -0.000207 -0.002225 0.014335 -0.001604 -0.001644 0.001316
# 4 0.009154 -0.005928 -0.001604 0.034956 -0.016454 0.017575
# 5 -0.015762 0.003260 -0.001644 -0.016454 0.051783 -0.026866
# 6 0.016265 -0.002676 0.001316 0.017575 -0.026866 0.058686
#
#
# Mechanical properties :
#
#
# Convention : Reuss Voigt Hill
#
# Bulk Modulus (GPa) = 32.97472 45.20256 39.08864
# Shear Modulus (GPa) = 23.29289 33.89976 28.59633
#
# Velocity S-wave (km/s) = 3.45158 4.16395 3.82439
# Velocity P-wave (km/s) = 5.72275 6.79980 6.28439
#
# Compressibility (1/GPa) = 0.03032626
#
# Stress axis : x y z
#
# Youngs Moduli (GPa) = 49.37946 98.62823 69.75972
#
# Poissons Ratio (x) = 0.47023 0.01441
# Poissons Ratio (y) = 0.23543 0.15524
# Poissons Ratio (z) = 0.01020 0.21948
#
# Static dielectric constant tensor:
#      x y z
#    x 1.726550 0.026620 0.001360 
#    y 0.026620 1.693920 0.025220 
#    z 0.001360 0.025220 1.754300 
# 
# From -- ./inp_files/529458.got.cif
#   From: 2010.05.17/outbox.cif.g08.bks.cpg/sg2_265_cif.got.tgz:529458.got - 2010.06.03 11:33:40.
