data_PCOD9015678
_publ_section_title
;
Structure prediction by ZEFSAII (Michael W. Deem and Ramdas Pophale) SiO2 
 PCOD9015678
Probable space group: P -1
;
_chemical_formula_sum "Si O2"
_cell_formula_units_Z 13
_cell_length_a 15.381831
_cell_length_b 6.620382
_cell_length_c 11.722669
_cell_angle_alpha 59.614684
_cell_angle_beta 146.040264
_cell_angle_gamma 125.614192
_cell_volume 541.433314
_symmetry_space_group_name_H-M "P -1"
_symmetry_group_IT_number 2
_symmetry_cell_setting 'triclinic'
loop_
_space_group_symop_operation_xyz
x,y,z
-x,-y,-z
loop_
_atom_site_type_symbol
_atom_site_label
_atom_site_fract_x
_atom_site_fract_y
_atom_site_fract_z
Si Si1 0.478168 0.109545 0.620159
Si Si2 0.000000 0.000000 0.000000
Si Si3 0.770745 0.265700 0.718502
Si Si4 0.124315 0.882924 0.605898
Si Si5 0.419416 0.312097 0.065992
Si Si6 0.084273 0.339577 0.771415
Si Si7 0.654051 0.651860 0.397673
O O1 0.642188 0.241046 0.688277
O O2 0.403430 0.275710 0.566050
O O3 0.332795 0.951806 0.421344
O O4 0.530194 0.931219 0.814965
O O5 0.953060 0.794437 0.110678
O O6 0.074406 0.812644 0.059484
O O7 0.794105 0.526633 0.607698
O O8 0.133532 0.638521 0.749268
O O9 0.068528 0.773764 0.448754
O O10 0.286725 0.117983 0.690118
O O11 0.000000 0.000000 0.500000
O O12 0.501578 0.438400 0.237622
O O13 0.500000 0.500000 0.000000
O O14 0.229395 0.274716 0.882871
#
# Coordination Sequence:
#
# PCOD9015678 Si02
#       7
#     2   1   2   2   2   2   2
#     4  10  21  42  64  93 137 176 220 270 339 404
#     4  12  22  44  68  98 138 178 224 276 346 402
#     4  10  22  41  66  95 134 180 215 275 341 403
#     4  11  24  45  67  95 134 183 227 273 341 409
#     4  11  23  41  68  99 131 176 225 282 335 395
#     4  11  25  44  67  96 137 180 220 279 342 403
#     4  11  23  41  70 100 128 176 229 277 331 407
#
# _framework density 24.010341
#
# number of rings (size 3 to 8) (size 9 to 14) (size 15 to 20)
#    0.000    1.231    1.538    4.154    0.000    8.615 
#    2.769    3.846    0.000    0.000    0.000    0.000 
#    0.000    0.000    0.000    0.000    0.000    0.000 
#
# Total GULP energy -72503.502877 kJ/mol
# GULP energy per Si atom -5577.192529 kJ/mol
# Density = 2.395569 g / cm^3
# Si number density = 24.010341 Si / 1000 Ang^3
#
#
#
# Elastic Constant Matrix: (Units=GPa)
#
#
# Indices 1 2 3 4 5 6 
#
# 1 113.8725 22.3599 -1.3982 -13.9907 -12.6651 -1.8312
# 2 22.3599 89.0975 32.8024 -39.3543 -8.5884 -6.8895
# 3 -1.3982 32.8024 36.2884 -27.2062 -9.7556 1.2060
# 4 -13.9907 -39.3543 -27.2062 44.4319 8.8682 -0.6175
# 5 -12.6651 -8.5884 -9.7556 8.8682 32.6317 -14.8846
# 6 -1.8312 -6.8895 1.2060 -0.6175 -14.8846 42.4512
#
#
#
# Elastic Compliance Matrix: (Units=1/GPa)
#
#
# Indices 1 2 3 4 5 6 
#
# 1 0.010603 -0.002894 0.007742 0.004501 0.005201 0.001657
# 2 -0.002894 0.021259 -0.011096 0.011214 -0.000188 0.003738
# 3 0.007742 -0.011096 0.062282 0.028463 0.011525 0.001219
# 4 0.004501 0.011214 0.028463 0.051273 0.000194 0.002019
# 5 0.005201 -0.000188 0.011525 0.000194 0.042791 0.014873
# 6 0.001657 0.003738 0.001219 0.002019 0.014873 0.029444
#
#
# Mechanical properties :
#
#
# Convention : Reuss Voigt Hill
#
# Bulk Modulus (GPa) = 12.24752 38.53184 25.38968
# Shear Modulus (GPa) = 19.42777 36.26925 27.84851
#
# Velocity S-wave (km/s) = 2.84763 3.89082 3.40936
# Velocity P-wave (km/s) = 3.99049 6.02225 5.10840
#
# Compressibility (1/GPa) = 0.08164921
#
# Stress axis : x y z
#
# Youngs Moduli (GPa) = 94.31203 47.03910 16.05604
#
# Poissons Ratio (x) = 0.13611 -0.12430
# Poissons Ratio (y) = 0.27290 0.17815
# Poissons Ratio (z) = -0.73015 0.52193
#
# Static dielectric constant tensor:
#      x y z
#    x 1.860430 0.014480 0.024110 
#    y 0.014480 1.905860 0.020100 
#    z 0.024110 0.020100 2.023310 
# 
# From -- ./inp_files/26112.got.cif
#   From: 2010.05.17/outbox.cif.g08.bks.cpg/sg2_14_cif.got.tgz:26112.got - 2010.06.03 11:33:40.
