data_PCOD9015411
_publ_section_title
;
Structure prediction by ZEFSAII (Michael W. Deem and Ramdas Pophale) SiO2 
 PCOD9015411
Probable space group: P -1
;
_chemical_formula_sum "Si O2"
_cell_formula_units_Z 16
_cell_length_a 11.645032
_cell_length_b 17.326263
_cell_length_c 7.680492
_cell_angle_alpha 58.539620
_cell_angle_beta 110.187215
_cell_angle_gamma 149.104809
_cell_volume 659.785714
_symmetry_space_group_name_H-M "P -1"
_symmetry_group_IT_number 2
_symmetry_cell_setting 'triclinic'
loop_
_space_group_symop_operation_xyz
x,y,z
-x,-y,-z
loop_
_atom_site_type_symbol
_atom_site_label
_atom_site_fract_x
_atom_site_fract_y
_atom_site_fract_z
Si Si1 0.992925 0.544557 0.756509
Si Si2 0.180912 0.830131 0.678635
Si Si3 0.441748 0.811059 0.474823
Si Si4 0.264853 0.345668 0.245109
Si Si5 0.760792 0.858880 0.436950
Si Si6 0.401674 0.825230 0.054478
Si Si7 0.292477 0.271655 0.962852
Si Si8 0.812908 0.982899 0.942850
O O1 0.059671 0.690901 0.637238
O O2 0.195075 0.633968 0.633678
O O3 0.739568 0.358380 0.785955
O O4 0.000000 0.500000 0.000000
O O5 0.990990 0.780460 0.705880
O O6 0.402116 0.027729 0.509536
O O7 0.251320 0.804276 0.898884
O O8 0.584150 0.810839 0.504917
O O9 0.432526 0.863527 0.229188
O O10 0.331629 0.299874 0.444862
O O11 0.267435 0.307672 0.093428
O O12 0.444511 0.536801 0.161532
O O13 0.805228 0.930386 0.190259
O O14 0.000000 0.000000 0.500000
O O15 0.631197 0.948700 0.919621
O O16 0.263491 0.143976 0.081695
O O17 0.082752 0.176492 0.842714
#
# Coordination Sequence:
#
# PCOD9015411 Si02
#       8
#     2   2   2   2   2   2   2   2
#     4  10  23  41  61  93 125 161 209 258 311 369
#     4  11  22  40  62  91 128 163 209 251 309 372
#     4  11  22  40  66  88 124 167 208 255 314 368
#     4  11  22  39  62  91 126 163 205 257 302 374
#     4  11  21  41  63  89 123 164 205 254 310 368
#     4  10  22  41  63  88 128 165 205 254 311 371
#     4  10  22  38  62  93 122 161 211 249 309 363
#     4  10  21  42  62  90 124 162 206 259 306 367
#
# _framework density 24.250295999999999
#
# number of rings (size 3 to 8) (size 9 to 14) (size 15 to 20)
#    0.000    1.500    2.500    2.625    0.000    6.500 
#    0.000    3.750    0.000    0.000    0.000    0.000 
#    0.000    0.000    0.000    0.000    0.000    0.000 
#
# Total GULP energy -89398.859767 kJ/mol
# GULP energy per Si atom -5587.428735 kJ/mol
# Density = 2.419510 g / cm^3
# Si number density = 24.250296 Si / 1000 Ang^3
#
#
#
# Elastic Constant Matrix: (Units=GPa)
#
#
# Indices 1 2 3 4 5 6 
#
# 1 101.9528 0.0797 11.1953 12.5306 -2.8577 10.0216
# 2 0.0797 117.0138 9.6538 -9.7742 -0.5576 -14.2988
# 3 11.1953 9.6538 54.7702 19.0199 -1.8404 6.1223
# 4 12.5306 -9.7742 19.0199 19.9057 -2.7273 -3.2591
# 5 -2.8577 -0.5576 -1.8404 -2.7273 33.6017 -3.9217
# 6 10.0216 -14.2988 6.1223 -3.2591 -3.9217 41.1151
#
#
#
# Elastic Compliance Matrix: (Units=1/GPa)
#
#
# Indices 1 2 3 4 5 6 
#
# 1 0.011345 -0.001671 0.002273 -0.010934 -0.000361 -0.004586
# 2 -0.001671 0.011300 -0.007663 0.015271 0.001664 0.006847
# 3 0.002273 -0.007663 0.034383 -0.040348 -0.002702 -0.011795
# 4 -0.010934 0.015271 -0.040348 0.108180 0.008623 0.023382
# 5 -0.000361 0.001664 -0.002702 0.008623 0.030857 0.004696
# 6 -0.004586 0.006847 -0.011795 0.023382 0.004696 0.031879
#
#
# Mechanical properties :
#
#
# Convention : Reuss Voigt Hill
#
# Bulk Modulus (GPa) = 23.30629 35.06606 29.18618
# Shear Modulus (GPa) = 19.50337 35.77839 27.64088
#
# Velocity S-wave (km/s) = 2.83901 3.84523 3.37978
# Velocity P-wave (km/s) = 4.51423 5.84858 5.22418
#
# Compressibility (1/GPa) = 0.04290686
#
# Stress axis : x y z
#
# Youngs Moduli (GPa) = 88.14706 88.49933 29.08400
#
# Poissons Ratio (x) = 0.14785 -0.06611
# Poissons Ratio (y) = 0.14727 0.22286
# Poissons Ratio (z) = -0.20036 0.67814
#
# Static dielectric constant tensor:
#      x y z
#    x 1.996370 -0.156400 -0.007290 
#    y -0.156400 2.562080 -0.056400 
#    z -0.007290 -0.056400 1.983100 
# 
# From -- ./inp_files/277618.got.cif
#   From: 2010.05.17/outbox.cif.g08.bks.cpg/sg2_139_cif.got.tgz:277618.got - 2010.06.03 11:33:40.
