data_PCOD9015037
_publ_section_title
;
Structure prediction by ZEFSAII (Michael W. Deem and Ramdas Pophale) SiO2 
 PCOD9015037
Probable space group: P -1
;
_chemical_formula_sum "Si O2"
_cell_formula_units_Z 13
_cell_length_a 9.452784
_cell_length_b 7.945305
_cell_length_c 7.740318
_cell_angle_alpha 99.719568
_cell_angle_beta 92.094313
_cell_angle_gamma 118.001197
_cell_volume 501.418628
_symmetry_space_group_name_H-M "P -1"
_symmetry_group_IT_number 2
_symmetry_cell_setting 'triclinic'
loop_
_space_group_symop_operation_xyz
x,y,z
-x,-y,-z
loop_
_atom_site_type_symbol
_atom_site_label
_atom_site_fract_x
_atom_site_fract_y
_atom_site_fract_z
Si Si1 0.486899 0.417482 0.240228
Si Si2 0.000000 0.500000 0.000000
Si Si3 0.749156 0.759328 0.487191
Si Si4 0.730063 0.874735 0.078221
Si Si5 0.086257 0.775704 0.442155
Si Si6 0.987898 0.174015 0.891552
Si Si7 0.729382 0.250625 0.237396
O O1 0.615715 0.645422 0.311357
O O2 0.349852 0.352405 0.367589
O O3 0.590492 0.307041 0.267057
O O4 0.401199 0.324761 0.041304
O O5 0.925447 0.644649 0.947268
O O6 0.831407 0.362404 0.092828
O O7 0.908206 0.734383 0.478585
O O8 0.806329 0.989663 0.536761
O O9 0.882181 0.879278 0.188536
O O10 0.669318 0.020121 0.170476
O O11 0.840077 0.993260 0.935309
O O12 0.161649 0.699941 0.575606
O O13 0.068001 0.707175 0.225833
#
# Coordination Sequence:
#
# PCOD9015037 Si02
#       7
#     2   1   2   2   2   2   2
#     4  11  23  43  65 107 139 175 218 292 328 399
#     4  10  24  42  62 104 126 176 224 284 322 410
#     4  10  23  40  69 100 139 173 233 264 345 392
#     4  10  21  42  68  96 136 183 217 277 330 406
#     4  11  22  45  69  99 129 191 220 275 324 431
#     4  10  21  41  70  98 133 178 233 263 335 403
#     4  11  25  42  71  96 140 172 235 273 347 385
#
# _framework density 25.926439999999999
#
# number of rings (size 3 to 8) (size 9 to 14) (size 15 to 20)
#    0.000    1.538    1.538    3.231    4.308    3.077 
#    2.769    8.462    0.000    0.000    0.000    0.000 
#    0.000    0.000    0.000    0.000    0.000    0.000 
#
# Total GULP energy -72480.297355 kJ/mol
# GULP energy per Si atom -5575.407489 kJ/mol
# Density = 2.586743 g / cm^3
# Si number density = 25.926440 Si / 1000 Ang^3
#
#
#
# Elastic Constant Matrix: (Units=GPa)
#
#
# Indices 1 2 3 4 5 6 
#
# 1 96.7940 17.8016 22.9002 -18.3138 2.5191 4.2812
# 2 17.8016 134.5472 9.1707 29.7975 0.6711 18.2045
# 3 22.9002 9.1707 126.8186 -2.0807 18.4684 14.6580
# 4 -18.3138 29.7975 -2.0807 54.3784 5.8309 -8.0546
# 5 2.5191 0.6711 18.4684 5.8309 27.4584 4.7031
# 6 4.2812 18.2045 14.6580 -8.0546 4.7031 34.5646
#
#
#
# Elastic Compliance Matrix: (Units=1/GPa)
#
#
# Indices 1 2 3 4 5 6 
#
# 1 0.012591 -0.003363 -0.002015 0.006596 -0.001602 0.002821
# 2 -0.003363 0.010783 0.000131 -0.008511 0.003087 -0.007721
# 3 -0.002015 0.000131 0.009404 -0.000256 -0.005556 -0.003111
# 4 0.006596 -0.008511 -0.000256 0.027813 -0.008076 0.011354
# 5 -0.001602 0.003087 -0.005556 -0.008076 0.043110 -0.006819
# 6 0.002821 -0.007721 -0.003111 0.011354 -0.006819 0.037541
#
#
# Mechanical properties :
#
#
# Convention : Reuss Voigt Hill
#
# Bulk Modulus (GPa) = 44.87649 50.87829 47.87739
# Shear Modulus (GPa) = 31.41390 43.83276 37.62333
#
# Velocity S-wave (km/s) = 3.48466 4.11622 3.81354
# Velocity P-wave (km/s) = 5.79113 6.50060 6.15609
#
# Compressibility (1/GPa) = 0.02228338
#
# Stress axis : x y z
#
# Youngs Moduli (GPa) = 79.41950 92.74276 106.33479
#
# Poissons Ratio (x) = 0.31190 0.21428
# Poissons Ratio (y) = 0.26710 -0.01391
# Poissons Ratio (z) = 0.16004 -0.01213
#
# Static dielectric constant tensor:
#      x y z
#    x 2.191980 -0.265340 -0.624720 
#    y -0.265340 2.502250 1.042490 
#    z -0.624720 1.042490 4.786400 
# 
# From -- ./inp_files/149491.got.cif
#   From: 2010.05.17/outbox.cif.g08.bks.cpg/sg2_75_cif.got.tgz:149491.got - 2010.06.03 11:33:40.
