data_PCOD9015334
_publ_section_title
;
Structure prediction by ZEFSAII (Michael W. Deem and Ramdas Pophale) SiO2 
 PCOD9015334
Probable space group: P -1
;
_chemical_formula_sum "Si O2"
_cell_formula_units_Z 13
_cell_length_a 16.219541
_cell_length_b 18.273800
_cell_length_c 5.194180
_cell_angle_alpha 86.302737
_cell_angle_beta 92.195006
_cell_angle_gamma 20.999318
_cell_volume 529.250981
_symmetry_space_group_name_H-M "P -1"
_symmetry_group_IT_number 2
_symmetry_cell_setting 'triclinic'
loop_
_space_group_symop_operation_xyz
x,y,z
-x,-y,-z
loop_
_atom_site_type_symbol
_atom_site_label
_atom_site_fract_x
_atom_site_fract_y
_atom_site_fract_z
Si Si1 0.709065 0.289231 0.920822
Si Si2 0.010706 0.719800 0.974505
Si Si3 0.809023 0.594701 0.965367
Si Si4 0.477466 0.344622 0.780913
Si Si5 0.920845 0.921334 0.268473
Si Si6 0.514887 0.811273 0.396265
Si Si7 0.000000 0.000000 0.500000
O O1 0.596727 0.321902 0.709432
O O2 0.851404 0.232106 0.809356
O O3 0.500000 0.500000 0.000000
O O4 0.865366 0.117268 0.188286
O O5 0.058331 0.593510 0.024973
O O6 0.974214 0.791878 0.228461
O O7 0.236952 0.559666 0.867135
O O8 0.763543 0.940885 0.742351
O O9 0.613501 0.764066 0.677891
O O10 0.672499 0.705842 0.196224
O O11 0.000000 0.500000 0.000000
O O12 0.445238 0.310365 0.567915
O O13 0.668211 0.147977 0.044920
O O14 0.939757 0.956475 0.516324
#
# Coordination Sequence:
#
# PCOD9015334 Si02
#       7
#     2   2   2   2   2   2   1
#     4  11  21  39  60  88 127 176 230 275 330 385
#     4  10  22  44  65  95 138 178 224 281 347 402
#     4  11  25  47  75 106 137 174 223 280 343 416
#     4   9  19  40  60  90 131 174 225 280 329 396
#     4  10  21  42  60  93 128 178 232 277 329 393
#     4  10  24  44  70 104 139 177 223 277 340 413
#     4  10  22  36  58  86 122 166 222 282 318 376
#
# _framework density 24.563013999999999
#
# number of rings (size 3 to 8) (size 9 to 14) (size 15 to 20)
#    0.000    1.846    1.538    2.308    0.000    5.538 
#   41.538    0.000    0.000    0.000    0.000    0.000 
#    0.000    0.000    0.000    0.000    0.000    0.000 
#
# Total GULP energy -72496.056309 kJ/mol
# GULP energy per Si atom -5576.619716 kJ/mol
# Density = 2.450711 g / cm^3
# Si number density = 24.563014 Si / 1000 Ang^3
#
#
#
# Elastic Constant Matrix: (Units=GPa)
#
#
# Indices 1 2 3 4 5 6 
#
# 1 124.6668 38.2499 30.4136 -5.2456 21.7451 -8.5483
# 2 38.2499 136.4782 26.4186 -7.7320 0.3761 2.2918
# 3 30.4136 26.4186 94.3356 1.0084 12.6780 -4.1627
# 4 -5.2456 -7.7320 1.0084 37.0275 -2.7665 -1.4703
# 5 21.7451 0.3761 12.6780 -2.7665 27.3685 -0.7252
# 6 -8.5483 2.2918 -4.1627 -1.4703 -0.7252 38.2301
#
#
#
# Elastic Compliance Matrix: (Units=1/GPa)
#
#
# Indices 1 2 3 4 5 6 
#
# 1 0.010747 -0.002692 -0.001588 0.000522 -0.007653 0.002266
# 2 -0.002692 0.008578 -0.002021 0.001648 0.003092 -0.001214
# 3 -0.001588 -0.002021 0.012344 -0.001283 -0.004533 0.000975
# 4 0.000522 0.001648 -0.001283 0.027723 0.002986 0.001001
# 5 -0.007653 0.003092 -0.004533 0.002986 0.044941 -0.001423
# 6 0.002266 -0.001214 0.000975 0.001001 -0.001423 0.026855
#
#
# Mechanical properties :
#
#
# Convention : Reuss Voigt Hill
#
# Bulk Modulus (GPa) = 52.44556 60.62719 56.53638
# Shear Modulus (GPa) = 33.30107 37.88510 35.59309
#
# Velocity S-wave (km/s) = 3.68603 3.93155 3.81077
# Velocity P-wave (km/s) = 6.28598 6.73390 6.51379
#
# Compressibility (1/GPa) = 0.01906739
#
# Stress axis : x y z
#
# Youngs Moduli (GPa) = 93.04869 116.57585 81.00915
#
# Poissons Ratio (x) = 0.31383 0.12864
# Poissons Ratio (y) = 0.25049 0.16372
# Poissons Ratio (z) = 0.14775 0.23561
#
# Static dielectric constant tensor:
#      x y z
#    x 1.978860 -0.053500 -0.014120 
#    y -0.053500 1.993920 0.084110 
#    z -0.014120 0.084110 1.932860 
# 
# From -- ./inp_files/112012.got.cif
#   From: 2010.05.17/outbox.cif.g08.bks.cpg/sg2_57_cif.got.tgz:112012.got - 2010.06.03 11:33:40.
