data_PCOD9015987
_publ_section_title
;
Structure prediction by ZEFSAII (Michael W. Deem and Ramdas Pophale) SiO2 
 PCOD9015987
Probable space group: P -1
;
_chemical_formula_sum "Si O2"
_cell_formula_units_Z 16
_cell_length_a 9.718847
_cell_length_b 18.599309
_cell_length_c 12.277824
_cell_angle_alpha 50.098680
_cell_angle_beta 119.022589
_cell_angle_gamma 149.924965
_cell_volume 838.988629
_symmetry_space_group_name_H-M "P -1"
_symmetry_group_IT_number 2
_symmetry_cell_setting 'triclinic'
loop_
_space_group_symop_operation_xyz
x,y,z
-x,-y,-z
loop_
_atom_site_type_symbol
_atom_site_label
_atom_site_fract_x
_atom_site_fract_y
_atom_site_fract_z
Si Si1 0.991417 0.602045 0.857244
Si Si2 0.882557 0.034462 0.366190
Si Si3 0.877461 0.696049 0.342171
Si Si4 0.486975 0.988469 0.636911
Si Si5 0.790699 0.641381 0.915840
Si Si6 0.634487 0.426160 0.671769
Si Si7 0.117051 0.811954 0.096192
Si Si8 0.446183 0.132047 0.815209
O O1 0.287673 0.802675 0.772378
O O2 0.813414 0.568931 0.911049
O O3 0.842109 0.538211 0.745114
O O4 0.000000 0.500000 0.000000
O O5 0.664807 0.992477 0.391663
O O6 0.136814 0.229024 0.247130
O O7 0.746207 0.938060 0.292986
O O8 0.000000 0.000000 0.500000
O O9 0.764331 0.546674 0.502664
O O10 0.663168 0.671755 0.320002
O O11 0.888679 0.696627 0.214962
O O12 0.199087 0.868177 0.336058
O O13 0.500000 0.000000 0.500000
O O14 0.500000 0.500000 0.000000
O O15 0.011922 0.742624 0.000684
O O16 0.589155 0.294965 0.756685
O O17 0.336685 0.837707 0.176194
O O18 0.269607 0.987766 0.977836
#
# Coordination Sequence:
#
# PCOD9015987 Si02
#       8
#     2   2   2   2   2   2   2   2
#     4  11  24  42  65  95 128 164 211 259 315 373
#     4  10  23  40  65  93 124 164 208 258 311 374
#     4  11  24  43  64  93 128 169 211 257 318 372
#     4  11  23  44  65  91 128 170 211 255 317 377
#     4  10  22  41  63  91 125 161 203 259 311 368
#     4  11  25  41  63  97 129 165 211 265 309 372
#     4  10  21  42  66  87 122 166 206 255 314 371
#     4  10  22  40  63  93 122 160 211 254 311 369
#
# _framework density 19.070578999999999
#
# number of rings (size 3 to 8) (size 9 to 14) (size 15 to 20)
#    0.000    1.500    2.500    1.500    5.250    4.000 
#    4.500    0.000    0.000    0.000    0.000    0.000 
#    0.000    0.000    0.000    0.000    0.000    0.000 
#
# Total GULP energy -89346.634068 kJ/mol
# GULP energy per Si atom -5584.164629 kJ/mol
# Density = 1.902717 g / cm^3
# Si number density = 19.070579 Si / 1000 Ang^3
#
#
#
# Elastic Constant Matrix: (Units=GPa)
#
#
# Indices 1 2 3 4 5 6 
#
# 1 79.9904 46.5569 78.7850 -16.6459 -1.6670 -7.0173
# 2 46.5569 71.2446 31.3764 -10.3273 19.0675 0.2840
# 3 78.7850 31.3764 128.7644 -5.6435 6.7007 -1.2047
# 4 -16.6459 -10.3273 -5.6435 21.7192 6.2199 -2.9505
# 5 -1.6670 19.0675 6.7007 6.2199 38.1663 1.1267
# 6 -7.0173 0.2840 -1.2047 -2.9505 1.1267 36.1522
#
#
#
# Elastic Compliance Matrix: (Units=1/GPa)
#
#
# Indices 1 2 3 4 5 6 
#
# 1 0.087747 -0.040635 -0.043600 0.031515 0.026131 0.017656
# 2 -0.040635 0.039461 0.016317 -0.002297 -0.023770 -0.007100
# 3 -0.043600 0.016317 0.030377 -0.015287 -0.012649 -0.008432
# 4 0.031515 -0.002297 -0.015287 0.068482 -0.006289 0.011411
# 5 0.026131 -0.023770 -0.012649 -0.006289 0.042375 0.003004
# 6 0.017656 -0.007100 -0.008432 0.011411 0.003004 0.031700
#
#
# Mechanical properties :
#
#
# Convention : Reuss Voigt Hill
#
# Bulk Modulus (GPa) = 45.98063 65.93731 55.95897
# Shear Modulus (GPa) = 11.28084 27.42630 19.35357
#
# Velocity S-wave (km/s) = 2.43478 3.79641 3.18911
# Velocity P-wave (km/s) = 5.66280 7.33944 6.55495
#
# Compressibility (1/GPa) = 0.02174829
#
# Stress axis : x y z
#
# Youngs Moduli (GPa) = 11.39635 25.34127 32.92017
#
# Poissons Ratio (x) = 1.02974 1.43533
# Poissons Ratio (y) = 0.46309 -0.53716
# Poissons Ratio (z) = 0.49688 -0.41349
#
# Static dielectric constant tensor:
#      x y z
#    x 1.625360 -0.001490 -0.003720 
#    y -0.001490 1.498990 -0.066040 
#    z -0.003720 -0.066040 1.637330 
# 
# From -- ./inp_files/206921.got.cif
#   From: 2010.05.17/outbox.cif.g08.bks.cpg/sg2_104_cif.got.tgz:206921.got - 2010.06.03 11:33:40.
