data_PCOD9015653
_publ_section_title
;
Structure prediction by ZEFSAII (Michael W. Deem and Ramdas Pophale) SiO2 
 PCOD9015653
Probable space group: P -1
;
_chemical_formula_sum "Si O2"
_cell_formula_units_Z 14
_cell_length_a 13.394154
_cell_length_b 20.253022
_cell_length_c 6.734215
_cell_angle_alpha 82.845733
_cell_angle_beta 100.978577
_cell_angle_gamma 26.267836
_cell_volume 582.147120
_symmetry_space_group_name_H-M "P -1"
_symmetry_group_IT_number 2
_symmetry_cell_setting 'triclinic'
loop_
_space_group_symop_operation_xyz
x,y,z
-x,-y,-z
loop_
_atom_site_type_symbol
_atom_site_label
_atom_site_fract_x
_atom_site_fract_y
_atom_site_fract_z
Si Si1 0.893299 0.530345 0.747538
Si Si2 0.329844 0.657011 0.233584
Si Si3 0.166095 0.855895 0.414468
Si Si4 0.690367 0.497886 0.078929
Si Si5 0.266255 0.926041 0.535358
Si Si6 0.855948 0.688606 0.438591
Si Si7 0.220614 0.084587 0.237171
O O1 0.572465 0.702201 0.645483
O O2 0.828648 0.631054 0.537011
O O3 0.085158 0.357932 0.757594
O O4 0.000000 0.500000 0.000000
O O5 0.500000 0.500000 0.500000
O O6 0.287584 0.752188 0.295461
O O7 0.530704 0.544633 0.153684
O O8 0.994544 0.831541 0.004827
O O9 0.051448 0.003495 0.314900
O O10 0.429815 0.673656 0.747810
O O11 0.854924 0.008420 0.312725
O O12 0.850899 0.456865 0.288979
O O13 0.988292 0.283081 0.158781
O O14 0.299802 0.982772 0.480866
O O15 0.524104 0.923333 0.297322
#
# Coordination Sequence:
#
# PCOD9015653 Si02
#       7
#     2   2   2   2   2   2   2
#     4  10  21  42  64  91 134 168 210 264 324 382
#     4  12  24  41  68  94 131 173 218 262 331 378
#     4  11  23  40  66  99 129 168 218 270 318 382
#     4  12  23  45  67  94 136 169 214 269 318 386
#     4  10  22  41  63  98 127 168 214 268 323 373
#     4  10  24  41  66  96 125 173 215 260 325 381
#     4  11  23  44  66  95 134 172 213 269 321 383
#
# _framework density 24.048905000000001
#
# number of rings (size 3 to 8) (size 9 to 14) (size 15 to 20)
#    0.000    1.143    2.857    3.429    2.000    0.571 
#    7.714    0.714    0.000    0.000    0.000    0.000 
#    0.000    0.000    0.000    0.000    0.000    0.000 
#
# Total GULP energy -77984.977069 kJ/mol
# GULP energy per Si atom -5570.355505 kJ/mol
# Density = 2.399417 g / cm^3
# Si number density = 24.048905 Si / 1000 Ang^3
#
#
#
# Elastic Constant Matrix: (Units=GPa)
#
#
# Indices 1 2 3 4 5 6 
#
# 1 37.5834 14.8569 4.4623 -1.1736 -2.4619 -7.0991
# 2 14.8569 180.2772 50.2027 14.1171 3.2443 -0.3017
# 3 4.4623 50.2027 76.9077 9.0272 9.1816 -16.1938
# 4 -1.1736 14.1171 9.0272 25.1658 -1.0375 10.6692
# 5 -2.4619 3.2443 9.1816 -1.0375 31.5007 5.1870
# 6 -7.0991 -0.3017 -16.1938 10.6692 5.1870 43.8555
#
#
#
# Elastic Compliance Matrix: (Units=1/GPa)
#
#
# Indices 1 2 3 4 5 6 
#
# 1 0.028539 -0.002635 0.000751 0.000684 0.001560 0.004528
# 2 -0.002635 0.007226 -0.004851 -0.001619 0.000717 -0.001859
# 3 0.000751 -0.004851 0.020403 -0.009453 -0.007479 0.010806
# 4 0.000684 -0.001619 -0.009453 0.051495 0.007437 -0.016798
# 5 0.001560 0.000717 -0.007479 0.007437 0.035623 -0.008527
# 6 0.004528 -0.001859 0.010806 -0.016798 -0.008527 0.032608
#
#
# Mechanical properties :
#
#
# Convention : Reuss Voigt Hill
#
# Bulk Modulus (GPa) = 23.42018 48.20135 35.81077
# Shear Modulus (GPa) = 24.55841 35.12083 29.83962
#
# Velocity S-wave (km/s) = 3.19907 3.82565 3.52631
# Velocity P-wave (km/s) = 4.83788 6.29291 5.61275
#
# Compressibility (1/GPa) = 0.04269821
#
# Stress axis : x y z
#
# Youngs Moduli (GPa) = 35.04000 138.39370 49.01150
#
# Poissons Ratio (x) = 0.36469 -0.03682
# Poissons Ratio (y) = 0.09234 0.23775
# Poissons Ratio (z) = -0.02632 0.67133
#
# Static dielectric constant tensor:
#      x y z
#    x 1.969160 -0.003960 -0.070840 
#    y -0.003960 1.962110 -0.054500 
#    z -0.070840 -0.054500 2.313430 
# 
# From -- ./inp_files/101173.got.cif
#   From: 2010.05.17/outbox.cif.g08.bks.cpg/sg2_51_cif.got.tgz:101173.got - 2010.06.03 11:33:40.
