data_PCOD9015791
_publ_section_title
;
Structure prediction by ZEFSAII (Michael W. Deem and Ramdas Pophale) SiO2 
 PCOD9015791
Probable space group: P -1
;
_chemical_formula_sum "Si O2"
_cell_formula_units_Z 14
_cell_length_a 17.900680
_cell_length_b 7.076679
_cell_length_c 8.931259
_cell_angle_alpha 130.459184
_cell_angle_beta 133.395722
_cell_angle_gamma 51.491361
_cell_volume 592.656380
_symmetry_space_group_name_H-M "P -1"
_symmetry_group_IT_number 2
_symmetry_cell_setting 'triclinic'
loop_
_space_group_symop_operation_xyz
x,y,z
-x,-y,-z
loop_
_atom_site_type_symbol
_atom_site_label
_atom_site_fract_x
_atom_site_fract_y
_atom_site_fract_z
Si Si1 0.349347 0.386753 0.742368
Si Si2 0.071772 0.648563 0.765076
Si Si3 0.408714 0.298803 0.342295
Si Si4 0.762859 0.295033 0.499951
Si Si5 0.991355 0.229581 0.917912
Si Si6 0.697986 0.802102 0.139221
Si Si7 0.568813 0.233533 0.767558
O O1 0.251042 0.504424 0.554421
O O2 0.339378 0.162124 0.721420
O O3 0.458011 0.317078 0.757635
O O4 0.360208 0.599514 0.987664
O O5 0.192004 0.443220 0.841811
O O6 0.000000 0.500000 0.500000
O O7 0.019507 0.717077 0.892593
O O8 0.072897 0.932911 0.849894
O O9 0.320660 0.562419 0.412081
O O10 0.525195 0.284136 0.563891
O O11 0.379597 0.069248 0.277678
O O12 0.392389 0.235673 0.116472
O O13 0.880376 0.204988 0.685029
O O14 0.726744 0.058582 0.264426
O O15 0.000000 0.500000 0.000000
#
# Coordination Sequence:
#
# PCOD9015791 Si02
#       7
#     2   2   2   2   2   2   2
#     4  10  23  40  67  93 129 171 218 267 325 389
#     4  11  25  45  66  99 138 164 222 277 323 401
#     4  10  21  42  65  88 133 171 206 274 323 371
#     4  11  23  44  62  95 133 164 221 270 319 396
#     4  11  26  44  70  98 132 177 216 271 335 394
#     4  12  24  42  67  96 128 176 214 271 331 381
#     4   9  20  44  62  94 133 169 217 271 320 390
#
# _framework density 23.622458999999999
#
# number of rings (size 3 to 8) (size 9 to 14) (size 15 to 20)
#    0.000    1.429    4.286    0.000    2.000    4.000 
#    7.714    0.000    0.000    0.000    0.000    0.000 
#    0.000    0.000    0.000    0.000    0.000    0.000 
#
# Total GULP energy -78235.379355 kJ/mol
# GULP energy per Si atom -5588.241382 kJ/mol
# Density = 2.356869 g / cm^3
# Si number density = 23.622459 Si / 1000 Ang^3
#
#
#
# Elastic Constant Matrix: (Units=GPa)
#
#
# Indices 1 2 3 4 5 6 
#
# 1 31.4921 13.1045 12.9658 -2.4399 -12.2382 1.5713
# 2 13.1045 102.1389 23.3631 6.2809 -8.7264 -2.4460
# 3 12.9658 23.3631 128.0495 -4.8028 -26.7870 6.0158
# 4 -2.4399 6.2809 -4.8028 45.0578 10.0059 -5.1267
# 5 -12.2382 -8.7264 -26.7870 10.0059 23.4603 -1.2241
# 6 1.5713 -2.4460 6.0158 -5.1267 -1.2241 37.1112
#
#
#
# Elastic Compliance Matrix: (Units=1/GPa)
#
#
# Indices 1 2 3 4 5 6 
#
# 1 0.041409 -0.003553 0.001159 -0.002337 0.022508 -0.001756
# 2 -0.003553 0.010849 -0.001427 -0.002090 0.001489 0.000857
# 3 0.001159 -0.001427 0.010660 -0.001649 0.012861 -0.001675
# 4 -0.002337 -0.002090 -0.001649 0.025829 -0.014722 0.003311
# 5 0.022508 0.001489 0.012861 -0.014722 0.075755 -0.002475
# 6 -0.001756 0.000857 -0.001675 0.003311 -0.002475 0.027724
#
#
# Mechanical properties :
#
#
# Convention : Reuss Voigt Hill
#
# Bulk Modulus (GPa) = 18.09140 40.06080 29.07610
# Shear Modulus (GPa) = 22.90500 35.27568 29.09034
#
# Velocity S-wave (km/s) = 3.11726 3.86853 3.51304
# Velocity P-wave (km/s) = 4.54220 6.07862 5.36569
#
# Compressibility (1/GPa) = 0.05527487
#
# Stress axis : x y z
#
# Youngs Moduli (GPa) = 24.14942 92.17371 93.81124
#
# Poissons Ratio (x) = 0.32751 -0.10869
# Poissons Ratio (y) = 0.08581 0.13386
# Poissons Ratio (z) = -0.02798 0.13152
#
# Static dielectric constant tensor:
#      x y z
#    x 1.879650 0.044480 -0.018800 
#    y 0.044480 1.959390 0.019550 
#    z -0.018800 0.019550 1.861010 
# 
# From -- ./inp_files/324181.got.cif
#   From: 2010.05.17/outbox.cif.g08.bks.cpg/sg2_163_cif.got.tgz:324181.got - 2010.06.03 11:33:40.
