data_PCOD9015519
_publ_section_title
;
Structure prediction by ZEFSAII (Michael W. Deem and Ramdas Pophale) SiO2 
 PCOD9015519
Probable space group: P -1
;
_chemical_formula_sum "Si O2"
_cell_formula_units_Z 16
_cell_length_a 10.323204
_cell_length_b 12.587298
_cell_length_c 18.385292
_cell_angle_alpha 36.625136
_cell_angle_beta 31.807324
_cell_angle_gamma 57.059408
_cell_volume 674.666876
_symmetry_space_group_name_H-M "P -1"
_symmetry_group_IT_number 2
_symmetry_cell_setting 'triclinic'
loop_
_space_group_symop_operation_xyz
x,y,z
-x,-y,-z
loop_
_atom_site_type_symbol
_atom_site_label
_atom_site_fract_x
_atom_site_fract_y
_atom_site_fract_z
Si Si1 0.915892 0.658580 0.232791
Si Si2 0.562488 0.861292 0.780153
Si Si3 0.563362 0.259140 0.544903
Si Si4 0.205276 0.959389 0.191453
Si Si5 0.967010 0.533474 0.582364
Si Si6 0.717780 0.906635 0.377520
Si Si7 0.680718 0.680095 0.960272
Si Si8 0.391525 0.730862 0.777720
O O1 0.783220 0.477887 0.338979
O O2 0.720812 0.768975 0.265236
O O3 0.894618 0.558470 0.377253
O O4 0.236509 0.778268 0.998440
O O5 0.570241 0.788447 0.734762
O O6 0.665135 0.095963 0.607585
O O7 0.701492 0.775623 0.818694
O O8 0.480050 0.218485 0.522886
O O9 0.101043 0.769626 0.397511
O O10 0.199779 0.145094 0.134081
O O11 0.009984 0.908073 0.242737
O O12 0.500000 0.000000 0.000000
O O13 0.000000 0.500000 0.500000
O O14 0.644985 0.435299 0.805863
O O15 0.577290 0.814554 0.571746
O O16 0.767297 0.132800 0.219098
O O17 0.775560 0.506194 0.015378
#
# Coordination Sequence:
#
# PCOD9015519 Si02
#       8
#     2   2   2   2   2   2   2   2
#     4  10  22  38  64  95 128 174 215 261 335 386
#     4  10  22  42  63  94 128 171 219 267 317 388
#     4  10  21  42  63  92 132 171 217 270 324 384
#     4  12  24  40  65 104 125 167 218 267 335 386
#     4  11  21  40  62  95 136 165 209 274 321 381
#     4  10  23  44  69  92 133 173 214 274 324 379
#     4  11  23  40  68  93 131 171 215 266 325 385
#     4  10  22  46  65  91 133 176 218 267 318 382
#
# _framework density 23.715406999999999
#
# number of rings (size 3 to 8) (size 9 to 14) (size 15 to 20)
#    0.000    1.500    2.500    2.250    1.750    0.500 
#   20.250    0.625    0.000    0.000    0.000    0.000 
#    0.000    0.000    0.000    0.000    0.000    0.000 
#
# Total GULP energy -89560.148520 kJ/mol
# GULP energy per Si atom -5597.509283 kJ/mol
# Density = 2.366143 g / cm^3
# Si number density = 23.715407 Si / 1000 Ang^3
#
#
#
# Elastic Constant Matrix: (Units=GPa)
#
#
# Indices 1 2 3 4 5 6 
#
# 1 103.1998 36.4761 35.7623 -7.2975 20.4645 9.4010
# 2 36.4761 109.3854 39.2245 -29.3639 17.8626 17.9325
# 3 35.7623 39.2245 62.8572 -16.9489 14.7686 2.1054
# 4 -7.2975 -29.3639 -16.9489 46.8567 -5.8278 -3.3327
# 5 20.4645 17.8626 14.7686 -5.8278 35.7119 4.4305
# 6 9.4010 17.9325 2.1054 -3.3327 4.4305 34.1470
#
#
#
# Elastic Compliance Matrix: (Units=1/GPa)
#
#
# Indices 1 2 3 4 5 6 
#
# 1 0.013255 -0.001793 -0.005835 -0.001850 -0.004344 -0.001965
# 2 -0.001793 0.014862 -0.005855 0.006209 -0.002220 -0.006056
# 3 -0.005835 -0.005855 0.024769 0.004199 -0.003789 0.004056
# 4 -0.001850 0.006209 0.004199 0.026503 0.000605 -0.000502
# 5 -0.004344 -0.002220 -0.003789 0.000605 0.033477 -0.001689
# 6 -0.001965 -0.006056 0.004056 -0.000502 -0.001689 0.032926
#
#
# Mechanical properties :
#
#
# Convention : Reuss Voigt Hill
#
# Bulk Modulus (GPa) = 38.58039 55.37425 46.97732
# Shear Modulus (GPa) = 27.56354 34.27509 30.91931
#
# Velocity S-wave (km/s) = 3.41290 3.80579 3.61469
# Velocity P-wave (km/s) = 5.64215 6.53546 6.10517
#
# Compressibility (1/GPa) = 0.02591991
#
# Stress axis : x y z
#
# Youngs Moduli (GPa) = 75.44153 67.28685 40.37272
#
# Poissons Ratio (x) = 0.12063 0.23558
# Poissons Ratio (y) = 0.13525 0.23639
# Poissons Ratio (z) = 0.44021 0.39398
#
# Static dielectric constant tensor:
#      x y z
#    x 1.857910 -0.005110 0.006120 
#    y -0.005110 1.931920 0.000550 
#    z 0.006120 0.000550 1.888080 
# 
# From -- ./inp_files/569127.got.cif
#   From: 2010.05.17/outbox.cif.g08.bks.cpg/sg2_285_cif.got.tgz:569127.got - 2010.06.03 11:33:40.
