data_PCOD9015101
_publ_section_title
;
Structure prediction by ZEFSAII (Michael W. Deem and Ramdas Pophale) SiO2 
 PCOD9015101
Probable space group: P -1
;
_chemical_formula_sum "Si O2"
_cell_formula_units_Z 14
_cell_length_a 25.473854
_cell_length_b 12.009723
_cell_length_c 9.677209
_cell_angle_alpha 36.814534
_cell_angle_beta 24.607651
_cell_angle_gamma 29.817335
_cell_volume 612.000874
_symmetry_space_group_name_H-M "P -1"
_symmetry_group_IT_number 2
_symmetry_cell_setting 'triclinic'
loop_
_space_group_symop_operation_xyz
x,y,z
-x,-y,-z
loop_
_atom_site_type_symbol
_atom_site_label
_atom_site_fract_x
_atom_site_fract_y
_atom_site_fract_z
Si Si1 0.756536 0.314197 0.222320
Si Si2 0.730971 0.416590 0.884841
Si Si3 0.066398 0.200737 0.684445
Si Si4 0.758551 0.883386 0.938616
Si Si5 0.861450 0.975341 0.873303
Si Si6 0.967174 0.543704 0.227124
Si Si7 0.517902 0.343823 0.981571
O O1 0.638667 0.343474 0.589648
O O2 0.862087 0.052069 0.183044
O O3 0.679042 0.462397 0.123845
O O4 0.885637 0.335037 0.961316
O O5 0.750358 0.184693 0.028405
O O6 0.883839 0.416768 0.523455
O O7 0.625602 0.573920 0.856314
O O8 0.147463 0.163780 0.380767
O O9 0.092456 0.333174 0.605295
O O10 0.848808 0.628736 0.033378
O O11 0.792635 0.000608 0.862561
O O12 0.586804 0.084032 0.115191
O O13 0.000000 0.000000 0.500000
O O14 0.914002 0.741356 0.049637
O O15 0.500000 0.500000 0.000000
#
# Coordination Sequence:
#
# PCOD9015101 Si02
#       7
#     2   2   2   2   2   2   2
#     4  10  21  42  72  99 136 184 233 279 342 406
#     4  12  24  45  69 101 139 185 228 278 348 408
#     4  10  21  41  71 108 130 173 235 293 337 393
#     4  11  23  43  67 103 135 176 232 281 339 402
#     4  12  24  43  70 102 139 177 228 290 343 400
#     4  12  25  42  73 105 138 172 234 291 343 405
#     4  11  25  44  69 100 142 190 227 275 344 418
#
# _framework density 22.875785
#
# number of rings (size 3 to 8) (size 9 to 14) (size 15 to 20)
#    0.000    0.857    5.714    1.286    4.000    0.000 
#    0.000    5.000    0.000    0.000    0.000    0.000 
#    0.000    0.000    0.000    0.000    0.000    0.000 
#
# Total GULP energy -78111.570435 kJ/mol
# GULP energy per Si atom -5579.397888 kJ/mol
# Density = 2.282372 g / cm^3
# Si number density = 22.875785 Si / 1000 Ang^3
#
#
#
# Elastic Constant Matrix: (Units=GPa)
#
#
# Indices 1 2 3 4 5 6 
#
# 1 165.5560 42.4969 24.8823 6.6566 19.9072 -1.8207
# 2 42.4969 110.8310 8.7258 -5.5804 0.0472 -20.1301
# 3 24.8823 8.7258 52.6497 -2.4427 22.9222 3.4283
# 4 6.6566 -5.5804 -2.4427 26.9342 0.7700 1.3137
# 5 19.9072 0.0472 22.9222 0.7700 24.7479 0.7260
# 6 -1.8207 -20.1301 3.4283 1.3137 0.7260 49.4749
#
#
#
# Elastic Compliance Matrix: (Units=1/GPa)
#
#
# Indices 1 2 3 4 5 6 
#
# 1 0.007706 -0.003150 -0.000886 -0.002448 -0.005272 -0.000794
# 2 -0.003150 0.011394 -0.002648 0.002541 0.004752 0.004566
# 3 -0.000886 -0.002648 0.033385 0.003712 -0.030229 -0.003078
# 4 -0.002448 0.002541 0.003712 0.038687 -0.002669 -0.000302
# 5 -0.005272 0.004752 -0.030229 -0.002669 0.072638 0.002839
# 6 -0.000794 0.004566 -0.003078 -0.000302 0.002839 0.022221
#
#
# Mechanical properties :
#
#
# Convention : Reuss Voigt Hill
#
# Bulk Modulus (GPa) = 25.56474 53.47185 39.51830
# Shear Modulus (GPa) = 23.53628 37.09350 30.31489
#
# Velocity S-wave (km/s) = 3.21109 4.03118 3.64427
# Velocity P-wave (km/s) = 4.99478 6.71512 5.91780
#
# Compressibility (1/GPa) = 0.03911637
#
# Stress axis : x y z
#
# Youngs Moduli (GPa) = 129.77386 87.76215 29.95377
#
# Poissons Ratio (x) = 0.27647 0.02654
# Poissons Ratio (y) = 0.40881 0.07932
# Poissons Ratio (z) = 0.11499 0.23239
#
# Static dielectric constant tensor:
#      x y z
#    x 1.837440 -0.022910 0.028550 
#    y -0.022910 1.946360 -0.004250 
#    z 0.028550 -0.004250 1.855310 
# 
# From -- ./inp_files/353774.got.cif
#   From: 2010.05.17/outbox.cif.g08.bks.cpg/sg2_177_cif.got.tgz:353774.got - 2010.06.03 11:33:40.
