data_PCOD9015697
_publ_section_title
;
Structure prediction by ZEFSAII (Michael W. Deem and Ramdas Pophale) SiO2 
 PCOD9015697
Probable space group: P -1
;
_chemical_formula_sum "Si O2"
_cell_formula_units_Z 14
_cell_length_a 10.402772
_cell_length_b 5.281773
_cell_length_c 10.836939
_cell_angle_alpha 112.171454
_cell_angle_beta 108.236710
_cell_angle_gamma 86.530400
_cell_volume 522.589385
_symmetry_space_group_name_H-M "P -1"
_symmetry_group_IT_number 2
_symmetry_cell_setting 'triclinic'
loop_
_space_group_symop_operation_xyz
x,y,z
-x,-y,-z
loop_
_atom_site_type_symbol
_atom_site_label
_atom_site_fract_x
_atom_site_fract_y
_atom_site_fract_z
Si Si1 0.207006 0.422091 0.106508
Si Si2 0.297433 0.042647 0.882847
Si Si3 0.940292 0.310071 0.121104
Si Si4 0.222323 0.007469 0.302993
Si Si5 0.042053 0.126298 0.666761
Si Si6 0.422942 0.238418 0.589190
Si Si7 0.515098 0.864637 0.750678
O O1 0.250890 0.682375 0.252455
O O2 0.088185 0.231439 0.103039
O O3 0.123690 0.558492 0.995883
O O4 0.321209 0.291462 0.033773
O O5 0.189292 0.855997 0.894338
O O6 0.428431 0.896891 0.855035
O O7 0.197583 0.101609 0.748929
O O8 0.976841 0.551588 0.274825
O O9 0.059455 0.993663 0.276334
O O10 0.276984 0.176629 0.470712
O O11 0.325243 0.113492 0.241040
O O12 0.000000 0.000000 0.500000
O O13 0.466513 0.555273 0.638702
O O14 0.500000 0.000000 0.500000
O O15 0.455504 0.132072 0.715168
#
# Coordination Sequence:
#
# PCOD9015697 Si02
#       7
#     2   2   2   2   2   2   2
#     4   9  20  40  63  88 131 170 225 264 334 387
#     4  11  23  39  66  93 134 171 218 276 336 393
#     4   9  20  40  60  90 128 176 211 273 331 400
#     4  10  21  42  64  95 128 173 227 269 326 403
#     4  10  22  40  63  95 132 167 219 279 328 392
#     4  10  22  46  67  95 135 178 218 265 340 402
#     4  11  25  43  71  98 134 178 216 278 341 396
#
# _framework density 26.789674000000002
#
# number of rings (size 3 to 8) (size 9 to 14) (size 15 to 20)
#    0.000    2.000    0.000    3.857    6.000    1.143 
#   23.143    0.714    0.000    0.000    0.000    0.000 
#    0.000    0.000    0.000    0.000    0.000    0.000 
#
# Total GULP energy -78003.767978 kJ/mol
# GULP energy per Si atom -5571.697713 kJ/mol
# Density = 2.672870 g / cm^3
# Si number density = 26.789674 Si / 1000 Ang^3
#
#
#
# Elastic Constant Matrix: (Units=GPa)
#
#
# Indices 1 2 3 4 5 6 
#
# 1 243.3039 41.5476 43.3949 -0.7677 -24.7731 1.7976
# 2 41.5476 68.6162 34.5390 28.7074 -12.6681 18.9279
# 3 43.3949 34.5390 105.5133 3.4758 -4.7714 7.9010
# 4 -0.7677 28.7074 3.4758 21.7528 14.7705 8.4811
# 5 -24.7731 -12.6681 -4.7714 14.7705 38.3823 0.0344
# 6 1.7976 18.9279 7.9010 8.4811 0.0344 31.6427
#
#
#
# Elastic Compliance Matrix: (Units=1/GPa)
#
#
# Indices 1 2 3 4 5 6 
#
# 1 0.004693 0.003231 -0.002426 -0.008929 0.007229 0.000791
# 2 0.003231 -0.094079 0.018710 0.188081 -0.099019 0.001117
# 3 -0.002426 0.018710 0.006725 -0.038754 0.020361 -0.002368
# 4 -0.008929 0.188081 -0.038754 -0.301766 0.167643 -0.021622
# 5 0.007229 -0.099019 0.020361 0.167643 -0.063952 0.008872
# 6 0.000791 0.001117 -0.002368 -0.021622 0.008872 0.037267
#
#
# Mechanical properties :
#
#
# Convention : Reuss Voigt Hill
#
# Bulk Modulus (GPa) = -22.92009 72.93293 25.00642
# Shear Modulus (GPa) = -10.75997 38.21902 13.72953
#
# Velocity S-wave (km/s) = -2.00629 3.78118 2.26629
# Velocity P-wave (km/s) = 3.73377 6.80782 4.02526
#
# Compressibility (1/GPa) = -0.04362985
#
# Stress axis : x y z
#
# Youngs Moduli (GPa) = 213.08098 -10.62940 148.68880
#
# Poissons Ratio (x) = 0.03435 0.36074
# Poissons Ratio (y) = -0.68855 -2.78195
# Poissons Ratio (z) = 0.51696 0.19887
#
# Static dielectric constant tensor:
#      x y z
#    x 2.144470 -0.100250 0.096890 
#    y -0.100250 2.329120 -0.144580 
#    z 0.096890 -0.144580 2.242180 
# 
# From -- ./inp_files/409664.got.cif
#   From: 2010.05.17/outbox.cif.g08.bks.cpg/sg2_205_cif.got.tgz:409664.got - 2010.06.03 11:33:40.
