data_PCOD9015861
_publ_section_title
;
Structure prediction by ZEFSAII (Michael W. Deem and Ramdas Pophale) SiO2 
 PCOD9015861
Probable space group: P -1
;
_chemical_formula_sum "Si O2"
_cell_formula_units_Z 16
_cell_length_a 13.995156
_cell_length_b 13.022174
_cell_length_c 14.078768
_cell_angle_alpha 150.124097
_cell_angle_beta 148.821347
_cell_angle_gamma 48.073294
_cell_volume 634.098111
_symmetry_space_group_name_H-M "P -1"
_symmetry_group_IT_number 2
_symmetry_cell_setting 'triclinic'
loop_
_space_group_symop_operation_xyz
x,y,z
-x,-y,-z
loop_
_atom_site_type_symbol
_atom_site_label
_atom_site_fract_x
_atom_site_fract_y
_atom_site_fract_z
Si Si1 0.842845 0.426090 0.088847
Si Si2 0.622676 0.649609 0.640018
Si Si3 0.852107 0.937823 0.708023
Si Si4 0.942669 0.468627 0.819299
Si Si5 0.551869 0.713248 0.423390
Si Si6 0.596699 0.059802 0.231506
Si Si7 0.879193 0.313646 0.315817
Si Si8 0.441718 0.120000 0.752282
O O1 0.021101 0.598022 0.428574
O O2 0.873689 0.491276 0.057224
O O3 0.616433 0.404022 0.888398
O O4 0.863030 0.187232 0.932553
O O5 0.500000 0.500000 0.500000
O O6 0.836561 0.642354 0.834461
O O7 0.573979 0.589032 0.439910
O O8 0.566423 0.863359 0.787817
O O9 0.745985 0.804419 0.601643
O O10 0.055725 0.895936 0.825751
O O11 0.715818 0.843104 0.425346
O O12 0.787337 0.239297 0.504919
O O13 0.000000 0.500000 0.000000
O O14 0.486566 0.916504 0.572112
O O15 0.649223 0.923956 0.253824
O O16 0.500000 0.000000 0.000000
O O17 0.000000 0.500000 0.500000
O O18 0.654404 0.280760 0.080533
#
# Coordination Sequence:
#
# PCOD9015861 Si02
#       8
#     2   2   2   2   2   2   2   2
#     4  11  24  43  68  99 133 177 225 279 338 401
#     4   9  20  38  64  91 120 170 215 258 331 397
#     4  11  25  46  68  96 140 184 219 279 348 395
#     4  11  22  41  66  95 127 168 225 276 328 403
#     4  10  21  42  69  91 131 179 224 270 339 410
#     4  10  21  42  65  94 131 169 218 277 337 395
#     4  12  27  42  66 104 137 174 233 278 329 413
#     4  10  22  44  67  97 139 176 223 282 341 405
#
# _framework density 25.232686999999999
#
# number of rings (size 3 to 8) (size 9 to 14) (size 15 to 20)
#    0.000    1.500    0.000    6.750    5.250    3.000 
#    6.750    0.625    0.000    0.000    0.000    0.000 
#    0.000    0.000    0.000    0.000    0.000    0.000 
#
# Total GULP energy -89392.826409 kJ/mol
# GULP energy per Si atom -5587.051651 kJ/mol
# Density = 2.517526 g / cm^3
# Si number density = 25.232687 Si / 1000 Ang^3
#
#
#
# Elastic Constant Matrix: (Units=GPa)
#
#
# Indices 1 2 3 4 5 6 
#
# 1 98.6214 20.5920 17.8960 -2.9725 6.0054 24.0770
# 2 20.5920 75.7312 17.6392 -22.7453 -2.5932 8.2588
# 3 17.8960 17.6392 140.7849 -21.1046 -10.6401 5.9028
# 4 -2.9725 -22.7453 -21.1046 34.3718 5.4574 -1.8212
# 5 6.0054 -2.5932 -10.6401 5.4574 49.6103 -10.0505
# 6 24.0770 8.2588 5.9028 -1.8212 -10.0505 45.4677
#
#
#
# Elastic Compliance Matrix: (Units=1/GPa)
#
#
# Indices 1 2 3 4 5 6 
#
# 1 0.012853 -0.003006 -0.001458 -0.001622 -0.003235 -0.006851
# 2 -0.003006 0.017549 -0.000095 0.011267 -0.000218 -0.001180
# 3 -0.001458 -0.000095 0.008083 0.004556 0.001453 0.000243
# 4 -0.001622 0.011267 0.004556 0.039602 -0.002756 -0.000802
# 5 -0.003235 -0.000218 0.001453 -0.002756 0.022452 0.006417
# 6 -0.006851 -0.001180 0.000243 -0.000802 0.006417 0.027190
#
#
# Mechanical properties :
#
#
# Convention : Reuss Voigt Hill
#
# Bulk Modulus (GPa) = 34.05046 47.48800 40.76923
# Shear Modulus (GPa) = 34.09824 43.15731 38.62778
#
# Velocity S-wave (km/s) = 3.68006 4.14015 3.91687
# Velocity P-wave (km/s) = 5.61970 6.45874 6.05378
#
# Compressibility (1/GPa) = 0.02936818
#
# Stress axis : x y z
#
# Youngs Moduli (GPa) = 77.80548 56.98247 123.71912
#
# Poissons Ratio (x) = 0.17129 0.18033
# Poissons Ratio (y) = 0.23389 0.01171
# Poissons Ratio (z) = 0.11340 0.00539
#
# Static dielectric constant tensor:
#      x y z
#    x 1.998640 0.011020 -0.073450 
#    y 0.011020 2.272910 -0.091010 
#    z -0.073450 -0.091010 2.211590 
# 
# From -- ./inp_files/534654.got.cif
#   From: 2010.05.17/outbox.cif.g08.bks.cpg/sg2_268_cif.got.tgz:534654.got - 2010.06.03 11:33:40.
