data_PCOD9015565
_publ_section_title
;
Structure prediction by ZEFSAII (Michael W. Deem and Ramdas Pophale) SiO2 
 PCOD9015565
Probable space group: P -1
;
_chemical_formula_sum "Si O2"
_cell_formula_units_Z 13
_cell_length_a 9.910543
_cell_length_b 7.198576
_cell_length_c 9.261903
_cell_angle_alpha 78.003180
_cell_angle_beta 126.085837
_cell_angle_gamma 111.552485
_cell_volume 496.617007
_symmetry_space_group_name_H-M "P -1"
_symmetry_group_IT_number 2
_symmetry_cell_setting 'triclinic'
loop_
_space_group_symop_operation_xyz
x,y,z
-x,-y,-z
loop_
_atom_site_type_symbol
_atom_site_label
_atom_site_fract_x
_atom_site_fract_y
_atom_site_fract_z
Si Si1 0.883178 0.174955 0.483861
Si Si2 0.813996 0.525276 0.860987
Si Si3 0.503038 0.369237 0.882846
Si Si4 0.277451 0.090869 0.329281
Si Si5 0.813750 0.958801 0.199036
Si Si6 0.000000 0.000000 0.000000
Si Si7 0.342965 0.612032 0.528934
O O1 0.800839 0.334331 0.472378
O O2 0.079776 0.186070 0.646167
O O3 0.764841 0.965816 0.521764
O O4 0.867545 0.149661 0.306645
O O5 0.694308 0.405765 0.933418
O O6 0.823843 0.762622 0.837761
O O7 0.725810 0.467584 0.658738
O O8 0.000000 0.500000 0.000000
O O9 0.390309 0.149724 0.890868
O O10 0.414102 0.455158 0.682715
O O11 0.500000 0.500000 0.000000
O O12 0.481127 0.193722 0.410275
O O13 0.147035 0.900625 0.199003
O O14 0.877372 0.984282 0.073449
#
# Coordination Sequence:
#
# PCOD9015565 Si02
#       7
#     2   2   2   2   2   1   2
#     4  10  22  39  68  97 132 177 230 278 339 416
#     4  11  25  43  71 105 138 182 231 284 344 412
#     4  11  24  45  68  99 143 181 226 289 341 407
#     4  10  21  42  66  98 138 181 219 280 345 404
#     4  10  21  42  63  95 135 178 222 281 345 396
#     4  10  22  40  72  88 136 178 224 278 338 410
#     4  11  23  42  71  99 135 182 231 283 343 418
#
# _framework density 26.177114
#
# number of rings (size 3 to 8) (size 9 to 14) (size 15 to 20)
#    0.000    1.538    0.000    6.000    6.462    0.615 
#    8.308    1.538    0.000    0.000    0.000    0.000 
#    0.000    0.000    0.000    0.000    0.000    0.000 
#
# Total GULP energy -72628.613113 kJ/mol
# GULP energy per Si atom -5586.816393 kJ/mol
# Density = 2.611753 g / cm^3
# Si number density = 26.177114 Si / 1000 Ang^3
#
#
#
# Elastic Constant Matrix: (Units=GPa)
#
#
# Indices 1 2 3 4 5 6 
#
# 1 211.6987 39.3829 67.2922 8.1490 -16.7336 14.6193
# 2 39.3829 56.4076 23.3653 2.2106 -4.5615 10.8770
# 3 67.2922 23.3653 146.2895 11.3425 -30.9481 -13.4849
# 4 8.1490 2.2106 11.3425 28.3297 0.5262 -4.6450
# 5 -16.7336 -4.5615 -30.9481 0.5262 52.2877 2.2158
# 6 14.6193 10.8770 -13.4849 -4.6450 2.2158 49.6767
#
#
#
# Elastic Compliance Matrix: (Units=1/GPa)
#
#
# Indices 1 2 3 4 5 6 
#
# 1 0.006239 -0.002901 -0.002432 -0.000924 0.000397 -0.001965
# 2 -0.002901 0.021717 -0.002595 -0.000575 -0.000367 -0.004643
# 3 -0.002432 -0.002595 0.009893 -0.002570 0.004727 0.003518
# 4 -0.000924 -0.000575 -0.002570 0.037221 -0.002381 0.003287
# 5 0.000397 -0.000367 0.004727 -0.002381 0.022040 0.000041
# 6 -0.001965 -0.004643 0.003518 0.003287 0.000041 0.022986
#
#
# Mechanical properties :
#
#
# Convention : Reuss Voigt Hill
#
# Bulk Modulus (GPa) = 45.47230 74.94182 60.20706
# Shear Modulus (GPa) = 34.89582 45.01585 39.95584
#
# Velocity S-wave (km/s) = 3.65508 4.15138 3.91111
# Velocity P-wave (km/s) = 5.93477 7.18815 6.59132
#
# Compressibility (1/GPa) = 0.02199141
#
# Stress axis : x y z
#
# Youngs Moduli (GPa) = 160.27718 46.04702 101.08512
#
# Poissons Ratio (x) = 0.13360 0.24586
# Poissons Ratio (y) = 0.46503 0.26233
# Poissons Ratio (z) = 0.38982 0.11950
#
# Static dielectric constant tensor:
#      x y z
#    x 2.010320 -0.044040 0.100290 
#    y -0.044040 2.805600 0.443680 
#    z 0.100290 0.443680 2.447560 
# 
# From -- ./inp_files/154458.got.cif
#   From: 2010.05.17/outbox.cif.g08.bks.cpg/sg2_78_cif.got.tgz:154458.got - 2010.06.03 11:33:40.
