data_PCOD9015997
_publ_section_title
;
Structure prediction by ZEFSAII (Michael W. Deem and Ramdas Pophale) SiO2 
 PCOD9015997
Probable space group: P -1
;
_chemical_formula_sum "Si O2"
_cell_formula_units_Z 16
_cell_length_a 8.829835
_cell_length_b 14.752189
_cell_length_c 16.474424
_cell_angle_alpha 25.079282
_cell_angle_beta 67.914835
_cell_angle_gamma 83.081399
_cell_volume 698.124423
_symmetry_space_group_name_H-M "P -1"
_symmetry_group_IT_number 2
_symmetry_cell_setting 'triclinic'
loop_
_space_group_symop_operation_xyz
x,y,z
-x,-y,-z
loop_
_atom_site_type_symbol
_atom_site_label
_atom_site_fract_x
_atom_site_fract_y
_atom_site_fract_z
Si Si1 0.543162 0.507404 0.847440
Si Si2 0.353143 0.438473 0.665867
Si Si3 0.954450 0.487824 0.923351
Si Si4 0.349587 0.681577 0.615138
Si Si5 0.834042 0.129110 0.906054
Si Si6 0.281798 0.553827 0.424709
Si Si7 0.231317 0.217479 0.275685
Si Si8 0.269297 0.805544 0.946179
O O1 0.443695 0.586157 0.737589
O O2 0.664462 0.754034 0.683433
O O3 0.366916 0.271841 0.127381
O O4 0.683686 0.413645 0.867517
O O5 0.251939 0.461318 0.744982
O O6 0.361443 0.625138 0.443275
O O7 0.570291 0.514507 0.585408
O O8 0.244258 0.155797 0.877932
O O9 0.175438 0.697205 0.675202
O O10 0.781226 0.534159 0.921573
O O11 0.000000 0.500000 0.000000
O O12 0.863730 0.267896 0.049602
O O13 0.523002 0.935532 0.329681
O O14 0.713994 0.229729 0.803790
O O15 0.056016 0.318642 0.673336
O O16 0.817781 0.157213 0.983309
O O17 0.000000 0.000000 0.500000
#
# Coordination Sequence:
#
# PCOD9015997 Si02
#       8
#     2   2   2   2   2   2   2   2
#     4  10  23  41  62  94 126 164 214 260 314 383
#     4  11  23  40  65  98 130 169 218 263 315 385
#     4  11  24  43  65  95 128 165 217 265 323 386
#     4  12  25  41  66  98 132 171 214 265 322 378
#     4  11  23  43  66  93 132 174 214 264 319 380
#     4  10  22  40  65  91 127 175 211 263 321 373
#     4  10  21  42  66  89 124 166 211 264 319 376
#     4  11  25  42  64  97 132 167 216 269 317 383
#
# _framework density 22.918548999999999
#
# number of rings (size 3 to 8) (size 9 to 14) (size 15 to 20)
#    0.000    1.250    1.250    4.500    1.750    2.500 
#    0.000    5.000    0.000    0.000    0.000    0.000 
#    0.000    0.000    0.000    0.000    0.000    0.000 
#
# Total GULP energy -89214.290060 kJ/mol
# GULP energy per Si atom -5575.893129 kJ/mol
# Density = 2.286639 g / cm^3
# Si number density = 22.918549 Si / 1000 Ang^3
#
#
#
# Elastic Constant Matrix: (Units=GPa)
#
#
# Indices 1 2 3 4 5 6 
#
# 1 82.8677 29.6071 11.7185 6.9307 3.4158 9.0557
# 2 29.6071 114.2544 39.4702 14.5904 0.7934 11.7418
# 3 11.7185 39.4702 79.2255 0.7195 -16.1681 7.3926
# 4 6.9307 14.5904 0.7195 22.8658 2.8650 -6.9492
# 5 3.4158 0.7934 -16.1681 2.8650 43.5110 10.0710
# 6 9.0557 11.7418 7.3926 -6.9492 10.0710 38.0757
#
#
#
# Elastic Compliance Matrix: (Units=1/GPa)
#
#
# Indices 1 2 3 4 5 6 
#
# 1 0.013685 -0.002677 -0.000461 -0.003250 -0.000324 -0.002847
# 2 -0.002677 0.012845 -0.005775 -0.008154 -0.000829 -0.003472
# 3 -0.000461 -0.005775 0.017315 0.001431 0.007202 -0.003115
# 4 -0.003250 -0.008154 0.001431 0.055100 -0.006090 0.014677
# 5 -0.000324 -0.000829 0.007202 -0.006090 0.028339 -0.009673
# 6 -0.002847 -0.003472 -0.003115 0.014677 -0.009673 0.033853
#
#
# Mechanical properties :
#
#
# Convention : Reuss Voigt Hill
#
# Bulk Modulus (GPa) = 38.43334 48.65990 43.54662
# Shear Modulus (GPa) = 26.64714 33.92731 30.28723
#
# Velocity S-wave (km/s) = 3.41352 3.85170 3.63921
# Velocity P-wave (km/s) = 5.68701 6.40769 6.05808
#
# Compressibility (1/GPa) = 0.02601908
#
# Stress axis : x y z
#
# Youngs Moduli (GPa) = 73.07024 77.85203 57.75393
#
# Poissons Ratio (x) = 0.20841 0.02665
# Poissons Ratio (y) = 0.19561 0.33350
# Poissons Ratio (z) = 0.03372 0.44956
#
# Static dielectric constant tensor:
#      x y z
#    x 1.885470 0.021510 0.004780 
#    y 0.021510 1.959250 -0.064830 
#    z 0.004780 -0.064830 1.908160 
# 
# From -- ./inp_files/504980.got.cif
#   From: 2010.05.17/outbox.cif.g08.bks.cpg/sg2_253_cif.got.tgz:504980.got - 2010.06.03 11:33:40.
