data_PCOD9015396
_publ_section_title
;
Structure prediction by ZEFSAII (Michael W. Deem and Ramdas Pophale) SiO2 
 PCOD9015396
Probable space group: P -1
;
_chemical_formula_sum "Si O2"
_cell_formula_units_Z 14
_cell_length_a 11.492988
_cell_length_b 12.012250
_cell_length_c 11.691708
_cell_angle_alpha 83.920879
_cell_angle_beta 121.333253
_cell_angle_gamma 44.399117
_cell_volume 580.159882
_symmetry_space_group_name_H-M "P -1"
_symmetry_group_IT_number 2
_symmetry_cell_setting 'triclinic'
loop_
_space_group_symop_operation_xyz
x,y,z
-x,-y,-z
loop_
_atom_site_type_symbol
_atom_site_label
_atom_site_fract_x
_atom_site_fract_y
_atom_site_fract_z
Si Si1 0.809971 0.169150 0.085933
Si Si2 0.591254 0.609319 0.336181
Si Si3 0.362228 0.458528 0.029155
Si Si4 0.215523 0.316484 0.956848
Si Si5 0.437293 0.148848 0.830630
Si Si6 0.816975 0.421546 0.722679
Si Si7 0.713756 0.277517 0.433831
O O1 0.486677 0.381438 0.971712
O O2 0.734601 0.175070 0.923418
O O3 0.849798 0.273390 0.086190
O O4 0.071583 0.925843 0.331199
O O5 0.687991 0.659383 0.334920
O O6 0.608687 0.593314 0.483406
O O7 0.793662 0.346385 0.439260
O O8 0.661720 0.249765 0.292611
O O9 0.222583 0.440052 0.978817
O O10 0.249993 0.286292 0.839128
O O11 0.896222 0.485324 0.808386
O O12 0.512430 0.013227 0.178783
O O13 0.817709 0.890563 0.083739
O O14 0.638221 0.474051 0.712620
#
# Coordination Sequence:
#
# PCOD9015396 Si02
#       7
#     2   2   2   2   2   2   2
#     4  10  22  40  60  92 115 157 209 248 296 342
#     4  11  21  37  65  87 123 154 196 254 294 350
#     4  10  21  42  62  85 118 164 200 249 292 354
#     4   9  20  43  61  87 125 152 205 246 291 362
#     4   9  20  40  60  89 120 156 199 246 294 349
#     4  10  23  39  58  96 123 157 196 240 309 362
#     4  11  24  38  62  91 125 158 197 246 301 358
#
# _framework density 24.131277999999998
#
# number of rings (size 3 to 8) (size 9 to 14) (size 15 to 20)
#    0.857    1.143    1.429    1.714    0.000    4.571 
#    2.571    0.714    0.000    0.000    0.000    0.000 
#    0.000    0.000    0.000    0.000    0.000    0.000 
#
# Total GULP energy -78048.126928 kJ/mol
# GULP energy per Si atom -5574.866209 kJ/mol
# Density = 2.407635 g / cm^3
# Si number density = 24.131278 Si / 1000 Ang^3
#
#
#
# Elastic Constant Matrix: (Units=GPa)
#
#
# Indices 1 2 3 4 5 6 
#
# 1 118.1070 49.8205 37.9309 -0.3504 -24.8046 39.0895
# 2 49.8205 37.5797 26.0498 3.8651 -1.2549 36.8326
# 3 37.9309 26.0498 120.8390 2.2431 -28.6208 16.5067
# 4 -0.3504 3.8651 2.2431 25.7266 7.5188 -4.1273
# 5 -24.8046 -1.2549 -28.6208 7.5188 40.4549 -4.5480
# 6 39.0895 36.8326 16.5067 -4.1273 -4.5480 67.4987
#
#
#
# Elastic Compliance Matrix: (Units=1/GPa)
#
#
# Indices 1 2 3 4 5 6 
#
# 1 0.032862 -0.063576 0.006766 0.005000 0.023824 0.015918
# 2 -0.063576 0.197872 -0.025583 -0.023694 -0.054410 -0.070016
# 3 0.006766 -0.025583 0.013986 -0.000202 0.014137 0.007562
# 4 0.005000 -0.023694 -0.000202 0.045976 -0.004945 0.012561
# 5 0.023824 -0.054410 0.014137 -0.004945 0.050304 0.015524
# 6 0.015918 -0.070016 0.007562 0.012561 0.015524 0.043768
#
#
# Mechanical properties :
#
#
# Convention : Reuss Voigt Hill
#
# Bulk Modulus (GPa) = 12.51040 56.01423 34.26232
# Shear Modulus (GPa) = 8.67754 37.58434 23.13094
#
# Velocity S-wave (km/s) = 1.89836 3.95079 3.09940
# Velocity P-wave (km/s) = 3.16237 6.63885 5.19976
#
# Compressibility (1/GPa) = 0.07993349
#
# Stress axis : x y z
#
# Youngs Moduli (GPa) = 30.43020 5.05377 71.50007
#
# Poissons Ratio (x) = 0.32130 -0.48374
# Poissons Ratio (y) = 1.93463 1.82919
# Poissons Ratio (z) = -0.20588 0.12929
#
# Static dielectric constant tensor:
#      x y z
#    x 1.933180 0.026500 0.057900 
#    y 0.026500 2.031100 -0.052690 
#    z 0.057900 -0.052690 1.956780 
# 
# From -- ./inp_files/117941.got.cif
#   From: 2010.05.17/outbox.cif.g08.bks.cpg/sg2_59_cif.got.tgz:117941.got - 2010.06.03 11:33:40.
