data_PCOD9015899
_publ_section_title
;
Structure prediction by ZEFSAII (Michael W. Deem and Ramdas Pophale) SiO2 
 PCOD9015899
Probable space group: P -1
;
_chemical_formula_sum "Si O2"
_cell_formula_units_Z 16
_cell_length_a 8.953086
_cell_length_b 13.580675
_cell_length_c 15.054712
_cell_angle_alpha 39.153310
_cell_angle_beta 110.137469
_cell_angle_gamma 130.014243
_cell_volume 838.893887
_symmetry_space_group_name_H-M "P -1"
_symmetry_group_IT_number 2
_symmetry_cell_setting 'triclinic'
loop_
_space_group_symop_operation_xyz
x,y,z
-x,-y,-z
loop_
_atom_site_type_symbol
_atom_site_label
_atom_site_fract_x
_atom_site_fract_y
_atom_site_fract_z
Si Si1 0.546225 0.111467 0.522271
Si Si2 0.145697 0.434131 0.755961
Si Si3 0.488704 0.468129 0.912617
Si Si4 0.325874 0.456024 0.428717
Si Si5 0.047055 0.340419 0.614624
Si Si6 0.390937 0.049311 0.183102
Si Si7 0.653471 0.171477 0.843335
Si Si8 0.763087 0.796957 0.590113
O O1 0.762262 0.334764 0.395349
O O2 0.380710 0.140928 0.488532
O O3 0.500000 0.000000 0.500000
O O4 0.538137 0.980515 0.689555
O O5 0.283715 0.426008 0.860508
O O6 0.185218 0.393122 0.692878
O O7 0.898588 0.283629 0.825546
O O8 0.677187 0.655320 0.760734
O O9 0.500000 0.500000 0.000000
O O10 0.473369 0.273211 0.028190
O O11 0.500000 0.500000 0.500000
O O12 0.136278 0.356901 0.526533
O O13 0.376041 0.663655 0.268545
O O14 0.277746 0.328844 0.419460
O O15 0.000000 0.500000 0.500000
O O16 0.854811 0.107939 0.750251
O O17 0.423028 0.942761 0.186884
O O18 0.500000 0.000000 0.000000
O O19 0.000000 0.000000 0.500000
#
# Coordination Sequence:
#
# PCOD9015899 Si02
#       8
#     2   2   2   2   2   2   2   2
#     4  11  22  41  71  90 124 182 227 261 327 409
#     4  10  21  42  65  96 131 170 234 269 327 411
#     4  11  25  45  65  95 136 181 226 277 331 404
#     4  12  23  40  67  98 137 166 219 288 338 399
#     4  11  20  38  71  97 123 168 224 270 330 400
#     4  11  21  40  65  95 125 166 233 267 322 412
#     4  11  23  39  63  95 133 173 209 278 347 393
#     4  11  27  44  65 102 138 173 226 285 346 393
#
# _framework density 19.072732999999999
#
# number of rings (size 3 to 8) (size 9 to 14) (size 15 to 20)
#    0.000    1.000    3.750    4.500    5.250    3.000 
#    2.250    0.625    0.000    0.000    0.000    0.000 
#    0.000    0.000    0.000    0.000    0.000    0.000 
#
# Total GULP energy -89223.149150 kJ/mol
# GULP energy per Si atom -5576.446822 kJ/mol
# Density = 1.902932 g / cm^3
# Si number density = 19.072733 Si / 1000 Ang^3
#
#
#
# Elastic Constant Matrix: (Units=GPa)
#
#
# Indices 1 2 3 4 5 6 
#
# 1 80.8507 70.2826 47.1923 1.7559 -1.8184 -6.6357
# 2 70.2826 159.1590 65.9072 14.6782 -1.0250 -13.4533
# 3 47.1923 65.9072 135.0188 1.3048 -5.4528 9.2190
# 4 1.7559 14.6782 1.3048 40.6601 0.5237 0.4002
# 5 -1.8184 -1.0250 -5.4528 0.5237 39.6934 1.5281
# 6 -6.6357 -13.4533 9.2190 0.4002 1.5281 35.3320
#
#
#
# Elastic Compliance Matrix: (Units=1/GPa)
#
#
# Indices 1 2 3 4 5 6 
#
# 1 0.021687 -0.008018 -0.003815 0.002059 0.000159 0.001985
# 2 -0.008018 0.011846 -0.003235 -0.003857 -0.000606 0.003919
# 3 -0.003815 -0.003235 0.010693 0.001019 0.001382 -0.004810
# 4 0.002059 -0.003857 0.001019 0.025883 -0.000144 -0.001635
# 5 0.000159 -0.000606 0.001382 -0.000144 0.025440 -0.001660
# 6 0.001985 0.003919 -0.004810 -0.001635 -0.001660 0.031513
#
#
# Mechanical properties :
#
#
# Convention : Reuss Voigt Hill
#
# Bulk Modulus (GPa) = 70.96996 82.42143 76.69569
# Shear Modulus (GPa) = 30.88389 35.91351 33.39870
#
# Velocity S-wave (km/s) = 4.02838 4.34404 4.18918
# Velocity P-wave (km/s) = 7.67646 8.27460 7.98113
#
# Compressibility (1/GPa) = 0.01409047
#
# Stress axis : x y z
#
# Youngs Moduli (GPa) = 46.11018 84.41516 93.51542
#
# Poissons Ratio (x) = 0.67683 0.35681
# Poissons Ratio (y) = 0.36970 0.30251
# Poissons Ratio (z) = 0.17593 0.27307
#
# Static dielectric constant tensor:
#      x y z
#    x 1.656510 -0.048130 0.038980 
#    y -0.048130 1.128890 0.046910 
#    z 0.038980 0.046910 1.579990 
# 
# From -- ./inp_files/499904.got.cif
#   From: 2010.05.17/outbox.cif.g08.bks.cpg/sg2_250_cif.got.tgz:499904.got - 2010.06.03 11:33:40.
