data_PCOD9015588
_publ_section_title
;
Structure prediction by ZEFSAII (Michael W. Deem and Ramdas Pophale) SiO2 
 PCOD9015588
Probable space group: P -1
;
_chemical_formula_sum "Si O2"
_cell_formula_units_Z 16
_cell_length_a 8.956757
_cell_length_b 17.897671
_cell_length_c 17.955228
_cell_angle_alpha 31.910193
_cell_angle_beta 29.890061
_cell_angle_gamma 41.480358
_cell_volume 757.238104
_symmetry_space_group_name_H-M "P -1"
_symmetry_group_IT_number 2
_symmetry_cell_setting 'triclinic'
loop_
_space_group_symop_operation_xyz
x,y,z
-x,-y,-z
loop_
_atom_site_type_symbol
_atom_site_label
_atom_site_fract_x
_atom_site_fract_y
_atom_site_fract_z
Si Si1 0.826339 0.002923 0.731522
Si Si2 0.657334 0.510594 0.543929
Si Si3 0.019470 0.750368 0.961392
Si Si4 0.280561 0.460921 0.059767
Si Si5 0.500204 0.723736 0.309105
Si Si6 0.605243 0.851006 0.691723
Si Si7 0.339309 0.583858 0.213690
Si Si8 0.683434 0.082882 0.082832
O O1 0.701248 0.133193 0.725373
O O2 0.154619 0.041016 0.529816
O O3 0.583799 0.990146 0.782533
O O4 0.845921 0.857071 0.891149
O O5 0.503681 0.645134 0.453528
O O6 0.610616 0.380938 0.617889
O O7 0.562301 0.480462 0.694903
O O8 0.011326 0.533369 0.377784
O O9 0.351898 0.806735 0.780339
O O10 0.034723 0.588867 0.063373
O O11 0.842236 0.752045 0.114707
O O12 0.214465 0.297369 0.239712
O O13 0.500000 0.500000 0.000000
O O14 0.442718 0.463044 0.908368
O O15 0.416820 0.909162 0.794645
O O16 0.311880 0.754443 0.084153
O O17 0.000000 0.000000 0.000000
#
# Coordination Sequence:
#
# PCOD9015588 Si02
#       8
#     2   2   2   2   2   2   2   2
#     4  12  25  42  65 102 132 170 225 277 328 401
#     4  10  22  39  65  97 130 163 233 272 326 385
#     4  11  23  43  66  98 134 173 220 271 340 395
#     4   9  20  39  69  91 134 173 217 264 337 392
#     4  11  24  40  66  94 133 176 217 275 337 393
#     4  10  23  42  66  97 132 175 221 267 331 399
#     4  10  21  42  64 100 125 175 222 276 321 396
#     4  11  23  45  67  91 137 181 214 267 344 400
#
# _framework density 21.129418999999999
#
# number of rings (size 3 to 8) (size 9 to 14) (size 15 to 20)
#    0.000    1.500    0.000    5.625    7.000    1.000 
#    9.000    1.875    0.000    0.000    0.000    0.000 
#    0.000    0.000    0.000    0.000    0.000    0.000 
#
# Total GULP energy -89441.342887 kJ/mol
# GULP energy per Si atom -5590.083930 kJ/mol
# Density = 2.108133 g / cm^3
# Si number density = 21.129419 Si / 1000 Ang^3
#
#
#
# Elastic Constant Matrix: (Units=GPa)
#
#
# Indices 1 2 3 4 5 6 
#
# 1 94.4724 25.0904 28.2930 3.7455 2.8889 0.2107
# 2 25.0904 136.0310 31.0613 -1.2196 20.5106 -4.9634
# 3 28.2930 31.0613 80.0098 7.0772 4.4664 1.4197
# 4 3.7455 -1.2196 7.0772 25.7452 -3.5433 -0.6359
# 5 2.8889 20.5106 4.4664 -3.5433 50.7482 0.2538
# 6 0.2107 -4.9634 1.4197 -0.6359 0.2538 20.3369
#
#
#
# Elastic Compliance Matrix: (Units=1/GPa)
#
#
# Indices 1 2 3 4 5 6 
#
# 1 0.012087 -0.001436 -0.003650 -0.000808 0.000158 -0.000248
# 2 -0.001436 0.008854 -0.002888 0.001045 -0.003182 0.002450
# 3 -0.003650 -0.002888 0.015300 -0.003890 -0.000234 -0.001854
# 4 -0.000808 0.001045 -0.003890 0.040505 0.002785 0.001767
# 5 0.000158 -0.003182 -0.000234 0.002785 0.021202 -0.000939
# 6 -0.000248 0.002450 -0.001854 0.001767 -0.000939 0.049969
#
#
# Mechanical properties :
#
#
# Convention : Reuss Voigt Hill
#
# Bulk Modulus (GPa) = 49.27523 53.26697 51.27110
# Shear Modulus (GPa) = 29.30324 34.43728 31.87026
#
# Velocity S-wave (km/s) = 3.72808 4.04149 3.88794
# Velocity P-wave (km/s) = 6.47323 6.85877 6.66879
#
# Compressibility (1/GPa) = 0.02029417
#
# Stress axis : x y z
#
# Youngs Moduli (GPa) = 82.73134 112.94249 65.35884
#
# Poissons Ratio (x) = 0.16222 0.23854
# Poissons Ratio (y) = 0.11883 0.18873
# Poissons Ratio (z) = 0.30195 0.32614
#
# Static dielectric constant tensor:
#      x y z
#    x 1.756690 -0.013200 -0.021190 
#    y -0.013200 1.745000 -0.000320 
#    z -0.021190 -0.000320 1.774190 
# 
# From -- ./inp_files/279976.got.cif
#   From: 2010.05.17/outbox.cif.g08.bks.cpg/sg2_140_cif.got.tgz:279976.got - 2010.06.03 11:33:40.
