data_PCOD9015090
_publ_section_title
;
Structure prediction by ZEFSAII (Michael W. Deem and Ramdas Pophale) SiO2 
 PCOD9015090
Probable space group: P -1
;
_chemical_formula_sum "Si O2"
_cell_formula_units_Z 14
_cell_length_a 4.922818
_cell_length_b 19.022321
_cell_length_c 8.690602
_cell_angle_alpha 128.613893
_cell_angle_beta 91.503429
_cell_angle_gamma 93.884852
_cell_volume 631.975700
_symmetry_space_group_name_H-M "P -1"
_symmetry_group_IT_number 2
_symmetry_cell_setting 'triclinic'
loop_
_space_group_symop_operation_xyz
x,y,z
-x,-y,-z
loop_
_atom_site_type_symbol
_atom_site_label
_atom_site_fract_x
_atom_site_fract_y
_atom_site_fract_z
Si Si1 0.497603 0.301694 0.778588
Si Si2 0.815064 0.536912 0.917411
Si Si3 0.848832 0.306914 0.069072
Si Si4 0.964289 0.235272 0.505398
Si Si5 0.268349 0.555481 0.510951
Si Si6 0.335160 0.903381 0.885850
Si Si7 0.163439 0.194348 0.133879
O O1 0.741182 0.294162 0.651404
O O2 0.221832 0.244138 0.635259
O O3 0.416801 0.403791 0.940835
O O4 0.617352 0.266753 0.892359
O O5 0.721666 0.456905 0.687814
O O6 0.995215 0.611637 0.917093
O O7 0.000000 0.500000 0.000000
O O8 0.712287 0.348524 0.273455
O O9 0.070597 0.245053 0.051991
O O10 0.786574 0.139470 0.335306
O O11 0.095104 0.256045 0.366063
O O12 0.500000 0.500000 0.500000
O O13 0.000000 0.500000 0.500000
O O14 0.542466 0.838312 0.876470
O O15 0.061414 0.893889 0.971284
O O16 0.500000 0.000000 0.000000
#
# Coordination Sequence:
#
# PCOD9015090 Si02
#       7
#     2   2   2   2   2   2   2
#     4  12  22  42  61  93 131 172 217 267 316 387
#     4  11  26  42  64  92 127 175 223 277 323 369
#     4  11  25  42  64  91 135 172 219 271 319 386
#     4  10  22  40  66  96 123 170 212 260 319 388
#     4  10  22  42  57  86 121 167 213 268 323 357
#     4  10  21  41  71 104 130 156 209 265 319 389
#     4  10  23  39  70  99 125 172 210 262 322 379
#
# _framework density 22.152749
#
# number of rings (size 3 to 8) (size 9 to 14) (size 15 to 20)
#    0.857    0.571    4.286    0.429    4.000    0.571 
#    5.143    0.000    0.000    5.143    0.000    0.000 
#    0.000    0.000    0.000    0.000    0.000    0.000 
#
# Total GULP energy -78136.539598 kJ/mol
# GULP energy per Si atom -5581.181400 kJ/mol
# Density = 2.210233 g / cm^3
# Si number density = 22.152749 Si / 1000 Ang^3
#
#
#
# Elastic Constant Matrix: (Units=GPa)
#
#
# Indices 1 2 3 4 5 6 
#
# 1 135.7075 17.9093 34.5563 -5.1983 23.8868 -21.1208
# 2 17.9093 86.7188 49.9571 -7.9864 24.6242 -13.7083
# 3 34.5563 49.9571 118.6800 -17.5826 34.0997 -14.3558
# 4 -5.1983 -7.9864 -17.5826 25.3204 -4.7123 10.7037
# 5 23.8868 24.6242 34.0997 -4.7123 48.3135 -6.0256
# 6 -21.1208 -13.7083 -14.3558 10.7037 -6.0256 30.0948
#
#
#
# Elastic Compliance Matrix: (Units=1/GPa)
#
#
# Indices 1 2 3 4 5 6 
#
# 1 0.009112 0.000721 -0.001634 -0.002202 -0.003174 0.006092
# 2 0.000721 0.016443 -0.005473 -0.001398 -0.004387 0.005004
# 3 -0.001634 -0.005473 0.013704 0.006676 -0.005496 -0.000577
# 4 -0.002202 -0.001398 0.006676 0.050376 -0.000109 -0.016937
# 5 -0.003174 -0.004387 -0.005496 -0.000109 0.028227 -0.001157
# 6 0.006092 0.005004 -0.000577 -0.016937 -0.001157 0.045300
#
#
# Mechanical properties :
#
#
# Convention : Reuss Voigt Hill
#
# Bulk Modulus (GPa) = 37.75387 60.66130 49.20759
# Shear Modulus (GPa) = 27.06160 36.65798 31.85979
#
# Velocity S-wave (km/s) = 3.49892 4.07231 3.79646
# Velocity P-wave (km/s) = 5.77951 7.03948 6.44038
#
# Compressibility (1/GPa) = 0.02648735
#
# Stress axis : x y z
#
# Youngs Moduli (GPa) = 109.74298 60.81455 72.97240
#
# Poissons Ratio (x) = -0.04385 0.11924
# Poissons Ratio (y) = -0.07913 0.39938
# Poissons Ratio (z) = 0.17933 0.33284
#
# Static dielectric constant tensor:
#      x y z
#    x 1.858450 0.063850 0.001920 
#    y 0.063850 1.776250 0.030400 
#    z 0.001920 0.030400 1.864630 
# 
# From -- ./inp_files/136304.got.cif
#   From: 2010.05.17/outbox.cif.g08.bks.cpg/sg2_69_cif.got.tgz:136304.got - 2010.06.03 11:33:40.
