data_PCOD9015232
_publ_section_title
;
Structure prediction by ZEFSAII (Michael W. Deem and Ramdas Pophale) SiO2 
 PCOD9015232
Probable space group: P -1
;
_chemical_formula_sum "Si O2"
_cell_formula_units_Z 16
_cell_length_a 8.812900
_cell_length_b 9.222377
_cell_length_c 12.177850
_cell_angle_alpha 103.659305
_cell_angle_beta 56.830425
_cell_angle_gamma 126.976489
_cell_volume 655.441357
_symmetry_space_group_name_H-M "P -1"
_symmetry_group_IT_number 2
_symmetry_cell_setting 'triclinic'
loop_
_space_group_symop_operation_xyz
x,y,z
-x,-y,-z
loop_
_atom_site_type_symbol
_atom_site_label
_atom_site_fract_x
_atom_site_fract_y
_atom_site_fract_z
Si Si1 0.413645 0.282013 0.586821
Si Si2 0.636610 0.413186 0.307155
Si Si3 0.198384 0.265384 0.032642
Si Si4 0.909670 0.461892 0.904437
Si Si5 0.714102 0.779592 0.766679
Si Si6 0.259437 0.867739 0.239691
Si Si7 0.909132 0.615107 0.518441
Si Si8 0.685256 0.933329 0.200566
O O1 0.445056 0.268576 0.442535
O O2 0.285646 0.377306 0.670134
O O3 0.661775 0.456034 0.549273
O O4 0.345554 0.117601 0.666440
O O5 0.523115 0.351317 0.222727
O O6 0.856812 0.421686 0.234414
O O7 0.224536 0.453499 0.050140
O O8 0.280600 0.242523 0.110924
O O9 0.319829 0.233546 0.882653
O O10 0.930978 0.109864 0.106988
O O11 0.775353 0.256521 0.874210
O O12 0.000000 0.500000 0.000000
O O13 0.875857 0.732125 0.640176
O O14 0.773874 0.978465 0.754623
O O15 0.494550 0.941282 0.220130
O O16 0.073957 0.744826 0.381875
O O17 0.000000 0.500000 0.500000
#
# Coordination Sequence:
#
# PCOD9015232 Si02
#       8
#     2   2   2   2   2   2   2   2
#     4  10  21  41  73 103 141 188 233 296 355 428
#     4  10  23  43  70 106 145 183 238 292 361 420
#     4  11  28  48  69 104 142 189 244 297 354 429
#     4  12  27  46  75 106 143 191 243 293 360 426
#     4  11  27  44  72 106 148 188 235 293 359 425
#     4  12  26  45  72 107 144 190 238 296 359 427
#     4  11  21  44  71 110 144 181 237 293 356 427
#     4  11  26  46  74  98 145 189 244 294 362 415
#
# _framework density 24.41103
#
# number of rings (size 3 to 8) (size 9 to 14) (size 15 to 20)
#    0.000    1.000    2.500    2.625    8.750    2.000 
#    0.000    1.875    0.000    0.000    0.000    0.000 
#    0.000    0.000    0.000    0.000    0.000    0.000 
#
# Total GULP energy -89610.582721 kJ/mol
# GULP energy per Si atom -5600.661420 kJ/mol
# Density = 2.435547 g / cm^3
# Si number density = 24.411030 Si / 1000 Ang^3
#
#
#
# Elastic Constant Matrix: (Units=GPa)
#
#
# Indices 1 2 3 4 5 6 
#
# 1 111.3684 41.8656 25.3998 -4.4028 -2.7532 -22.9539
# 2 41.8656 102.6150 28.3219 10.1518 -4.7478 -30.5058
# 3 25.3998 28.3219 75.0496 -8.2201 5.5664 -12.1453
# 4 -4.4028 10.1518 -8.2201 29.6150 -7.1385 -1.7648
# 5 -2.7532 -4.7478 5.5664 -7.1385 40.5907 -0.9997
# 6 -22.9539 -30.5058 -12.1453 -1.7648 -0.9997 54.5375
#
#
#
# Elastic Compliance Matrix: (Units=1/GPa)
#
#
# Indices 1 2 3 4 5 6 
#
# 1 0.011424 -0.003640 -0.001867 0.002857 0.001168 0.002470
# 2 -0.003640 0.014698 -0.004165 -0.006137 0.001102 0.005583
# 3 -0.001867 -0.004165 0.016354 0.005268 -0.001914 0.000662
# 4 0.002857 -0.006137 0.005268 0.039136 0.005644 0.000313
# 5 0.001168 0.001102 -0.001914 0.005644 0.026132 0.001343
# 6 0.002470 0.005583 0.000662 0.000313 0.001343 0.022681
#
#
# Mechanical properties :
#
#
# Convention : Reuss Voigt Hill
#
# Bulk Modulus (GPa) = 43.22882 53.35640 48.29261
# Shear Modulus (GPa) = 31.75006 37.84503 34.79755
#
# Velocity S-wave (km/s) = 3.61036 3.94169 3.77966
# Velocity P-wave (km/s) = 5.92678 6.52846 6.23488
#
# Compressibility (1/GPa) = 0.02313272
#
# Stress axis : x y z
#
# Youngs Moduli (GPa) = 87.53300 68.03793 61.14660
#
# Poissons Ratio (x) = 0.24765 0.11415
# Poissons Ratio (y) = 0.31861 0.25468
# Poissons Ratio (z) = 0.16341 0.28338
#
# Static dielectric constant tensor:
#      x y z
#    x 1.984350 0.009600 -0.014260 
#    y 0.009600 1.967140 0.028320 
#    z -0.014260 0.028320 1.984590 
# 
# From -- ./inp_files/245665.got.cif
#   From: 2010.05.17/outbox.cif.g08.bks.cpg/sg2_123_cif.got.tgz:245665.got - 2010.06.03 11:33:40.
