data_PCOD9015468
_publ_section_title
;
Structure prediction by ZEFSAII (Michael W. Deem and Ramdas Pophale) SiO2 
 PCOD9015468
Probable space group: P -1
;
_chemical_formula_sum "Si O2"
_cell_formula_units_Z 16
_cell_length_a 9.494023
_cell_length_b 30.287130
_cell_length_c 13.517882
_cell_angle_alpha 155.885433
_cell_angle_beta 32.770172
_cell_angle_gamma 158.093686
_cell_volume 592.045327
_symmetry_space_group_name_H-M "P -1"
_symmetry_group_IT_number 2
_symmetry_cell_setting 'triclinic'
loop_
_space_group_symop_operation_xyz
x,y,z
-x,-y,-z
loop_
_atom_site_type_symbol
_atom_site_label
_atom_site_fract_x
_atom_site_fract_y
_atom_site_fract_z
Si Si1 0.739251 0.180254 0.249805
Si Si2 0.561525 0.887227 0.498270
Si Si3 0.451948 0.711065 0.885594
Si Si4 0.453321 0.684502 0.613467
Si Si5 0.554154 0.366140 0.069165
Si Si6 0.089745 0.054745 0.251228
Si Si7 0.352187 0.433872 0.146728
Si Si8 0.831818 0.147922 0.742710
O O1 0.694806 0.195647 0.422436
O O2 0.483550 0.181344 0.336609
O O3 0.150589 0.294189 0.194546
O O4 0.500000 0.000000 0.000000
O O5 0.568381 0.009086 0.696002
O O6 0.475674 0.764503 0.222681
O O7 0.000000 0.000000 0.500000
O O8 0.284321 0.774775 0.079923
O O9 0.462145 0.650176 0.652820
O O10 0.253664 0.591036 0.848813
O O11 0.869975 0.876135 0.009360
O O12 0.798457 0.866992 0.760883
O O13 0.528858 0.595983 0.328170
O O14 0.063241 0.633706 0.722351
O O15 0.618635 0.461243 0.129763
O O16 0.848054 0.063658 0.476516
O O17 0.219326 0.296311 0.874041
#
# Coordination Sequence:
#
# PCOD9015468 Si02
#       8
#     2   2   2   2   2   2   2   2
#     4  12  20  33  60  95 120 156 204 250 304 368
#     4  12  20  34  58  94 124 153 199 252 312 353
#     4  11  24  38  59  92 126 161 192 253 320 359
#     4  10  24  39  60  89 118 164 207 245 301 365
#     4  12  22  39  63  91 125 159 203 256 306 366
#     4  12  21  37  61  93 123 154 203 254 311 361
#     4  10  21  42  63  82 120 164 207 249 292 368
#     4  11  22  39  61  90 127 159 195 254 312 365
#
# _framework density 27.024957000000001
#
# number of rings (size 3 to 8) (size 9 to 14) (size 15 to 20)
#    0.000    0.750    7.500    0.750    1.750    2.000 
#    0.000    0.000    0.000    0.750    0.000    0.000 
#    0.000    0.000    0.000    0.000    0.000    0.000 
#
# Total GULP energy -89390.377210 kJ/mol
# GULP energy per Si atom -5586.898576 kJ/mol
# Density = 2.696345 g / cm^3
# Si number density = 27.024957 Si / 1000 Ang^3
#
#
#
# Elastic Constant Matrix: (Units=GPa)
#
#
# Indices 1 2 3 4 5 6 
#
# 1 140.0989 18.7502 12.1105 5.7035 -0.9697 -14.3397
# 2 18.7502 63.1260 10.3930 -0.3181 11.5845 -10.8036
# 3 12.1105 10.3930 108.3263 3.2764 8.3933 -6.1952
# 4 5.7035 -0.3181 3.2764 24.0742 -14.1225 1.0423
# 5 -0.9697 11.5845 8.3933 -14.1225 46.0192 1.2589
# 6 -14.3397 -10.8036 -6.1952 1.0423 1.2589 24.7545
#
#
#
# Elastic Compliance Matrix: (Units=1/GPa)
#
#
# Indices 1 2 3 4 5 6 
#
# 1 0.007865 -0.001603 -0.000438 -0.002039 -0.000082 0.003837
# 2 -0.001603 0.018752 -0.000654 -0.002986 -0.005757 0.007510
# 3 -0.000438 -0.000654 0.009749 -0.002818 -0.002546 0.002149
# 4 -0.002039 -0.002986 -0.002818 0.052999 0.017660 -0.006319
# 5 -0.000082 -0.005757 -0.002546 0.017660 0.029210 -0.005426
# 6 0.003837 0.007510 0.002149 -0.006319 -0.005426 0.046977
#
#
# Mechanical properties :
#
#
# Convention : Reuss Voigt Hill
#
# Bulk Modulus (GPa) = 32.28321 43.78431 38.03376
# Shear Modulus (GPa) = 27.58372 36.98939 32.28655
#
# Velocity S-wave (km/s) = 3.19827 3.70362 3.46018
# Velocity P-wave (km/s) = 5.06065 5.87586 5.48343
#
# Compressibility (1/GPa) = 0.03097586
#
# Stress axis : x y z
#
# Youngs Moduli (GPa) = 127.13953 53.32831 102.57975
#
# Poissons Ratio (x) = 0.08547 0.04494
# Poissons Ratio (y) = 0.20377 0.06709
# Poissons Ratio (z) = 0.05570 0.03488
#
# Static dielectric constant tensor:
#      x y z
#    x 2.341400 0.038110 -0.018300 
#    y 0.038110 2.165960 0.030200 
#    z -0.018300 0.030200 2.070660 
# 
# From -- ./inp_files/345896.got.cif
#   From: 2010.05.17/outbox.cif.g08.bks.cpg/sg2_173_cif.got.tgz:345896.got - 2010.06.03 11:33:40.
