data_PCOD9015264
_publ_section_title
;
Structure prediction by ZEFSAII (Michael W. Deem and Ramdas Pophale) SiO2 
 PCOD9015264
Probable space group: P -1
;
_chemical_formula_sum "Si O2"
_cell_formula_units_Z 14
_cell_length_a 8.893566
_cell_length_b 11.930776
_cell_length_c 19.351360
_cell_angle_alpha 39.710388
_cell_angle_beta 30.213687
_cell_angle_gamma 50.278854
_cell_volume 658.055303
_symmetry_space_group_name_H-M "P -1"
_symmetry_group_IT_number 2
_symmetry_cell_setting 'triclinic'
loop_
_space_group_symop_operation_xyz
x,y,z
-x,-y,-z
loop_
_atom_site_type_symbol
_atom_site_label
_atom_site_fract_x
_atom_site_fract_y
_atom_site_fract_z
Si Si1 0.945991 0.843517 0.686730
Si Si2 0.688724 0.515844 0.721711
Si Si3 0.855207 0.231344 0.509006
Si Si4 0.129466 0.693974 0.831365
Si Si5 0.618640 0.819850 0.064711
Si Si6 0.791758 0.822167 0.153604
Si Si7 0.635372 0.357419 0.966273
O O1 0.050680 0.757764 0.614360
O O2 0.073226 0.753275 0.747043
O O3 0.000971 0.053546 0.560573
O O4 0.585569 0.813998 0.850291
O O5 0.480305 0.673524 0.712597
O O6 0.610809 0.353866 0.776881
O O7 0.587081 0.419190 0.878896
O O8 0.010678 0.609134 0.571092
O O9 0.497240 0.209588 0.668167
O O10 0.000000 0.500000 0.000000
O O11 0.936573 0.808188 0.904242
O O12 0.675466 0.826566 0.119909
O O13 0.500000 0.000000 0.000000
O O14 0.023090 0.672540 0.141133
O O15 0.000000 0.000000 0.000000
O O16 0.500000 0.500000 0.000000
#
# Coordination Sequence:
#
# PCOD9015264 Si02
#       7
#     2   2   2   2   2   2   2
#     4  11  22  44  74 105 142 183 236 289 348 414
#     4  11  24  42  69 104 138 180 236 288 346 411
#     4  11  26  44  69 108 147 179 232 302 348 411
#     4  10  21  41  74 101 129 187 237 276 341 423
#     4  11  23  41  69 102 140 185 236 284 344 420
#     4  12  26  45  71  98 137 191 237 282 356 421
#     4  12  22  42  74 101 132 188 237 283 340 427
#
# _framework density 21.274809000000001
#
# number of rings (size 3 to 8) (size 9 to 14) (size 15 to 20)
#    0.000    0.857    5.714    2.571    2.000    1.714 
#    0.000    2.857    0.000    0.000    0.000    0.000 
#    0.000    0.000    0.000    0.000    0.000    0.000 
#
# Total GULP energy -78130.369656 kJ/mol
# GULP energy per Si atom -5580.740690 kJ/mol
# Density = 2.122639 g / cm^3
# Si number density = 21.274809 Si / 1000 Ang^3
#
#
#
# Elastic Constant Matrix: (Units=GPa)
#
#
# Indices 1 2 3 4 5 6 
#
# 1 91.3190 28.2397 52.7068 5.3139 14.3641 6.3122
# 2 28.2397 103.6056 28.7230 2.4041 -4.1138 -11.2449
# 3 52.7068 28.7230 106.1821 6.5892 -4.6540 -1.3777
# 4 5.3139 2.4041 6.5892 33.6618 1.7201 -12.9258
# 5 14.3641 -4.1138 -4.6540 1.7201 48.6060 -8.4668
# 6 6.3122 -11.2449 -1.3777 -12.9258 -8.4668 43.5414
#
#
#
# Elastic Compliance Matrix: (Units=1/GPa)
#
#
# Indices 1 2 3 4 5 6 
#
# 1 0.018900 -0.003692 -0.008612 -0.003091 -0.007725 -0.006386
# 2 -0.003692 0.011549 -0.001214 0.001574 0.002675 0.004467
# 3 -0.008612 -0.001214 0.014280 -0.000810 0.004180 0.001959
# 4 -0.003091 0.001574 -0.000810 0.034538 0.001736 0.011420
# 5 -0.007725 0.002675 0.004180 0.001736 0.024686 0.007259
# 6 -0.006386 0.004467 0.001959 0.011420 0.007259 0.029910
#
#
# Mechanical properties :
#
#
# Convention : Reuss Voigt Hill
#
# Bulk Modulus (GPa) = 56.52149 57.82731 57.17440
# Shear Modulus (GPa) = 29.97666 37.92432 33.95049
#
# Velocity S-wave (km/s) = 3.75777 4.22666 3.99909
# Velocity P-wave (km/s) = 6.74186 7.14560 6.94667
#
# Compressibility (1/GPa) = 0.01769239
#
# Stress axis : x y z
#
# Youngs Moduli (GPa) = 52.91138 86.58489 70.02754
#
# Poissons Ratio (x) = 0.31966 0.60310
# Poissons Ratio (y) = 0.19534 0.08502
# Poissons Ratio (z) = 0.45569 0.10512
#
# Static dielectric constant tensor:
#      x y z
#    x 1.768390 -0.003370 -0.048880 
#    y -0.003370 1.829320 -0.017520 
#    z -0.048880 -0.017520 1.806600 
# 
# From -- ./inp_files/158586.got.cif
#   From: 2010.05.17/outbox.cif.g08.bks.cpg/sg2_80_cif.got.tgz:158586.got - 2010.06.03 11:33:40.
