data_PCOD9015400
_publ_section_title
;
Structure prediction by ZEFSAII (Michael W. Deem and Ramdas Pophale) SiO2 
 PCOD9015400
Probable space group: P -1
;
_chemical_formula_sum "Si O2"
_cell_formula_units_Z 16
_cell_length_a 20.396967
_cell_length_b 7.545642
_cell_length_c 6.586285
_cell_angle_alpha 110.301330
_cell_angle_beta 128.054229
_cell_angle_gamma 52.371975
_cell_volume 631.467274
_symmetry_space_group_name_H-M "P -1"
_symmetry_group_IT_number 2
_symmetry_cell_setting 'triclinic'
loop_
_space_group_symop_operation_xyz
x,y,z
-x,-y,-z
loop_
_atom_site_type_symbol
_atom_site_label
_atom_site_fract_x
_atom_site_fract_y
_atom_site_fract_z
Si Si1 0.890970 0.124893 0.258175
Si Si2 0.037566 0.635621 0.748985
Si Si3 0.183949 0.360261 0.268972
Si Si4 0.467490 0.235538 0.748410
Si Si5 0.627893 0.030892 0.699112
Si Si6 0.850285 0.968009 0.718143
Si Si7 0.345348 0.616911 0.355167
Si Si8 0.297374 0.531654 0.817961
O O1 0.885836 0.338260 0.227941
O O2 0.793216 0.205351 0.236811
O O3 0.000000 0.000000 0.500000
O O4 0.889762 0.977181 0.018423
O O5 0.000000 0.500000 0.500000
O O6 0.940369 0.881917 0.703883
O O7 0.088976 0.531103 0.022924
O O8 0.166385 0.233508 0.365730
O O9 0.243260 0.452480 0.532457
O O10 0.259833 0.173589 0.180736
O O11 0.583959 0.100279 0.870457
O O12 0.426629 0.420055 0.566426
O O13 0.409855 0.391398 0.891968
O O14 0.432581 0.062059 0.570985
O O15 0.623769 0.232127 0.647270
O O16 0.747767 0.207871 0.612130
O O17 0.316247 0.499340 0.082505
#
# Coordination Sequence:
#
# PCOD9015400 Si02
#       8
#     2   2   2   2   2   2   2   2
#     4  11  23  37  58  89 126 158 213 263 306 388
#     4  12  24  38  66  92 122 172 212 256 331 383
#     4  10  21  42  62  86 133 161 210 273 310 386
#     4  10  21  42  69  88 137 172 212 271 323 372
#     4   9  21  41  65  98 126 174 216 268 319 378
#     4  10  22  39  59  90 123 164 207 261 320 377
#     4  10  22  41  66  96 133 167 219 263 321 387
#     4  10  23  38  65  93 125 172 211 261 321 375
#
# _framework density 25.337814999999999
#
# number of rings (size 3 to 8) (size 9 to 14) (size 15 to 20)
#    0.000    1.750    0.000    3.375    8.750    0.500 
#    0.000    8.125    0.000    0.000    0.000    0.000 
#    0.000    0.000    0.000    0.000    0.000    0.000 
#
# Total GULP energy -89285.622235 kJ/mol
# GULP energy per Si atom -5580.351390 kJ/mol
# Density = 2.528014 g / cm^3
# Si number density = 25.337815 Si / 1000 Ang^3
#
#
#
# Elastic Constant Matrix: (Units=GPa)
#
#
# Indices 1 2 3 4 5 6 
#
# 1 133.5550 43.9481 5.8431 18.5869 -12.2180 -28.6106
# 2 43.9481 92.3154 23.9693 13.8349 -10.7458 -22.6214
# 3 5.8431 23.9693 34.9041 18.8002 -2.1049 -1.8689
# 4 18.5869 13.8349 18.8002 35.0640 -6.6130 -6.5055
# 5 -12.2180 -10.7458 -2.1049 -6.6130 20.4870 11.4088
# 6 -28.6106 -22.6214 -1.8689 -6.5055 11.4088 61.5667
#
#
#
# Elastic Compliance Matrix: (Units=1/GPa)
#
#
# Indices 1 2 3 4 5 6 
#
# 1 0.010119 -0.004443 0.004421 -0.005325 0.001080 0.002441
# 2 -0.004443 0.016957 -0.012515 0.003815 0.004301 0.003392
# 3 0.004421 -0.012515 0.049864 -0.025698 -0.005591 -0.002710
# 4 -0.005325 0.003815 -0.025698 0.045767 0.010367 0.001062
# 5 0.001080 0.004301 -0.005591 0.010367 0.058885 -0.007904
# 6 0.002441 0.003392 -0.002710 0.001062 -0.007904 0.020118
#
#
# Mechanical properties :
#
#
# Convention : Reuss Voigt Hill
#
# Bulk Modulus (GPa) = 19.28068 45.36614 32.32341
# Shear Modulus (GPa) = 20.48566 35.89114 28.18840
#
# Velocity S-wave (km/s) = 2.84650 3.76773 3.33904
# Velocity P-wave (km/s) = 4.29295 6.07216 5.25835
#
# Compressibility (1/GPa) = 0.05186539
#
# Stress axis : x y z
#
# Youngs Moduli (GPa) = 98.82306 58.97154 20.05473
#
# Poissons Ratio (x) = 0.26203 -0.08867
# Poissons Ratio (y) = 0.43911 0.25099
# Poissons Ratio (z) = -0.43692 0.73804
#
# Static dielectric constant tensor:
#      x y z
#    x 2.268300 -0.006920 -0.304160 
#    y -0.006920 2.024600 0.053970 
#    z -0.304160 0.053970 2.523480 
# 
# From -- ./inp_files/116855.got.cif
#   From: 2010.05.17/outbox.cif.g08.bks.cpg/sg2_59_cif.got.tgz:116855.got - 2010.06.03 11:33:40.
