data_PCOD9015573
_publ_section_title
;
Structure prediction by ZEFSAII (Michael W. Deem and Ramdas Pophale) SiO2 
 PCOD9015573
Probable space group: P -1
;
_chemical_formula_sum "Si O2"
_cell_formula_units_Z 16
_cell_length_a 16.307633
_cell_length_b 8.101969
_cell_length_c 18.225440
_cell_angle_alpha 134.604642
_cell_angle_beta 155.603187
_cell_angle_gamma 43.160583
_cell_volume 674.228805
_symmetry_space_group_name_H-M "P -1"
_symmetry_group_IT_number 2
_symmetry_cell_setting 'triclinic'
loop_
_space_group_symop_operation_xyz
x,y,z
-x,-y,-z
loop_
_atom_site_type_symbol
_atom_site_label
_atom_site_fract_x
_atom_site_fract_y
_atom_site_fract_z
Si Si1 0.846489 0.888108 0.792505
Si Si2 0.594359 0.669682 0.042951
Si Si3 0.142732 0.076540 0.580967
Si Si4 0.424985 0.806878 0.468264
Si Si5 0.437311 0.312725 0.252291
Si Si6 0.311330 0.855901 0.003120
Si Si7 0.161279 0.387513 0.913162
Si Si8 0.931291 0.007413 0.658145
O O1 0.651360 0.845730 0.664481
O O2 0.006365 0.623026 0.821679
O O3 0.722046 0.042913 0.670907
O O4 0.000000 0.000000 0.000000
O O5 0.778851 0.711198 0.255694
O O6 0.585159 0.394438 0.949168
O O7 0.653247 0.736168 0.031385
O O8 0.400537 0.823191 0.981633
O O9 0.340269 0.837798 0.649221
O O10 0.045893 0.152585 0.445957
O O11 0.000000 0.000000 0.500000
O O12 0.445642 0.526975 0.379545
O O13 0.300235 0.898952 0.469992
O O14 0.277696 0.439367 0.096247
O O15 0.347239 0.097337 0.139120
O O16 0.072358 0.888126 0.804520
O O17 0.017538 0.226600 0.771222
#
# Coordination Sequence:
#
# PCOD9015573 Si02
#       8
#     2   2   2   2   2   2   2   2
#     4  11  24  48  71 104 139 185 227 287 353 410
#     4  10  21  42  63  96 135 179 231 295 340 418
#     4  11  23  40  66  95 136 183 236 289 345 408
#     4  11  25  47  71 103 146 176 236 285 343 430
#     4  10  23  42  67  98 131 187 233 283 347 418
#     4   9  22  41  64  95 136 177 233 282 351 403
#     4  11  22  40  70  97 136 186 231 286 350 406
#     4  11  24  43  66 103 133 187 228 291 343 413
#
# _framework density 23.730817999999999
#
# number of rings (size 3 to 8) (size 9 to 14) (size 15 to 20)
#    0.000    1.500    2.500    1.500    1.750    6.000 
#   15.750    0.000    0.000    0.000    0.000    0.000 
#    0.000    0.000    0.000    0.000    0.000    0.000 
#
# Total GULP energy -89386.228906 kJ/mol
# GULP energy per Si atom -5586.639307 kJ/mol
# Density = 2.367681 g / cm^3
# Si number density = 23.730818 Si / 1000 Ang^3
#
#
#
# Elastic Constant Matrix: (Units=GPa)
#
#
# Indices 1 2 3 4 5 6 
#
# 1 112.0739 11.8723 38.0830 14.8512 13.8498 -11.5413
# 2 11.8723 87.8566 16.4599 2.1290 3.2070 10.4770
# 3 38.0830 16.4599 132.6674 5.6094 -1.4848 -4.9423
# 4 14.8512 2.1290 5.6094 33.0960 -2.4150 -3.5351
# 5 13.8498 3.2070 -1.4848 -2.4150 37.0428 -6.6799
# 6 -11.5413 10.4770 -4.9423 -3.5351 -6.6799 24.8639
#
#
#
# Elastic Compliance Matrix: (Units=1/GPa)
#
#
# Indices 1 2 3 4 5 6 
#
# 1 0.011473 -0.001183 -0.002868 -0.004495 -0.003955 0.003552
# 2 -0.001183 0.012737 -0.001481 -0.000920 -0.002021 -0.006884
# 3 -0.002868 -0.001481 0.008613 0.000220 0.001836 0.001529
# 4 -0.004495 -0.000920 0.000220 0.033057 0.004701 0.004308
# 5 -0.003955 -0.002021 0.001836 0.004701 0.030517 0.008248
# 6 0.003552 -0.006884 0.001529 0.004308 0.008248 0.047901
#
#
# Mechanical properties :
#
#
# Convention : Reuss Voigt Hill
#
# Bulk Modulus (GPa) = 45.96111 51.71424 48.83768
# Shear Modulus (GPa) = 30.74750 36.74605 33.74677
#
# Velocity S-wave (km/s) = 3.60346 3.93931 3.77512
# Velocity P-wave (km/s) = 6.05995 6.52152 6.29496
#
# Compressibility (1/GPa) = 0.02175753
#
# Stress axis : x y z
#
# Youngs Moduli (GPa) = 87.16188 78.51440 116.10408
#
# Poissons Ratio (x) = 0.09291 0.33303
# Poissons Ratio (y) = 0.10314 0.17192
# Poissons Ratio (z) = 0.25002 0.11626
#
# Static dielectric constant tensor:
#      x y z
#    x 1.921000 0.024300 -0.006810 
#    y 0.024300 1.917770 -0.037640 
#    z -0.006810 -0.037640 1.934250 
# 
# From -- ./inp_files/599790.got.cif
#   From: 2010.05.17/outbox.cif.g08.bks.cpg/sg2_300_cif.got.tgz:599790.got - 2010.06.03 11:33:40.
