data_PCOD9015435
_publ_section_title
;
Structure prediction by ZEFSAII (Michael W. Deem and Ramdas Pophale) SiO2 
 PCOD9015435
Probable space group: P -1
;
_chemical_formula_sum "Si O2"
_cell_formula_units_Z 16
_cell_length_a 19.954258
_cell_length_b 8.596901
_cell_length_c 5.429451
_cell_angle_alpha 98.827029
_cell_angle_beta 66.890216
_cell_angle_gamma 60.657817
_cell_volume 673.733055
_symmetry_space_group_name_H-M "P -1"
_symmetry_group_IT_number 2
_symmetry_cell_setting 'triclinic'
loop_
_space_group_symop_operation_xyz
x,y,z
-x,-y,-z
loop_
_atom_site_type_symbol
_atom_site_label
_atom_site_fract_x
_atom_site_fract_y
_atom_site_fract_z
Si Si1 0.432218 0.442176 0.392195
Si Si2 0.392523 0.140472 0.251750
Si Si3 0.228733 0.465372 0.317240
Si Si4 0.029450 0.130019 0.776033
Si Si5 0.976248 0.356963 0.424206
Si Si6 0.152794 0.795518 0.847212
Si Si7 0.619383 0.186743 0.777704
Si Si8 0.291748 0.701107 0.017561
O O1 0.384509 0.332628 0.402072
O O2 0.401147 0.637604 0.328503
O O3 0.397096 0.532957 0.735501
O O4 0.535010 0.279529 0.114251
O O5 0.315206 0.238247 0.172176
O O6 0.373198 0.000083 0.388539
O O7 0.500000 0.000000 0.000000
O O8 0.133161 0.529764 0.359612
O O9 0.196034 0.571786 0.657857
O O10 0.264964 0.574419 0.158511
O O11 0.031777 0.196039 0.519294
O O12 0.005119 0.273346 0.082326
O O13 0.945672 0.116254 0.877871
O O14 0.122019 0.923793 0.673885
O O15 0.000000 0.500000 0.500000
O O16 0.223608 0.797908 0.908229
O O17 0.705049 0.142878 0.795226
#
# Coordination Sequence:
#
# PCOD9015435 Si02
#       8
#     2   2   2   2   2   2   2   2
#     4  10  21  42  62  92 131 178 216 290 345 403
#     4  10  21  43  64  92 136 180 221 280 347 414
#     4  11  23  42  67  91 134 182 221 285 359 412
#     4  10  23  41  67 100 129 175 234 282 352 432
#     4  11  24  44  68  99 143 180 229 295 359 422
#     4  10  22  38  67  92 125 172 223 286 348 417
#     4  10  22  39  65  91 132 172 231 278 342 410
#     4  12  20  39  66  94 127 172 232 278 344 416
#
# _framework density 23.748279
#
# number of rings (size 3 to 8) (size 9 to 14) (size 15 to 20)
#    0.000    1.500    3.750    0.750    1.750    2.500 
#    4.500    1.250    0.000    0.000    0.000    0.000 
#    0.000    0.000    0.000    0.000    0.000    0.000 
#
# Total GULP energy -89129.254913 kJ/mol
# GULP energy per Si atom -5570.578432 kJ/mol
# Density = 2.369423 g / cm^3
# Si number density = 23.748279 Si / 1000 Ang^3
#
#
#
# Elastic Constant Matrix: (Units=GPa)
#
#
# Indices 1 2 3 4 5 6 
#
# 1 110.6590 50.6326 11.9788 3.9138 16.9135 31.6027
# 2 50.6326 108.7456 14.8425 12.5881 6.2228 13.2446
# 3 11.9788 14.8425 70.3595 2.6631 -0.3220 10.5884
# 4 3.9138 12.5881 2.6631 13.8560 -3.8218 -5.9999
# 5 16.9135 6.2228 -0.3220 -3.8218 28.9461 5.3408
# 6 31.6027 13.2446 10.5884 -5.9999 5.3408 58.3085
#
#
#
# Elastic Compliance Matrix: (Units=1/GPa)
#
#
# Indices 1 2 3 4 5 6 
#
# 1 0.014349 -0.005012 -0.000301 -0.004048 -0.006666 -0.006390
# 2 -0.005012 0.013198 -0.001355 -0.011107 -0.001193 -0.001069
# 3 -0.000301 -0.001355 0.015036 -0.002477 0.000785 -0.002586
# 4 -0.004048 -0.011107 -0.002477 0.093747 0.014617 0.013474
# 5 -0.006666 -0.001193 0.000785 0.014617 0.040351 0.001549
# 6 -0.006390 -0.001069 -0.002586 0.013474 0.001549 0.022571
#
#
# Mechanical properties :
#
#
# Convention : Reuss Voigt Hill
#
# Bulk Modulus (GPa) = 34.19084 49.40798 41.79941
# Shear Modulus (GPa) = 22.48822 34.37614 28.43218
#
# Velocity S-wave (km/s) = 3.08058 3.80876 3.46386
# Velocity P-wave (km/s) = 5.20401 6.33973 5.79974
#
# Compressibility (1/GPa) = 0.02924760
#
# Stress axis : x y z
#
# Youngs Moduli (GPa) = 69.68891 75.76659 66.50513
#
# Poissons Ratio (x) = 0.37973 0.02005
# Poissons Ratio (y) = 0.34927 0.09012
# Poissons Ratio (z) = 0.02101 0.10267
#
# Static dielectric constant tensor:
#      x y z
#    x 1.950700 -0.055160 0.004120 
#    y -0.055160 2.163860 0.052270 
#    z 0.004120 0.052270 2.009350 
# 
# From -- ./inp_files/116211.got.cif
#   From: 2010.05.17/outbox.cif.g08.bks.cpg/sg2_59_cif.got.tgz:116211.got - 2010.06.03 11:33:40.
