data_PCOD9015049
_publ_section_title
;
Structure prediction by ZEFSAII (Michael W. Deem and Ramdas Pophale) SiO2 
 PCOD9015049
Probable space group: P -1
;
_chemical_formula_sum "Si O2"
_cell_formula_units_Z 16
_cell_length_a 9.633898
_cell_length_b 13.799248
_cell_length_c 6.723441
_cell_angle_alpha 53.954288
_cell_angle_beta 91.643458
_cell_angle_gamma 106.787394
_cell_volume 680.275699
_symmetry_space_group_name_H-M "P -1"
_symmetry_group_IT_number 2
_symmetry_cell_setting 'triclinic'
loop_
_space_group_symop_operation_xyz
x,y,z
-x,-y,-z
loop_
_atom_site_type_symbol
_atom_site_label
_atom_site_fract_x
_atom_site_fract_y
_atom_site_fract_z
Si Si1 0.112276 0.346058 0.673525
Si Si2 0.911708 0.454966 0.254333
Si Si3 0.319247 0.995277 0.312978
Si Si4 0.856393 0.108838 0.952797
Si Si5 0.848213 0.906008 0.517727
Si Si6 0.626912 0.168253 0.120566
Si Si7 0.688835 0.647305 0.665163
Si Si8 0.385766 0.632377 0.828058
O O1 0.114792 0.428810 0.768358
O O2 0.265613 0.367106 0.542088
O O3 0.010573 0.394406 0.460951
O O4 0.025432 0.196486 0.877821
O O5 0.750841 0.356805 0.316424
O O6 0.000000 0.500000 0.000000
O O7 0.198026 0.926748 0.229168
O O8 0.340197 0.900049 0.596641
O O9 0.269662 0.095936 0.315821
O O10 0.478432 0.071443 0.137057
O O11 0.762107 0.187595 0.956124
O O12 0.821667 0.979979 0.232912
O O13 0.823593 0.762777 0.625133
O O14 0.000000 0.000000 0.500000
O O15 0.604346 0.293441 0.054031
O O16 0.538076 0.677150 0.658824
O O17 0.660928 0.515948 0.937936
#
# Coordination Sequence:
#
# PCOD9015049 Si02
#       8
#     2   2   2   2   2   2   2   2
#     4  11  25  42  68 103 133 173 237 276 340 413
#     4  11  23  44  71  98 135 179 226 285 338 403
#     4  10  21  42  68  97 132 175 227 286 338 400
#     4  11  24  41  69 101 130 176 231 292 329 403
#     4  11  25  44  68  96 140 185 226 280 343 412
#     4  10  21  41  70  99 131 175 226 283 350 394
#     4  11  25  45  66 102 138 182 231 268 350 418
#     4  11  23  44  73  95 141 184 219 287 343 411
#
# _framework density 23.519877999999999
#
# number of rings (size 3 to 8) (size 9 to 14) (size 15 to 20)
#    0.000    1.250    2.500    2.625    3.500    4.500 
#    2.250    0.000    0.000    0.000    0.000    0.000 
#    0.000    0.000    0.000    0.000    0.000    0.000 
#
# Total GULP energy -89553.576334 kJ/mol
# GULP energy per Si atom -5597.098521 kJ/mol
# Density = 2.346635 g / cm^3
# Si number density = 23.519878 Si / 1000 Ang^3
#
#
#
# Elastic Constant Matrix: (Units=GPa)
#
#
# Indices 1 2 3 4 5 6 
#
# 1 68.5753 17.2128 14.4887 7.9163 -29.7644 -7.1811
# 2 17.2128 131.1851 27.3164 9.5451 -11.2729 -6.0721
# 3 14.4887 27.3164 64.3636 8.4031 -19.6119 -4.8798
# 4 7.9163 9.5451 8.4031 24.9510 -4.2163 -5.3925
# 5 -29.7644 -11.2729 -19.6119 -4.2163 33.5424 5.0865
# 6 -7.1811 -6.0721 -4.8798 -5.3925 5.0865 36.1507
#
#
#
# Elastic Compliance Matrix: (Units=1/GPa)
#
#
# Indices 1 2 3 4 5 6 
#
# 1 0.024622 -0.001488 0.002441 -0.004063 0.022075 0.001259
# 2 -0.001488 0.008588 -0.003235 -0.001712 -0.000623 0.000543
# 3 0.002441 -0.003235 0.020805 -0.004336 0.012649 0.000323
# 4 -0.004063 -0.001712 -0.004336 0.044279 -0.001938 0.005198
# 5 0.022075 -0.000623 0.012649 -0.001938 0.056690 -0.002278
# 6 0.001259 0.000543 0.000323 0.005198 -0.002278 0.029143
#
#
# Mechanical properties :
#
#
# Convention : Reuss Voigt Hill
#
# Bulk Modulus (GPa) = 20.22212 42.46220 31.34216
# Shear Modulus (GPa) = 24.36955 32.60257 28.48606
#
# Velocity S-wave (km/s) = 3.22238 3.72717 3.48393
# Velocity P-wave (km/s) = 4.73936 6.05106 5.43493
#
# Compressibility (1/GPa) = 0.04945081
#
# Stress axis : x y z
#
# Youngs Moduli (GPa) = 40.61349 116.44416 48.06494
#
# Poissons Ratio (x) = 0.17330 -0.11733
# Poissons Ratio (y) = 0.06044 0.15549
# Poissons Ratio (z) = -0.09914 0.37670
#
# Static dielectric constant tensor:
#      x y z
#    x 1.937180 -0.021770 0.010300 
#    y -0.021770 1.882410 -0.018170 
#    z 0.010300 -0.018170 1.859070 
# 
# From -- ./inp_files/69215.got.cif
#   From: 2010.05.17/outbox.cif.g08.bks.cpg/sg2_35_cif.got.tgz:69215.got - 2010.06.03 11:33:40.
