data_PCOD9015242
_publ_section_title
;
Structure prediction by ZEFSAII (Michael W. Deem and Ramdas Pophale) SiO2 
 PCOD9015242
Probable space group: P -1
;
_chemical_formula_sum "Si O2"
_cell_formula_units_Z 16
_cell_length_a 5.601080
_cell_length_b 9.008144
_cell_length_c 20.666331
_cell_angle_alpha 130.502459
_cell_angle_beta 58.875755
_cell_angle_gamma 110.617257
_cell_volume 678.516412
_symmetry_space_group_name_H-M "P -1"
_symmetry_group_IT_number 2
_symmetry_cell_setting 'triclinic'
loop_
_space_group_symop_operation_xyz
x,y,z
-x,-y,-z
loop_
_atom_site_type_symbol
_atom_site_label
_atom_site_fract_x
_atom_site_fract_y
_atom_site_fract_z
Si Si1 0.678156 0.817654 0.404610
Si Si2 0.785811 0.962617 0.651080
Si Si3 0.527641 0.274704 0.910682
Si Si4 0.568364 0.125885 0.193785
Si Si5 0.910976 0.659251 0.748482
Si Si6 0.784125 0.595441 0.460108
Si Si7 0.463562 0.670551 0.272182
Si Si8 0.115558 0.359781 0.888657
O O1 0.755655 0.716815 0.432017
O O2 0.494994 0.671128 0.345133
O O3 0.500000 0.000000 0.500000
O O4 0.933278 0.903216 0.349582
O O5 0.628270 0.913127 0.725923
O O6 0.868089 0.760504 0.547474
O O7 0.588979 0.102122 0.673994
O O8 0.394234 0.278705 0.859338
O O9 0.849046 0.231572 0.868442
O O10 0.360159 0.086182 0.907491
O O11 0.500000 0.500000 0.000000
O O12 0.367005 0.226884 0.199249
O O13 0.847106 0.230886 0.213010
O O14 0.794786 0.469974 0.750262
O O15 0.035741 0.584203 0.641354
O O16 0.500000 0.500000 0.500000
O O17 0.742477 0.572043 0.177820
O O18 0.000000 0.500000 0.000000
#
# Coordination Sequence:
#
# PCOD9015242 Si02
#       8
#     2   2   2   2   2   2   2   2
#     4  12  25  42  67 101 141 191 255 307 348 424
#     4  12  25  41  70  98 137 194 255 298 345 424
#     4  10  21  41  73 107 136 170 233 297 350 427
#     4  12  26  45  70 106 138 193 239 290 361 437
#     4  12  28  45  65 102 152 191 237 295 366 426
#     4  12  25  45  62 101 149 196 245 297 362 413
#     4  12  25  45  70 100 142 194 240 308 360 426
#     4  10  22  41  74 111 134 173 238 298 363 428
#
# _framework density 23.580857999999999
#
# number of rings (size 3 to 8) (size 9 to 14) (size 15 to 20)
#    0.000    0.500    5.000    3.375    3.500    0.500 
#    0.000    0.000    0.000   18.000    0.000    0.000 
#    0.000    0.000    0.000    0.000    0.000    0.000 
#
# Total GULP energy -89146.883716 kJ/mol
# GULP energy per Si atom -5571.680232 kJ/mol
# Density = 2.352719 g / cm^3
# Si number density = 23.580858 Si / 1000 Ang^3
#
#
#
# Elastic Constant Matrix: (Units=GPa)
#
#
# Indices 1 2 3 4 5 6 
#
# 1 137.6980 30.8044 16.6389 14.0160 32.5404 25.9120
# 2 30.8044 72.2145 2.6997 20.1192 1.7195 24.5533
# 3 16.6389 2.6997 95.9384 26.3213 4.4747 13.3165
# 4 14.0160 20.1192 26.3213 37.5810 10.1024 2.0257
# 5 32.5404 1.7195 4.4747 10.1024 7.8370 3.2727
# 6 25.9120 24.5533 13.3165 2.0257 3.2727 50.8816
#
#
#
# Elastic Compliance Matrix: (Units=1/GPa)
#
#
# Indices 1 2 3 4 5 6 
#
# 1 -0.011815 0.013012 0.006662 -0.029048 0.082411 -0.006150
# 2 0.013012 0.010608 -0.000428 0.006715 -0.061450 -0.007949
# 3 0.006662 -0.000428 0.011931 -0.002481 -0.029379 -0.004320
# 4 -0.029048 0.006715 -0.002481 0.005293 0.111726 0.004805
# 5 0.082411 -0.061450 -0.029379 0.111726 -0.333515 0.012377
# 6 -0.006150 -0.007949 -0.004320 0.004805 0.012377 0.026764
#
#
# Mechanical properties :
#
#
# Convention : Reuss Voigt Hill
#
# Bulk Modulus (GPa) = 20.31827 45.12631 32.72229
# Shear Modulus (GPa) = -15.98353 36.30712 10.16180
#
# Velocity S-wave (km/s) = -2.60632 3.92814 2.07815
# Velocity P-wave (km/s) = 0.64966 6.30493 4.43453
#
# Compressibility (1/GPa) = 0.04921680
#
# Stress axis : x y z
#
# Youngs Moduli (GPa) = -84.63929 94.27000 83.81817
#
# Poissons Ratio (x) = -1.22669 -0.55843
# Poissons Ratio (y) = 1.10137 0.03589
# Poissons Ratio (z) = 0.56390 0.04037
#
# Static dielectric constant tensor:
#      x y z
#    x 1.956410 -0.035920 -0.089420 
#    y -0.035920 2.001070 0.043720 
#    z -0.089420 0.043720 2.005670 
# 
# From -- ./inp_files/53404.got.cif
#   From: 2010.05.17/outbox.cif.g08.bks.cpg/sg2_27_cif.got.tgz:53404.got - 2010.06.03 11:33:40.
