data_PCOD9015505
_publ_section_title
;
Structure prediction by ZEFSAII (Michael W. Deem and Ramdas Pophale) SiO2 
 PCOD9015505
Probable space group: P -1
;
_chemical_formula_sum "Si O2"
_cell_formula_units_Z 14
_cell_length_a 12.309936
_cell_length_b 10.495301
_cell_length_c 8.997362
_cell_angle_alpha 116.534109
_cell_angle_beta 63.728759
_cell_angle_gamma 63.605824
_cell_volume 558.808987
_symmetry_space_group_name_H-M "P -1"
_symmetry_group_IT_number 2
_symmetry_cell_setting 'triclinic'
loop_
_space_group_symop_operation_xyz
x,y,z
-x,-y,-z
loop_
_atom_site_type_symbol
_atom_site_label
_atom_site_fract_x
_atom_site_fract_y
_atom_site_fract_z
Si Si1 0.062680 0.424019 0.595612
Si Si2 0.167855 0.568497 0.071858
Si Si3 0.367492 0.807488 0.318781
Si Si4 0.174056 0.816751 0.003910
Si Si5 0.700287 0.821631 0.392688
Si Si6 0.552598 0.557775 0.780110
Si Si7 0.928740 0.286626 0.263941
O O1 0.272576 0.223579 0.464999
O O2 0.973402 0.660636 0.824843
O O3 0.000000 0.500000 0.500000
O O4 0.951261 0.387269 0.697343
O O5 0.399615 0.378680 0.876164
O O6 0.101353 0.785574 0.167225
O O7 0.175144 0.429653 0.878545
O O8 0.327669 0.689331 0.349254
O O9 0.249479 0.056090 0.579979
O O10 0.392421 0.768722 0.106368
O O11 0.411288 0.622530 0.774957
O O12 0.127947 0.762982 0.861981
O O13 0.072047 0.063744 0.168925
O O14 0.500000 0.000000 0.500000
O O15 0.716139 0.513157 0.595636
#
# Coordination Sequence:
#
# PCOD9015505 Si02
#       7
#     2   2   2   2   2   2   2
#     4  12  26  42  65 104 143 170 224 291 342 396
#     4  10  21  45  68  94 133 180 229 276 328 423
#     4   9  21  40  65  97 120 175 230 273 333 405
#     4  10  23  42  68  95 129 184 232 267 343 412
#     4  10  22  42  70  94 130 182 231 268 337 412
#     4  10  21  42  63  91 138 169 223 285 334 397
#     4  11  24  41  63 101 137 174 223 287 343 398
#
# _framework density 25.053284000000001
#
# number of rings (size 3 to 8) (size 9 to 14) (size 15 to 20)
#    0.000    1.714    1.429    1.714    4.000    1.143 
#    5.143    6.429    0.000    0.000    0.000    0.000 
#    0.000    0.000    0.000    0.000    0.000    0.000 
#
# Total GULP energy -77981.748548 kJ/mol
# GULP energy per Si atom -5570.124896 kJ/mol
# Density = 2.499626 g / cm^3
# Si number density = 25.053284 Si / 1000 Ang^3
#
#
#
# Elastic Constant Matrix: (Units=GPa)
#
#
# Indices 1 2 3 4 5 6 
#
# 1 82.1532 34.3083 5.9507 -3.9137 16.0490 -16.7436
# 2 34.3083 158.4206 36.6222 3.3637 -1.7311 -13.3875
# 3 5.9507 36.6222 41.6618 2.2975 12.1582 -5.0506
# 4 -3.9137 3.3637 2.2975 36.3102 6.8704 11.4416
# 5 16.0490 -1.7311 12.1582 6.8704 37.1682 -0.6627
# 6 -16.7436 -13.3875 -5.0506 11.4416 -0.6627 53.6803
#
#
#
# Elastic Compliance Matrix: (Units=1/GPa)
#
#
# Indices 1 2 3 4 5 6 
#
# 1 0.016367 -0.004426 0.004547 0.002418 -0.009140 0.003801
# 2 -0.004426 0.009579 -0.009285 -0.002077 0.005790 0.000649
# 3 0.004547 -0.009285 0.035877 0.001138 -0.014305 0.002059
# 4 0.002418 -0.002077 0.001138 0.031352 -0.007423 -0.006431
# 5 -0.009140 0.005790 -0.014305 -0.007423 0.037160 -0.000712
# 6 0.003801 0.000649 0.002059 -0.006431 -0.000712 0.021532
#
#
# Mechanical properties :
#
#
# Convention : Reuss Voigt Hill
#
# Bulk Modulus (GPa) = 22.99059 48.44424 35.71741
# Shear Modulus (GPa) = 27.07212 39.12204 33.09708
#
# Velocity S-wave (km/s) = 3.29079 3.95594 3.63859
# Velocity P-wave (km/s) = 4.86165 6.34385 5.65155
#
# Compressibility (1/GPa) = 0.04349606
#
# Stress axis : x y z
#
# Youngs Moduli (GPa) = 61.10029 104.39100 27.87328
#
# Poissons Ratio (x) = 0.46200 -0.12675
# Poissons Ratio (y) = 0.27041 0.25880
# Poissons Ratio (z) = -0.27784 0.96926
#
# Static dielectric constant tensor:
#      x y z
#    x 2.024680 -0.076550 0.005530 
#    y -0.076550 2.002070 0.000100 
#    z 0.005530 0.000100 2.049430 
# 
# From -- ./inp_files/176763.got.cif
#   From: 2010.05.17/outbox.cif.g08.bks.cpg/sg2_89_cif.got.tgz:176763.got - 2010.06.03 11:33:40.
