data_PCOD9015999
_publ_section_title
;
Structure prediction by ZEFSAII (Michael W. Deem and Ramdas Pophale) SiO2 
 PCOD9015999
Probable space group: P -1
;
_chemical_formula_sum "Si O2"
_cell_formula_units_Z 16
_cell_length_a 9.045961
_cell_length_b 8.802719
_cell_length_c 22.433734
_cell_angle_alpha 60.167024
_cell_angle_beta 36.423039
_cell_angle_gamma 47.812514
_cell_volume 782.142999
_symmetry_space_group_name_H-M "P -1"
_symmetry_group_IT_number 2
_symmetry_cell_setting 'triclinic'
loop_
_space_group_symop_operation_xyz
x,y,z
-x,-y,-z
loop_
_atom_site_type_symbol
_atom_site_label
_atom_site_fract_x
_atom_site_fract_y
_atom_site_fract_z
Si Si1 0.203347 0.332625 0.283942
Si Si2 0.164314 0.837122 0.297794
Si Si3 0.185729 0.358003 0.745557
Si Si4 0.182426 0.701849 0.887511
Si Si5 0.202305 0.993090 0.735763
Si Si6 0.178667 0.943118 0.392817
Si Si7 0.804886 0.673643 0.113181
Si Si8 0.187130 0.431291 0.393060
O O1 0.493787 0.347503 0.188554
O O2 0.280792 0.101634 0.312926
O O3 0.026034 0.441415 0.381355
O O4 0.016353 0.435054 0.265936
O O5 0.457941 0.842275 0.193577
O O6 0.273403 0.599686 0.320696
O O7 0.005995 0.947459 0.389170
O O8 0.969263 0.922466 0.286434
O O9 0.095858 0.370501 0.841384
O O10 0.180995 0.181610 0.742370
O O11 0.528878 0.280940 0.651573
O O12 0.071755 0.892068 0.841100
O O13 0.173052 0.522265 0.889399
O O14 0.989014 0.741384 0.001085
O O15 0.530225 0.800677 0.651792
O O16 0.000000 0.000000 0.500000
O O17 0.000000 0.500000 0.500000
#
# Coordination Sequence:
#
# PCOD9015999 Si02
#       8
#     2   2   2   2   2   2   2   2
#     4  11  22  43  62  91 127 163 204 259 303 366
#     4  11  23  40  63  93 125 162 208 256 306 364
#     4  11  23  40  66  91 127 162 205 255 309 365
#     4  10  21  42  66  89 127 162 205 252 308 370
#     4  11  22  41  64  92 125 164 207 252 306 371
#     4  11  25  42  61  91 127 160 207 260 308 365
#     4  10  22  41  64  94 124 162 203 257 308 363
#     4  11  22  39  64  88 121 163 206 252 303 360
#
# _framework density 20.456617000000001
#
# number of rings (size 3 to 8) (size 9 to 14) (size 15 to 20)
#    0.000    1.250    6.250    0.750    1.750    3.500 
#    0.000    0.000    0.000    0.000    0.000    0.000 
#    0.000    0.000    0.000    0.000    0.000    0.000 
#
# Total GULP energy -89228.241109 kJ/mol
# GULP energy per Si atom -5576.765069 kJ/mol
# Density = 2.041006 g / cm^3
# Si number density = 20.456617 Si / 1000 Ang^3
#
#
#
# Elastic Constant Matrix: (Units=GPa)
#
#
# Indices 1 2 3 4 5 6 
#
# 1 146.1130 32.3218 50.4752 -1.7893 39.1000 -22.0265
# 2 32.3218 53.9904 26.3285 -4.2228 3.0246 -16.5399
# 3 50.4752 26.3285 129.9076 1.9238 30.5504 -19.3774
# 4 -1.7893 -4.2228 1.9238 20.1824 9.7183 7.8692
# 5 39.1000 3.0246 30.5504 9.7183 34.5551 -4.7925
# 6 -22.0265 -16.5399 -19.3774 7.8692 -4.7925 30.1213
#
#
#
# Elastic Compliance Matrix: (Units=1/GPa)
#
#
# Indices 1 2 3 4 5 6 
#
# 1 0.012527 -0.005543 0.000057 0.006525 -0.015296 0.002016
# 2 -0.005543 0.026029 -0.003844 -0.003346 0.009746 0.010192
# 3 0.000057 -0.003844 0.011161 0.001501 -0.009574 0.003195
# 4 0.006525 -0.003346 0.001501 0.072250 -0.031510 -0.019988
# 5 -0.015296 0.009746 -0.009574 -0.031510 0.063602 0.006359
# 6 0.002016 0.010192 0.003195 -0.019988 0.006359 0.048559
#
#
# Mechanical properties :
#
#
# Convention : Reuss Voigt Hill
#
# Bulk Modulus (GPa) = 32.19818 60.91801 46.55810
# Shear Modulus (GPa) = 19.00131 31.69744 25.34938
#
# Velocity S-wave (km/s) = 3.05102 3.94063 3.52401
# Velocity P-wave (km/s) = 5.30901 7.10975 6.27432
#
# Compressibility (1/GPa) = 0.03105765
#
# Stress axis : x y z
#
# Youngs Moduli (GPa) = 79.82518 38.41862 89.60032
#
# Poissons Ratio (x) = 0.21294 -0.00511
# Poissons Ratio (y) = 0.44245 0.34443
# Poissons Ratio (z) = -0.00455 0.14768
#
# Static dielectric constant tensor:
#      x y z
#    x 1.775050 0.052950 -0.009980 
#    y 0.052950 1.759760 0.005840 
#    z -0.009980 0.005840 1.748840 
# 
# From -- ./inp_files/218483.got.cif
#   From: 2010.05.17/outbox.cif.g08.bks.cpg/sg2_110_cif.got.tgz:218483.got - 2010.06.03 11:33:40.
