data_PCOD9015424
_publ_section_title
;
Structure prediction by ZEFSAII (Michael W. Deem and Ramdas Pophale) SiO2 
 PCOD9015424
Probable space group: P -1
;
_chemical_formula_sum "Si O2"
_cell_formula_units_Z 16
_cell_length_a 9.679079
_cell_length_b 15.287507
_cell_length_c 15.675636
_cell_angle_alpha 27.762351
_cell_angle_beta 133.450851
_cell_angle_gamma 132.761910
_cell_volume 767.180390
_symmetry_space_group_name_H-M "P -1"
_symmetry_group_IT_number 2
_symmetry_cell_setting 'triclinic'
loop_
_space_group_symop_operation_xyz
x,y,z
-x,-y,-z
loop_
_atom_site_type_symbol
_atom_site_label
_atom_site_fract_x
_atom_site_fract_y
_atom_site_fract_z
Si Si1 0.198734 0.652160 0.932027
Si Si2 0.956845 0.312471 0.348887
Si Si3 0.822801 0.007659 0.982115
Si Si4 0.808416 0.941406 0.411557
Si Si5 0.368268 0.389808 0.818273
Si Si6 0.892845 0.713523 0.032116
Si Si7 0.616596 0.194632 0.595774
Si Si8 0.704585 0.002516 0.629007
O O1 0.179237 0.700204 0.782244
O O2 0.208585 0.853690 0.812482
O O3 0.400438 0.585924 0.089470
O O4 0.000000 0.500000 0.000000
O O5 0.974571 0.528863 0.200102
O O6 0.149796 0.235641 0.472854
O O7 0.854602 0.163568 0.504189
O O8 0.695198 0.139624 0.767021
O O9 0.927796 0.112960 0.017952
O O10 0.701357 0.790972 0.118183
O O11 0.000000 0.000000 0.000000
O O12 0.615628 0.867938 0.447000
O O13 0.000000 0.000000 0.500000
O O14 0.249073 0.343602 0.896524
O O15 0.323121 0.583560 0.593599
O O16 0.768362 0.798382 0.834623
O O17 0.692305 0.068823 0.664120
O O18 0.500000 0.000000 0.500000
#
# Coordination Sequence:
#
# PCOD9015424 Si02
#       8
#     2   2   2   2   2   2   2   2
#     4  11  23  41  69  94 131 177 219 265 331 406
#     4  11  25  40  62  97 135 169 212 272 342 389
#     4  10  22  42  64  94 134 174 226 273 315 392
#     4  10  21  42  62  91 133 172 215 261 323 398
#     4  11  21  38  66  98 126 172 225 269 321 389
#     4  11  24  42  63  98 136 174 218 272 337 379
#     4  12  22  41  69  96 129 174 228 267 321 394
#     4  12  24  38  65  99 138 167 210 286 340 385
#
# _framework density 20.855591
#
# number of rings (size 3 to 8) (size 9 to 14) (size 15 to 20)
#    0.000    1.000    5.000    3.750    3.500    4.000 
#    0.000    0.625    0.000    3.750    0.000    0.000 
#    0.000    0.000    0.000    0.000    0.000    0.000 
#
# Total GULP energy -89359.625155 kJ/mol
# GULP energy per Si atom -5584.976572 kJ/mol
# Density = 2.080812 g / cm^3
# Si number density = 20.855591 Si / 1000 Ang^3
#
#
#
# Elastic Constant Matrix: (Units=GPa)
#
#
# Indices 1 2 3 4 5 6 
#
# 1 74.0479 20.9098 15.1752 -13.4711 9.5470 2.1244
# 2 20.9098 62.5144 28.5045 -17.8361 0.9937 7.9038
# 3 15.1752 28.5045 105.9813 -31.9858 12.4003 -7.4284
# 4 -13.4711 -17.8361 -31.9858 38.9165 -3.2549 5.4219
# 5 9.5470 0.9937 12.4003 -3.2549 26.5115 -9.6712
# 6 2.1244 7.9038 -7.4284 5.4219 -9.6712 24.5448
#
#
#
# Elastic Compliance Matrix: (Units=1/GPa)
#
#
# Indices 1 2 3 4 5 6 
#
# 1 0.016236 -0.003920 0.000534 0.004195 -0.006733 -0.003561
# 2 -0.003920 0.022338 -0.004012 0.006914 -0.000234 -0.009688
# 3 0.000534 -0.004012 0.013867 0.009126 -0.004855 0.001513
# 4 0.004195 0.006914 0.009126 0.038844 -0.005065 -0.010404
# 5 -0.006733 -0.000234 -0.004855 -0.005065 0.048950 0.019595
# 6 -0.003561 -0.009688 0.001513 -0.010404 0.019595 0.054647
#
#
# Mechanical properties :
#
#
# Convention : Reuss Voigt Hill
#
# Bulk Modulus (GPa) = 26.56365 41.30252 33.93308
# Shear Modulus (GPa) = 22.49980 29.85817 26.17899
#
# Velocity S-wave (km/s) = 3.28813 3.78784 3.54679
# Velocity P-wave (km/s) = 5.21348 6.24318 5.75142
#
# Compressibility (1/GPa) = 0.03764543
#
# Stress axis : x y z
#
# Youngs Moduli (GPa) = 61.59242 44.76740 72.11518
#
# Poissons Ratio (x) = 0.17547 -0.03850
# Poissons Ratio (y) = 0.24142 0.28930
# Poissons Ratio (z) = -0.03288 0.17959
#
# Static dielectric constant tensor:
#      x y z
#    x 1.768970 -0.034950 0.007060 
#    y -0.034950 1.770190 -0.016490 
#    z 0.007060 -0.016490 1.760710 
# 
# From -- ./inp_files/505173.got.cif
#   From: 2010.05.17/outbox.cif.g08.bks.cpg/sg2_253_cif.got.tgz:505173.got - 2010.06.03 11:33:40.
