data_PCOD9015963
_publ_section_title
;
Structure prediction by ZEFSAII (Michael W. Deem and Ramdas Pophale) SiO2 
 PCOD9015963
Probable space group: P -1
;
_chemical_formula_sum "Si O2"
_cell_formula_units_Z 12
_cell_length_a 8.756684
_cell_length_b 8.083622
_cell_length_c 19.978117
_cell_angle_alpha 146.751520
_cell_angle_beta 139.758186
_cell_angle_gamma 48.934992
_cell_volume 500.197967
_symmetry_space_group_name_H-M "P -1"
_symmetry_group_IT_number 2
_symmetry_cell_setting 'triclinic'
loop_
_space_group_symop_operation_xyz
x,y,z
-x,-y,-z
loop_
_atom_site_type_symbol
_atom_site_label
_atom_site_fract_x
_atom_site_fract_y
_atom_site_fract_z
Si Si1 0.999216 0.271452 0.037561
Si Si2 0.392976 0.062751 0.276650
Si Si3 0.520272 0.210534 0.141475
Si Si4 0.785539 0.665306 0.443688
Si Si5 0.313970 0.239276 0.838904
Si Si6 0.614558 0.276301 0.557928
O O1 0.813194 0.166817 0.883893
O O2 0.919580 0.572903 0.152504
O O3 0.253129 0.311913 0.104743
O O4 0.000000 0.000000 0.000000
O O5 0.458319 0.134845 0.398527
O O6 0.319164 0.392555 0.331880
O O7 0.620312 0.918244 0.262969
O O8 0.702011 0.475629 0.287585
O O9 0.624443 0.012969 0.170846
O O10 0.500000 0.000000 0.000000
O O11 0.558619 0.675503 0.420494
O O12 0.000000 0.500000 0.500000
O O13 0.813392 0.010451 0.548896
O O14 0.500000 0.500000 0.000000
#
# Coordination Sequence:
#
# PCOD9015963 Si02
#       6
#     2   2   2   2   2   2
#     4  11  22  41  72 101 137 179 221 297 342 397
#     4  10  21  44  71 104 132 179 238 285 346 403
#     4  12  27  44  68 107 139 179 234 282 349 413
#     4  11  26  47  67  96 142 188 224 283 357 412
#     4  10  21  42  66 101 137 171 227 283 343 405
#     4  10  23  46  69  96 140 177 236 285 336 431
#
# _framework density 23.990500000000001
#
# number of rings (size 3 to 8) (size 9 to 14) (size 15 to 20)
#    0.000    1.333    5.000    0.000    7.000    4.667 
#    0.000    1.667    0.000    0.000    0.000    0.000 
#    0.000    0.000    0.000    0.000    0.000    0.000 
#
# Total GULP energy -67130.862872 kJ/mol
# GULP energy per Si atom -5594.238573 kJ/mol
# Density = 2.393590 g / cm^3
# Si number density = 23.990500 Si / 1000 Ang^3
#
#
#
# Elastic Constant Matrix: (Units=GPa)
#
#
# Indices 1 2 3 4 5 6 
#
# 1 36.2051 17.9298 27.2571 -0.7102 -12.4932 -18.8181
# 2 17.9298 133.3282 40.8189 23.6405 5.3626 -24.3086
# 3 27.2571 40.8189 204.8052 6.1403 -10.5103 -12.7108
# 4 -0.7102 23.6405 6.1403 37.5431 4.3947 -0.2136
# 5 -12.4932 5.3626 -10.5103 4.3947 41.3242 3.5889
# 6 -18.8181 -24.3086 -12.7108 -0.2136 3.5889 41.6375
#
#
#
# Elastic Compliance Matrix: (Units=1/GPa)
#
#
# Indices 1 2 3 4 5 6 
#
# 1 0.044124 -0.002559 -0.003836 0.001869 0.011079 0.016332
# 2 -0.002559 0.010243 -0.001351 -0.005993 -0.002206 0.004570
# 3 -0.003836 -0.001351 0.005644 -0.000214 0.000547 -0.000848
# 4 0.001869 -0.005993 -0.000214 0.030673 -0.001764 -0.002410
# 5 0.011079 -0.002206 0.000547 -0.001764 0.028034 0.001461
# 6 0.016332 0.004570 -0.000848 -0.002410 0.001461 0.033669
#
#
# Mechanical properties :
#
#
# Convention : Reuss Voigt Hill
#
# Bulk Modulus (GPa) = 22.46215 60.70555 41.58385
# Shear Modulus (GPa) = 27.36448 43.32314 35.34381
#
# Velocity S-wave (km/s) = 3.38100 4.25413 3.84245
# Velocity P-wave (km/s) = 4.96234 7.03485 6.08744
#
# Compressibility (1/GPa) = 0.04451934
#
# Stress axis : x y z
#
# Youngs Moduli (GPa) = 22.66344 97.63227 177.16752
#
# Poissons Ratio (x) = 0.24981 0.67967
# Poissons Ratio (y) = 0.05799 0.23931
# Poissons Ratio (z) = 0.08694 0.13188
#
# Static dielectric constant tensor:
#      x y z
#    x 1.908910 -0.038320 -0.010800 
#    y -0.038320 2.004340 0.001090 
#    z -0.010800 0.001090 1.891310 
# 
# From -- ./inp_files/297125.got.cif
#   From: 2010.05.17/outbox.cif.g08.bks.cpg/sg2_149_cif.got.tgz:297125.got - 2010.06.03 11:33:40.
