data_PCOD9015781
_publ_section_title
;
Structure prediction by ZEFSAII (Michael W. Deem and Ramdas Pophale) SiO2 
 PCOD9015781
Probable space group: P -1
;
_chemical_formula_sum "Si O2"
_cell_formula_units_Z 14
_cell_length_a 6.135422
_cell_length_b 12.124705
_cell_length_c 8.226295
_cell_angle_alpha 98.282270
_cell_angle_beta 89.241576
_cell_angle_gamma 89.344273
_cell_volume 605.464960
_symmetry_space_group_name_H-M "P -1"
_symmetry_group_IT_number 2
_symmetry_cell_setting 'triclinic'
loop_
_space_group_symop_operation_xyz
x,y,z
-x,-y,-z
loop_
_atom_site_type_symbol
_atom_site_label
_atom_site_fract_x
_atom_site_fract_y
_atom_site_fract_z
Si Si1 0.555428 0.113231 0.840092
Si Si2 0.593973 0.399932 0.364482
Si Si3 0.091768 0.433267 0.765956
Si Si4 0.407814 0.251985 0.581419
Si Si5 0.306724 0.449765 0.098157
Si Si6 0.186324 0.938258 0.881575
Si Si7 0.867229 0.936001 0.622622
O O1 0.506785 0.216264 0.745991
O O2 0.340501 0.038407 0.842719
O O3 0.727525 0.030425 0.735799
O O4 0.660666 0.137438 0.020153
O O5 0.500000 0.500000 0.500000
O O6 0.801419 0.451871 0.280702
O O7 0.591149 0.299262 0.469366
O O8 0.417892 0.375011 0.219095
O O9 0.208942 0.339080 0.637268
O O10 0.835284 0.457502 0.782948
O O11 0.154000 0.404107 0.947096
O O12 0.298801 0.148042 0.473472
O O13 0.500000 0.500000 0.000000
O O14 0.048295 0.881771 0.729064
O O15 0.000000 0.000000 0.000000
O O16 0.000000 0.000000 0.500000
#
# Coordination Sequence:
#
# PCOD9015781 Si02
#       7
#     2   2   2   2   2   2   2
#     4  10  21  42  65  86 130 172 212 262 314 379
#     4   9  20  39  61  92 126 157 207 263 317 371
#     4   9  20  41  67  89 129 165 205 263 316 379
#     4  11  22  39  64  99 124 166 218 260 320 382
#     4   9  18  41  66  87 128 167 201 259 323 372
#     4   9  20  41  64  83 122 177 208 261 320 367
#     4  11  22  41  62  93 132 167 210 267 320 367
#
# _framework density 23.122727999999999
#
# number of rings (size 3 to 8) (size 9 to 14) (size 15 to 20)
#    0.000    2.286    1.429    0.429    0.000    2.286 
#   18.000    0.000   12.571    0.000    0.000    0.000 
#    0.000    0.000    0.000    0.000    0.000    0.000 
#
# Total GULP energy -78133.976771 kJ/mol
# GULP energy per Si atom -5580.998341 kJ/mol
# Density = 2.307010 g / cm^3
# Si number density = 23.122728 Si / 1000 Ang^3
#
#
#
# Elastic Constant Matrix: (Units=GPa)
#
#
# Indices 1 2 3 4 5 6 
#
# 1 91.7537 21.4781 30.9201 -14.6304 -20.2468 -10.8534
# 2 21.4781 61.2491 24.8177 -18.5850 -6.9723 -2.9128
# 3 30.9201 24.8177 98.0900 -34.2175 -3.7251 2.2163
# 4 -14.6304 -18.5850 -34.2175 44.7193 -7.0383 -7.6198
# 5 -20.2468 -6.9723 -3.7251 -7.0383 46.4009 4.0176
# 6 -10.8534 -2.9128 2.2163 -7.6198 4.0176 25.3156
#
#
#
# Elastic Compliance Matrix: (Units=1/GPa)
#
#
# Indices 1 2 3 4 5 6 
#
# 1 0.015082 -0.001895 -0.002742 0.004166 0.006122 0.006771
# 2 -0.001895 0.020558 -0.001961 0.007483 0.002936 0.003511
# 3 -0.002742 -0.001961 0.015110 0.010063 0.001239 0.000108
# 4 0.004166 0.007483 0.010063 0.037883 0.008473 0.011824
# 5 0.006122 0.002936 0.001239 0.008473 0.025937 0.001288
# 6 0.006771 0.003511 0.000108 0.011824 0.001288 0.046153
#
#
# Mechanical properties :
#
#
# Convention : Reuss Voigt Hill
#
# Bulk Modulus (GPa) = 26.62855 45.05829 35.84342
# Shear Modulus (GPa) = 26.81860 34.87897 30.84879
#
# Velocity S-wave (km/s) = 3.40933 3.88806 3.65654
# Velocity P-wave (km/s) = 5.19993 6.29960 5.77599
#
# Compressibility (1/GPa) = 0.03755368
#
# Stress axis : x y z
#
# Youngs Moduli (GPa) = 66.30237 48.64322 66.18004
#
# Poissons Ratio (x) = 0.09217 0.18148
# Poissons Ratio (y) = 0.12564 0.12981
# Poissons Ratio (z) = 0.18181 0.09541
#
# Static dielectric constant tensor:
#      x y z
#    x 1.914740 -0.024550 0.076730 
#    y -0.024550 1.870840 -0.017350 
#    z 0.076730 -0.017350 1.932170 
# 
# From -- ./inp_files/131630.got.cif
#   From: 2010.05.17/outbox.cif.g08.bks.cpg/sg2_66_cif.got.tgz:131630.got - 2010.06.03 11:33:40.
