data_PCOD9015711
_publ_section_title
;
Structure prediction by ZEFSAII (Michael W. Deem and Ramdas Pophale) SiO2 
 PCOD9015711
Probable space group: P -1
;
_chemical_formula_sum "Si O2"
_cell_formula_units_Z 16
_cell_length_a 21.582547
_cell_length_b 8.813999
_cell_length_c 15.137187
_cell_angle_alpha 135.328472
_cell_angle_beta 18.298001
_cell_angle_gamma 135.642349
_cell_volume 625.169980
_symmetry_space_group_name_H-M "P -1"
_symmetry_group_IT_number 2
_symmetry_cell_setting 'triclinic'
loop_
_space_group_symop_operation_xyz
x,y,z
-x,-y,-z
loop_
_atom_site_type_symbol
_atom_site_label
_atom_site_fract_x
_atom_site_fract_y
_atom_site_fract_z
Si Si1 0.567756 0.771742 0.329577
Si Si2 0.227225 0.113270 0.369185
Si Si3 0.331192 0.610975 0.724442
Si Si4 0.145293 0.528027 0.401758
Si Si5 0.584762 0.997098 0.758218
Si Si6 0.770911 0.897227 0.929948
Si Si7 0.764298 0.980185 0.319082
Si Si8 0.089189 0.548548 0.683378
O O1 0.378438 0.599683 0.550607
O O2 0.500000 0.000000 0.500000
O O3 0.688095 0.818385 0.276684
O O4 0.704638 0.771709 0.059932
O O5 0.193685 0.344075 0.475792
O O6 0.355189 0.134654 0.294327
O O7 0.346716 0.990858 0.085542
O O8 0.008495 0.982109 0.635784
O O9 0.500000 0.500000 0.500000
O O10 0.112537 0.486371 0.998987
O O11 0.320787 0.876895 0.864558
O O12 0.306686 0.751240 0.267384
O O13 0.256857 0.320167 0.182315
O O14 0.033218 0.551554 0.656353
O O15 0.000000 0.500000 0.500000
O O16 0.674163 0.929586 0.517425
O O17 0.747576 0.232993 0.427085
O O18 0.000000 0.000000 0.000000
#
# Coordination Sequence:
#
# PCOD9015711 Si02
#       8
#     2   2   2   2   2   2   2   2
#     4  10  23  42  65  94 130 173 223 269 330 398
#     4  10  21  42  64  96 132 166 221 280 328 393
#     4  10  22  41  65  97 133 168 222 279 323 395
#     4  11  23  41  68  95 132 179 215 274 331 403
#     4  10  23  42  66  97 129 172 227 267 332 401
#     4  10  22  42  65  93 134 175 218 270 340 392
#     4  11  23  42  69  91 130 181 219 272 329 405
#     4  10  25  43  66  96 134 173 223 273 342 392
#
# _framework density 25.593039999999998
#
# number of rings (size 3 to 8) (size 9 to 14) (size 15 to 20)
#    0.000    1.750    1.250    1.500    3.500    9.000 
#    0.000   16.250    0.000    0.000    0.000    0.000 
#    0.000    0.000    0.000    0.000    0.000    0.000 
#
# Total GULP energy -89335.229925 kJ/mol
# GULP energy per Si atom -5583.451870 kJ/mol
# Density = 2.553479 g / cm^3
# Si number density = 25.593040 Si / 1000 Ang^3
#
#
#
# Elastic Constant Matrix: (Units=GPa)
#
#
# Indices 1 2 3 4 5 6 
#
# 1 88.0396 38.5301 55.4433 -7.6283 26.8693 -25.2895
# 2 38.5301 107.9459 18.6167 6.4260 14.7526 -22.4309
# 3 55.4433 18.6167 173.7960 3.4665 32.7647 -20.1772
# 4 -7.6283 6.4260 3.4665 44.0720 -17.7848 5.7999
# 5 26.8693 14.7526 32.7647 -17.7848 50.7889 -2.1941
# 6 -25.2895 -22.4309 -20.1772 5.7999 -2.1941 45.5982
#
#
#
# Elastic Compliance Matrix: (Units=1/GPa)
#
#
# Indices 1 2 3 4 5 6 
#
# 1 0.019404 -0.004137 -0.003886 0.001012 -0.005918 0.006594
# 2 -0.004137 0.012287 0.001350 -0.004737 -0.003704 0.004772
# 3 -0.003886 0.001350 0.008093 -0.003736 -0.004765 0.002336
# 4 0.001012 -0.004737 -0.003736 0.030181 0.013534 -0.006610
# 5 -0.005918 -0.003704 -0.004765 0.013534 0.031388 -0.007424
# 6 0.006594 0.004772 0.002336 -0.006610 -0.007424 0.029452
#
#
# Mechanical properties :
#
#
# Convention : Reuss Voigt Hill
#
# Bulk Modulus (GPa) = 37.82336 66.10688 51.96512
# Shear Modulus (GPa) = 32.68725 45.23792 38.96258
#
# Velocity S-wave (km/s) = 3.57766 4.20883 3.90601
# Velocity P-wave (km/s) = 5.64598 7.03598 6.37896
#
# Compressibility (1/GPa) = 0.02643869
#
# Stress axis : x y z
#
# Youngs Moduli (GPa) = 51.53528 81.38362 123.56486
#
# Poissons Ratio (x) = 0.33670 0.48018
# Poissons Ratio (y) = 0.21321 -0.16686
# Poissons Ratio (z) = 0.20027 -0.10990
#
# Static dielectric constant tensor:
#      x y z
#    x 2.081140 -0.028500 0.074530 
#    y -0.028500 2.255820 -0.123850 
#    z 0.074530 -0.123850 2.282590 
# 
# From -- ./inp_files/540560.got.cif
#   From: 2010.05.17/outbox.cif.g08.bks.cpg/sg2_271_cif.got.tgz:540560.got - 2010.06.03 11:33:40.
