data_PCOD9015763
_publ_section_title
;
Structure prediction by ZEFSAII (Michael W. Deem and Ramdas Pophale) SiO2 
 PCOD9015763
Probable space group: P -1
;
_chemical_formula_sum "Si O2"
_cell_formula_units_Z 16
_cell_length_a 15.594045
_cell_length_b 9.887026
_cell_length_c 11.803022
_cell_angle_alpha 52.140094
_cell_angle_beta 109.047114
_cell_angle_gamma 65.658087
_cell_volume 775.973024
_symmetry_space_group_name_H-M "P -1"
_symmetry_group_IT_number 2
_symmetry_cell_setting 'triclinic'
loop_
_space_group_symop_operation_xyz
x,y,z
-x,-y,-z
loop_
_atom_site_type_symbol
_atom_site_label
_atom_site_fract_x
_atom_site_fract_y
_atom_site_fract_z
Si Si1 0.711393 0.638960 0.783789
Si Si2 0.223146 0.746780 0.639207
Si Si3 0.554422 0.062146 0.080072
Si Si4 0.821320 0.845335 0.732963
Si Si5 0.340374 0.864426 0.248001
Si Si6 0.078101 0.948379 0.722911
Si Si7 0.161734 0.153499 0.787567
Si Si8 0.474599 0.088586 0.638470
O O1 0.726139 0.818632 0.675771
O O2 0.653277 0.638519 0.644616
O O3 0.585898 0.808859 0.744246
O O4 0.871000 0.310705 0.067598
O O5 0.164252 0.839491 0.695539
O O6 0.195971 0.975829 0.456083
O O7 0.402082 0.412028 0.867741
O O8 0.109605 0.778133 0.517249
O O9 0.692633 0.965746 0.141068
O O10 0.604746 0.892606 0.305415
O O11 0.500000 0.000000 0.000000
O O12 0.751261 0.020073 0.732508
O O13 0.000000 0.500000 0.000000
O O14 0.500000 0.500000 0.500000
O O15 0.411293 0.946677 0.240330
O O16 0.215712 0.047717 0.996444
O O17 0.138753 0.002772 0.801573
O O18 0.000000 0.500000 0.500000
#
# Coordination Sequence:
#
# PCOD9015763 Si02
#       8
#     2   2   2   2   2   2   2   2
#     4  10  21  42  65 101 134 177 224 291 345 405
#     4  11  25  44  72 103 135 184 231 283 353 417
#     4  12  24  44  70  99 140 181 235 278 348 428
#     4  11  24  41  71 102 137 179 235 289 346 420
#     4  11  24  46  68  96 143 186 231 286 362 423
#     4  11  24  44  71  97 144 173 230 285 350 409
#     4  12  28  44  69 102 139 183 232 292 358 413
#     4  10  22  39  68  94 136 177 229 282 348 408
#
# _framework density 20.619274000000001
#
# number of rings (size 3 to 8) (size 9 to 14) (size 15 to 20)
#    0.000    1.000    3.750    2.250    3.500    2.500 
#    0.000    0.625    0.000    0.000    0.000    0.000 
#    0.000    0.000    0.000    0.000    0.000    0.000 
#
# Total GULP energy -89341.529849 kJ/mol
# GULP energy per Si atom -5583.845616 kJ/mol
# Density = 2.057234 g / cm^3
# Si number density = 20.619274 Si / 1000 Ang^3
#
#
#
# Elastic Constant Matrix: (Units=GPa)
#
#
# Indices 1 2 3 4 5 6 
#
# 1 93.2738 33.9259 28.2541 6.3670 -1.5420 8.8730
# 2 33.9259 86.0555 44.6192 19.9297 -1.2727 11.6526
# 3 28.2541 44.6192 110.3218 4.3697 2.6740 -10.7775
# 4 6.3670 19.9297 4.3697 38.6591 -4.1676 9.6169
# 5 -1.5420 -1.2727 2.6740 -4.1676 41.6867 0.4783
# 6 8.8730 11.6526 -10.7775 9.6169 0.4783 26.6827
#
#
#
# Elastic Compliance Matrix: (Units=1/GPa)
#
#
# Indices 1 2 3 4 5 6 
#
# 1 0.013078 -0.003621 -0.002346 0.001075 0.000678 -0.004114
# 2 -0.003621 0.019563 -0.007513 -0.006609 0.000376 -0.007999
# 3 -0.002346 -0.007513 0.013657 0.000208 -0.001281 0.009525
# 4 0.001075 -0.006609 0.000208 0.031604 0.003086 -0.008833
# 5 0.000678 0.000376 -0.001281 0.003086 0.024444 -0.002457
# 6 -0.004114 -0.007999 0.009525 -0.008833 -0.002457 0.049414
#
#
# Mechanical properties :
#
#
# Convention : Reuss Voigt Hill
#
# Bulk Modulus (GPa) = 51.71333 55.91662 53.81497
# Shear Modulus (GPa) = 27.00273 33.59582 30.29927
#
# Velocity S-wave (km/s) = 3.62275 4.04089 3.83752
# Velocity P-wave (km/s) = 6.52944 6.99637 6.76693
#
# Compressibility (1/GPa) = 0.01933738
#
# Stress axis : x y z
#
# Youngs Moduli (GPa) = 76.46378 51.11684 73.22102
#
# Poissons Ratio (x) = 0.18511 0.17176
# Poissons Ratio (y) = 0.27690 0.55014
# Poissons Ratio (z) = 0.17936 0.38407
#
# Static dielectric constant tensor:
#      x y z
#    x 1.726430 0.016270 0.009600 
#    y 0.016270 1.744600 0.009940 
#    z 0.009600 0.009940 1.792170 
# 
# From -- ./inp_files/446808.got.cif
#   From: 2010.05.17/outbox.cif.g08.bks.cpg/sg2_224_cif.got.tgz:446808.got - 2010.06.03 11:33:40.
