data_PCOD9015751
_publ_section_title
;
Structure prediction by ZEFSAII (Michael W. Deem and Ramdas Pophale) SiO2 
 PCOD9015751
Probable space group: P -1
;
_chemical_formula_sum "Si O2"
_cell_formula_units_Z 12
_cell_length_a 15.436649
_cell_length_b 8.811057
_cell_length_c 5.181505
_cell_angle_alpha 99.901945
_cell_angle_beta 115.311913
_cell_angle_gamma 42.265148
_cell_volume 416.217410
_symmetry_space_group_name_H-M "P -1"
_symmetry_group_IT_number 2
_symmetry_cell_setting 'triclinic'
loop_
_space_group_symop_operation_xyz
x,y,z
-x,-y,-z
loop_
_atom_site_type_symbol
_atom_site_label
_atom_site_fract_x
_atom_site_fract_y
_atom_site_fract_z
Si Si1 0.844578 0.623665 0.057421
Si Si2 0.593364 0.354084 0.832281
Si Si3 0.123863 0.800224 0.312548
Si Si4 0.943868 0.816183 0.503275
Si Si5 0.657880 0.589628 0.898897
Si Si6 0.387419 0.002858 0.452572
O O1 0.977473 0.347691 0.189726
O O2 0.887199 0.734235 0.264543
O O3 0.725884 0.670738 0.088088
O O4 0.772797 0.737981 0.720049
O O5 0.500000 0.500000 0.500000
O O6 0.702279 0.369067 0.997129
O O7 0.628036 0.133150 0.781852
O O8 0.500000 0.500000 0.000000
O O9 0.047714 0.789599 0.436059
O O10 0.262536 0.537016 0.314031
O O11 0.171807 0.917043 0.483617
O O12 0.000000 0.000000 0.000000
O O13 0.485575 0.821594 0.758717
O O14 0.500000 0.000000 0.500000
#
# Coordination Sequence:
#
# PCOD9015751 Si02
#       6
#     2   2   2   2   2   2
#     4  10  21  42  64  99 142 175 225 291 348 422
#     4  10  23  44  70 101 140 188 239 292 355 433
#     4  11  23  44  68  97 135 181 232 282 338 419
#     4  10  24  42  67 100 133 182 234 284 346 409
#     4  10  22  43  69 100 135 180 232 283 353 418
#     4   9  21  42  67 100 137 178 227 288 360 415
#
# _framework density 28.831088000000001
#
# number of rings (size 3 to 8) (size 9 to 14) (size 15 to 20)
#    0.000    2.000    1.667    0.000    2.333    6.000 
#    0.000   18.333    0.000    0.000    0.000    0.000 
#    0.000    0.000    0.000    0.000    0.000    0.000 
#
# Total GULP energy -66911.858265 kJ/mol
# GULP energy per Si atom -5575.988189 kJ/mol
# Density = 2.876547 g / cm^3
# Si number density = 28.831088 Si / 1000 Ang^3
#
#
#
# Elastic Constant Matrix: (Units=GPa)
#
#
# Indices 1 2 3 4 5 6 
#
# 1 142.7734 48.1434 30.0587 17.6527 24.2073 42.4460
# 2 48.1434 201.3976 69.7108 -8.3299 11.1966 43.0460
# 3 30.0587 69.7108 108.9996 -33.1655 5.8129 3.4559
# 4 17.6527 -8.3299 -33.1655 58.5224 5.8376 21.2979
# 5 24.2073 11.1966 5.8129 5.8376 41.5404 19.4327
# 6 42.4460 43.0460 3.4559 21.2979 19.4327 61.5220
#
#
#
# Elastic Compliance Matrix: (Units=1/GPa)
#
#
# Indices 1 2 3 4 5 6 
#
# 1 0.009956 -0.000257 -0.003160 -0.002862 -0.002705 -0.004666
# 2 -0.000257 0.007773 -0.004657 0.000438 0.001237 -0.005542
# 3 -0.003160 -0.004657 0.015626 0.008544 -0.001221 0.001989
# 4 -0.002862 0.000438 0.008544 0.025662 0.000408 -0.007824
# 5 -0.002705 0.001237 -0.001221 0.000408 0.029329 -0.008336
# 6 -0.004666 -0.005542 0.001989 -0.007824 -0.008336 0.028581
#
#
# Mechanical properties :
#
#
# Convention : Reuss Voigt Hill
#
# Bulk Modulus (GPa) = 58.11785 83.22181 70.66983
# Shear Modulus (GPa) = 36.02049 52.66747 44.34398
#
# Velocity S-wave (km/s) = 3.53847 4.27870 3.92607
# Velocity P-wave (km/s) = 6.07422 7.30326 6.71691
#
# Compressibility (1/GPa) = 0.01720642
#
# Stress axis : x y z
#
# Youngs Moduli (GPa) = 100.44364 128.65823 63.99617
#
# Poissons Ratio (x) = 0.03303 0.20223
# Poissons Ratio (y) = 0.02579 0.29804
# Poissons Ratio (z) = 0.31741 0.59918
#
# Static dielectric constant tensor:
#      x y z
#    x 2.553280 -0.058190 -0.100170 
#    y -0.058190 2.268580 0.041880 
#    z -0.100170 0.041880 2.484700 
# 
# From -- ./inp_files/106791.got.cif
#   From: 2010.05.17/outbox.cif.g08.bks.cpg/sg2_54_cif.got.tgz:106791.got - 2010.06.03 11:33:40.
