data_PCOD9015821
_publ_section_title
;
Structure prediction by ZEFSAII (Michael W. Deem and Ramdas Pophale) SiO2 
 PCOD9015821
Probable space group: P -1
;
_chemical_formula_sum "Si O2"
_cell_formula_units_Z 16
_cell_length_a 14.235887
_cell_length_b 11.259661
_cell_length_c 13.623868
_cell_angle_alpha 100.635222
_cell_angle_beta 147.579662
_cell_angle_gamma 104.562692
_cell_volume 730.200363
_symmetry_space_group_name_H-M "P -1"
_symmetry_group_IT_number 2
_symmetry_cell_setting 'triclinic'
loop_
_space_group_symop_operation_xyz
x,y,z
-x,-y,-z
loop_
_atom_site_type_symbol
_atom_site_label
_atom_site_fract_x
_atom_site_fract_y
_atom_site_fract_z
Si Si1 0.566183 0.210982 0.122746
Si Si2 0.606926 0.938393 0.374383
Si Si3 0.855641 0.603050 0.392443
Si Si4 0.933793 0.834741 0.869378
Si Si5 0.197622 0.898326 0.910657
Si Si6 0.934272 0.095051 0.499332
Si Si7 0.397673 0.653631 0.300028
Si Si8 0.159481 0.759759 0.212242
O O1 0.619023 0.381066 0.174911
O O2 0.872013 0.322265 0.395724
O O3 0.420179 0.099806 0.079724
O O4 0.360546 0.040526 0.836438
O O5 0.862783 0.059225 0.544811
O O6 0.678999 0.072466 0.542982
O O7 0.351071 0.859426 0.078137
O O8 0.525981 0.771663 0.330653
O O9 0.832799 0.688558 0.298640
O O10 0.957828 0.730323 0.598261
O O11 0.606218 0.670817 0.536531
O O12 0.078627 0.899308 0.901576
O O13 0.040768 0.782643 0.024393
O O14 0.000000 0.000000 0.000000
O O15 0.000000 0.000000 0.500000
O O16 0.338120 0.742508 0.326505
O O17 0.101917 0.436410 0.993359
#
# Coordination Sequence:
#
# PCOD9015821 Si02
#       8
#     2   2   2   2   2   2   2   2
#     4  10  21  42  66  91 123 165 214 261 313 376
#     4  12  22  42  65  94 128 170 214 257 324 383
#     4  10  21  42  65  92 122 166 215 258 312 379
#     4  12  24  45  68  92 133 173 212 267 324 379
#     4  11  22  41  66  95 126 167 216 263 318 385
#     4  11  24  40  62  92 134 167 209 264 315 375
#     4  11  25  44  66  96 131 167 216 270 317 386
#     4  11  25  45  67  95 131 171 214 264 326 380
#
# _framework density 21.911794
#
# number of rings (size 3 to 8) (size 9 to 14) (size 15 to 20)
#    0.000    1.000    5.000    2.250    3.500    2.500 
#    6.750    0.000    0.000    0.000    0.000    0.000 
#    0.000    0.000    0.000    0.000    0.000    0.000 
#
# Total GULP energy -89405.474558 kJ/mol
# GULP energy per Si atom -5587.842160 kJ/mol
# Density = 2.186192 g / cm^3
# Si number density = 21.911794 Si / 1000 Ang^3
#
#
#
# Elastic Constant Matrix: (Units=GPa)
#
#
# Indices 1 2 3 4 5 6 
#
# 1 88.3397 30.5935 3.2957 -1.4543 8.7386 12.6843
# 2 30.5935 120.8793 13.2791 12.7774 0.5645 12.9271
# 3 3.2957 13.2791 36.3313 -3.7843 3.8882 4.7921
# 4 -1.4543 12.7774 -3.7843 45.2668 -15.1959 3.4402
# 5 8.7386 0.5645 3.8882 -15.1959 14.6657 -11.4104
# 6 12.6843 12.9271 4.7921 3.4402 -11.4104 30.5382
#
#
#
# Elastic Compliance Matrix: (Units=1/GPa)
#
#
# Indices 1 2 3 4 5 6 
#
# 1 0.018488 -0.001698 0.004893 -0.010063 -0.039202 -0.021242
# 2 -0.001698 0.010317 -0.002350 -0.006007 -0.009900 -0.006316
# 3 0.004893 -0.002350 0.032830 -0.005247 -0.030059 -0.016830
# 4 -0.010063 -0.006007 -0.005247 0.048744 0.084201 0.033516
# 5 -0.039202 -0.009900 -0.030059 0.084201 0.281069 0.120725
# 6 -0.021242 -0.006316 -0.016830 0.033516 0.120725 0.088216
#
#
# Mechanical properties :
#
#
# Convention : Reuss Voigt Hill
#
# Bulk Modulus (GPa) = 15.79187 37.76521 26.77854
# Shear Modulus (GPa) = 10.01840 31.31961 20.66901
#
# Velocity S-wave (km/s) = 2.14058 3.78478 3.07462
# Velocity P-wave (km/s) = 3.65131 6.03091 4.98518
#
# Compressibility (1/GPa) = 0.06332372
#
# Stress axis : x y z
#
# Youngs Moduli (GPa) = 54.09010 96.92547 30.46007
#
# Poissons Ratio (x) = 0.16459 -0.14903
# Poissons Ratio (y) = 0.09185 0.07158
# Poissons Ratio (z) = -0.26464 0.22778
#
# Static dielectric constant tensor:
#      x y z
#    x 1.709800 0.110020 -0.040270 
#    y 0.110020 1.662290 0.063000 
#    z -0.040270 0.063000 1.768480 
# 
# From -- ./inp_files/315436.got.cif
#   From: 2010.05.17/outbox.cif.g08.bks.cpg/sg2_158_cif.got.tgz:315436.got - 2010.06.03 11:33:40.
