data_PCOD9015146
_publ_section_title
;
Structure prediction by ZEFSAII (Michael W. Deem and Ramdas Pophale) SiO2 
 PCOD9015146
Probable space group: P -1
;
_chemical_formula_sum "Si O2"
_cell_formula_units_Z 16
_cell_length_a 19.150365
_cell_length_b 11.035723
_cell_length_c 10.925467
_cell_angle_alpha 64.519632
_cell_angle_beta 157.477406
_cell_angle_gamma 125.532208
_cell_volume 676.329788
_symmetry_space_group_name_H-M "P -1"
_symmetry_group_IT_number 2
_symmetry_cell_setting 'triclinic'
loop_
_space_group_symop_operation_xyz
x,y,z
-x,-y,-z
loop_
_atom_site_type_symbol
_atom_site_label
_atom_site_fract_x
_atom_site_fract_y
_atom_site_fract_z
Si Si1 0.457239 0.180841 0.727544
Si Si2 0.284226 0.606194 0.304581
Si Si3 0.100082 0.957410 0.792843
Si Si4 0.801835 0.444722 0.300928
Si Si5 0.281235 0.231397 0.165994
Si Si6 0.846944 0.260728 0.178121
Si Si7 0.859060 0.178070 0.612342
Si Si8 0.944834 0.260392 0.989580
O O1 0.353704 0.194601 0.428464
O O2 0.299454 0.006471 0.602851
O O3 0.560830 0.344767 0.899650
O O4 0.683532 0.196249 0.053826
O O5 0.509159 0.629676 0.621058
O O6 0.257691 0.729497 0.292968
O O7 0.195948 0.625379 0.023336
O O8 0.131121 0.437988 0.187760
O O9 0.230629 0.896174 0.957255
O O10 0.971048 0.809296 0.740923
O O11 0.000000 0.000000 0.500000
O O12 0.211675 0.095503 0.011451
O O13 0.794275 0.308493 0.433895
O O14 0.000000 0.500000 0.500000
O O15 0.897411 0.621286 0.435062
O O16 0.081466 0.245863 0.869995
O O17 0.892039 0.170628 0.814604
#
# Coordination Sequence:
#
# PCOD9015146 Si02
#       8
#     2   2   2   2   2   2   2   2
#     4  10  22  40  67 101 132 179 226 277 333 413
#     4   9  20  42  68 102 130 180 232 275 339 409
#     4  11  25  43  67  95 142 182 220 285 344 404
#     4  10  22  42  65  99 134 183 225 280 335 410
#     4  11  25  42  67 103 140 179 218 280 359 401
#     4   9  20  41  69  94 132 180 229 274 335 403
#     4  12  23  41  68 104 142 173 224 291 341 405
#     4  10  21  41  71  99 135 176 236 277 331 410
#
# _framework density 23.657098000000001
#
# number of rings (size 3 to 8) (size 9 to 14) (size 15 to 20)
#    0.000    1.750    2.500    0.750    5.250    2.000 
#    0.000    0.625    0.000    0.000    0.000    0.000 
#    0.000    0.000    0.000    0.000    0.000    0.000 
#
# Total GULP energy -89127.594272 kJ/mol
# GULP energy per Si atom -5570.474642 kJ/mol
# Density = 2.360325 g / cm^3
# Si number density = 23.657098 Si / 1000 Ang^3
#
#
#
# Elastic Constant Matrix: (Units=GPa)
#
#
# Indices 1 2 3 4 5 6 
#
# 1 70.3333 15.9318 34.5271 -0.5850 0.0693 8.8581
# 2 15.9318 83.4679 40.8224 -14.6189 -0.2431 19.7448
# 3 34.5271 40.8224 88.6895 4.6183 -7.3952 2.1259
# 4 -0.5850 -14.6189 4.6183 15.9130 5.6333 -10.5979
# 5 0.0693 -0.2431 -7.3952 5.6333 36.0380 4.7328
# 6 8.8581 19.7448 2.1259 -10.5979 4.7328 43.4387
#
#
#
# Elastic Compliance Matrix: (Units=1/GPa)
#
#
# Indices 1 2 3 4 5 6 
#
# 1 0.018253 0.001842 -0.008199 0.003274 -0.001801 -0.003163
# 2 0.001842 0.023254 -0.013136 0.024995 -0.005983 -0.003553
# 3 -0.008199 -0.013136 0.022250 -0.021209 0.007738 0.000536
# 4 0.003274 0.024995 -0.021209 0.113689 -0.024511 0.019417
# 5 -0.001801 -0.005983 0.007738 -0.024511 0.034048 -0.006982
# 6 -0.003163 -0.003553 0.000536 0.019417 -0.006982 0.030753
#
#
# Mechanical properties :
#
#
# Convention : Reuss Voigt Hill
#
# Bulk Modulus (GPa) = 40.36757 47.22813 43.79785
# Shear Modulus (GPa) = 17.27180 29.15855 23.21517
#
# Velocity S-wave (km/s) = 2.70495 3.51458 3.13600
# Velocity P-wave (km/s) = 5.18231 6.03959 5.62730
#
# Compressibility (1/GPa) = 0.02477236
#
# Stress axis : x y z
#
# Youngs Moduli (GPa) = 54.78572 43.00258 44.94340
#
# Poissons Ratio (x) = -0.07922 0.36848
# Poissons Ratio (y) = -0.10093 0.59038
# Poissons Ratio (z) = 0.44918 0.56489
#
# Static dielectric constant tensor:
#      x y z
#    x 2.015920 -0.104560 -0.068600 
#    y -0.104560 1.989350 -0.002610 
#    z -0.068600 -0.002610 1.999580 
# 
# From -- ./inp_files/333523.got.cif
#   From: 2010.05.17/outbox.cif.g08.bks.cpg/sg2_167_cif.got.tgz:333523.got - 2010.06.03 11:33:40.
