data_PCOD9015006
_publ_section_title
;
Structure prediction by ZEFSAII (Michael W. Deem and Ramdas Pophale) SiO2 
 PCOD9015006
Probable space group: P -1
;
_chemical_formula_sum "Si O2"
_cell_formula_units_Z 16
_cell_length_a 15.543646
_cell_length_b 15.782263
_cell_length_c 15.375549
_cell_angle_alpha 18.270450
_cell_angle_beta 36.614022
_cell_angle_gamma 35.152146
_cell_volume 673.567051
_symmetry_space_group_name_H-M "P -1"
_symmetry_group_IT_number 2
_symmetry_cell_setting 'triclinic'
loop_
_space_group_symop_operation_xyz
x,y,z
-x,-y,-z
loop_
_atom_site_type_symbol
_atom_site_label
_atom_site_fract_x
_atom_site_fract_y
_atom_site_fract_z
Si Si1 0.501822 0.557443 0.656444
Si Si2 0.703451 0.863059 0.293055
Si Si3 0.459337 0.256695 0.216234
Si Si4 0.150461 0.440272 0.352301
Si Si5 0.006517 0.987600 0.145158
Si Si6 0.451175 0.058694 0.081143
Si Si7 0.112551 0.304944 0.167901
Si Si8 0.157925 0.793054 0.755702
O O1 0.634050 0.642333 0.516199
O O2 0.342260 0.686161 0.713018
O O3 0.475895 0.756705 0.398783
O O4 0.526375 0.246268 0.899331
O O5 0.774385 0.709228 0.475159
O O6 0.830254 0.966643 0.039749
O O7 0.563629 0.139873 0.163001
O O8 0.279531 0.346672 0.264539
O O9 0.500000 0.000000 0.500000
O O10 0.500000 0.500000 0.000000
O O11 0.096580 0.778157 0.066302
O O12 0.013293 0.315829 0.563889
O O13 0.927001 0.071391 0.220874
O O14 0.275076 0.225999 0.067340
O O15 0.500000 0.000000 0.000000
O O16 0.103295 0.015331 0.502814
O O17 0.112677 0.513088 0.044554
O O18 0.000000 0.500000 0.000000
#
# Coordination Sequence:
#
# PCOD9015006 Si02
#       8
#     2   2   2   2   2   2   2   2
#     4  10  23  41  67  96 133 174 214 271 327 392
#     4  11  25  43  66  99 129 170 234 282 325 386
#     4  10  22  40  63  89 121 168 222 272 323 390
#     4  11  24  43  64  90 130 180 223 273 335 390
#     4  12  25  42  65  94 134 176 217 282 335 379
#     4  10  22  42  67  98 132 168 210 264 331 394
#     4  10  21  41  70  96 125 167 211 259 317 396
#     4  10  22  42  63  96 133 169 213 259 327 393
#
# _framework density 23.754131000000001
#
# number of rings (size 3 to 8) (size 9 to 14) (size 15 to 20)
#    0.000    1.500    0.000    4.500    0.000   10.000 
#    0.000    2.500    0.000    0.000    0.000    0.000 
#    0.000    0.000    0.000    0.000    0.000    0.000 
#
# Total GULP energy -89547.643648 kJ/mol
# GULP energy per Si atom -5596.727728 kJ/mol
# Density = 2.370007 g / cm^3
# Si number density = 23.754131 Si / 1000 Ang^3
#
#
#
# Elastic Constant Matrix: (Units=GPa)
#
#
# Indices 1 2 3 4 5 6 
#
# 1 80.6769 39.3581 13.2720 17.8836 0.4792 4.5907
# 2 39.3581 132.9528 35.8932 16.6286 -4.7097 18.3015
# 3 13.2720 35.8932 119.0920 -1.9163 -10.7079 2.6734
# 4 17.8836 16.6286 -1.9163 45.5776 -1.4591 2.8906
# 5 0.4792 -4.7097 -10.7079 -1.4591 29.2801 -1.5663
# 6 4.5907 18.3015 2.6734 2.8906 -1.5663 38.1168
#
#
#
# Elastic Compliance Matrix: (Units=1/GPa)
#
#
# Indices 1 2 3 4 5 6 
#
# 1 0.015450 -0.003871 -0.000763 -0.004748 -0.001372 0.000355
# 2 -0.003871 0.010183 -0.002538 -0.002030 0.000454 -0.004073
# 3 -0.000763 -0.002538 0.009549 0.001689 0.003215 0.000645
# 4 -0.004748 -0.002030 0.001689 0.024690 0.001579 -0.000379
# 5 -0.001372 0.000454 0.003215 0.001579 0.035560 0.001063
# 6 0.000355 -0.004073 0.000645 -0.000379 0.001063 0.028175
#
#
# Mechanical properties :
#
#
# Convention : Reuss Voigt Hill
#
# Bulk Modulus (GPa) = 47.99098 56.64091 52.31594
# Shear Modulus (GPa) = 34.50744 38.87480 36.69112
#
# Velocity S-wave (km/s) = 3.81555 4.04982 3.93443
# Velocity P-wave (km/s) = 6.29749 6.76494 6.53540
#
# Compressibility (1/GPa) = 0.02083725
#
# Stress axis : x y z
#
# Youngs Moduli (GPa) = 64.72629 98.19975 104.72737
#
# Poissons Ratio (x) = 0.38016 0.07988
# Poissons Ratio (y) = 0.25057 0.26581
# Poissons Ratio (z) = 0.04937 0.24925
#
# Static dielectric constant tensor:
#      x y z
#    x 1.928830 -0.001510 0.003300 
#    y -0.001510 1.956190 0.006050 
#    z 0.003300 0.006050 1.879510 
# 
# From -- ./inp_files/534002.got.cif
#   From: 2010.05.17/outbox.cif.g08.bks.cpg/sg2_268_cif.got.tgz:534002.got - 2010.06.03 11:33:40.
