data_PCOD9015215
_publ_section_title
;
Structure prediction by ZEFSAII (Michael W. Deem and Ramdas Pophale) SiO2 
 PCOD9015215
Probable space group: P -1
;
_chemical_formula_sum "Si O2"
_cell_formula_units_Z 16
_cell_length_a 8.626526
_cell_length_b 12.426935
_cell_length_c 8.986740
_cell_angle_alpha 61.947072
_cell_angle_beta 101.492900
_cell_angle_gamma 125.465432
_cell_volume 688.820879
_symmetry_space_group_name_H-M "P -1"
_symmetry_group_IT_number 2
_symmetry_cell_setting 'triclinic'
loop_
_space_group_symop_operation_xyz
x,y,z
-x,-y,-z
loop_
_atom_site_type_symbol
_atom_site_label
_atom_site_fract_x
_atom_site_fract_y
_atom_site_fract_z
Si Si1 0.950273 0.245288 0.274187
Si Si2 0.391908 0.206822 0.016530
Si Si3 0.371513 0.419141 0.672712
Si Si4 0.571070 0.939143 0.425269
Si Si5 0.677665 0.086986 0.864026
Si Si6 0.643321 0.704472 0.724779
Si Si7 0.055268 0.420537 0.447279
Si Si8 0.178372 0.660079 0.068872
O O1 0.152931 0.264211 0.303909
O O2 0.908876 0.282848 0.405493
O O3 0.771953 0.080454 0.310283
O O4 0.958976 0.355928 0.080148
O O5 0.352972 0.267393 0.117121
O O6 0.276448 0.029713 0.103564
O O7 0.360009 0.276800 0.821152
O O8 0.615387 0.265522 0.018887
O O9 0.500000 0.500000 0.500000
O O10 0.472445 0.542368 0.741940
O O11 0.170519 0.377939 0.599971
O O12 0.409270 0.871692 0.312505
O O13 0.607559 0.819944 0.568236
O O14 0.500000 0.000000 0.500000
O O15 0.831324 0.229586 0.891273
O O16 0.500000 0.000000 0.000000
O O17 0.162576 0.538059 0.255707
O O18 0.000000 0.500000 0.500000
#
# Coordination Sequence:
#
# PCOD9015215 Si02
#       8
#     2   2   2   2   2   2   2   2
#     4  12  26  45  65 105 140 175 224 286 342 396
#     4  11  23  44  71  99 130 182 230 270 338 411
#     4  12  25  46  68  99 137 181 226 281 338 405
#     4  12  24  45  72  99 135 178 229 278 339 411
#     4  10  21  41  72  99 125 178 229 272 330 402
#     4  12  26  44  70 100 138 181 225 282 340 401
#     4  12  29  43  69 103 137 179 227 285 339 399
#     4  11  23  46  70  96 139 179 228 276 338 409
#
# _framework density 23.228100000000001
#
# number of rings (size 3 to 8) (size 9 to 14) (size 15 to 20)
#    0.000    0.500    6.250    1.875    8.750    0.000 
#    2.250    0.625    0.000    0.000    0.000    0.000 
#    0.000    0.000    0.000    0.000    0.000    0.000 
#
# Total GULP energy -89461.777679 kJ/mol
# GULP energy per Si atom -5591.361105 kJ/mol
# Density = 2.317523 g / cm^3
# Si number density = 23.228100 Si / 1000 Ang^3
#
#
#
# Elastic Constant Matrix: (Units=GPa)
#
#
# Indices 1 2 3 4 5 6 
#
# 1 51.5042 23.6648 53.8212 8.4745 15.7046 -19.0644
# 2 23.6648 77.2394 22.3407 11.0554 8.8007 -10.5132
# 3 53.8212 22.3407 141.0876 3.3989 33.7573 -6.2262
# 4 8.4745 11.0554 3.3989 54.0669 -8.4785 -1.7065
# 5 15.7046 8.8007 33.7573 -8.4785 50.8117 -0.8401
# 6 -19.0644 -10.5132 -6.2262 -1.7065 -0.8401 24.2216
#
#
#
# Elastic Compliance Matrix: (Units=1/GPa)
#
#
# Indices 1 2 3 4 5 6 
#
# 1 0.057115 -0.005776 -0.017823 -0.006298 -0.005247 0.037240
# 2 -0.005776 0.015425 0.000248 -0.002425 -0.001423 0.001993
# 3 -0.017823 0.000248 0.014351 0.000873 -0.004093 -0.010312
# 4 -0.006298 -0.002425 0.000873 0.020601 0.005155 -0.004155
# 5 -0.005247 -0.001423 -0.004093 0.005155 0.025053 -0.004567
# 6 0.037240 0.001993 -0.010312 -0.004155 -0.004567 0.068360
#
#
# Mechanical properties :
#
#
# Convention : Reuss Voigt Hill
#
# Bulk Modulus (GPa) = 24.88258 52.16498 38.52378
# Shear Modulus (GPa) = 19.15687 37.15365 28.15526
#
# Velocity S-wave (km/s) = 2.87492 4.00373 3.48533
# Velocity P-wave (km/s) = 4.66431 6.62417 5.72867
#
# Compressibility (1/GPa) = 0.04018875
#
# Stress axis : x y z
#
# Youngs Moduli (GPa) = 17.50846 64.82934 69.68267
#
# Poissons Ratio (x) = 0.37445 1.24194
# Poissons Ratio (y) = 0.10113 -0.01725
# Poissons Ratio (z) = 0.31205 -0.01605
#
# Static dielectric constant tensor:
#      x y z
#    x 1.937200 0.029550 -0.009120 
#    y 0.029550 1.932320 -0.032060 
#    z -0.009120 -0.032060 1.883080 
# 
# From -- ./inp_files/185274.got.cif
#   From: 2010.05.17/outbox.cif.g08.bks.cpg/sg2_93_cif.got.tgz:185274.got - 2010.06.03 11:33:40.
