data_PCOD9015779
_publ_section_title
;
Structure prediction by ZEFSAII (Michael W. Deem and Ramdas Pophale) SiO2 
 PCOD9015779
Probable space group: P -1
;
_chemical_formula_sum "Si O2"
_cell_formula_units_Z 14
_cell_length_a 9.878302
_cell_length_b 22.550392
_cell_length_c 9.248349
_cell_angle_alpha 38.148810
_cell_angle_beta 101.495399
_cell_angle_gamma 133.500918
_cell_volume 596.244065
_symmetry_space_group_name_H-M "P -1"
_symmetry_group_IT_number 2
_symmetry_cell_setting 'triclinic'
loop_
_space_group_symop_operation_xyz
x,y,z
-x,-y,-z
loop_
_atom_site_type_symbol
_atom_site_label
_atom_site_fract_x
_atom_site_fract_y
_atom_site_fract_z
Si Si1 0.342942 0.720951 0.159125
Si Si2 0.824993 0.182922 0.114719
Si Si3 0.029915 0.681468 0.789952
Si Si4 0.198150 0.262334 0.417083
Si Si5 0.461184 0.231112 0.582583
Si Si6 0.616886 0.002514 0.146381
Si Si7 0.848463 0.983357 0.599194
O O1 0.446364 0.764062 0.259415
O O2 0.000000 0.500000 0.500000
O O3 0.404393 0.868147 0.838659
O O4 0.530108 0.766500 0.009149
O O5 0.991475 0.312939 0.050249
O O6 0.868558 0.208438 0.898576
O O7 0.815034 0.062876 0.357242
O O8 0.333554 0.821436 0.539252
O O9 0.999268 0.765107 0.540262
O O10 0.752833 0.445894 0.153186
O O11 0.280704 0.217199 0.609388
O O12 0.500000 0.500000 0.000000
O O13 0.053478 0.129546 0.498710
O O14 0.311442 0.058866 0.782688
O O15 0.500000 0.000000 0.000000
O O16 0.000000 0.000000 0.500000
#
# Coordination Sequence:
#
# PCOD9015779 Si02
#       7
#     2   2   2   2   2   2   2
#     4  12  24  43  69 101 133 182 227 275 336 407
#     4  11  22  42  69  90 132 180 223 270 336 405
#     4  10  21  42  65  86 126 181 216 261 334 406
#     4   9  21  42  67  91 126 173 220 266 340 396
#     4  11  23  40  65  93 134 166 219 277 338 391
#     4  12  23  36  59 102 128 161 223 282 324 382
#     4  11  24  45  71  97 132 178 232 275 333 402
#
# _framework density 23.480319999999999
#
# number of rings (size 3 to 8) (size 9 to 14) (size 15 to 20)
#    0.000    1.143    2.857    4.714    0.000    0.571 
#    7.714    0.714    0.000    0.000    0.000    0.000 
#    0.000    0.000    0.000    0.000    0.000    0.000 
#
# Total GULP energy -77966.035532 kJ/mol
# GULP energy per Si atom -5569.002538 kJ/mol
# Density = 2.342688 g / cm^3
# Si number density = 23.480320 Si / 1000 Ang^3
#
#
#
# Elastic Constant Matrix: (Units=GPa)
#
#
# Indices 1 2 3 4 5 6 
#
# 1 160.4580 24.0526 36.9082 6.6240 12.1335 5.2463
# 2 24.0526 92.7776 20.8857 3.2193 5.5236 12.8218
# 3 36.9082 20.8857 86.8848 -12.3631 -7.8036 -2.7830
# 4 6.6240 3.2193 -12.3631 26.4153 7.9761 6.5304
# 5 12.1335 5.5236 -7.8036 7.9761 36.8160 5.8742
# 6 5.2463 12.8218 -2.7830 6.5304 5.8742 45.6707
#
#
#
# Elastic Compliance Matrix: (Units=1/GPa)
#
#
# Indices 1 2 3 4 5 6 
#
# 1 0.007489 -0.000877 -0.003578 -0.002659 -0.002498 -0.000131
# 2 -0.000877 0.012249 -0.003007 -0.001494 -0.001362 -0.003132
# 3 -0.003578 -0.003007 0.015082 0.007187 0.003152 0.000741
# 4 -0.002659 -0.001494 0.007187 0.045116 -0.006439 -0.004460
# 5 -0.002498 -0.001362 0.003152 -0.006439 0.030596 -0.002153
# 6 -0.000131 -0.003132 0.000741 -0.004460 -0.002153 0.023750
#
#
# Mechanical properties :
#
#
# Convention : Reuss Voigt Hill
#
# Bulk Modulus (GPa) = 50.26129 55.97925 53.12027
# Shear Modulus (GPa) = 32.08454 38.99867 35.54160
#
# Velocity S-wave (km/s) = 3.70055 4.07985 3.89482
# Velocity P-wave (km/s) = 6.30166 6.78868 6.54970
#
# Compressibility (1/GPa) = 0.01989603
#
# Stress axis : x y z
#
# Youngs Moduli (GPa) = 133.52037 81.64140 66.30608
#
# Poissons Ratio (x) = 0.07162 0.23721
# Poissons Ratio (y) = 0.11713 0.19939
# Poissons Ratio (z) = 0.47767 0.24550
#
# Static dielectric constant tensor:
#      x y z
#    x 1.889030 0.012920 0.004460 
#    y 0.012920 1.935310 -0.002440 
#    z 0.004460 -0.002440 1.916610 
# 
# From -- ./inp_files/185157.got.cif
#   From: 2010.05.17/outbox.cif.g08.bks.cpg/sg2_93_cif.got.tgz:185157.got - 2010.06.03 11:33:40.
