data_PCOD9015856
_publ_section_title
;
Structure prediction by ZEFSAII (Michael W. Deem and Ramdas Pophale) SiO2 
 PCOD9015856
Probable space group: P -1
;
_chemical_formula_sum "Si O2"
_cell_formula_units_Z 16
_cell_length_a 10.890296
_cell_length_b 17.113208
_cell_length_c 9.482454
_cell_angle_alpha 82.688642
_cell_angle_beta 131.027302
_cell_angle_gamma 138.044507
_cell_volume 622.627676
_symmetry_space_group_name_H-M "P -1"
_symmetry_group_IT_number 2
_symmetry_cell_setting 'triclinic'
loop_
_space_group_symop_operation_xyz
x,y,z
-x,-y,-z
loop_
_atom_site_type_symbol
_atom_site_label
_atom_site_fract_x
_atom_site_fract_y
_atom_site_fract_z
Si Si1 0.655604 0.849424 0.185490
Si Si2 0.678743 0.883878 0.882956
Si Si3 0.259892 0.836697 0.935073
Si Si4 0.207453 0.495832 0.893051
Si Si5 0.763471 0.087663 0.801873
Si Si6 0.569973 0.391059 0.269150
Si Si7 0.430590 0.412162 0.598267
Si Si8 0.753592 0.412220 0.697846
O O1 0.397061 0.806639 0.054379
O O2 0.453705 0.679566 0.061171
O O3 0.789785 0.933983 0.116024
O O4 0.000000 0.000000 0.500000
O O5 0.429440 0.702526 0.741517
O O6 0.585596 0.931473 0.759369
O O7 0.000000 0.000000 0.000000
O O8 0.207766 0.843571 0.055449
O O9 0.939560 0.713462 0.616987
O O10 0.500000 0.000000 0.000000
O O11 0.341085 0.491452 0.111306
O O12 0.265174 0.499613 0.771731
O O13 0.822464 0.357177 0.686614
O O14 0.500000 0.000000 0.500000
O O15 0.162288 0.240426 0.016628
O O16 0.762706 0.470750 0.547824
O O17 0.500000 0.500000 0.500000
O O18 0.451276 0.332542 0.566691
O O19 0.000000 0.500000 0.000000
#
# Coordination Sequence:
#
# PCOD9015856 Si02
#       8
#     2   2   2   2   2   2   2   2
#     4  11  23  38  64 100 129 176 230 278 340 401
#     4   9  21  38  59  88 131 173 213 271 327 404
#     4  12  24  41  70  98 141 178 228 291 338 404
#     4  10  23  40  69  96 131 180 234 279 336 418
#     4  11  24  41  60  97 142 179 224 273 350 402
#     4  10  21  42  66  94 135 178 230 280 336 408
#     4  11  24  45  65  98 140 175 226 285 349 408
#     4  10  21  42  65  94 128 174 226 279 331 406
#
# _framework density 25.697538999999999
#
# number of rings (size 3 to 8) (size 9 to 14) (size 15 to 20)
#    0.000    1.500    2.500    1.875    7.000    1.000 
#    4.500    0.625    0.000    0.000    0.000    0.000 
#    0.000    0.000    0.000    0.000    0.000    0.000 
#
# Total GULP energy -89129.723492 kJ/mol
# GULP energy per Si atom -5570.607718 kJ/mol
# Density = 2.563905 g / cm^3
# Si number density = 25.697539 Si / 1000 Ang^3
#
#
#
# Elastic Constant Matrix: (Units=GPa)
#
#
# Indices 1 2 3 4 5 6 
#
# 1 134.7340 15.6818 53.4102 -17.2935 -12.5606 10.2240
# 2 15.6818 98.4995 28.4936 -32.2817 -7.9612 0.9037
# 3 53.4102 28.4936 199.3496 -44.0802 -0.8141 6.7481
# 4 -17.2935 -32.2817 -44.0802 43.0268 17.9891 -14.2898
# 5 -12.5606 -7.9612 -0.8141 17.9891 42.0106 -13.8345
# 6 10.2240 0.9037 6.7481 -14.2898 -13.8345 46.1053
#
#
#
# Elastic Compliance Matrix: (Units=1/GPa)
#
#
# Indices 1 2 3 4 5 6 
#
# 1 0.008640 -0.000787 -0.002356 -0.000909 0.002411 -0.001114
# 2 -0.000787 0.014142 0.001016 0.013314 -0.002176 0.003222
# 3 -0.002356 0.001016 0.007593 0.009711 -0.004142 0.001158
# 4 -0.000909 0.013314 0.009711 0.053250 -0.017105 0.009891
# 5 0.002411 -0.002176 -0.004142 -0.017105 0.032899 0.004684
# 6 -0.001114 0.003222 0.001158 0.009891 0.004684 0.026175
#
#
# Mechanical properties :
#
#
# Convention : Reuss Voigt Hill
#
# Bulk Modulus (GPa) = 38.28353 69.75049 54.01701
# Shear Modulus (GPa) = 32.12104 48.56171 40.34138
#
# Velocity S-wave (km/s) = 3.53932 4.35183 3.96644
# Velocity P-wave (km/s) = 5.62428 7.24245 6.48404
#
# Compressibility (1/GPa) = 0.02612089
#
# Stress axis : x y z
#
# Youngs Moduli (GPa) = 115.73896 70.71135 131.69260
#
# Poissons Ratio (x) = 0.05565 0.31026
# Poissons Ratio (y) = 0.09109 -0.13375
# Poissons Ratio (z) = 0.27267 -0.07181
#
# Static dielectric constant tensor:
#      x y z
#    x 2.032480 0.031950 0.100760 
#    y 0.031950 1.823490 -0.311460 
#    z 0.100760 -0.311460 1.400480 
# 
# From -- ./inp_files/283025.got.cif
#   From: 2010.05.17/outbox.cif.g08.bks.cpg/sg2_142_cif.got.tgz:283025.got - 2010.06.03 11:33:40.
