data_PCOD9015497
_publ_section_title
;
Structure prediction by ZEFSAII (Michael W. Deem and Ramdas Pophale) SiO2 
 PCOD9015497
Probable space group: P -1
;
_chemical_formula_sum "Si O2"
_cell_formula_units_Z 14
_cell_length_a 11.470312
_cell_length_b 6.516651
_cell_length_c 20.363614
_cell_angle_alpha 82.204022
_cell_angle_beta 25.755432
_cell_angle_gamma 95.552820
_cell_volume 564.241099
_symmetry_space_group_name_H-M "P -1"
_symmetry_group_IT_number 2
_symmetry_cell_setting 'triclinic'
loop_
_space_group_symop_operation_xyz
x,y,z
-x,-y,-z
loop_
_atom_site_type_symbol
_atom_site_label
_atom_site_fract_x
_atom_site_fract_y
_atom_site_fract_z
Si Si1 0.403277 0.781474 0.237349
Si Si2 0.028059 0.041391 0.128235
Si Si3 0.826556 0.831655 0.512835
Si Si4 0.727663 0.548256 0.117139
Si Si5 0.813261 0.635863 0.741033
Si Si6 0.422834 0.483139 0.616525
Si Si7 0.878452 0.571260 0.854278
O O1 0.572451 0.712403 0.211705
O O2 0.257248 0.546739 0.274635
O O3 0.127948 0.828938 0.387072
O O4 0.682422 0.984948 0.042314
O O5 0.052504 0.153669 0.182426
O O6 0.103367 0.276069 0.038033
O O7 0.717602 0.797086 0.283585
O O8 0.566692 0.714229 0.706549
O O9 0.676069 0.659995 0.532435
O O10 0.940472 0.098459 0.418460
O O11 0.000000 0.500000 0.000000
O O12 0.906620 0.548292 0.762842
O O13 0.477152 0.602460 0.933909
O O14 0.500000 0.500000 0.500000
O O15 0.135502 0.532378 0.760586
#
# Coordination Sequence:
#
# PCOD9015497 Si02
#       7
#     2   2   2   2   2   2   2
#     4   9  22  44  63  92 125 163 209 254 310 369
#     4   9  22  43  62  86 127 165 206 255 301 374
#     4  12  24  39  66  98 124 163 209 260 309 364
#     4  10  23  43  65  92 125 164 210 253 313 374
#     4  10  22  40  68  91 127 162 209 257 309 368
#     4  12  25  38  62  94 128 162 210 254 310 366
#     4  10  21  42  63  91 124 172 203 250 313 368
#
# _framework density 24.812089
#
# number of rings (size 3 to 8) (size 9 to 14) (size 15 to 20)
#    0.857    0.857    0.000    3.857    0.000    6.857 
#    0.000    5.714    0.000    0.000    0.000    0.000 
#    0.000    0.000    0.000    0.000    0.000    0.000 
#
# Total GULP energy -77966.727688 kJ/mol
# GULP energy per Si atom -5569.051978 kJ/mol
# Density = 2.475562 g / cm^3
# Si number density = 24.812089 Si / 1000 Ang^3
#
#
#
# Elastic Constant Matrix: (Units=GPa)
#
#
# Indices 1 2 3 4 5 6 
#
# 1 87.5722 29.0866 17.4404 -4.6595 1.2397 9.0366
# 2 29.0866 62.4545 51.2970 -11.1990 -5.0923 -1.4454
# 3 17.4404 51.2970 98.5588 -9.0784 8.3426 12.5460
# 4 -4.6595 -11.1990 -9.0784 56.5009 -11.8549 -23.6331
# 5 1.2397 -5.0923 8.3426 -11.8549 33.9252 6.8834
# 6 9.0366 -1.4454 12.5460 -23.6331 6.8834 39.0116
#
#
#
# Elastic Compliance Matrix: (Units=1/GPa)
#
#
# Indices 1 2 3 4 5 6 
#
# 1 0.015000 -0.011587 0.004189 -0.004059 -0.003289 -0.007129
# 2 -0.011587 0.045091 -0.023616 0.014941 0.014477 0.018446
# 3 0.004189 -0.023616 0.023372 -0.007780 -0.009654 -0.012371
# 4 -0.004059 0.014941 -0.007780 0.029720 0.010606 0.020129
# 5 -0.003289 0.014477 -0.009654 0.010606 0.036977 0.004303
# 6 -0.007129 0.018446 -0.012371 0.020129 0.004303 0.043382
#
#
# Mechanical properties :
#
#
# Convention : Reuss Voigt Hill
#
# Bulk Modulus (GPa) = 46.65409 49.35927 48.00668
# Shear Modulus (GPa) = 19.03212 35.93829 27.48521
#
# Velocity S-wave (km/s) = 2.77257 3.80994 3.33188
# Velocity P-wave (km/s) = 5.39382 6.26822 5.84739
#
# Compressibility (1/GPa) = 0.02143435
#
# Stress axis : x y z
#
# Youngs Moduli (GPa) = 66.66736 22.17736 42.78697
#
# Poissons Ratio (x) = 0.25697 -0.17921
# Poissons Ratio (y) = 0.77248 1.01044
# Poissons Ratio (z) = -0.27924 0.52373
#
# Static dielectric constant tensor:
#      x y z
#    x 2.144010 -0.043050 0.024610 
#    y -0.043050 2.120840 0.021310 
#    z 0.024610 0.021310 2.007280 
# 
# From -- ./inp_files/618978.got.cif
#   From: 2010.05.17/outbox.cif.g08.bks.cpg/sg2_310_cif.got.tgz:618978.got - 2010.06.03 11:33:40.
