data_PCOD9015463
_publ_section_title
;
Structure prediction by ZEFSAII (Michael W. Deem and Ramdas Pophale) SiO2 
 PCOD9015463
Probable space group: P -1
;
_chemical_formula_sum "Si O2"
_cell_formula_units_Z 12
_cell_length_a 7.344835
_cell_length_b 13.401582
_cell_length_c 18.463299
_cell_angle_alpha 157.846984
_cell_angle_beta 50.254178
_cell_angle_gamma 121.898377
_cell_volume 514.018343
_symmetry_space_group_name_H-M "P -1"
_symmetry_group_IT_number 2
_symmetry_cell_setting 'triclinic'
loop_
_space_group_symop_operation_xyz
x,y,z
-x,-y,-z
loop_
_atom_site_type_symbol
_atom_site_label
_atom_site_fract_x
_atom_site_fract_y
_atom_site_fract_z
Si Si1 0.812205 0.140297 0.577842
Si Si2 0.773803 0.793772 0.586703
Si Si3 0.858962 0.571063 0.181588
Si Si4 0.269616 0.682311 0.816167
Si Si5 0.632062 0.370856 0.974871
Si Si6 0.209985 0.237921 0.268042
O O1 0.607444 0.400982 0.825679
O O2 0.961362 0.199565 0.509435
O O3 0.708206 0.875331 0.411331
O O4 0.000000 0.000000 0.500000
O O5 0.727845 0.499325 0.378255
O O6 0.749381 0.838630 0.708784
O O7 0.610779 0.057365 0.763337
O O8 0.855368 0.477753 0.201583
O O9 0.720080 0.391080 0.048419
O O10 0.133279 0.558219 0.076741
O O11 0.545592 0.680656 0.766259
O O12 0.152238 0.000897 0.071754
O O13 0.000000 0.500000 0.500000
#
# Coordination Sequence:
#
# PCOD9015463 Si02
#       6
#     2   2   2   2   2   2
#     4  11  23  40  66 107 138 173 220 271 334 405
#     4  11  24  44  67 101 134 174 224 273 337 398
#     4  10  21  42  63 101 131 183 219 269 331 402
#     4  11  24  46  67  94 136 168 234 272 331 402
#     4  10  23  40  70  96 141 176 220 269 335 402
#     4  11  27  45  70  96 128 178 228 282 335 388
#
# _framework density 23.345472000000001
#
# number of rings (size 3 to 8) (size 9 to 14) (size 15 to 20)
#    0.000    1.333    3.333    1.000    2.333    6.000 
#    0.000    0.000    0.000    0.000    0.000    0.000 
#    0.000    0.000    0.000    0.000    0.000    0.000 
#
# Total GULP energy -66939.433401 kJ/mol
# GULP energy per Si atom -5578.286117 kJ/mol
# Density = 2.329234 g / cm^3
# Si number density = 23.345472 Si / 1000 Ang^3
#
#
#
# Elastic Constant Matrix: (Units=GPa)
#
#
# Indices 1 2 3 4 5 6 
#
# 1 20.9585 11.5577 12.7011 -18.8709 -6.2090 14.8627
# 2 11.5577 83.4065 34.7364 4.1760 -7.5936 1.3716
# 3 12.7011 34.7364 179.4162 5.3675 -19.8094 29.2032
# 4 -18.8709 4.1760 5.3675 16.7434 -1.5085 33.7631
# 5 -6.2090 -7.5936 -19.8094 -1.5085 54.5011 7.7974
# 6 14.8627 1.3716 29.2032 33.7631 7.7974 1.1063
#
#
#
# Elastic Compliance Matrix: (Units=1/GPa)
#
#
# Indices 1 2 3 4 5 6 
#
# 1 0.028712 -0.001986 -0.005074 -0.008376 -0.002109 0.021160
# 2 -0.001986 0.013103 -0.001764 0.001635 0.001461 -0.003196
# 3 -0.005074 -0.001764 0.006861 -0.003989 0.001795 -0.001650
# 4 -0.008376 0.001635 -0.003989 0.007531 -0.005031 0.021409
# 5 -0.002109 0.001461 0.001795 -0.005031 0.018584 0.001680
# 6 0.021160 -0.003196 -0.001650 0.021409 0.001680 0.001942
#
#
# Mechanical properties :
#
#
# Convention : Reuss Voigt Hill
#
# Bulk Modulus (GPa) = 32.22969 44.64131 38.43550
# Shear Modulus (GPa) = 47.74449 29.45589 38.60019
#
# Velocity S-wave (km/s) = 4.52722 3.55595 4.07066
# Velocity P-wave (km/s) = 6.41585 6.00194 6.21234
#
# Compressibility (1/GPa) = 0.03102729
#
# Stress axis : x y z
#
# Youngs Moduli (GPa) = 34.82851 76.31899 145.76149
#
# Poissons Ratio (x) = 0.15157 0.73966
# Poissons Ratio (y) = 0.06917 0.25708
# Poissons Ratio (z) = 0.17674 0.13460
#
# Static dielectric constant tensor:
#      x y z
#    x 2.003160 -0.019710 0.138550 
#    y -0.019710 1.875630 0.008890 
#    z 0.138550 0.008890 2.022510 
# 
# From -- ./inp_files/33973.got.cif
#   From: 2010.05.17/outbox.cif.g08.bks.cpg/sg2_17_cif.got.tgz:33973.got - 2010.06.03 11:33:40.
