data_PCOD9015671
_publ_section_title
;
Structure prediction by ZEFSAII (Michael W. Deem and Ramdas Pophale) SiO2 
 PCOD9015671
Probable space group: P -1
;
_chemical_formula_sum "Si O2"
_cell_formula_units_Z 12
_cell_length_a 14.342200
_cell_length_b 5.126063
_cell_length_c 9.618109
_cell_angle_alpha 48.225344
_cell_angle_beta 67.677194
_cell_angle_gamma 76.142311
_cell_volume 487.731138
_symmetry_space_group_name_H-M "P -1"
_symmetry_group_IT_number 2
_symmetry_cell_setting 'triclinic'
loop_
_space_group_symop_operation_xyz
x,y,z
-x,-y,-z
loop_
_atom_site_type_symbol
_atom_site_label
_atom_site_fract_x
_atom_site_fract_y
_atom_site_fract_z
Si Si1 0.030466 0.535082 0.810560
Si Si2 0.583619 0.781955 0.111493
Si Si3 0.708550 0.840157 0.523905
Si Si4 0.751243 0.670982 0.245552
Si Si5 0.504116 0.107018 0.299979
Si Si6 0.912552 0.665194 0.581874
O O1 0.127435 0.292030 0.821923
O O2 0.932617 0.503441 0.779160
O O3 0.069265 0.918419 0.600003
O O4 0.000000 0.500000 0.000000
O O5 0.697848 0.849388 0.078735
O O6 0.582343 0.430731 0.145443
O O7 0.529762 0.806656 0.284909
O O8 0.500000 0.000000 0.000000
O O9 0.705122 0.774225 0.383891
O O10 0.609033 0.751567 0.700855
O O11 0.800625 0.613779 0.607522
O O12 0.726907 0.256368 0.385855
O O13 0.500000 0.000000 0.500000
O O14 0.000000 0.500000 0.500000
#
# Coordination Sequence:
#
# PCOD9015671 Si02
#       6
#     2   2   2   2   2   2
#     4  10  23  41  65  93 130 169 214 265 325 386
#     4  12  25  41  62  95 136 161 209 269 320 373
#     4  11  22  38  69  93 123 166 219 257 314 384
#     4  11  21  41  63  92 128 171 202 264 328 371
#     4  12  22  41  67  92 118 174 216 250 311 393
#     4  10  21  42  64  93 127 166 213 269 317 378
#
# _framework density 24.603719999999999
#
# number of rings (size 3 to 8) (size 9 to 14) (size 15 to 20)
#    0.000    1.000    5.000    2.000    0.000    2.000 
#    3.000    0.000    0.000    0.000    0.000    0.000 
#    0.000    0.000    0.000    0.000    0.000    0.000 
#
# Total GULP energy -66901.474495 kJ/mol
# GULP energy per Si atom -5575.122875 kJ/mol
# Density = 2.454772 g / cm^3
# Si number density = 24.603720 Si / 1000 Ang^3
#
#
#
# Elastic Constant Matrix: (Units=GPa)
#
#
# Indices 1 2 3 4 5 6 
#
# 1 135.6725 7.2127 29.9721 -6.4225 47.2285 -27.7454
# 2 7.2127 98.6018 17.7052 3.3250 2.9705 -0.1460
# 3 29.9721 17.7052 98.7640 10.8702 38.7779 8.7769
# 4 -6.4225 3.3250 10.8702 36.3022 -5.2986 0.4483
# 5 47.2285 2.9705 38.7779 -5.2986 41.7044 0.5904
# 6 -27.7454 -0.1460 8.7769 0.4483 0.5904 44.6296
#
#
#
# Elastic Compliance Matrix: (Units=1/GPa)
#
#
# Indices 1 2 3 4 5 6 
#
# 1 0.016039 -0.000994 0.002805 -0.001093 -0.020977 0.009705
# 2 -0.000994 0.010619 -0.002770 0.000114 0.002960 -0.000079
# 3 0.002805 -0.002770 0.019555 -0.008324 -0.022195 -0.001734
# 4 -0.001093 0.000114 -0.008324 0.031726 0.012993 0.000467
# 5 -0.020977 0.002960 -0.022195 0.012993 0.069949 -0.009722
# 6 0.009705 -0.000079 -0.001734 0.000467 -0.009722 0.028905
#
#
# Mechanical properties :
#
#
# Convention : Reuss Voigt Hill
#
# Bulk Modulus (GPa) = 22.57562 49.20203 35.88883
# Shear Modulus (GPa) = 25.84315 43.07045 34.45680
#
# Velocity S-wave (km/s) = 3.24447 4.18852 3.74635
# Velocity P-wave (km/s) = 4.81986 6.59035 5.77338
#
# Compressibility (1/GPa) = 0.04429558
#
# Stress axis : x y z
#
# Youngs Moduli (GPa) = 62.34784 94.17343 51.13741
#
# Poissons Ratio (x) = 0.09358 -0.14343
# Poissons Ratio (y) = 0.06196 0.14164
# Poissons Ratio (z) = -0.17487 0.26084
#
# Static dielectric constant tensor:
#      x y z
#    x 2.255240 0.126670 -0.065120 
#    y 0.126670 2.149030 -0.210680 
#    z -0.065120 -0.210680 2.080720 
# 
# From -- ./inp_files/29865.got.cif
#   From: 2010.05.17/outbox.cif.g08.bks.cpg/sg2_15_cif.got.tgz:29865.got - 2010.06.03 11:33:40.
