data_PCOD9015154
_publ_section_title
;
Structure prediction by ZEFSAII (Michael W. Deem and Ramdas Pophale) SiO2 
 PCOD9015154
Probable space group: P -1
;
_chemical_formula_sum "Si O2"
_cell_formula_units_Z 16
_cell_length_a 11.810265
_cell_length_b 13.053890
_cell_length_c 9.175041
_cell_angle_alpha 130.837923
_cell_angle_beta 47.511942
_cell_angle_gamma 113.972382
_cell_volume 787.573010
_symmetry_space_group_name_H-M "P -1"
_symmetry_group_IT_number 2
_symmetry_cell_setting 'triclinic'
loop_
_space_group_symop_operation_xyz
x,y,z
-x,-y,-z
loop_
_atom_site_type_symbol
_atom_site_label
_atom_site_fract_x
_atom_site_fract_y
_atom_site_fract_z
Si Si1 0.621066 0.611780 0.978232
Si Si2 0.123864 0.750027 0.967161
Si Si3 0.071902 0.011066 0.786313
Si Si4 0.053791 0.473451 0.263146
Si Si5 0.487091 0.702059 0.575236
Si Si6 0.506029 0.385584 0.191203
Si Si7 0.153141 0.737025 0.276605
Si Si8 0.591248 0.881880 0.401105
O O1 0.772101 0.584368 0.915056
O O2 0.637417 0.621217 0.799390
O O3 0.500000 0.500000 0.000000
O O4 0.548415 0.752531 0.226583
O O5 0.302912 0.726232 0.748231
O O6 0.037221 0.632013 0.850143
O O7 0.113812 0.749995 0.151334
O O8 0.049390 0.892504 0.107908
O O9 0.231234 0.084948 0.727891
O O10 0.112148 0.870247 0.533824
O O11 0.000000 0.000000 0.000000
O O12 0.060967 0.615159 0.307004
O O13 0.000000 0.500000 0.500000
O O14 0.530617 0.546520 0.340268
O O15 0.527827 0.688628 0.697721
O O16 0.554952 0.826415 0.543901
O O17 0.664127 0.311230 0.923139
O O18 0.500000 0.000000 0.500000
#
# Coordination Sequence:
#
# PCOD9015154 Si02
#       8
#     2   2   2   2   2   2   2   2
#     4  12  22  41  66  95 134 170 226 284 333 398
#     4  11  24  45  68 101 140 178 230 281 352 412
#     4  12  26  47  67  98 143 184 233 279 347 419
#     4  12  24  40  67 103 132 177 230 283 337 408
#     4  10  22  44  70 101 138 180 223 292 343 413
#     4  10  21  41  72 100 135 173 232 283 349 396
#     4  11  24  44  70  97 139 185 226 288 348 406
#     4  12  25  42  69 100 133 181 230 280 343 411
#
# _framework density 20.315577000000001
#
# number of rings (size 3 to 8) (size 9 to 14) (size 15 to 20)
#    0.000    0.750    3.750    3.750    0.000    0.000 
#    4.500    6.875    0.000    0.000    0.000    0.000 
#    0.000    0.000    0.000    0.000    0.000    0.000 
#
# Total GULP energy -89304.141346 kJ/mol
# GULP energy per Si atom -5581.508834 kJ/mol
# Density = 2.026934 g / cm^3
# Si number density = 20.315577 Si / 1000 Ang^3
#
#
#
# Elastic Constant Matrix: (Units=GPa)
#
#
# Indices 1 2 3 4 5 6 
#
# 1 119.9472 61.0539 39.7168 -10.2271 2.9216 -14.3710
# 2 61.0539 167.1770 76.4796 -8.0372 -1.8245 -21.6045
# 3 39.7168 76.4796 134.6044 7.5392 8.6840 -8.2396
# 4 -10.2271 -8.0372 7.5392 46.9543 -5.1997 1.4712
# 5 2.9216 -1.8245 8.6840 -5.1997 31.3434 6.5978
# 6 -14.3710 -21.6045 -8.2396 1.4712 6.5978 36.1745
#
#
#
# Elastic Compliance Matrix: (Units=1/GPa)
#
#
# Indices 1 2 3 4 5 6 
#
# 1 0.010743 -0.002888 -0.001433 0.001899 -0.000944 0.002312
# 2 -0.002888 0.009700 -0.004684 0.001880 0.001775 0.003179
# 3 -0.001433 -0.004684 0.010931 -0.003276 -0.003697 -0.000070
# 4 0.001899 0.001880 -0.003276 0.023114 0.004819 -0.000688
# 5 -0.000944 0.001775 -0.003697 0.004819 0.035351 -0.006801
# 6 0.002312 0.003179 -0.000070 -0.000688 -0.006801 0.031713
#
#
# Mechanical properties :
#
#
# Convention : Reuss Voigt Hill
#
# Bulk Modulus (GPa) = 74.82968 86.24770 80.53869
# Shear Modulus (GPa) = 34.71768 39.19298 36.95533
#
# Velocity S-wave (km/s) = 4.13839 4.39704 4.26968
# Velocity P-wave (km/s) = 7.72973 8.26588 8.00229
#
# Compressibility (1/GPa) = 0.01336368
#
# Stress axis : x y z
#
# Youngs Moduli (GPa) = 93.07960 103.09206 91.48085
#
# Poissons Ratio (x) = 0.29777 0.13107
# Poissons Ratio (y) = 0.26885 0.42853
# Poissons Ratio (z) = 0.13336 0.48292
#
# Static dielectric constant tensor:
#      x y z
#    x 1.738220 -0.029600 -0.001250 
#    y -0.029600 1.703680 -0.022890 
#    z -0.001250 -0.022890 1.839190 
# 
# From -- ./inp_files/261845.got.cif
#   From: 2010.05.17/outbox.cif.g08.bks.cpg/sg2_131_cif.got.tgz:261845.got - 2010.06.03 11:33:40.
