data_PCOD9015348
_publ_section_title
;
Structure prediction by ZEFSAII (Michael W. Deem and Ramdas Pophale) SiO2 
 PCOD9015348
Probable space group: P -1
;
_chemical_formula_sum "Si O2"
_cell_formula_units_Z 16
_cell_length_a 15.064780
_cell_length_b 13.170505
_cell_length_c 6.853606
_cell_angle_alpha 108.852447
_cell_angle_beta 77.742970
_cell_angle_gamma 148.510914
_cell_volume 666.658370
_symmetry_space_group_name_H-M "P -1"
_symmetry_group_IT_number 2
_symmetry_cell_setting 'triclinic'
loop_
_space_group_symop_operation_xyz
x,y,z
-x,-y,-z
loop_
_atom_site_type_symbol
_atom_site_label
_atom_site_fract_x
_atom_site_fract_y
_atom_site_fract_z
Si Si1 0.154098 0.866990 0.945891
Si Si2 0.220803 0.113721 0.358767
Si Si3 0.366799 0.397797 0.164930
Si Si4 0.793296 0.527558 0.027060
Si Si5 0.533866 0.781270 0.267267
Si Si6 0.238825 0.714117 0.917869
Si Si7 0.852442 0.822293 0.222219
Si Si8 0.556539 0.992257 0.659828
O O1 0.167324 0.750556 0.873733
O O2 0.953619 0.694897 0.905483
O O3 0.201302 0.975064 0.194872
O O4 0.294008 0.052834 0.842625
O O5 0.367890 0.319941 0.296313
O O6 0.223284 0.152699 0.606409
O O7 0.049317 0.003911 0.296930
O O8 0.425521 0.576500 0.287655
O O9 0.500000 0.500000 0.000000
O O10 0.193062 0.215528 0.006864
O O11 0.774619 0.626565 0.193064
O O12 0.612431 0.320359 0.878659
O O13 0.848492 0.488026 0.125160
O O14 0.583969 0.904235 0.501838
O O15 0.284857 0.801754 0.168038
O O16 0.403191 0.845371 0.795387
O O17 0.500000 0.000000 0.500000
#
# Coordination Sequence:
#
# PCOD9015348 Si02
#       8
#     2   2   2   2   2   2   2   2
#     4  11  22  41  64  91 131 159 204 261 299 364
#     4  10  21  42  61  88 123 161 204 250 307 356
#     4  11  22  37  61  92 119 158 205 249 303 369
#     4  10  22  41  64  93 124 163 207 253 305 366
#     4  11  22  42  62  92 125 162 205 254 313 362
#     4  11  22  39  65  93 122 164 207 251 306 367
#     4   9  22  40  63  87 122 161 201 256 303 358
#     4  11  21  40  65  90 124 163 204 254 309 363
#
# _framework density 24.000298000000001
#
# number of rings (size 3 to 8) (size 9 to 14) (size 15 to 20)
#    0.000    1.500    3.750    1.500    1.750    1.500 
#    0.000    3.750    0.000    0.000    0.000    0.000 
#    0.000    0.000    0.000    0.000    0.000    0.000 
#
# Total GULP energy -89221.824576 kJ/mol
# GULP energy per Si atom -5576.364036 kJ/mol
# Density = 2.394567 g / cm^3
# Si number density = 24.000298 Si / 1000 Ang^3
#
#
#
# Elastic Constant Matrix: (Units=GPa)
#
#
# Indices 1 2 3 4 5 6 
#
# 1 53.4091 17.6953 16.0346 -5.8406 -10.7355 -2.7148
# 2 17.6953 85.3568 29.9490 -14.9019 0.5671 7.8508
# 3 16.0346 29.9490 105.1132 7.5965 -16.7583 -9.3013
# 4 -5.8406 -14.9019 7.5965 22.8992 -3.4011 -3.1301
# 5 -10.7355 0.5671 -16.7583 -3.4011 44.8076 7.1976
# 6 -2.7148 7.8508 -9.3013 -3.1301 7.1976 41.9749
#
#
#
# Elastic Compliance Matrix: (Units=1/GPa)
#
#
# Indices 1 2 3 4 5 6 
#
# 1 0.021911 -0.003099 -0.001969 0.005086 0.004758 0.001124
# 2 -0.003099 0.016614 -0.005638 0.011175 -0.001661 -0.003439
# 3 -0.001969 -0.005638 0.012733 -0.007538 0.003371 0.002609
# 4 0.005086 0.011175 -0.007538 0.055133 0.002400 0.000268
# 5 0.004758 -0.001661 0.003371 0.002400 0.025372 -0.002807
# 6 0.001124 -0.003439 0.002609 0.000268 -0.002807 0.025619
#
#
# Mechanical properties :
#
#
# Convention : Reuss Voigt Hill
#
# Bulk Modulus (GPa) = 33.50364 41.24855 37.37610
# Shear Modulus (GPa) = 26.49115 33.94970 30.22043
#
# Velocity S-wave (km/s) = 3.32593 3.76514 3.55233
# Velocity P-wave (km/s) = 5.36088 6.01046 5.69494
#
# Compressibility (1/GPa) = 0.02984750
#
# Stress axis : x y z
#
# Youngs Moduli (GPa) = 45.63970 60.18886 78.53458
#
# Poissons Ratio (x) = 0.18650 0.15464
# Poissons Ratio (y) = 0.14142 0.44276
# Poissons Ratio (z) = 0.08987 0.33933
#
# Static dielectric constant tensor:
#      x y z
#    x 2.158460 -0.072250 -0.019130 
#    y -0.072250 2.017860 0.038600 
#    z -0.019130 0.038600 1.903660 
# 
# From -- ./inp_files/110942.got.cif
#   From: 2010.05.17/outbox.cif.g08.bks.cpg/sg2_56_cif.got.tgz:110942.got - 2010.06.03 11:33:40.
