data_PCOD9015265
_publ_section_title
;
Structure prediction by ZEFSAII (Michael W. Deem and Ramdas Pophale) SiO2 
 PCOD9015265
Probable space group: P -1
;
_chemical_formula_sum "Si O2"
_cell_formula_units_Z 14
_cell_length_a 10.678044
_cell_length_b 11.360377
_cell_length_c 7.563901
_cell_angle_alpha 48.215248
_cell_angle_beta 98.301178
_cell_angle_gamma 71.986231
_cell_volume 565.632024
_symmetry_space_group_name_H-M "P -1"
_symmetry_group_IT_number 2
_symmetry_cell_setting 'triclinic'
loop_
_space_group_symop_operation_xyz
x,y,z
-x,-y,-z
loop_
_atom_site_type_symbol
_atom_site_label
_atom_site_fract_x
_atom_site_fract_y
_atom_site_fract_z
Si Si1 0.006753 0.136808 0.222793
Si Si2 0.172963 0.931235 0.981175
Si Si3 0.268900 0.435785 0.237956
Si Si4 0.630323 0.716020 0.973137
Si Si5 0.404313 0.631201 0.614703
Si Si6 0.845282 0.691825 0.336000
Si Si7 0.688935 0.098073 0.343279
O O1 0.970679 0.080493 0.084755
O O2 0.876084 0.350769 0.013041
O O3 0.174618 0.083744 0.347054
O O4 0.000000 0.000000 0.500000
O O5 0.260646 0.875411 0.864776
O O6 0.130267 0.141324 0.792837
O O7 0.286843 0.781980 0.297658
O O8 0.291577 0.352669 0.131104
O O9 0.774679 0.661729 0.526337
O O10 0.426002 0.419126 0.334657
O O11 0.609663 0.548397 0.205971
O O12 0.724493 0.747573 0.101363
O O13 0.461792 0.896311 0.729406
O O14 0.356513 0.731630 0.698096
O O15 0.000000 0.500000 0.500000
#
# Coordination Sequence:
#
# PCOD9015265 Si02
#       7
#     2   2   2   2   2   2   2
#     4  10  21  41  74 103 136 177 235 294 343 395
#     4  11  25  44  69 103 146 184 233 289 346 424
#     4  11  25  48  74 106 143 183 235 297 345 412
#     4  11  24  47  75 107 141 181 234 291 355 416
#     4  11  23  43  80 109 133 180 240 297 352 402
#     4  12  31  47  68 103 149 194 229 279 360 430
#     4  10  23  41  72 105 136 177 234 293 347 401
#
# _framework density 24.751073999999999
#
# number of rings (size 3 to 8) (size 9 to 14) (size 15 to 20)
#    0.000    1.143    0.000    6.857    8.000    6.286 
#    0.000    2.857    0.000    0.000    0.000    0.000 
#    0.000    0.000    0.000    0.000    0.000    0.000 
#
# Total GULP energy -78526.219238 kJ/mol
# GULP energy per Si atom -5609.015660 kJ/mol
# Density = 2.469474 g / cm^3
# Si number density = 24.751074 Si / 1000 Ang^3
#
#
#
# Elastic Constant Matrix: (Units=GPa)
#
#
# Indices 1 2 3 4 5 6 
#
# 1 139.1119 53.4761 71.8330 -7.6451 -14.8820 -11.9394
# 2 53.4761 99.7843 64.6559 1.5023 5.2203 -12.8174
# 3 71.8330 64.6559 185.5850 3.5421 20.3208 -9.0230
# 4 -7.6451 1.5023 3.5421 44.5226 -6.0308 -2.6473
# 5 -14.8820 5.2203 20.3208 -6.0308 65.6878 3.7722
# 6 -11.9394 -12.8174 -9.0230 -2.6473 3.7722 19.7966
#
#
#
# Elastic Compliance Matrix: (Units=1/GPa)
#
#
# Indices 1 2 3 4 5 6 
#
# 1 0.011187 -0.003731 -0.003411 0.003007 0.004024 0.002412
# 2 -0.003731 0.015056 -0.003332 -0.000711 -0.001430 0.006157
# 3 -0.003411 -0.003332 0.008247 -0.001566 -0.003200 -0.000055
# 4 0.003007 -0.000711 -0.001566 0.023752 0.003219 0.003202
# 5 0.004024 -0.001430 -0.003200 0.003219 0.017701 -0.002900
# 6 0.002412 0.006157 -0.000055 0.003202 -0.002900 0.056910
#
#
# Mechanical properties :
#
#
# Convention : Reuss Voigt Hill
#
# Bulk Modulus (GPa) = 73.84090 89.37903 81.60997
# Shear Modulus (GPa) = 31.58281 41.63581 36.60931
#
# Velocity S-wave (km/s) = 3.57601 4.10589 3.85008
# Velocity P-wave (km/s) = 6.85191 7.65946 7.26691
#
# Compressibility (1/GPa) = 0.01354263
#
# Stress axis : x y z
#
# Youngs Moduli (GPa) = 89.39297 66.41685 121.25783
#
# Poissons Ratio (x) = 0.24780 0.41358
# Poissons Ratio (y) = 0.33353 0.40401
# Poissons Ratio (z) = 0.30490 0.22129
#
# Static dielectric constant tensor:
#      x y z
#    x 2.075050 -0.032010 0.034410 
#    y -0.032010 1.952590 -0.009150 
#    z 0.034410 -0.009150 1.929180 
# 
# From -- ./inp_files/247353.got.cif
#   From: 2010.05.17/outbox.cif.g08.bks.cpg/sg2_124_cif.got.tgz:247353.got - 2010.06.03 11:33:40.
