data_PCOD9015607
_publ_section_title
;
Structure prediction by ZEFSAII (Michael W. Deem and Ramdas Pophale) SiO2 
 PCOD9015607
Probable space group: P -1
;
_chemical_formula_sum "Si O2"
_cell_formula_units_Z 12
_cell_length_a 16.000400
_cell_length_b 11.936467
_cell_length_c 10.204675
_cell_angle_alpha 144.218710
_cell_angle_beta 33.618937
_cell_angle_gamma 151.923787
_cell_volume 485.479818
_symmetry_space_group_name_H-M "P -1"
_symmetry_group_IT_number 2
_symmetry_cell_setting 'triclinic'
loop_
_space_group_symop_operation_xyz
x,y,z
-x,-y,-z
loop_
_atom_site_type_symbol
_atom_site_label
_atom_site_fract_x
_atom_site_fract_y
_atom_site_fract_z
Si Si1 0.035843 0.253600 0.451540
Si Si2 0.412320 0.784402 0.516999
Si Si3 0.207151 0.226635 0.547396
Si Si4 0.041927 0.314590 0.224024
Si Si5 0.409424 0.397475 0.728381
Si Si6 0.034807 0.650793 0.922197
O O1 0.262245 0.505195 0.386212
O O2 0.980446 0.149034 0.277159
O O3 0.936954 0.372679 0.739280
O O4 0.978081 0.059976 0.455522
O O5 0.563023 0.779211 0.396744
O O6 0.253987 0.778806 0.803451
O O7 0.500000 0.000000 0.500000
O O8 0.324366 0.291861 0.593967
O O9 0.371560 0.340829 0.331538
O O10 0.111639 0.359345 0.802577
O O11 0.941091 0.213482 0.117793
O O12 0.000000 0.500000 0.500000
O O13 0.265593 0.434329 0.017415
#
# Coordination Sequence:
#
# PCOD9015607 Si02
#       6
#     2   2   2   2   2   2
#     4   9  21  37  64  87 120 162 198 244 310 358
#     4  10  23  39  58  96 125 152 204 261 299 353
#     4  10  21  42  64  86 121 171 199 243 305 370
#     4   9  18  38  61  87 120 158 202 248 298 359
#     4  10  23  38  63  92 123 157 210 250 296 364
#     4   8  20  38  58  88 125 157 199 246 307 354
#
# _framework density 24.717814000000001
#
# number of rings (size 3 to 8) (size 9 to 14) (size 15 to 20)
#    1.000    1.667    0.000    0.000    4.667    3.333 
#    0.000   15.000    0.000    0.000    0.000    0.000 
#    0.000    0.000    0.000    0.000    0.000    0.000 
#
# Total GULP energy -66918.928266 kJ/mol
# GULP energy per Si atom -5576.577355 kJ/mol
# Density = 2.466156 g / cm^3
# Si number density = 24.717814 Si / 1000 Ang^3
#
#
#
# Elastic Constant Matrix: (Units=GPa)
#
#
# Indices 1 2 3 4 5 6 
#
# 1 98.4312 32.1263 56.2239 -12.9704 -15.1539 -10.5006
# 2 32.1263 124.4185 40.5448 -29.1881 -5.7456 -29.7596
# 3 56.2239 40.5448 164.2176 -25.6366 -32.0199 -14.6107
# 4 -12.9704 -29.1881 -25.6366 34.0671 3.1430 -2.3826
# 5 -15.1539 -5.7456 -32.0199 3.1430 44.9373 -3.4656
# 6 -10.5006 -29.7596 -14.6107 -2.3826 -3.4656 51.2283
#
#
#
# Elastic Compliance Matrix: (Units=1/GPa)
#
#
# Indices 1 2 3 4 5 6 
#
# 1 0.013230 -0.001828 -0.003573 0.000680 0.001695 0.000777
# 2 -0.001828 0.012939 -0.000027 0.010829 0.000855 0.007695
# 3 -0.003573 -0.000027 0.009428 0.005399 0.005329 0.002553
# 4 0.000680 0.010829 0.005399 0.043371 0.003215 0.010205
# 5 0.001695 0.000855 0.005329 0.003215 0.026840 0.004329
# 6 0.000777 0.007695 0.002553 0.010205 0.004329 0.025646
#
#
# Mechanical properties :
#
#
# Convention : Reuss Voigt Hill
#
# Bulk Modulus (GPa) = 40.41667 71.65083 56.03375
# Shear Modulus (GPa) = 33.21012 43.25803 38.23408
#
# Velocity S-wave (km/s) = 3.66945 4.18793 3.93723
# Velocity P-wave (km/s) = 5.86002 7.24123 6.58693
#
# Compressibility (1/GPa) = 0.02474226
#
# Stress axis : x y z
#
# Youngs Moduli (GPa) = 75.58499 77.28736 106.06352
#
# Poissons Ratio (x) = 0.14130 0.37891
# Poissons Ratio (y) = 0.13819 0.00283
# Poissons Ratio (z) = 0.27003 0.00206
#
# Static dielectric constant tensor:
#      x y z
#    x 2.360990 -0.216410 -0.212110 
#    y -0.216410 2.285100 0.190290 
#    z -0.212110 0.190290 2.074230 
# 
# From -- ./inp_files/222435.got.cif
#   From: 2010.05.17/outbox.cif.g08.bks.cpg/sg2_112_cif.got.tgz:222435.got - 2010.06.03 11:33:40.
