data_PCOD9015626
_publ_section_title
;
Structure prediction by ZEFSAII (Michael W. Deem and Ramdas Pophale) SiO2 
 PCOD9015626
Probable space group: P -1
;
_chemical_formula_sum "Si O2"
_cell_formula_units_Z 16
_cell_length_a 8.854053
_cell_length_b 19.221102
_cell_length_c 10.502648
_cell_angle_alpha 131.952205
_cell_angle_beta 55.481891
_cell_angle_gamma 150.313854
_cell_volume 657.844550
_symmetry_space_group_name_H-M "P -1"
_symmetry_group_IT_number 2
_symmetry_cell_setting 'triclinic'
loop_
_space_group_symop_operation_xyz
x,y,z
-x,-y,-z
loop_
_atom_site_type_symbol
_atom_site_label
_atom_site_fract_x
_atom_site_fract_y
_atom_site_fract_z
Si Si1 0.659375 0.806470 0.069597
Si Si2 0.796426 0.052864 0.423444
Si Si3 0.550053 0.884093 0.593518
Si Si4 0.201403 0.872164 0.070831
Si Si5 0.069365 0.268723 0.225178
Si Si6 0.430684 0.640783 0.252731
Si Si7 0.912575 0.347273 0.979968
Si Si8 0.327237 0.391117 0.680797
O O1 0.578743 0.731656 0.157382
O O2 0.790384 0.964381 0.220444
O O3 0.861926 0.813789 0.905844
O O4 0.347237 0.695133 0.006054
O O5 0.105567 0.238531 0.512430
O O6 0.500000 0.000000 0.500000
O O7 0.744384 0.981748 0.495574
O O8 0.433785 0.731457 0.455372
O O9 0.242356 0.822399 0.673665
O O10 0.788778 0.017851 0.748518
O O11 0.227279 0.807798 0.091662
O O12 0.961970 0.733665 0.916485
O O13 0.500000 0.000000 0.000000
O O14 0.361392 0.450331 0.341376
O O15 0.599722 0.631718 0.246841
O O16 0.099815 0.471880 0.156692
O O17 0.142089 0.407247 0.832974
#
# Coordination Sequence:
#
# PCOD9015626 Si02
#       8
#     2   2   2   2   2   2   2   2
#     4  11  24  39  69  97 133 174 223 263 331 395
#     4  11  23  44  68  96 133 174 217 274 326 393
#     4  10  24  42  65  93 139 169 214 273 336 381
#     4  10  21  42  64  89 133 176 209 267 331 387
#     4  11  24  43  64  99 133 173 218 272 330 394
#     4  11  24  39  67 102 129 170 226 271 326 390
#     4  12  21  42  66  99 130 173 217 277 324 390
#     4  12  23  40  71  94 133 167 230 268 325 386
#
# _framework density 24.321854999999999
#
# number of rings (size 3 to 8) (size 9 to 14) (size 15 to 20)
#    0.000    1.000    5.000    1.500    1.750    1.500 
#    0.000    8.125    0.000    0.000    0.000    0.000 
#    0.000    0.000    0.000    0.000    0.000    0.000 
#
# Total GULP energy -89379.561850 kJ/mol
# GULP energy per Si atom -5586.222616 kJ/mol
# Density = 2.426650 g / cm^3
# Si number density = 24.321855 Si / 1000 Ang^3
#
#
#
# Elastic Constant Matrix: (Units=GPa)
#
#
# Indices 1 2 3 4 5 6 
#
# 1 77.3329 30.3823 35.9180 0.7229 -8.8069 20.0173
# 2 30.3823 120.9407 58.6657 29.8271 -5.0710 10.9469
# 3 35.9180 58.6657 118.3480 40.1605 -21.3289 7.4480
# 4 0.7229 29.8271 40.1605 47.7200 9.0801 4.8574
# 5 -8.8069 -5.0710 -21.3289 9.0801 35.6153 -0.5593
# 6 20.0173 10.9469 7.4480 4.8574 -0.5593 32.1209
#
#
#
# Elastic Compliance Matrix: (Units=1/GPa)
#
#
# Indices 1 2 3 4 5 6 
#
# 1 0.020174 -0.002748 -0.007818 0.009664 -0.002726 -0.011332
# 2 -0.002748 0.011793 -0.003508 -0.004288 -0.000021 -0.000846
# 3 -0.007818 -0.003508 0.021627 -0.019271 0.015499 0.004237
# 4 0.009664 -0.004288 -0.019271 0.044475 -0.021213 -0.007188
# 5 -0.002726 -0.000021 0.015499 -0.021213 0.042123 0.002054
# 6 -0.011332 -0.000846 0.004237 -0.007188 0.002054 0.038623
#
#
# Mechanical properties :
#
#
# Convention : Reuss Voigt Hill
#
# Bulk Modulus (GPa) = 39.29685 62.95039 51.12362
# Shear Modulus (GPa) = 23.20774 35.86828 29.53801
#
# Velocity S-wave (km/s) = 3.09235 3.84439 3.48870
# Velocity P-wave (km/s) = 5.37980 6.75605 6.10682
#
# Compressibility (1/GPa) = 0.02544733
#
# Stress axis : x y z
#
# Youngs Moduli (GPa) = 49.56809 84.79329 46.23807
#
# Poissons Ratio (x) = 0.23298 0.36151
# Poissons Ratio (y) = 0.13619 0.16219
# Poissons Ratio (z) = 0.38754 0.29744
#
# Static dielectric constant tensor:
#      x y z
#    x 1.969410 0.015630 0.024420 
#    y 0.015630 1.919700 0.025950 
#    z 0.024420 0.025950 2.032740 
# 
# From -- ./inp_files/405562.got.cif
#   From: 2010.05.17/outbox.cif.g08.bks.cpg/sg2_203_cif.got.tgz:405562.got - 2010.06.03 11:33:40.
