data_PCOD9015800
_publ_section_title
;
Structure prediction by ZEFSAII (Michael W. Deem and Ramdas Pophale) SiO2 
 PCOD9015800
Probable space group: P -1
;
_chemical_formula_sum "Si O2"
_cell_formula_units_Z 16
_cell_length_a 19.014976
_cell_length_b 7.550473
_cell_length_c 7.385712
_cell_angle_alpha 120.645629
_cell_angle_beta 117.459880
_cell_angle_gamma 46.099712
_cell_volume 647.352106
_symmetry_space_group_name_H-M "P -1"
_symmetry_group_IT_number 2
_symmetry_cell_setting 'triclinic'
loop_
_space_group_symop_operation_xyz
x,y,z
-x,-y,-z
loop_
_atom_site_type_symbol
_atom_site_label
_atom_site_fract_x
_atom_site_fract_y
_atom_site_fract_z
Si Si1 0.945295 0.305880 0.431879
Si Si2 0.120733 0.159534 0.303469
Si Si3 0.319355 0.802163 0.201015
Si Si4 0.328530 0.262036 0.388007
Si Si5 0.724865 0.251459 0.273857
Si Si6 0.467949 0.680589 0.801539
Si Si7 0.495654 0.024365 0.768411
Si Si8 0.917640 0.891723 0.174099
O O1 0.876483 0.612582 0.498084
O O2 0.038685 0.179622 0.340741
O O3 0.987324 0.250336 0.658237
O O4 0.896894 0.165318 0.255783
O O5 0.231156 0.893874 0.284904
O O6 0.081257 0.214274 0.075725
O O7 0.433533 0.595038 0.288318
O O8 0.297239 0.074020 0.258594
O O9 0.304315 0.692068 0.944457
O O10 0.256292 0.557277 0.510971
O O11 0.390149 0.215965 0.257166
O O12 0.416418 0.138050 0.574787
O O13 0.632109 0.290753 0.284496
O O14 0.825917 0.962913 0.228316
O O15 0.455677 0.912518 0.797620
O O16 0.493382 0.749758 0.059090
#
# Coordination Sequence:
#
# PCOD9015800 Si02
#       8
#     2   2   2   2   2   2   2   2
#     4  10  21  42  65  90 120 154 197 256 303 364
#     4  10  22  39  65  92 121 155 200 246 307 357
#     4  11  22  38  60  88 122 158 195 240 293 353
#     4  11  21  36  57  82 112 160 203 236 287 343
#     4  11  22  38  60  88 122 158 195 240 293 353
#     4  11  21  39  57  82 126 159 194 244 286 343
#     4  10  22  35  57  80 111 164 207 237 283 338
#     4  10  22  39  65  92 121 155 200 246 307 357
#
# _framework density 24.716073000000002
#
# number of rings (size 3 to 8) (size 9 to 14) (size 15 to 20)
#    0.000    1.500    2.500    3.375    0.000    4.000 
#    0.000    0.000    5.500    0.000    0.000    0.000 
#    0.000    0.000    0.000    0.000    0.000    0.000 
#
# Total GULP energy -89339.317012 kJ/mol
# GULP energy per Si atom -5583.707313 kJ/mol
# Density = 2.465982 g / cm^3
# Si number density = 24.716073 Si / 1000 Ang^3
#
#
#
# Elastic Constant Matrix: (Units=GPa)
#
#
# Indices 1 2 3 4 5 6 
#
# 1 110.1844 26.2851 28.1223 23.7180 -9.2942 -9.6246
# 2 26.2851 28.2809 22.7571 3.6844 -1.3265 -2.9554
# 3 28.1223 22.7571 102.1584 26.8571 6.2920 -3.8146
# 4 23.7180 3.6844 26.8571 38.1825 -1.9483 1.9115
# 5 -9.2942 -1.3265 6.2920 -1.9483 35.4885 8.5632
# 6 -9.6246 -2.9554 -3.8146 1.9115 8.5632 26.8984
#
#
#
# Elastic Compliance Matrix: (Units=1/GPa)
#
#
# Indices 1 2 3 4 5 6 
#
# 1 0.014032 -0.012397 0.001171 -0.008458 0.001594 0.003918
# 2 -0.012397 0.054943 -0.011864 0.010911 0.001859 -0.001449
# 3 0.001171 -0.011864 0.015326 -0.010751 -0.004267 0.003411
# 4 -0.008458 0.010911 -0.010751 0.038525 0.003990 -0.007360
# 5 0.001594 0.001859 -0.004267 0.003990 0.032137 -0.010345
# 6 0.003918 -0.001449 0.003411 -0.007360 -0.010345 0.042720
#
#
# Mechanical properties :
#
#
# Convention : Reuss Voigt Hill
#
# Bulk Modulus (GPa) = 26.23303 43.88360 35.05832
# Shear Modulus (GPa) = 19.48788 31.01115 25.24952
#
# Velocity S-wave (km/s) = 2.81102 3.54601 3.19969
# Velocity P-wave (km/s) = 4.60136 5.87871 5.27882
#
# Compressibility (1/GPa) = 0.03811988
#
# Stress axis : x y z
#
# Youngs Moduli (GPa) = 71.26680 18.20075 65.24951
#
# Poissons Ratio (x) = 0.22564 -0.07639
# Poissons Ratio (y) = 0.88353 0.77409
# Poissons Ratio (z) = -0.08344 0.21593
#
# Static dielectric constant tensor:
#      x y z
#    x 2.005530 -0.025990 -0.108120 
#    y -0.025990 2.020190 -0.009390 
#    z -0.108120 -0.009390 2.097150 
# 
# From -- ./inp_files/343045.got.cif
#   From: 2010.05.17/outbox.cif.g08.bks.cpg/sg2_172_cif.got.tgz:343045.got - 2010.06.03 11:33:40.
