data_PCOD9015365
_publ_section_title
;
Structure prediction by ZEFSAII (Michael W. Deem and Ramdas Pophale) SiO2 
 PCOD9015365
Probable space group: P -1
;
_chemical_formula_sum "Si O2"
_cell_formula_units_Z 14
_cell_length_a 8.325720
_cell_length_b 14.013106
_cell_length_c 11.535762
_cell_angle_alpha 127.325280
_cell_angle_beta 138.820794
_cell_angle_gamma 51.488728
_cell_volume 668.173259
_symmetry_space_group_name_H-M "P -1"
_symmetry_group_IT_number 2
_symmetry_cell_setting 'triclinic'
loop_
_space_group_symop_operation_xyz
x,y,z
-x,-y,-z
loop_
_atom_site_type_symbol
_atom_site_label
_atom_site_fract_x
_atom_site_fract_y
_atom_site_fract_z
Si Si1 0.262982 0.193498 0.550803
Si Si2 0.517044 0.578859 0.454315
Si Si3 0.611400 0.537879 0.916663
Si Si4 0.936342 0.705274 0.248880
Si Si5 0.279196 0.710406 0.066132
Si Si6 0.735679 0.978183 0.375550
Si Si7 0.230314 0.210635 0.275747
O O1 0.088567 0.296411 0.624380
O O2 0.177100 0.205272 0.380559
O O3 0.268979 0.063700 0.522781
O O4 0.539720 0.216084 0.726300
O O5 0.500000 0.500000 0.500000
O O6 0.551197 0.485005 0.295765
O O7 0.715458 0.657062 0.621906
O O8 0.230854 0.680202 0.359612
O O9 0.428325 0.632069 0.978742
O O10 0.826450 0.603516 0.057173
O O11 0.738416 0.400109 0.939886
O O12 0.752922 0.846328 0.224025
O O13 0.005222 0.795939 0.935173
O O14 0.487534 0.095651 0.303448
O O15 0.000000 0.000000 0.500000
#
# Coordination Sequence:
#
# PCOD9015365 Si02
#       7
#     2   2   2   2   2   2   2
#     4   9  21  41  63  92 128 167 205 265 314 365
#     4  12  24  37  64  96 127 171 211 256 322 380
#     4  10  21  42  61  90 137 164 205 272 311 374
#     4   9  21  40  62  86 128 169 206 258 327 357
#     4  10  22  39  65  98 127 164 214 262 318 370
#     4  10  21  42  66  89 129 167 212 264 320 373
#     4  12  22  39  69  95 123 172 215 259 313 386
#
# _framework density 20.952648
#
# number of rings (size 3 to 8) (size 9 to 14) (size 15 to 20)
#    0.857    0.857    2.857    1.714    2.000    1.143 
#    0.000    0.000    0.000    3.429    0.000    0.000 
#    0.000    0.000    0.000    0.000    0.000    0.000 
#
# Total GULP energy -78115.861540 kJ/mol
# GULP energy per Si atom -5579.704396 kJ/mol
# Density = 2.090496 g / cm^3
# Si number density = 20.952648 Si / 1000 Ang^3
#
#
#
# Elastic Constant Matrix: (Units=GPa)
#
#
# Indices 1 2 3 4 5 6 
#
# 1 44.1911 25.7166 12.8485 4.1686 10.1602 6.9221
# 2 25.7166 76.1654 15.3572 0.5878 -6.6535 8.8021
# 3 12.8485 15.3572 46.2913 2.4344 3.2431 7.5129
# 4 4.1686 0.5878 2.4344 27.2160 -0.8577 3.0188
# 5 10.1602 -6.6535 3.2431 -0.8577 26.1612 5.2077
# 6 6.9221 8.8021 7.5129 3.0188 5.2077 35.8931
#
#
#
# Elastic Compliance Matrix: (Units=1/GPa)
#
#
# Indices 1 2 3 4 5 6 
#
# 1 0.035477 -0.012530 -0.004244 -0.005304 -0.016608 -0.000025
# 2 -0.012530 0.019359 -0.003286 0.002523 0.010966 -0.003446
# 3 -0.004244 -0.003286 0.024563 -0.001175 -0.001638 -0.003181
# 4 -0.005304 0.002523 -0.001175 0.038115 0.004743 -0.003244
# 5 -0.016608 0.010966 -0.001638 0.004743 0.049150 -0.006674
# 6 -0.000025 -0.003446 -0.003181 -0.003244 -0.006674 0.030617
#
#
# Mechanical properties :
#
#
# Convention : Reuss Voigt Hill
#
# Bulk Modulus (GPa) = 25.45823 30.49918 27.97870
# Shear Modulus (GPa) = 19.96043 25.36909 22.66476
#
# Velocity S-wave (km/s) = 3.08984 3.48340 3.29251
# Velocity P-wave (km/s) = 4.99062 5.54677 5.27603
#
# Compressibility (1/GPa) = 0.03928003
#
# Stress axis : x y z
#
# Youngs Moduli (GPa) = 28.18720 51.65478 40.71134
#
# Poissons Ratio (x) = 0.64723 0.17276
# Poissons Ratio (y) = 0.35318 0.13379
# Poissons Ratio (z) = 0.11962 0.16975
#
# Static dielectric constant tensor:
#      x y z
#    x 1.791100 -0.005710 -0.010730 
#    y -0.005710 1.782240 0.013450 
#    z -0.010730 0.013450 1.727040 
# 
# From -- ./inp_files/399689.got.cif
#   From: 2010.05.17/outbox.cif.g08.bks.cpg/sg2_200_cif.got.tgz:399689.got - 2010.06.03 11:33:40.
