data_PCOD9015848
_publ_section_title
;
Structure prediction by ZEFSAII (Michael W. Deem and Ramdas Pophale) SiO2 
 PCOD9015848
Probable space group: P -1
;
_chemical_formula_sum "Si O2"
_cell_formula_units_Z 14
_cell_length_a 8.393365
_cell_length_b 12.895380
_cell_length_c 12.407363
_cell_angle_alpha 33.848902
_cell_angle_beta 95.941146
_cell_angle_gamma 117.052942
_cell_volume 555.130449
_symmetry_space_group_name_H-M "P -1"
_symmetry_group_IT_number 2
_symmetry_cell_setting 'triclinic'
loop_
_space_group_symop_operation_xyz
x,y,z
-x,-y,-z
loop_
_atom_site_type_symbol
_atom_site_label
_atom_site_fract_x
_atom_site_fract_y
_atom_site_fract_z
Si Si1 0.904492 0.374930 0.217115
Si Si2 0.681606 0.580400 0.094641
Si Si3 0.296904 0.750216 0.045667
Si Si4 0.759016 0.862229 0.635059
Si Si5 0.356960 0.197553 0.682449
Si Si6 0.204044 0.462763 0.484019
Si Si7 0.246078 0.053790 0.050958
O O1 0.792119 0.466526 0.183135
O O2 0.119422 0.493137 0.195756
O O3 0.751094 0.078982 0.458343
O O4 0.000000 0.500000 0.000000
O O5 0.425511 0.347060 0.279436
O O6 0.719600 0.733302 0.858205
O O7 0.775161 0.769909 0.036793
O O8 0.239677 0.672640 0.233832
O O9 0.541887 0.877234 0.943585
O O10 0.274266 0.946922 0.838109
O O11 0.000000 0.000000 0.500000
O O12 0.276243 0.338341 0.524616
O O13 0.615484 0.389278 0.538578
O O14 0.286194 0.124380 0.866910
O O15 0.964214 0.233143 0.698812
#
# Coordination Sequence:
#
# PCOD9015848 Si02
#       7
#     2   2   2   2   2   2   2
#     4  12  25  46  68  98 134 177 226 281 331 397
#     4  11  25  43  69  99 132 176 224 273 338 396
#     4  11  25  43  65  96 136 174 222 272 329 389
#     4  11  23  46  70  94 135 175 222 281 332 393
#     4  10  23  43  66  97 134 170 221 269 324 404
#     4  10  21  42  65  93 131 173 216 264 333 384
#     4  11  22  41  69  99 134 170 220 272 328 399
#
# _framework density 25.219297000000001
#
# number of rings (size 3 to 8) (size 9 to 14) (size 15 to 20)
#    0.000    1.143    1.429    5.143    2.000    3.429 
#   10.286    1.429    0.000    0.000    0.000    0.000 
#    0.000    0.000    0.000    0.000    0.000    0.000 
#
# Total GULP energy -78468.779486 kJ/mol
# GULP energy per Si atom -5604.912820 kJ/mol
# Density = 2.516190 g / cm^3
# Si number density = 25.219297 Si / 1000 Ang^3
#
#
#
# Elastic Constant Matrix: (Units=GPa)
#
#
# Indices 1 2 3 4 5 6 
#
# 1 121.2167 20.9862 44.9661 -12.1080 -7.8070 -5.1743
# 2 20.9862 40.9697 7.4630 -12.1159 -12.8250 2.8282
# 3 44.9661 7.4630 140.9913 -28.1275 -4.2661 1.7492
# 4 -12.1080 -12.1159 -28.1275 36.1712 8.2935 2.8315
# 5 -7.8070 -12.8250 -4.2661 8.2935 60.9318 -14.4250
# 6 -5.1743 2.8282 1.7492 2.8315 -14.4250 37.7813
#
#
#
# Elastic Compliance Matrix: (Units=1/GPa)
#
#
# Indices 1 2 3 4 5 6 
#
# 1 0.010357 -0.004956 -0.003263 -0.001083 0.000749 0.002308
# 2 -0.004956 0.030835 0.001982 0.009420 0.004195 -0.002183
# 3 -0.003263 0.001982 0.009477 0.007264 -0.000769 -0.001872
# 4 -0.001083 0.009420 0.007264 0.037453 -0.004058 -0.005546
# 5 0.000749 0.004195 -0.000769 -0.004058 0.019700 0.007650
# 6 0.002308 -0.002183 -0.001872 -0.005546 0.007650 0.030371
#
#
# Mechanical properties :
#
#
# Convention : Reuss Voigt Hill
#
# Bulk Modulus (GPa) = 26.18083 50.00092 38.09087
# Shear Modulus (GPa) = 30.60000 42.29434 36.44717
#
# Velocity S-wave (km/s) = 3.48711 4.09964 3.80572
# Velocity P-wave (km/s) = 5.15917 6.50222 5.86924
#
# Compressibility (1/GPa) = 0.03819589
#
# Stress axis : x y z
#
# Youngs Moduli (GPa) = 96.55713 32.43028 105.51322
#
# Poissons Ratio (x) = 0.16071 0.34425
# Poissons Ratio (y) = 0.47851 -0.20908
# Poissons Ratio (z) = 0.31503 -0.06426
#
# Static dielectric constant tensor:
#      x y z
#    x 2.017560 -0.016830 0.010680 
#    y -0.016830 1.984750 -0.038250 
#    z 0.010680 -0.038250 1.910520 
# 
# From -- ./inp_files/312695.got.cif
#   From: 2010.05.17/outbox.cif.g08.bks.cpg/sg2_157_cif.got.tgz:312695.got - 2010.06.03 11:33:40.
