data_PCOD9015674
_publ_section_title
;
Structure prediction by ZEFSAII (Michael W. Deem and Ramdas Pophale) SiO2 
 PCOD9015674
Probable space group: P -1
;
_chemical_formula_sum "Si O2"
_cell_formula_units_Z 14
_cell_length_a 18.443531
_cell_length_b 11.363542
_cell_length_c 11.242591
_cell_angle_alpha 133.708829
_cell_angle_beta 144.727495
_cell_angle_gamma 26.174403
_cell_volume 592.097072
_symmetry_space_group_name_H-M "P -1"
_symmetry_group_IT_number 2
_symmetry_cell_setting 'triclinic'
loop_
_space_group_symop_operation_xyz
x,y,z
-x,-y,-z
loop_
_atom_site_type_symbol
_atom_site_label
_atom_site_fract_x
_atom_site_fract_y
_atom_site_fract_z
Si Si1 0.152523 0.541540 0.315651
Si Si2 0.951710 0.154948 0.389124
Si Si3 0.336507 0.336729 0.787834
Si Si4 0.095640 0.716749 0.949913
Si Si5 0.279634 0.125237 0.381628
Si Si6 0.269882 0.951119 0.016843
Si Si7 0.675925 0.415633 0.605841
O O1 0.080095 0.758042 0.459144
O O2 0.224766 0.323776 0.348278
O O3 0.335989 0.431325 0.403828
O O4 0.941342 0.735229 0.089895
O O5 0.871365 0.385266 0.362531
O O6 0.183622 0.867182 0.465336
O O7 0.804719 0.156998 0.157178
O O8 0.370300 0.127834 0.620289
O O9 0.546497 0.212181 0.944896
O O10 0.272758 0.456597 0.919107
O O11 0.192921 0.630870 0.149677
O O12 0.910593 0.778575 0.749602
O O13 0.000000 0.000000 0.000000
O O14 0.356887 0.914965 0.237152
O O15 0.500000 0.500000 0.500000
#
# Coordination Sequence:
#
# PCOD9015674 Si02
#       7
#     2   2   2   2   2   2   2
#     4  10  23  42  68  93 129 167 213 270 316 370
#     4  10  21  42  64  93 130 169 212 266 312 377
#     4  11  24  39  62  99 127 172 210 263 318 378
#     4  12  24  45  66  91 133 173 207 265 324 381
#     4  11  23  45  65  89 135 170 214 263 318 376
#     4  11  20  39  65  95 126 166 220 256 316 377
#     4  11  23  41  67  98 125 163 217 262 321 373
#
# _framework density 23.644773000000001
#
# number of rings (size 3 to 8) (size 9 to 14) (size 15 to 20)
#    0.000    1.143    4.286    3.429    4.000    0.000 
#    5.143    0.714    0.000    0.000    0.000    0.000 
#    0.000    0.000    0.000    0.000    0.000    0.000 
#
# Total GULP energy -78020.212322 kJ/mol
# GULP energy per Si atom -5572.872309 kJ/mol
# Density = 2.359096 g / cm^3
# Si number density = 23.644773 Si / 1000 Ang^3
#
#
#
# Elastic Constant Matrix: (Units=GPa)
#
#
# Indices 1 2 3 4 5 6 
#
# 1 131.1949 39.3223 28.5588 10.3445 7.3119 -42.0927
# 2 39.3223 75.5539 32.1481 25.0304 10.2204 -21.3587
# 3 28.5588 32.1481 78.2399 23.5226 -11.1896 -9.4071
# 4 10.3445 25.0304 23.5226 31.0307 -13.3637 -4.8824
# 5 7.3119 10.2204 -11.1896 -13.3637 57.5490 -6.0511
# 6 -42.0927 -21.3587 -9.4071 -4.8824 -6.0511 47.8278
#
#
#
# Elastic Compliance Matrix: (Units=1/GPa)
#
#
# Indices 1 2 3 4 5 6 
#
# 1 0.011748 -0.003257 -0.002509 0.001943 -0.000048 0.008583
# 2 -0.003257 0.025800 -0.004228 -0.019694 -0.009073 0.004665
# 3 -0.002509 -0.004228 0.018278 -0.008706 0.002489 -0.001075
# 4 0.001943 -0.019694 -0.008706 0.060675 0.015581 -0.000633
# 5 -0.000048 -0.009073 0.002489 0.015581 0.023193 0.000920
# 6 0.008583 0.004665 -0.001075 -0.000633 0.000920 0.030386
#
#
# Mechanical properties :
#
#
# Convention : Reuss Voigt Hill
#
# Bulk Modulus (GPa) = 27.90257 53.89412 40.89835
# Shear Modulus (GPa) = 24.75060 39.61214 32.18137
#
# Velocity S-wave (km/s) = 3.23889 4.09749 3.69322
# Velocity P-wave (km/s) = 5.08071 6.72522 5.95996
#
# Compressibility (1/GPa) = 0.03583899
#
# Stress axis : x y z
#
# Youngs Moduli (GPa) = 85.11998 38.75900 54.70929
#
# Poissons Ratio (x) = 0.12625 0.13725
# Poissons Ratio (y) = 0.27727 0.23130
# Poissons Ratio (z) = 0.21354 0.16387
#
# Static dielectric constant tensor:
#      x y z
#    x 2.918140 0.303460 0.396390 
#    y 0.303460 2.121430 0.134430 
#    z 0.396390 0.134430 2.074620 
# 
# From -- ./inp_files/155604.got.cif
#   From: 2010.05.17/outbox.cif.g08.bks.cpg/sg2_78_cif.got.tgz:155604.got - 2010.06.03 11:33:40.
