data_PCOD9015673
_publ_section_title
;
Structure prediction by ZEFSAII (Michael W. Deem and Ramdas Pophale) SiO2 
 PCOD9015673
Probable space group: P -1
;
_chemical_formula_sum "Si O2"
_cell_formula_units_Z 16
_cell_length_a 7.696501
_cell_length_b 16.335595
_cell_length_c 7.108750
_cell_angle_alpha 105.228422
_cell_angle_beta 107.289639
_cell_angle_gamma 125.081574
_cell_volume 581.022456
_symmetry_space_group_name_H-M "P -1"
_symmetry_group_IT_number 2
_symmetry_cell_setting 'triclinic'
loop_
_space_group_symop_operation_xyz
x,y,z
-x,-y,-z
loop_
_atom_site_type_symbol
_atom_site_label
_atom_site_fract_x
_atom_site_fract_y
_atom_site_fract_z
Si Si1 0.768051 0.474701 0.815281
Si Si2 0.211280 0.287440 0.550442
Si Si3 0.899289 0.341517 0.526551
Si Si4 0.658545 0.391995 0.288191
Si Si5 0.958699 0.019871 0.286410
Si Si6 0.444692 0.098439 0.380406
Si Si7 0.152976 0.310357 0.136407
Si Si8 0.548650 0.081899 0.833316
O O1 0.497155 0.369203 0.768503
O O2 0.729377 0.433431 0.558848
O O3 0.825013 0.593300 0.902551
O O4 0.000000 0.500000 0.000000
O O5 0.255545 0.352496 0.407766
O O6 0.017780 0.288283 0.584363
O O7 0.080861 0.154179 0.396433
O O8 0.774168 0.334762 0.282610
O O9 0.629732 0.239501 0.490370
O O10 0.163118 0.484550 0.696115
O O11 0.355129 0.308932 0.114550
O O12 0.142843 0.022034 0.220651
O O13 0.651442 0.929489 0.113607
O O14 0.000000 0.000000 0.500000
O O15 0.485183 0.086546 0.602084
O O16 0.513822 0.038674 0.244745
O O17 0.856884 0.189464 0.003160
#
# Coordination Sequence:
#
# PCOD9015673 Si02
#       8
#     2   2   2   2   2   2   2   2
#     4  11  23  39  65  97 129 170 219 266 329 393
#     4  11  21  43  66  92 132 177 208 270 330 385
#     4  11  20  40  68  89 130 174 217 262 336 388
#     4  10  22  42  63  94 132 171 210 273 327 389
#     4  10  22  41  67  93 130 172 216 270 329 381
#     4  10  21  42  64  93 129 170 213 275 327 380
#     4  11  22  42  64  96 129 171 220 266 325 395
#     4  10  23  40  65  94 128 169 221 269 322 387
#
# _framework density 27.537662000000001
#
# number of rings (size 3 to 8) (size 9 to 14) (size 15 to 20)
#    0.000    1.500    3.750    2.250    5.250    0.500 
#    2.250    5.000    0.000    0.000    0.000    0.000 
#    0.000    0.000    0.000    0.000    0.000    0.000 
#
# Total GULP energy -89412.417986 kJ/mol
# GULP energy per Si atom -5588.276124 kJ/mol
# Density = 2.747499 g / cm^3
# Si number density = 27.537662 Si / 1000 Ang^3
#
#
#
# Elastic Constant Matrix: (Units=GPa)
#
#
# Indices 1 2 3 4 5 6 
#
# 1 155.6552 38.9084 42.3399 30.4873 55.8670 16.6101
# 2 38.9084 130.0647 35.8466 24.3046 26.3909 -9.0517
# 3 42.3399 35.8466 108.7294 15.8817 48.2980 8.4198
# 4 30.4873 24.3046 15.8817 54.4069 17.0982 17.0165
# 5 55.8670 26.3909 48.2980 17.0982 62.2716 6.1188
# 6 16.6101 -9.0517 8.4198 17.0165 6.1188 54.9541
#
#
#
# Elastic Compliance Matrix: (Units=1/GPa)
#
#
# Indices 1 2 3 4 5 6 
#
# 1 0.010156 -0.001242 0.000580 -0.002151 -0.008270 -0.001776
# 2 -0.001242 0.009776 -0.002167 -0.003978 -0.000612 0.003618
# 3 0.000580 -0.002167 0.014581 0.000309 -0.010833 -0.001656
# 4 -0.002151 -0.003978 0.000309 0.024376 -0.002598 -0.007311
# 5 -0.008270 -0.000612 -0.010833 -0.002598 0.032733 0.001219
# 6 -0.001776 0.003618 -0.001656 -0.007311 0.001219 0.021712
#
#
# Mechanical properties :
#
#
# Convention : Reuss Voigt Hill
#
# Bulk Modulus (GPa) = 34.65490 69.84879 52.25185
# Shear Modulus (GPa) = 38.87725 52.81681 45.84703
#
# Velocity S-wave (km/s) = 3.76145 4.38423 4.08473
# Velocity P-wave (km/s) = 5.61039 7.14483 6.42359
#
# Compressibility (1/GPa) = 0.02885595
#
# Stress axis : x y z
#
# Youngs Moduli (GPa) = 98.46207 102.28700 68.58295
#
# Poissons Ratio (x) = 0.12700 -0.03976
# Poissons Ratio (y) = 0.12225 0.14862
# Poissons Ratio (z) = -0.05708 0.22165
#
# Static dielectric constant tensor:
#      x y z
#    x 2.634480 -0.128490 0.015620 
#    y -0.128490 2.230550 -0.166430 
#    z 0.015620 -0.166430 2.379220 
# 
# From -- ./inp_files/217716.got.cif
#   From: 2010.05.17/outbox.cif.g08.bks.cpg/sg2_109_cif.got.tgz:217716.got - 2010.06.03 11:33:40.
