data_PCOD9015842
_publ_section_title
;
Structure prediction by ZEFSAII (Michael W. Deem and Ramdas Pophale) SiO2 
 PCOD9015842
Probable space group: P -1
;
_chemical_formula_sum "Si O2"
_cell_formula_units_Z 16
_cell_length_a 14.115875
_cell_length_b 12.090727
_cell_length_c 19.705542
_cell_angle_alpha 150.737691
_cell_angle_beta 37.514089
_cell_angle_gamma 124.414441
_cell_volume 905.703959
_symmetry_space_group_name_H-M "P -1"
_symmetry_group_IT_number 2
_symmetry_cell_setting 'triclinic'
loop_
_space_group_symop_operation_xyz
x,y,z
-x,-y,-z
loop_
_atom_site_type_symbol
_atom_site_label
_atom_site_fract_x
_atom_site_fract_y
_atom_site_fract_z
Si Si1 0.609497 0.261295 0.111479
Si Si2 0.057255 0.919350 0.531140
Si Si3 0.340690 0.806275 0.515122
Si Si4 0.715914 0.245875 0.812031
Si Si5 0.875500 0.396562 0.548689
Si Si6 0.908927 0.342869 0.937990
Si Si7 0.625779 0.725783 0.204220
Si Si8 0.517059 0.875225 0.027067
O O1 0.466518 0.546936 0.341098
O O2 0.596930 0.137112 0.979555
O O3 0.801660 0.244231 0.995976
O O4 0.559698 0.110789 0.116401
O O5 0.220940 0.800336 0.325757
O O6 0.051118 0.722090 0.483461
O O7 0.886743 0.064220 0.660284
O O8 0.051446 0.134636 0.699816
O O9 0.171218 0.782049 0.571599
O O10 0.440493 0.818876 0.395743
O O11 0.325747 0.038342 0.695039
O O12 0.649298 0.539712 0.027890
O O13 0.576057 0.151377 0.866388
O O14 0.692758 0.628542 0.788654
O O15 0.000000 0.500000 0.500000
O O16 0.757375 0.528423 0.075895
O O17 0.000000 0.500000 0.000000
#
# Coordination Sequence:
#
# PCOD9015842 Si02
#       8
#     2   2   2   2   2   2   2   2
#     4   9  17  30  52  76 101 137 178 207 262 316
#     4  10  21  33  51  82 104 134 181 210 264 312
#     4   9  17  30  50  77 102 133 171 220 258 303
#     4  10  19  36  54  73 107 144 171 212 259 326
#     4  11  21  31  50  84 108 132 172 228 263 300
#     4  10  17  30  50  77 106 135 166 224 264 301
#     4   9  16  31  49  73 102 132 178 207 259 309
#     4  10  18  33  52  73 107 140 170 217 264 307
#
# _framework density 17.665816
#
# number of rings (size 3 to 8) (size 9 to 14) (size 15 to 20)
#    0.000    2.250    5.000    1.500    3.500    0.500 
#    0.000    0.000    0.000    1.500    3.250    0.000 
#    0.000    0.000    0.000    0.000    0.000    0.000 
#
# Total GULP energy -89075.391956 kJ/mol
# GULP energy per Si atom -5567.211997 kJ/mol
# Density = 1.762561 g / cm^3
# Si number density = 17.665816 Si / 1000 Ang^3
#
#
#
# Elastic Constant Matrix: (Units=GPa)
#
#
# Indices 1 2 3 4 5 6 
#
# 1 39.8427 46.1386 26.7495 -8.1057 6.6078 9.0130
# 2 46.1386 136.8647 50.1790 -4.4841 26.5318 14.6262
# 3 26.7495 50.1790 80.2410 -5.1905 17.4406 3.7680
# 4 -8.1057 -4.4841 -5.1905 31.9289 -1.4291 -3.8464
# 5 6.6078 26.5318 17.4406 -1.4291 19.8706 -0.9131
# 6 9.0130 14.6262 3.7680 -3.8464 -0.9131 28.8754
#
#
#
# Elastic Compliance Matrix: (Units=1/GPa)
#
#
# Indices 1 2 3 4 5 6 
#
# 1 0.049142 -0.014689 -0.008869 0.008857 0.011454 -0.005199
# 2 -0.014689 0.016374 -0.001916 -0.002968 -0.015710 -0.004351
# 3 -0.008869 -0.001916 0.019001 0.000183 -0.011114 0.000932
# 4 0.008857 -0.002968 0.000183 0.033734 0.003436 0.003317
# 5 0.011454 -0.015710 -0.011114 0.003436 0.077897 0.008754
# 6 -0.005199 -0.004351 0.000932 0.003317 0.008754 0.039055
#
#
# Mechanical properties :
#
#
# Convention : Reuss Voigt Hill
#
# Bulk Modulus (GPa) = 29.78922 55.89805 42.84363
# Shear Modulus (GPa) = 16.81574 25.06040 20.93807
#
# Velocity S-wave (km/s) = 3.08860 3.77049 3.44645
# Velocity P-wave (km/s) = 5.44229 7.11801 6.33580
#
# Compressibility (1/GPa) = 0.03356919
#
# Stress axis : x y z
#
# Youngs Moduli (GPa) = 20.34930 61.07241 52.62992
#
# Poissons Ratio (x) = 0.89712 0.46675
# Poissons Ratio (y) = 0.29892 0.10082
# Poissons Ratio (z) = 0.18047 0.11699
#
# Static dielectric constant tensor:
#      x y z
#    x 1.712230 0.066070 -0.003510 
#    y 0.066070 1.671770 0.029620 
#    z -0.003510 0.029620 1.644570 
# 
# From -- ./inp_files/254617.got.cif
#   From: 2010.05.17/outbox.cif.g08.bks.cpg/sg2_128_cif.got.tgz:254617.got - 2010.06.03 11:33:40.
