data_PCOD9015131
_publ_section_title
;
Structure prediction by ZEFSAII (Michael W. Deem and Ramdas Pophale) SiO2 
 PCOD9015131
Probable space group: P -1
;
_chemical_formula_sum "Si O2"
_cell_formula_units_Z 16
_cell_length_a 8.839557
_cell_length_b 15.022997
_cell_length_c 9.948779
_cell_angle_alpha 86.513834
_cell_angle_beta 151.767302
_cell_angle_gamma 90.664045
_cell_volume 621.354240
_symmetry_space_group_name_H-M "P -1"
_symmetry_group_IT_number 2
_symmetry_cell_setting 'triclinic'
loop_
_space_group_symop_operation_xyz
x,y,z
-x,-y,-z
loop_
_atom_site_type_symbol
_atom_site_label
_atom_site_fract_x
_atom_site_fract_y
_atom_site_fract_z
Si Si1 0.623510 0.148595 0.018990
Si Si2 0.976529 0.112329 0.568891
Si Si3 0.232985 0.330861 0.343229
Si Si4 0.302386 0.546466 0.176025
Si Si5 0.582798 0.426004 0.185872
Si Si6 0.831302 0.697501 0.262552
Si Si7 0.806800 0.209279 0.889939
Si Si8 0.818071 0.048280 0.730582
O O1 0.843410 0.150740 0.060878
O O2 0.316004 0.094663 0.760116
O O3 0.485318 0.252786 0.921200
O O4 0.735120 0.117248 0.256425
O O5 0.979714 0.214440 0.618987
O O6 0.933263 0.049209 0.666665
O O7 0.501024 0.402750 0.562454
O O8 0.439078 0.256469 0.600419
O O9 0.888268 0.387175 0.090280
O O10 0.098324 0.273874 0.118352
O O11 0.542871 0.477430 0.290701
O O12 0.000000 0.500000 0.000000
O O13 0.933929 0.372106 0.462302
O O14 0.500000 0.500000 0.000000
O O15 0.310439 0.356521 0.964784
O O16 0.807046 0.150597 0.763081
O O17 0.500000 0.000000 0.500000
O O18 0.000000 0.000000 0.000000
#
# Coordination Sequence:
#
# PCOD9015131 Si02
#       8
#     2   2   2   2   2   2   2   2
#     4  10  21  41  71  97 133 173 245 277 315 409
#     4  10  22  43  69  96 137 183 223 283 339 405
#     4  10  24  41  68  91 132 177 234 285 332 407
#     4  11  25  42  59  90 136 178 236 290 343 396
#     4  12  25  36  61  95 134 181 224 290 359 376
#     4  10  22  40  64  90 137 177 240 277 333 407
#     4  11  24  43  74 101 128 180 232 270 347 416
#     4  12  27  48  72 107 145 170 216 290 357 421
#
# _framework density 25.750205999999999
#
# number of rings (size 3 to 8) (size 9 to 14) (size 15 to 20)
#    0.750    0.500    1.250    3.750    5.250    3.000 
#    0.000    3.750    0.000    0.000    0.000    0.000 
#    0.000    0.000    0.000    0.000    0.000    0.000 
#
# Total GULP energy -89141.774317 kJ/mol
# GULP energy per Si atom -5571.360895 kJ/mol
# Density = 2.569160 g / cm^3
# Si number density = 25.750206 Si / 1000 Ang^3
#
#
#
# Elastic Constant Matrix: (Units=GPa)
#
#
# Indices 1 2 3 4 5 6 
#
# 1 82.3891 26.5514 11.0434 6.6526 -24.4413 11.6305
# 2 26.5514 98.7959 41.9623 18.9357 -7.2575 0.1839
# 3 11.0434 41.9623 175.8893 8.7283 0.6715 2.6723
# 4 6.6526 18.9357 8.7283 52.3547 8.4328 -3.0036
# 5 -24.4413 -7.2575 0.6715 8.4328 26.7481 0.8709
# 6 11.6305 0.1839 2.6723 -3.0036 0.8709 22.7546
#
#
#
# Elastic Compliance Matrix: (Units=1/GPa)
#
#
# Indices 1 2 3 4 5 6 
#
# 1 0.021692 -0.003041 -0.000240 -0.005759 0.021228 -0.012607
# 2 -0.003041 0.013052 -0.002742 -0.004150 0.002103 0.001143
# 3 -0.000240 -0.002742 0.006362 0.000114 -0.001142 -0.000543
# 4 -0.005759 -0.004150 0.000114 0.023979 -0.014168 0.006671
# 5 0.021228 0.002103 -0.001142 -0.014168 0.062337 -0.014989
# 6 -0.012607 0.001143 -0.000543 0.006671 -0.014989 0.051900
#
#
# Mechanical properties :
#
#
# Convention : Reuss Voigt Hill
#
# Bulk Modulus (GPa) = 34.41355 57.35429 45.88392
# Shear Modulus (GPa) = 24.86885 38.87262 31.87073
#
# Velocity S-wave (km/s) = 3.11106 3.88958 3.52190
# Velocity P-wave (km/s) = 5.12819 6.51870 5.86480
#
# Compressibility (1/GPa) = 0.02905832
#
# Stress axis : x y z
#
# Youngs Moduli (GPa) = 46.09995 76.61874 157.19230
#
# Poissons Ratio (x) = 0.23300 0.03775
# Poissons Ratio (y) = 0.14019 0.43106
# Poissons Ratio (z) = 0.01107 0.21011
#
# Static dielectric constant tensor:
#      x y z
#    x 1.958700 0.029340 0.019090 
#    y 0.029340 2.086370 -0.060910 
#    z 0.019090 -0.060910 1.963450 
# 
# From -- ./inp_files/215251.got.cif
#   From: 2010.05.17/outbox.cif.g08.bks.cpg/sg2_108_cif.got.tgz:215251.got - 2010.06.03 11:33:40.
