data_PCOD9015031
_publ_section_title
;
Structure prediction by ZEFSAII (Michael W. Deem and Ramdas Pophale) SiO2 
 PCOD9015031
Probable space group: P -1
;
_chemical_formula_sum "Si O2"
_cell_formula_units_Z 16
_cell_length_a 9.242075
_cell_length_b 16.072550
_cell_length_c 5.757850
_cell_angle_alpha 97.009670
_cell_angle_beta 129.486988
_cell_angle_gamma 94.093403
_cell_volume 642.642757
_symmetry_space_group_name_H-M "P -1"
_symmetry_group_IT_number 2
_symmetry_cell_setting 'triclinic'
loop_
_space_group_symop_operation_xyz
x,y,z
-x,-y,-z
loop_
_atom_site_type_symbol
_atom_site_label
_atom_site_fract_x
_atom_site_fract_y
_atom_site_fract_z
Si Si1 0.881607 0.916532 0.469912
Si Si2 0.546437 0.909734 0.443547
Si Si3 0.422463 0.656866 0.473821
Si Si4 0.208869 0.209619 0.068691
Si Si5 0.763060 0.335900 0.219019
Si Si6 0.882755 0.190539 0.067429
Si Si7 0.730716 0.527108 0.245016
Si Si8 0.800276 0.532210 0.813291
O O1 0.677641 0.929498 0.356461
O O2 0.023936 0.889814 0.793970
O O3 0.835963 0.832538 0.238464
O O4 0.000000 0.000000 0.500000
O O5 0.679658 0.859787 0.717900
O O6 0.500000 0.000000 0.500000
O O7 0.341317 0.847961 0.194424
O O8 0.639373 0.703287 0.734357
O O9 0.328452 0.685888 0.625820
O O10 0.363485 0.554417 0.388678
O O11 0.357001 0.676613 0.152822
O O12 0.009521 0.221043 0.982202
O O13 0.902864 0.270720 0.290020
O O14 0.814604 0.439152 0.309101
O O15 0.786171 0.574610 0.561456
O O16 0.500000 0.500000 0.000000
O O17 0.789121 0.570672 0.072013
O O18 0.000000 0.500000 0.000000
#
# Coordination Sequence:
#
# PCOD9015031 Si02
#       8
#     2   2   2   2   2   2   2   2
#     4  11  25  41  64 101 133 179 237 286 348 414
#     4  11  23  41  66  94 135 176 225 289 347 412
#     4  10  22  42  68  97 137 180 227 283 345 412
#     4  11  24  41  66  93 137 176 235 285 346 415
#     4  10  22  42  68  98 135 182 226 281 348 410
#     4  11  24  41  66  94 136 179 233 286 348 410
#     4  10  21  41  70  97 137 178 225 282 345 415
#     4  10  21  41  70  98 136 178 227 280 346 418
#
# _framework density 24.897193000000001
#
# number of rings (size 3 to 8) (size 9 to 14) (size 15 to 20)
#    0.000    1.500    1.250    3.000    3.500    6.000 
#    0.000   15.000    0.000    0.000    0.000    0.000 
#    0.000    0.000    0.000    0.000    0.000    0.000 
#
# Total GULP energy -89349.913177 kJ/mol
# GULP energy per Si atom -5584.369574 kJ/mol
# Density = 2.484053 g / cm^3
# Si number density = 24.897193 Si / 1000 Ang^3
#
#
#
# Elastic Constant Matrix: (Units=GPa)
#
#
# Indices 1 2 3 4 5 6 
#
# 1 200.4683 41.7687 69.9789 3.7316 -8.6267 -27.1969
# 2 41.7687 113.3229 27.1906 11.1432 13.9466 -19.2975
# 3 69.9789 27.1906 120.5111 -7.2062 -10.7817 7.7055
# 4 3.7316 11.1432 -7.2062 36.0847 3.2404 -0.8857
# 5 -8.6267 13.9466 -10.7817 3.2404 54.0395 8.5811
# 6 -27.1969 -19.2975 7.7055 -0.8857 8.5811 39.4468
#
#
#
# Elastic Compliance Matrix: (Units=1/GPa)
#
#
# Indices 1 2 3 4 5 6 
#
# 1 0.007586 -0.000397 -0.004836 -0.001431 -0.000528 0.006063
# 2 -0.000397 0.012044 -0.003610 -0.003787 -0.004822 0.007287
# 3 -0.004836 -0.003610 0.013023 0.003662 0.003873 -0.008405
# 4 -0.001431 -0.003787 0.003662 0.029675 0.000164 -0.002924
# 5 -0.000528 -0.004822 0.003873 0.000164 0.021731 -0.008203
# 6 0.006063 0.007287 -0.008405 -0.002924 -0.008203 0.036456
#
#
# Mechanical properties :
#
#
# Convention : Reuss Voigt Hill
#
# Bulk Modulus (GPa) = 66.81902 79.13099 72.97500
# Shear Modulus (GPa) = 34.91857 45.60514 40.26186
#
# Velocity S-wave (km/s) = 3.74907 4.28452 4.02571
# Velocity P-wave (km/s) = 6.75551 7.50522 7.14021
#
# Compressibility (1/GPa) = 0.01496580
#
# Stress axis : x y z
#
# Youngs Moduli (GPa) = 131.82892 83.02963 76.78454
#
# Poissons Ratio (x) = 0.03300 0.37130
# Poissons Ratio (y) = 0.05240 0.27723
# Poissons Ratio (z) = 0.63748 0.29977
#
# Static dielectric constant tensor:
#      x y z
#    x 2.073630 -0.026010 0.048520 
#    y -0.026010 1.862540 -0.200530 
#    z 0.048520 -0.200530 2.034880 
# 
# From -- ./inp_files/48467.got.cif
#   From: 2010.05.17/outbox.cif.g08.bks.cpg/sg2_25_cif.got.tgz:48467.got - 2010.06.03 11:33:40.
