data_PCOD9015882
_publ_section_title
;
Structure prediction by ZEFSAII (Michael W. Deem and Ramdas Pophale) SiO2 
 PCOD9015882
Probable space group: P -1
;
_chemical_formula_sum "Si O2"
_cell_formula_units_Z 14
_cell_length_a 7.820583
_cell_length_b 12.056947
_cell_length_c 8.926425
_cell_angle_alpha 119.754339
_cell_angle_beta 52.560353
_cell_angle_gamma 106.555626
_cell_volume 580.020542
_symmetry_space_group_name_H-M "P -1"
_symmetry_group_IT_number 2
_symmetry_cell_setting 'triclinic'
loop_
_space_group_symop_operation_xyz
x,y,z
-x,-y,-z
loop_
_atom_site_type_symbol
_atom_site_label
_atom_site_fract_x
_atom_site_fract_y
_atom_site_fract_z
Si Si1 0.960151 0.325896 0.926854
Si Si2 0.737322 0.544537 0.348129
Si Si3 0.827050 0.042786 0.745426
Si Si4 0.490422 0.891684 0.304258
Si Si5 0.564074 0.365648 0.944046
Si Si6 0.113188 0.113394 0.096068
Si Si7 0.877048 0.634589 0.634716
O O1 0.912018 0.175928 0.858498
O O2 0.781916 0.369135 0.925688
O O3 0.196135 0.371921 0.778924
O O4 0.881020 0.413644 0.166347
O O5 0.500000 0.500000 0.500000
O O6 0.824790 0.637526 0.490340
O O7 0.619139 0.058990 0.759993
O O8 0.802318 0.944106 0.828418
O O9 0.000000 0.000000 0.500000
O O10 0.397942 0.749490 0.273075
O O11 0.500000 0.000000 0.500000
O O12 0.727959 0.855194 0.102306
O O13 0.500000 0.500000 0.000000
O O14 0.360480 0.348576 0.152896
O O15 0.995240 0.244829 0.292465
O O16 0.000000 0.000000 0.000000
O O17 0.000000 0.500000 0.500000
#
# Coordination Sequence:
#
# PCOD9015882 Si02
#       7
#     2   2   2   2   2   2   2
#     4  10  23  42  67  98 137 175 230 281 332 420
#     4  11  22  43  68  99 136 176 227 278 347 408
#     4  11  23  44  70  96 135 182 229 285 347 408
#     4  10  23  45  67  98 136 181 229 280 344 413
#     4  10  21  42  65  95 135 176 223 282 340 402
#     4  11  25  45  68  98 139 181 233 284 344 412
#     4  11  24  42  66  99 135 178 228 284 340 409
#
# _framework density 24.137073999999998
#
# number of rings (size 3 to 8) (size 9 to 14) (size 15 to 20)
#    0.000    1.429    1.429    3.000    2.000    3.429 
#   12.857    0.000    0.000    0.000    0.000    0.000 
#    0.000    0.000    0.000    0.000    0.000    0.000 
#
# Total GULP energy -77996.825614 kJ/mol
# GULP energy per Si atom -5571.201830 kJ/mol
# Density = 2.408214 g / cm^3
# Si number density = 24.137074 Si / 1000 Ang^3
#
#
#
# Elastic Constant Matrix: (Units=GPa)
#
#
# Indices 1 2 3 4 5 6 
#
# 1 70.8279 16.5842 18.2149 15.6010 19.3362 3.4888
# 2 16.5842 99.5366 53.5850 39.1114 26.8338 0.5796
# 3 18.2149 53.5850 177.1866 22.8484 18.1032 23.3675
# 4 15.6010 39.1114 22.8484 58.9160 22.6077 6.2766
# 5 19.3362 26.8338 18.1032 22.6077 41.1409 1.6917
# 6 3.4888 0.5796 23.3675 6.2766 1.6917 39.6418
#
#
#
# Elastic Compliance Matrix: (Units=1/GPa)
#
#
# Indices 1 2 3 4 5 6 
#
# 1 0.016459 0.000046 -0.000777 -0.001516 -0.006571 -0.000471
# 2 0.000046 0.016615 -0.003970 -0.008021 -0.004850 0.003570
# 3 -0.000777 -0.003970 0.007471 0.000591 -0.000479 -0.004351
# 4 -0.001516 -0.008021 0.000591 0.026156 -0.008530 -0.003875
# 5 -0.006571 -0.004850 -0.000479 -0.008530 0.035425 0.000770
# 6 -0.000471 0.003570 -0.004351 -0.003875 0.000770 0.028360
#
#
# Mechanical properties :
#
#
# Convention : Reuss Voigt Hill
#
# Bulk Modulus (GPa) = 32.11123 58.25769 45.18446
# Shear Modulus (GPa) = 33.27340 45.21755 39.24547
#
# Velocity S-wave (km/s) = 3.71687 4.33293 4.03667
# Velocity P-wave (km/s) = 5.63496 7.01577 6.36293
#
# Compressibility (1/GPa) = 0.03114175
#
# Stress axis : x y z
#
# Youngs Moduli (GPa) = 60.75756 60.18632 133.85501
#
# Poissons Ratio (x) = -0.00276 0.10399
# Poissons Ratio (y) = -0.00279 0.53146
# Poissons Ratio (z) = 0.04720 0.23896
#
# Static dielectric constant tensor:
#      x y z
#    x 2.030950 0.050290 -0.091410 
#    y 0.050290 2.440820 -0.014690 
#    z -0.091410 -0.014690 1.887000 
# 
# From -- ./inp_files/189677.got.cif
#   From: 2010.05.17/outbox.cif.g08.bks.cpg/sg2_95_cif.got.tgz:189677.got - 2010.06.03 11:33:40.
