data_PCOD9015032
_publ_section_title
;
Structure prediction by ZEFSAII (Michael W. Deem and Ramdas Pophale) SiO2 
 PCOD9015032
Probable space group: P -1
;
_chemical_formula_sum "Si O2"
_cell_formula_units_Z 16
_cell_length_a 8.925924
_cell_length_b 8.925742
_cell_length_c 12.553276
_cell_angle_alpha 110.829562
_cell_angle_beta 69.168594
_cell_angle_gamma 68.030809
_cell_volume 715.994464
_symmetry_space_group_name_H-M "P -1"
_symmetry_group_IT_number 2
_symmetry_cell_setting 'triclinic'
loop_
_space_group_symop_operation_xyz
x,y,z
-x,-y,-z
loop_
_atom_site_type_symbol
_atom_site_label
_atom_site_fract_x
_atom_site_fract_y
_atom_site_fract_z
Si Si1 0.991482 0.129103 0.846073
Si Si2 0.197443 0.693228 0.265572
Si Si3 0.151654 0.348346 0.146367
Si Si4 0.327266 0.172709 0.825271
Si Si5 0.847627 0.347624 0.500009
Si Si6 0.370862 0.508509 0.846068
Si Si7 0.279448 0.220547 0.306041
Si Si8 0.193237 0.697395 0.734395
O O1 0.911570 0.136159 0.750132
O O2 0.172692 0.146725 0.800406
O O3 0.814195 0.314167 0.000006
O O4 0.065077 0.930598 0.838541
O O5 0.128461 0.551470 0.221400
O O6 0.166779 0.743947 0.410799
O O7 0.430645 0.565098 0.161453
O O8 0.290930 0.209057 0.171766
O O9 0.948497 0.371620 0.221459
O O10 0.237435 0.262526 0.987497
O O11 0.353207 0.327319 0.800429
O O12 0.533260 0.966738 0.736317
O O13 0.750443 0.577182 0.603679
O O14 0.756053 0.333224 0.410820
O O15 0.077182 0.250440 0.396338
O O16 0.363844 0.588385 0.750102
#
# Coordination Sequence:
#
# PCOD9015032 Si02
#       8
#     2   2   2   2   2   2   2   2
#     4  12  26  44  67 103 140 172 222 279 337 397
#     4  11  25  44  71  97 136 180 221 275 333 396
#     4  10  21  41  70  97 138 170 216 279 342 388
#     4  12  24  42  69 100 138 175 226 269 347 392
#     4   9  22  46  68  91 142 172 228 269 338 383
#     4  12  26  44  67 103 140 172 222 279 337 397
#     4   9  21  40  70 103 124 179 229 276 321 409
#     4  11  25  44  71  97 136 180 221 275 333 396
#
# _framework density 22.346540999999998
#
# number of rings (size 3 to 8) (size 9 to 14) (size 15 to 20)
#    0.000    1.250    2.500    3.000    7.000    1.000 
#    0.000    1.250    0.000    0.000    0.000    0.000 
#    0.000    0.000    0.000    0.000    0.000    0.000 
#
# Total GULP energy -89555.989892 kJ/mol
# GULP energy per Si atom -5597.249368 kJ/mol
# Density = 2.229568 g / cm^3
# Si number density = 22.346541 Si / 1000 Ang^3
#
#
#
# Elastic Constant Matrix: (Units=GPa)
#
#
# Indices 1 2 3 4 5 6 
#
# 1 81.6972 59.0474 9.5826 -2.4312 1.5595 -7.8081
# 2 59.0474 108.6993 28.8174 -10.5675 7.5553 -29.3865
# 3 9.5826 28.8174 71.6193 -12.5291 8.7711 -26.4109
# 4 -2.4312 -10.5675 -12.5291 25.2296 -2.1250 11.3922
# 5 1.5595 7.5553 8.7711 -2.1250 23.6855 -7.9218
# 6 -7.8081 -29.3865 -26.4109 11.3922 -7.9218 43.7969
#
#
#
# Elastic Compliance Matrix: (Units=1/GPa)
#
#
# Indices 1 2 3 4 5 6 
#
# 1 0.021015 -0.012839 0.000524 -0.001172 0.001056 -0.004056
# 2 -0.012839 0.019401 -0.002469 0.001685 -0.001420 0.008545
# 3 0.000524 -0.002469 0.019089 0.004528 -0.003168 0.008197
# 4 -0.001172 0.001685 0.004528 0.046259 -0.000841 -0.008533
# 5 0.001056 -0.001420 -0.003168 -0.000841 0.045641 0.005799
# 6 -0.004056 0.008545 0.008197 -0.008533 0.005799 0.036054
#
#
# Mechanical properties :
#
#
# Convention : Reuss Voigt Hill
#
# Bulk Modulus (GPa) = 33.40196 50.76784 42.08490
# Shear Modulus (GPa) = 22.02581 29.51365 25.76973
#
# Velocity S-wave (km/s) = 3.14291 3.63812 3.39954
# Velocity P-wave (km/s) = 5.30568 6.35733 5.85516
#
# Compressibility (1/GPa) = 0.02993836
#
# Stress axis : x y z
#
# Youngs Moduli (GPa) = 47.58395 51.54375 52.38611
#
# Poissons Ratio (x) = 0.66176 -0.02745
# Poissons Ratio (y) = 0.61092 0.12933
# Poissons Ratio (z) = -0.02494 0.12725
#
# Static dielectric constant tensor:
#      x y z
#    x 1.807290 -0.005440 0.020060 
#    y -0.005440 1.811220 -0.028650 
#    z 0.020060 -0.028650 1.842790 
# 
# From -- ./inp_files/242956.got.cif
#   From: 2010.05.17/outbox.cif.g08.bks.cpg/sg2_122_cif.got.tgz:242956.got - 2010.06.03 11:33:40.
