data_PCOD9015290
_publ_section_title
;
Structure prediction by ZEFSAII (Michael W. Deem and Ramdas Pophale) SiO2 
 PCOD9015290
Probable space group: P -1
;
_chemical_formula_sum "Si O2"
_cell_formula_units_Z 10
_cell_length_a 13.098593
_cell_length_b 13.499922
_cell_length_c 8.698840
_cell_angle_alpha 121.079051
_cell_angle_beta 36.806679
_cell_angle_gamma 147.934538
_cell_volume 420.766747
_symmetry_space_group_name_H-M "P -1"
_symmetry_group_IT_number 2
_symmetry_cell_setting 'triclinic'
loop_
_space_group_symop_operation_xyz
x,y,z
-x,-y,-z
loop_
_atom_site_type_symbol
_atom_site_label
_atom_site_fract_x
_atom_site_fract_y
_atom_site_fract_z
Si Si1 0.675083 0.191203 0.832286
Si Si2 0.642032 0.615087 0.256039
Si Si3 0.761840 0.403309 0.346328
Si Si4 0.377725 0.061805 0.769880
Si Si5 0.662253 0.780518 0.811543
O O1 0.037946 0.404925 0.618650
O O2 0.562795 0.106871 0.725075
O O3 0.569722 0.264996 0.037776
O O4 0.500000 0.000000 0.000000
O O5 0.500000 0.500000 0.500000
O O6 0.527172 0.680194 0.423596
O O7 0.468848 0.423324 0.200803
O O8 0.022660 0.817908 0.962225
O O9 0.611083 0.210058 0.464628
O O10 0.000000 0.500000 0.000000
O O11 0.325077 0.159808 0.985675
O O12 0.000000 0.000000 0.500000
#
# Coordination Sequence:
#
# PCOD9015290 Si02
#       5
#     2   2   2   2   2
#     4  10  22  45  69 101 141 180 225 295 354 408
#     4  12  22  45  73 102 138 188 232 287 352 421
#     4  12  26  45  69 102 147 185 235 294 344 407
#     4  10  25  45  72 104 142 185 240 276 354 428
#     4  10  21  41  75  97 142 180 231 282 353 418
#
# _framework density 23.766134999999998
#
# number of rings (size 3 to 8) (size 9 to 14) (size 15 to 20)
#    1.200    0.000    2.000    4.800    0.000    0.800 
#    3.600    5.000    0.000    0.000    0.000    0.000 
#    0.000    0.000    0.000    0.000    0.000    0.000 
#
# Total GULP energy -55849.425602 kJ/mol
# GULP energy per Si atom -5584.942560 kJ/mol
# Density = 2.371204 g / cm^3
# Si number density = 23.766135 Si / 1000 Ang^3
#
#
#
# Elastic Constant Matrix: (Units=GPa)
#
#
# Indices 1 2 3 4 5 6 
#
# 1 133.3226 24.7431 58.1011 -18.3953 -1.8963 -13.5834
# 2 24.7431 128.1787 48.9662 -6.3464 7.2041 22.4411
# 3 58.1011 48.9662 136.9535 -23.7549 21.2000 8.0171
# 4 -18.3953 -6.3464 -23.7549 55.3916 -5.2757 -6.5748
# 5 -1.8963 7.2041 21.2000 -5.2757 35.2246 -9.8265
# 6 -13.5834 22.4411 8.0171 -6.5748 -9.8265 33.3505
#
#
#
# Elastic Compliance Matrix: (Units=1/GPa)
#
#
# Indices 1 2 3 4 5 6 
#
# 1 0.012058 -0.002399 -0.005547 0.003409 0.008028 0.010896
# 2 -0.002399 0.010793 -0.002006 -0.001908 -0.004014 -0.009316
# 3 -0.005547 -0.002006 0.012386 0.001670 -0.008809 -0.006154
# 4 0.003409 -0.001908 0.001670 0.021087 0.004925 0.007879
# 5 0.008028 -0.004014 -0.008809 0.004925 0.041631 0.021326
# 6 0.010896 -0.009316 -0.006154 0.007879 0.021326 0.050007
#
#
# Mechanical properties :
#
#
# Convention : Reuss Voigt Hill
#
# Bulk Modulus (GPa) = 65.21544 73.56396 69.38970
# Shear Modulus (GPa) = 28.90577 42.56963 35.73770
#
# Velocity S-wave (km/s) = 3.49127 4.23683 3.88199
# Velocity P-wave (km/s) = 6.61453 7.41315 7.02520
#
# Compressibility (1/GPa) = 0.01533379
#
# Stress axis : x y z
#
# Youngs Moduli (GPa) = 82.93393 92.65307 80.73801
#
# Poissons Ratio (x) = 0.22223 0.44787
# Poissons Ratio (y) = 0.19892 0.16193
# Poissons Ratio (z) = 0.46005 0.18582
#
# Static dielectric constant tensor:
#      x y z
#    x 0.364160 -2.043270 -0.853210 
#    y -2.043270 -0.756030 -1.050050 
#    z -0.853210 -1.050050 1.483060 
# 
# From -- ./inp_files/153211.got.cif
#   From: 2010.05.17/outbox.cif.g08.bks.cpg/sg2_77_cif.got.tgz:153211.got - 2010.06.03 11:33:40.
