data_PCOD9015259
_publ_section_title
;
Structure prediction by ZEFSAII (Michael W. Deem and Ramdas Pophale) SiO2 
 PCOD9015259
Probable space group: P -1
;
_chemical_formula_sum "Si O2"
_cell_formula_units_Z 14
_cell_length_a 12.841736
_cell_length_b 7.914444
_cell_length_c 7.606725
_cell_angle_alpha 109.741257
_cell_angle_beta 101.975734
_cell_angle_gamma 48.460698
_cell_volume 544.515044
_symmetry_space_group_name_H-M "P -1"
_symmetry_group_IT_number 2
_symmetry_cell_setting 'triclinic'
loop_
_space_group_symop_operation_xyz
x,y,z
-x,-y,-z
loop_
_atom_site_type_symbol
_atom_site_label
_atom_site_fract_x
_atom_site_fract_y
_atom_site_fract_z
Si Si1 0.845131 0.524942 0.624382
Si Si2 0.030842 0.851175 0.168834
Si Si3 0.530808 0.641594 0.941857
Si Si4 0.744773 0.161059 0.683711
Si Si5 0.899657 0.495315 0.231788
Si Si6 0.247121 0.979122 0.753640
Si Si7 0.572676 0.002589 0.697052
O O1 0.918341 0.289101 0.677030
O O2 0.841039 0.503295 0.404900
O O3 0.947784 0.582123 0.712659
O O4 0.690104 0.737652 0.710838
O O5 0.099724 0.971857 0.238408
O O6 0.092549 0.665943 0.967990
O O7 0.865550 0.005339 0.163431
O O8 0.660117 0.430425 0.802578
O O9 0.396850 0.821175 0.837976
O O10 0.500000 0.500000 0.000000
O O11 0.536705 0.805380 0.131387
O O12 0.744694 0.132116 0.466608
O O13 0.665748 0.074095 0.700767
O O14 0.811925 0.758890 0.215869
O O15 0.500000 0.000000 0.500000
#
# Coordination Sequence:
#
# PCOD9015259 Si02
#       7
#     2   2   2   2   2   2   2
#     4  10  21  42  70 100 134 175 234 274 337 408
#     4  11  24  42  71 106 138 176 227 287 348 399
#     4  10  24  43  66  98 137 178 230 278 339 408
#     4  11  25  44  66 100 141 179 221 284 349 401
#     4  10  21  41  73  98 136 179 226 283 339 401
#     4  11  21  45  70  98 139 180 225 278 343 413
#     4  11  24  45  69  96 133 181 234 281 338 411
#
# _framework density 25.710951999999999
#
# number of rings (size 3 to 8) (size 9 to 14) (size 15 to 20)
#    0.000    1.429    1.429    4.286    2.000    3.429 
#    2.571    5.714    0.000    0.000    0.000    0.000 
#    0.000    0.000    0.000    0.000    0.000    0.000 
#
# Total GULP energy -78531.756240 kJ/mol
# GULP energy per Si atom -5609.411160 kJ/mol
# Density = 2.565243 g / cm^3
# Si number density = 25.710952 Si / 1000 Ang^3
#
#
#
# Elastic Constant Matrix: (Units=GPa)
#
#
# Indices 1 2 3 4 5 6 
#
# 1 104.2048 17.0689 27.1222 5.2930 12.1866 12.6087
# 2 17.0689 105.4424 19.8685 -3.2128 -2.9490 -14.6279
# 3 27.1222 19.8685 124.0141 12.9395 5.9690 -4.3064
# 4 5.2930 -3.2128 12.9395 39.1928 -2.3804 -7.9506
# 5 12.1866 -2.9490 5.9690 -2.3804 33.7793 -9.6175
# 6 12.6087 -14.6279 -4.3064 -7.9506 -9.6175 33.2719
#
#
#
# Elastic Compliance Matrix: (Units=1/GPa)
#
#
# Indices 1 2 3 4 5 6 
#
# 1 0.012921 -0.003437 -0.001841 -0.003874 -0.007699 -0.009797
# 2 -0.003437 0.011821 -0.001515 0.004045 0.005334 0.008812
# 3 -0.001841 -0.001515 0.009078 -0.002917 -0.001234 0.000153
# 4 -0.003874 0.004045 -0.002917 0.030333 0.007937 0.012412
# 5 -0.007699 0.005334 -0.001234 0.007937 0.038812 0.018218
# 6 -0.009797 0.008812 0.000153 0.012412 0.018218 0.045894
#
#
# Mechanical properties :
#
#
# Convention : Reuss Voigt Hill
#
# Bulk Modulus (GPa) = 49.42152 51.30895 50.36523
# Shear Modulus (GPa) = 29.55293 39.22222 34.38757
#
# Velocity S-wave (km/s) = 3.39400 3.91001 3.66111
# Velocity P-wave (km/s) = 5.88411 6.35481 6.12398
#
# Compressibility (1/GPa) = 0.02023410
#
# Stress axis : x y z
#
# Youngs Moduli (GPa) = 77.39200 84.59829 110.15797
#
# Poissons Ratio (x) = 0.29080 0.20276
# Poissons Ratio (y) = 0.26603 0.16687
# Poissons Ratio (z) = 0.14245 0.12815
#
# Static dielectric constant tensor:
#      x y z
#    x 2.068030 0.025400 -0.052160 
#    y 0.025400 2.025780 0.014290 
#    z -0.052160 0.014290 1.959140 
# 
# From -- ./inp_files/296175.got.cif
#   From: 2010.05.17/outbox.cif.g08.bks.cpg/sg2_149_cif.got.tgz:296175.got - 2010.06.03 11:33:40.
