data_PCOD9015430
_publ_section_title
;
Structure prediction by ZEFSAII (Michael W. Deem and Ramdas Pophale) SiO2 
 PCOD9015430
Probable space group: P -1
;
_chemical_formula_sum "Si O2"
_cell_formula_units_Z 16
_cell_length_a 16.450729
_cell_length_b 7.806369
_cell_length_c 7.313792
_cell_angle_alpha 59.380041
_cell_angle_beta 56.748459
_cell_angle_gamma 62.767469
_cell_volume 654.859821
_symmetry_space_group_name_H-M "P -1"
_symmetry_group_IT_number 2
_symmetry_cell_setting 'triclinic'
loop_
_space_group_symop_operation_xyz
x,y,z
-x,-y,-z
loop_
_atom_site_type_symbol
_atom_site_label
_atom_site_fract_x
_atom_site_fract_y
_atom_site_fract_z
Si Si1 0.546248 0.155901 0.477139
Si Si2 0.788374 0.545261 0.609789
Si Si3 0.915804 0.024909 0.361766
Si Si4 0.392854 0.556965 0.012989
Si Si5 0.293725 0.031539 0.313776
Si Si6 0.354816 0.333641 0.825858
Si Si7 0.993865 0.343358 0.324690
Si Si8 0.148489 0.615659 0.984414
O O1 0.616688 0.238162 0.203992
O O2 0.444528 0.314151 0.585418
O O3 0.500000 0.000000 0.500000
O O4 0.611657 0.088926 0.617395
O O5 0.754817 0.780017 0.588702
O O6 0.883557 0.491673 0.393867
O O7 0.690645 0.466027 0.726538
O O8 0.824778 0.419557 0.818464
O O9 0.892936 0.144005 0.134090
O O10 0.982164 0.162185 0.302824
O O11 0.802232 0.057950 0.562562
O O12 0.967559 0.786248 0.465443
O O13 0.391694 0.393288 0.944388
O O14 0.500000 0.500000 0.000000
O O15 0.326382 0.121991 0.034874
O O16 0.253207 0.505716 0.814756
O O17 0.070941 0.478024 0.110540
#
# Coordination Sequence:
#
# PCOD9015430 Si02
#       8
#     2   2   2   2   2   2   2   2
#     4  12  24  39  63  98 123 165 220 261 317 388
#     4  10  22  41  64  86 129 167 200 262 318 367
#     4  11  23  39  65  90 126 164 214 256 311 379
#     4  10  22  42  61  91 126 168 212 258 322 384
#     4  10  21  42  62  92 128 163 210 261 320 379
#     4  10  22  41  65  87 131 171 201 267 326 371
#     4  11  23  42  62  94 127 164 212 260 311 375
#     4  10  21  42  63  92 126 164 211 255 317 377
#
# _framework density 24.432711999999999
#
# number of rings (size 3 to 8) (size 9 to 14) (size 15 to 20)
#    0.000    1.750    2.500    4.500    0.000    4.500 
#    2.250    0.000    0.000    0.000    0.000    0.000 
#    0.000    0.000    0.000    0.000    0.000    0.000 
#
# Total GULP energy -89316.169906 kJ/mol
# GULP energy per Si atom -5582.260619 kJ/mol
# Density = 2.437710 g / cm^3
# Si number density = 24.432712 Si / 1000 Ang^3
#
#
#
# Elastic Constant Matrix: (Units=GPa)
#
#
# Indices 1 2 3 4 5 6 
#
# 1 114.8940 8.4687 26.3627 4.7373 -26.2048 -23.9594
# 2 8.4687 64.1283 24.7369 16.8564 -8.9437 -28.4235
# 3 26.3627 24.7369 61.0759 -9.7613 -13.8220 -13.0219
# 4 4.7373 16.8564 -9.7613 37.3861 -10.8965 -6.7848
# 5 -26.2048 -8.9437 -13.8220 -10.8965 45.7296 -4.3454
# 6 -23.9594 -28.4235 -13.0219 -6.7848 -4.3454 33.8369
#
#
#
# Elastic Compliance Matrix: (Units=1/GPa)
#
#
# Indices 1 2 3 4 5 6 
#
# 1 0.015360 0.009529 -0.004177 -0.000771 0.010980 0.018529
# 2 0.009529 0.038547 -0.012861 -0.013389 0.009024 0.032652
# 3 -0.004177 -0.012861 0.027853 0.015964 0.007419 0.001111
# 4 -0.000771 -0.013389 0.015964 0.041307 0.012005 0.004175
# 5 0.010980 0.009024 0.007419 0.012005 0.037444 0.025426
# 6 0.018529 0.032652 0.001111 0.004175 0.025426 0.074632
#
#
# Mechanical properties :
#
#
# Convention : Reuss Voigt Hill
#
# Bulk Modulus (GPa) = 14.98342 39.91497 27.44920
# Shear Modulus (GPa) = 18.35492 35.42584 26.89038
#
# Velocity S-wave (km/s) = 2.74386 3.81193 3.32111
# Velocity P-wave (km/s) = 4.02295 5.97885 5.09562
#
# Compressibility (1/GPa) = 0.06674042
#
# Stress axis : x y z
#
# Youngs Moduli (GPa) = 65.10564 25.94258 35.90338
#
# Poissons Ratio (x) = -0.24721 0.14998
# Poissons Ratio (y) = -0.62041 0.46176
# Poissons Ratio (z) = 0.27196 0.33365
#
# Static dielectric constant tensor:
#      x y z
#    x 1.999370 0.013890 -0.008380 
#    y 0.013890 2.000030 -0.010550 
#    z -0.008380 -0.010550 2.072970 
# 
# From -- ./inp_files/327007.got.cif
#   From: 2010.05.17/outbox.cif.g08.bks.cpg/sg2_164_cif.got.tgz:327007.got - 2010.06.03 11:33:40.
