data_PCOD9015529
_publ_section_title
;
Structure prediction by ZEFSAII (Michael W. Deem and Ramdas Pophale) SiO2 
 PCOD9015529
Probable space group: P -1
;
_chemical_formula_sum "Si O2"
_cell_formula_units_Z 16
_cell_length_a 20.817685
_cell_length_b 11.029139
_cell_length_c 13.333724
_cell_angle_alpha 30.922826
_cell_angle_beta 32.126110
_cell_angle_gamma 53.270384
_cell_volume 738.409992
_symmetry_space_group_name_H-M "P -1"
_symmetry_group_IT_number 2
_symmetry_cell_setting 'triclinic'
loop_
_space_group_symop_operation_xyz
x,y,z
-x,-y,-z
loop_
_atom_site_type_symbol
_atom_site_label
_atom_site_fract_x
_atom_site_fract_y
_atom_site_fract_z
Si Si1 0.392472 0.111904 0.555050
Si Si2 0.643253 0.058949 0.488412
Si Si3 0.003351 0.180687 0.104064
Si Si4 0.076380 0.452201 0.180558
Si Si5 0.223498 0.424294 0.816278
Si Si6 0.916886 0.224294 0.748531
Si Si7 0.304477 0.034931 0.291896
Si Si8 0.519819 0.608930 0.559790
O O1 0.381023 0.139321 0.431537
O O2 0.500000 0.000000 0.500000
O O3 0.441449 0.347846 0.403361
O O4 0.243868 0.891461 0.945471
O O5 0.539626 0.187570 0.533179
O O6 0.647144 0.935822 0.677115
O O7 0.794428 0.314439 0.097467
O O8 0.850332 0.008512 0.472403
O O9 0.994379 0.410076 0.889571
O O10 0.043194 0.000144 0.108223
O O11 0.114961 0.304293 0.955656
O O12 0.968969 0.264939 0.536081
O O13 0.144063 0.346963 0.081993
O O14 0.341764 0.339187 0.715111
O O15 0.292727 0.748183 0.481647
O O16 0.000000 0.500000 0.500000
O O17 0.406187 0.302752 0.910801
#
# Coordination Sequence:
#
# PCOD9015529 Si02
#       8
#     2   2   2   2   2   2   2   2
#     4  10  22  41  61  87 131 154 201 267 296 359
#     4   9  20  41  60  92 125 158 212 256 294 367
#     4  10  22  43  62  94 125 160 201 263 302 357
#     4  10  22  40  66  92 125 161 206 255 307 365
#     4  10  21  42  63  93 130 156 207 264 297 363
#     4  12  23  41  68  91 117 165 211 248 313 371
#     4  10  22  38  66  87 123 170 204 239 318 367
#     4  11  21  40  62  89 126 169 199 255 307 356
#
# _framework density 21.668181000000001
#
# number of rings (size 3 to 8) (size 9 to 14) (size 15 to 20)
#    0.000    2.000    2.500    2.625    1.750    3.500 
#    4.500    5.000    2.750    0.750    0.000    0.000 
#    0.000    0.000    0.000    0.000    0.000    0.000 
#
# Total GULP energy -89367.613744 kJ/mol
# GULP energy per Si atom -5585.475859 kJ/mol
# Density = 2.161886 g / cm^3
# Si number density = 21.668181 Si / 1000 Ang^3
#
#
#
# Elastic Constant Matrix: (Units=GPa)
#
#
# Indices 1 2 3 4 5 6 
#
# 1 71.2864 15.2322 35.0625 6.0764 -4.2058 6.3130
# 2 15.2322 69.5665 53.9919 23.5551 17.1875 16.7441
# 3 35.0625 53.9919 94.8502 14.8053 -13.9732 -11.6641
# 4 6.0764 23.5551 14.8053 33.0129 4.3321 -19.8643
# 5 -4.2058 17.1875 -13.9732 4.3321 19.7696 -3.5883
# 6 6.3130 16.7441 -11.6641 -19.8643 -3.5883 21.6459
#
#
#
# Elastic Compliance Matrix: (Units=1/GPa)
#
#
# Indices 1 2 3 4 5 6 
#
# 1 0.015921 -0.006020 -0.001409 0.002924 0.007564 0.003191
# 2 -0.006020 -0.005922 0.007966 0.017452 0.010836 0.028441
# 3 -0.001409 0.007966 0.006954 -0.021659 -0.001583 -0.022143
# 4 0.002924 0.017452 -0.021659 0.027969 -0.037172 -0.006519
# 5 0.007564 0.010836 -0.001583 -0.037172 0.042818 -0.038455
# 6 0.003191 0.028441 -0.022143 -0.006519 -0.038455 -0.001023
#
#
# Mechanical properties :
#
#
# Convention : Reuss Voigt Hill
#
# Bulk Modulus (GPa) = 55.46815 49.36402 52.41608
# Shear Modulus (GPa) = 54.55476 23.64680 39.10078
#
# Velocity S-wave (km/s) = 5.02315 3.30709 4.25258
# Velocity P-wave (km/s) = 7.70046 6.11667 6.95381
#
# Compressibility (1/GPa) = 0.01802836
#
# Stress axis : x y z
#
# Youngs Moduli (GPa) = 62.80856 -168.86451 143.80859
#
# Poissons Ratio (x) = -1.01652 0.20257
# Poissons Ratio (y) = 0.37809 -1.14557
# Poissons Ratio (z) = 0.08847 1.34517
#
# Static dielectric constant tensor:
#      x y z
#    x 1.816010 0.019740 0.010470 
#    y 0.019740 1.807010 -0.021960 
#    z 0.010470 -0.021960 1.794820 
# 
# From -- ./inp_files/540923.got.cif
#   From: 2010.05.17/outbox.cif.g08.bks.cpg/sg2_271_cif.got.tgz:540923.got - 2010.06.03 11:33:40.
