data_PCOD9015974
_publ_section_title
;
Structure prediction by ZEFSAII (Michael W. Deem and Ramdas Pophale) SiO2 
 PCOD9015974
Probable space group: P -1
;
_chemical_formula_sum "Si O2"
_cell_formula_units_Z 16
_cell_length_a 18.369878
_cell_length_b 21.540534
_cell_length_c 11.877485
_cell_angle_alpha 26.719425
_cell_angle_beta 142.950579
_cell_angle_gamma 161.266743
_cell_volume 640.437407
_symmetry_space_group_name_H-M "P -1"
_symmetry_group_IT_number 2
_symmetry_cell_setting 'triclinic'
loop_
_space_group_symop_operation_xyz
x,y,z
-x,-y,-z
loop_
_atom_site_type_symbol
_atom_site_label
_atom_site_fract_x
_atom_site_fract_y
_atom_site_fract_z
Si Si1 0.784256 0.672087 0.146644
Si Si2 0.237799 0.810311 0.209110
Si Si3 0.936221 0.308691 0.309367
Si Si4 0.142840 0.349208 0.061112
Si Si5 0.081146 0.724592 0.393335
Si Si6 0.279506 0.263521 0.525490
Si Si7 0.430332 0.265315 0.180531
Si Si8 0.422909 0.658572 0.365474
O O1 0.036192 0.843904 0.161384
O O2 0.644778 0.541534 0.069617
O O3 0.625811 0.412599 0.448756
O O4 0.763188 0.803195 0.960986
O O5 0.166227 0.582260 0.468598
O O6 0.261254 0.870723 0.273719
O O7 0.995379 0.644627 0.130172
O O8 0.441642 0.076624 0.950862
O O9 0.906376 0.314115 0.398328
O O10 0.150924 0.410623 0.390243
O O11 0.695114 0.988129 0.506003
O O12 0.000000 0.500000 0.000000
O O13 0.168840 0.299865 0.292830
O O14 0.419324 0.635146 0.902550
O O15 0.956209 0.065966 0.219441
O O16 0.500000 0.500000 0.500000
O O17 0.420593 0.318779 0.512665
#
# Coordination Sequence:
#
# PCOD9015974 Si02
#       8
#     2   2   2   2   2   2   2   2
#     4  10  22  41  69  96 129 183 219 285 349 416
#     4  10  22  42  72  97 134 180 240 284 350 433
#     4  11  28  44  66 102 141 184 236 295 360 413
#     4  10  21  42  66 102 138 184 231 286 351 423
#     4  10  23  43  69  98 129 187 230 289 353 422
#     4  10  22  40  67 101 146 182 230 290 356 424
#     4  11  23  42  69  99 140 173 237 288 348 428
#     4  10  23  42  63 100 132 180 233 285 351 421
#
# _framework density 24.982925999999999
#
# number of rings (size 3 to 8) (size 9 to 14) (size 15 to 20)
#    0.000    1.750    2.500    0.000    3.500    8.000 
#    0.000    1.250    0.000    0.000    0.000    0.000 
#    0.000    0.000    0.000    0.000    0.000    0.000 
#
# Total GULP energy -89146.054195 kJ/mol
# GULP energy per Si atom -5571.628387 kJ/mol
# Density = 2.492606 g / cm^3
# Si number density = 24.982926 Si / 1000 Ang^3
#
#
#
# Elastic Constant Matrix: (Units=GPa)
#
#
# Indices 1 2 3 4 5 6 
#
# 1 70.1321 25.0429 14.2496 1.9101 -2.0876 6.3750
# 2 25.0429 106.0527 24.2138 0.9559 1.2470 5.1821
# 3 14.2496 24.2138 79.2543 -3.4510 -11.1953 11.6407
# 4 1.9101 0.9559 -3.4510 36.2943 1.4925 -6.9335
# 5 -2.0876 1.2470 -11.1953 1.4925 33.8375 -1.4621
# 6 6.3750 5.1821 11.6407 -6.9335 -1.4621 33.5479
#
#
#
# Elastic Compliance Matrix: (Units=1/GPa)
#
#
# Indices 1 2 3 4 5 6 
#
# 1 0.016011 -0.003320 -0.001510 -0.001354 0.000572 -0.002260
# 2 -0.003320 0.010917 -0.002951 -0.000362 -0.001575 -0.000175
# 3 -0.001510 -0.002951 0.015108 0.000600 0.004808 -0.004166
# 4 -0.001354 -0.000362 0.000600 0.028880 -0.000885 0.006035
# 5 0.000572 -0.001575 0.004808 -0.000885 0.031261 -0.000354
# 6 -0.002260 -0.000175 -0.004166 0.006035 -0.000354 0.032942
#
#
# Mechanical properties :
#
#
# Convention : Reuss Voigt Hill
#
# Bulk Modulus (GPa) = 37.77445 42.49463 40.13454
# Shear Modulus (GPa) = 31.34685 33.53144 32.43914
#
# Velocity S-wave (km/s) = 3.54606 3.66754 3.60731
# Velocity P-wave (km/s) = 5.64969 5.91447 5.78359
#
# Compressibility (1/GPa) = 0.02647292
#
# Stress axis : x y z
#
# Youngs Moduli (GPa) = 62.45877 91.59724 66.19038
#
# Poissons Ratio (x) = 0.30409 0.09998
# Poissons Ratio (y) = 0.20736 0.19534
# Poissons Ratio (z) = 0.09434 0.27032
#
# Static dielectric constant tensor:
#      x y z
#    x 2.081060 -0.010400 0.026210 
#    y -0.010400 1.984950 0.022040 
#    z 0.026210 0.022040 2.041400 
# 
# From -- ./inp_files/467054.got.cif
#   From: 2010.05.17/outbox.cif.g08.bks.cpg/sg2_234_cif.got.tgz:467054.got - 2010.06.03 11:33:40.
