data_PCOD9015804
_publ_section_title
;
Structure prediction by ZEFSAII (Michael W. Deem and Ramdas Pophale) SiO2 
 PCOD9015804
Probable space group: P -1
;
_chemical_formula_sum "Si O2"
_cell_formula_units_Z 16
_cell_length_a 7.070879
_cell_length_b 24.943682
_cell_length_c 11.563560
_cell_angle_alpha 29.201680
_cell_angle_beta 67.171180
_cell_angle_gamma 54.817049
_cell_volume 778.724486
_symmetry_space_group_name_H-M "P -1"
_symmetry_group_IT_number 2
_symmetry_cell_setting 'triclinic'
loop_
_space_group_symop_operation_xyz
x,y,z
-x,-y,-z
loop_
_atom_site_type_symbol
_atom_site_label
_atom_site_fract_x
_atom_site_fract_y
_atom_site_fract_z
Si Si1 0.689152 0.513831 0.642906
Si Si2 0.287434 0.045245 0.374910
Si Si3 0.215292 0.874112 0.534884
Si Si4 0.625406 0.576245 0.029071
Si Si5 0.198128 0.981089 0.080419
Si Si6 0.157196 0.299986 0.798745
Si Si7 0.858959 0.515209 0.858251
Si Si8 0.753450 0.782987 0.314186
O O1 0.464306 0.495664 0.730846
O O2 0.668182 0.643257 0.356225
O O3 0.763361 0.503669 0.779433
O O4 0.913816 0.400400 0.733815
O O5 0.038787 0.091708 0.414795
O O6 0.500000 0.000000 0.500000
O O7 0.317107 0.940529 0.470331
O O8 0.270270 0.164162 0.088166
O O9 0.175740 0.934157 0.302514
O O10 0.401980 0.719933 0.784855
O O11 0.852583 0.576038 0.030171
O O12 0.728757 0.498582 0.030231
O O13 0.469044 0.871264 0.184574
O O14 0.183803 0.117267 0.836325
O O15 0.000000 0.000000 0.000000
O O16 0.101323 0.281679 0.715337
O O17 0.799154 0.662717 0.606701
#
# Coordination Sequence:
#
# PCOD9015804 Si02
#       8
#     2   2   2   2   2   2   2   2
#     4  10  22  42  64  90 129 173 215 268 316 396
#     4  11  25  43  69  97 134 175 214 277 336 394
#     4  11  24  44  67  99 132 171 225 275 327 401
#     4  11  22  42  64  96 131 168 216 271 332 391
#     4  11  24  41  67  95 127 179 219 268 334 385
#     4  10  21  42  65  90 129 170 215 268 325 382
#     4  10  23  41  66  95 127 176 213 272 334 383
#     4  10  22  43  61  92 137 160 218 282 314 390
#
# _framework density 20.546417999999999
#
# number of rings (size 3 to 8) (size 9 to 14) (size 15 to 20)
#    0.000    1.500    3.750    0.375    3.500    2.000 
#    4.500    6.875    0.000    0.000    0.000    0.000 
#    0.000    0.000    0.000    0.000    0.000    0.000 
#
# Total GULP energy -89398.693478 kJ/mol
# GULP energy per Si atom -5587.418342 kJ/mol
# Density = 2.049965 g / cm^3
# Si number density = 20.546418 Si / 1000 Ang^3
#
#
#
# Elastic Constant Matrix: (Units=GPa)
#
#
# Indices 1 2 3 4 5 6 
#
# 1 115.1340 31.1976 36.2419 1.4075 -0.7291 -1.7723
# 2 31.1976 82.1337 27.8674 7.6599 -19.5653 -7.2593
# 3 36.2419 27.8674 62.5700 4.7473 -13.7407 -5.8349
# 4 1.4075 7.6599 4.7473 28.6425 -3.1363 -3.2751
# 5 -0.7291 -19.5653 -13.7407 -3.1363 16.6601 7.9706
# 6 -1.7723 -7.2593 -5.8349 -3.2751 7.9706 20.5468
#
#
#
# Elastic Compliance Matrix: (Units=1/GPa)
#
#
# Indices 1 2 3 4 5 6 
#
# 1 0.012341 -0.004972 -0.007513 0.000857 -0.012337 0.002097
# 2 -0.004972 0.019938 -0.000945 -0.002729 0.023423 -0.003174
# 3 -0.007513 -0.000945 0.025051 -0.001569 0.019785 -0.001793
# 4 0.000857 -0.002729 -0.001569 0.036392 0.000311 0.004344
# 5 -0.012337 0.023423 0.019785 0.000311 0.119358 -0.033423
# 6 0.002097 -0.003174 -0.001793 0.004344 -0.033423 0.060878
#
#
# Mechanical properties :
#
#
# Convention : Reuss Voigt Hill
#
# Bulk Modulus (GPa) = 32.81851 50.05018 41.43434
# Shear Modulus (GPa) = 16.07846 24.13861 20.10854
#
# Velocity S-wave (km/s) = 2.80043 3.43130 3.13179
# Velocity P-wave (km/s) = 5.14433 6.33332 5.76953
#
# Compressibility (1/GPa) = 0.03047061
#
# Stress axis : x y z
#
# Youngs Moduli (GPa) = 81.02840 50.15501 39.91802
#
# Poissons Ratio (x) = 0.24938 0.29989
# Poissons Ratio (y) = 0.40289 0.03773
# Poissons Ratio (z) = 0.60874 0.04741
#
# Static dielectric constant tensor:
#      x y z
#    x 1.841210 0.101920 0.144680 
#    y 0.101920 1.834020 0.166820 
#    z 0.144680 0.166820 1.980730 
# 
# From -- ./inp_files/370966.got.cif
#   From: 2010.05.17/outbox.cif.g08.bks.cpg/sg2_186_cif.got.tgz:370966.got - 2010.06.03 11:33:40.
