data_PCOD9015179
_publ_section_title
;
Structure prediction by ZEFSAII (Michael W. Deem and Ramdas Pophale) SiO2 
 PCOD9015179
Probable space group: P -1
;
_chemical_formula_sum "Si O2"
_cell_formula_units_Z 14
_cell_length_a 8.919689
_cell_length_b 9.804036
_cell_length_c 12.656656
_cell_angle_alpha 141.128385
_cell_angle_beta 50.081115
_cell_angle_gamma 123.013118
_cell_volume 530.376104
_symmetry_space_group_name_H-M "P -1"
_symmetry_group_IT_number 2
_symmetry_cell_setting 'triclinic'
loop_
_space_group_symop_operation_xyz
x,y,z
-x,-y,-z
loop_
_atom_site_type_symbol
_atom_site_label
_atom_site_fract_x
_atom_site_fract_y
_atom_site_fract_z
Si Si1 0.869512 0.209602 0.686128
Si Si2 0.765308 0.960012 0.079846
Si Si3 0.429810 0.303246 0.185470
Si Si4 0.583787 0.822427 0.647481
Si Si5 0.164218 0.649152 0.454280
Si Si6 0.311599 0.103006 0.700745
Si Si7 0.206902 0.441611 0.781645
O O1 0.854057 0.315728 0.641722
O O2 0.981620 0.398099 0.821163
O O3 0.670877 0.070310 0.728461
O O4 0.000000 0.000000 0.500000
O O5 0.686350 0.818312 0.132351
O O6 0.648945 0.177915 0.268186
O O7 0.679647 0.850775 0.944891
O O8 0.000000 0.000000 0.000000
O O9 0.364513 0.227385 0.285981
O O10 0.361983 0.538416 0.325455
O O11 0.667683 0.335617 0.106307
O O12 0.674398 0.649655 0.426764
O O13 0.000000 0.500000 0.500000
O O14 0.160157 0.888876 0.646460
O O15 0.231360 0.270230 0.759287
O O16 0.500000 0.000000 0.500000
#
# Coordination Sequence:
#
# PCOD9015179 Si02
#       7
#     2   2   2   2   2   2   2
#     4  10  21  41  72 106 138 186 234 291 357 417
#     4  12  28  46  73 103 149 193 235 297 376 426
#     4  12  27  42  68 110 144 184 241 305 351 427
#     4  11  23  49  74 101 146 194 240 288 366 434
#     4  12  22  40  71 109 140 183 247 296 344 427
#     4  12  22  47  73 103 142 192 238 295 361 422
#     4  11  23  42  75 107 141 186 243 298 351 422
#
# _framework density 26.396363000000001
#
# number of rings (size 3 to 8) (size 9 to 14) (size 15 to 20)
#    0.000    0.571    5.714    3.429    2.000    2.857 
#    0.000    0.714    0.000    0.000    0.000    0.000 
#    0.000    0.000    0.000    0.000    0.000    0.000 
#
# Total GULP energy -78365.162975 kJ/mol
# GULP energy per Si atom -5597.511641 kJ/mol
# Density = 2.633628 g / cm^3
# Si number density = 26.396363 Si / 1000 Ang^3
#
#
#
# Elastic Constant Matrix: (Units=GPa)
#
#
# Indices 1 2 3 4 5 6 
#
# 1 171.2491 75.8425 48.0853 -27.9389 24.7588 -8.6765
# 2 75.8425 166.0157 37.2716 -19.7423 21.9026 -20.2569
# 3 48.0853 37.2716 99.1220 -23.6806 9.3394 -2.9386
# 4 -27.9389 -19.7423 -23.6806 42.2799 -4.1324 16.3412
# 5 24.7588 21.9026 9.3394 -4.1324 47.9596 -9.2572
# 6 -8.6765 -20.2569 -2.9386 16.3412 -9.2572 73.3024
#
#
#
# Elastic Compliance Matrix: (Units=1/GPa)
#
#
# Indices 1 2 3 4 5 6 
#
# 1 0.008531 -0.002808 -0.002087 0.003252 -0.002610 -0.000904
# 2 -0.002808 0.008066 -0.001380 0.000379 -0.001633 0.001551
# 3 -0.002087 -0.001380 0.013013 0.005774 -0.000613 -0.001471
# 4 0.003252 0.000379 0.005774 0.031580 -0.001512 -0.006510
# 5 -0.002610 -0.001633 -0.000613 -0.001512 0.023417 0.002510
# 6 -0.000904 0.001551 -0.001471 -0.006510 0.002510 0.015673
#
#
# Mechanical properties :
#
#
# Convention : Reuss Voigt Hill
#
# Bulk Modulus (GPa) = 58.61612 84.30951 71.46281
# Shear Modulus (GPa) = 42.18773 51.05420 46.62097
#
# Velocity S-wave (km/s) = 4.00214 4.40265 4.20716
# Velocity P-wave (km/s) = 6.60382 7.60616 7.12264
#
# Compressibility (1/GPa) = 0.01706015
#
# Stress axis : x y z
#
# Youngs Moduli (GPa) = 117.21872 123.97676 76.84349
#
# Poissons Ratio (x) = 0.34815 0.16034
# Poissons Ratio (y) = 0.32917 0.10607
# Poissons Ratio (z) = 0.24459 0.17113
#
# Static dielectric constant tensor:
#      x y z
#    x 2.124900 0.097610 0.004200 
#    y 0.097610 2.100760 -0.035350 
#    z 0.004200 -0.035350 2.196530 
# 
# From -- ./inp_files/383468.got.cif
#   From: 2010.05.17/outbox.cif.g08.bks.cpg/sg2_192_cif.got.tgz:383468.got - 2010.06.03 11:33:40.
