data_PCOD9015489
_publ_section_title
;
Structure prediction by ZEFSAII (Michael W. Deem and Ramdas Pophale) SiO2 
 PCOD9015489
Probable space group: P -1
;
_chemical_formula_sum "Si O2"
_cell_formula_units_Z 14
_cell_length_a 23.052223
_cell_length_b 20.876614
_cell_length_c 5.038008
_cell_angle_alpha 93.942494
_cell_angle_beta 86.377298
_cell_angle_gamma 168.088629
_cell_volume 499.141195
_symmetry_space_group_name_H-M "P -1"
_symmetry_group_IT_number 2
_symmetry_cell_setting 'triclinic'
loop_
_space_group_symop_operation_xyz
x,y,z
-x,-y,-z
loop_
_atom_site_type_symbol
_atom_site_label
_atom_site_fract_x
_atom_site_fract_y
_atom_site_fract_z
Si Si1 0.707707 0.484142 0.427751
Si Si2 0.302280 0.305357 0.749802
Si Si3 0.094812 0.435449 0.070527
Si Si4 0.261320 0.372945 0.128598
Si Si5 0.237488 0.728243 0.319150
Si Si6 0.766303 0.967800 0.954108
Si Si7 0.379022 0.019708 0.210598
O O1 0.760289 0.580204 0.709948
O O2 0.475111 0.266398 0.241155
O O3 0.571175 0.264917 0.439964
O O4 0.985581 0.784745 0.245965
O O5 0.500000 0.500000 0.500000
O O6 0.500000 0.500000 0.000000
O O7 0.230585 0.303131 0.830424
O O8 0.993922 0.939593 0.737743
O O9 0.397651 0.732804 0.020086
O O10 0.131795 0.545265 0.208475
O O11 0.890328 0.159347 0.154002
O O12 0.917994 0.265566 0.806924
O O13 0.607071 0.745647 0.127338
O O14 0.000000 0.500000 0.500000
O O15 0.500000 0.000000 0.500000
O O16 0.322922 0.882370 0.165763
#
# Coordination Sequence:
#
# PCOD9015489 Si02
#       7
#     2   2   2   2   2   2   2
#     4  10  24  43  69 103 140 186 243 297 370 440
#     4  11  28  49  76 112 151 198 249 301 372 448
#     4  10  21  42  63  89 129 181 231 290 358 438
#     4  11  26  42  76 103 150 188 236 309 356 458
#     4  12  24  36  60  94 130 174 232 298 356 430
#     4  10  24  43  69 103 140 186 243 297 370 440
#     4  10  21  42  63  89 129 181 231 290 358 438
#
# _framework density 28.048176000000002
#
# number of rings (size 3 to 8) (size 9 to 14) (size 15 to 20)
#    0.000    1.429    0.000    3.429   10.000    1.143 
#    0.000    0.000    0.000    0.000    0.000    0.000 
#    0.000    0.000    0.000    0.000    0.000    0.000 
#
# Total GULP energy -78037.512572 kJ/mol
# GULP energy per Si atom -5574.108041 kJ/mol
# Density = 2.798434 g / cm^3
# Si number density = 28.048176 Si / 1000 Ang^3
#
#
#
# Elastic Constant Matrix: (Units=GPa)
#
#
# Indices 1 2 3 4 5 6 
#
# 1 122.1903 64.5333 56.1021 14.7480 -42.9465 -23.5488
# 2 64.5333 222.9106 83.0665 -8.7050 -24.0170 -23.8529
# 3 56.1021 83.0665 185.4323 -8.7492 -45.3035 -11.1969
# 4 14.7480 -8.7050 -8.7492 47.5871 -3.7616 -23.2686
# 5 -42.9465 -24.0170 -45.3035 -3.7616 62.1670 19.8300
# 6 -23.5488 -23.8529 -11.1969 -23.2686 19.8300 90.6036
#
#
#
# Elastic Compliance Matrix: (Units=1/GPa)
#
#
# Indices 1 2 3 4 5 6 
#
# 1 0.013142 -0.002770 -0.001271 -0.004309 0.006846 -0.000076
# 2 -0.002770 0.006158 -0.002061 0.002242 -0.001388 0.001526
# 3 -0.001271 -0.002061 0.007782 0.001570 0.004230 -0.000434
# 4 -0.004309 0.002242 0.001570 0.026219 -0.001528 0.006732
# 5 0.006846 -0.001388 0.004230 -0.001528 0.024486 -0.003815
# 6 -0.000076 0.001526 -0.000434 0.006732 -0.003815 0.013929
#
#
# Mechanical properties :
#
#
# Convention : Reuss Voigt Hill
#
# Bulk Modulus (GPa) = 67.21464 104.21521 85.71493
# Shear Modulus (GPa) = 45.92230 61.86030 53.89130
#
# Velocity S-wave (km/s) = 4.05070 4.70137 4.38811
# Velocity P-wave (km/s) = 6.77448 8.16743 7.50335
#
# Compressibility (1/GPa) = 0.01487771
#
# Stress axis : x y z
#
# Youngs Moduli (GPa) = 76.09220 162.40353 128.50103
#
# Poissons Ratio (x) = 0.44984 0.16326
# Poissons Ratio (y) = 0.21077 0.26490
# Poissons Ratio (z) = 0.09668 0.33479
#
# Static dielectric constant tensor:
#      x y z
#    x 2.656870 -0.214150 0.110290 
#    y -0.214150 2.262840 -0.002880 
#    z 0.110290 -0.002880 2.222570 
# 
# From -- ./inp_files/10403.got.cif
#   From: 2010.05.17/outbox.cif.g08.bks.cpg/sg2_6_cif.got.tgz:10403.got - 2010.06.03 11:33:40.
