data_PCOD9015883
_publ_section_title
;
Structure prediction by ZEFSAII (Michael W. Deem and Ramdas Pophale) SiO2 
 PCOD9015883
Probable space group: P -1
;
_chemical_formula_sum "Si O2"
_cell_formula_units_Z 16
_cell_length_a 8.969033
_cell_length_b 9.295497
_cell_length_c 23.209692
_cell_angle_alpha 66.294041
_cell_angle_beta 148.145020
_cell_angle_gamma 96.792240
_cell_volume 829.339693
_symmetry_space_group_name_H-M "P -1"
_symmetry_group_IT_number 2
_symmetry_cell_setting 'triclinic'
loop_
_space_group_symop_operation_xyz
x,y,z
-x,-y,-z
loop_
_atom_site_type_symbol
_atom_site_label
_atom_site_fract_x
_atom_site_fract_y
_atom_site_fract_z
Si Si1 0.336020 0.871369 0.462414
Si Si2 0.654762 0.262505 0.857128
Si Si3 0.798365 0.986640 0.848919
Si Si4 0.141225 0.644099 0.628309
Si Si5 0.586979 0.741338 0.680897
Si Si6 0.679969 0.159115 0.247322
Si Si7 0.923409 0.547617 0.036295
Si Si8 0.559086 0.120000 0.632259
O O1 0.540759 0.722175 0.600621
O O2 0.347420 0.825776 0.406284
O O3 0.500000 0.000000 0.500000
O O4 0.969907 0.987330 0.343331
O O5 0.322116 0.433798 0.730898
O O6 0.889207 0.343420 0.902547
O O7 0.657203 0.135175 0.828182
O O8 0.843007 0.146934 0.992576
O O9 0.563394 0.894936 0.790085
O O10 0.792199 0.064860 0.771795
O O11 0.326407 0.697812 0.632662
O O12 0.174353 0.746663 0.678469
O O13 0.773627 0.723054 0.481339
O O14 0.919140 0.620628 0.842685
O O15 0.512564 0.944446 0.633558
O O16 0.448077 0.316209 0.103343
O O17 0.000000 0.500000 0.000000
#
# Coordination Sequence:
#
# PCOD9015883 Si02
#       8
#     2   2   2   2   2   2   2   2
#     4  10  21  33  47  77 112 140 175 215 258 302
#     4   9  20  34  53  86 107 128 166 233 258 310
#     4  10  20  35  57  77 109 137 173 206 276 311
#     4  11  18  31  57  80 104 128 183 220 258 296
#     4  10  17  30  50  78 104 132 167 221 260 300
#     4  11  18  33  55  83 103 137 172 223 257 311
#     4  10  17  30  55  82 103 127 172 220 265 301
#     4  11  20  32  51  76 107 146 172 212 256 314
#
# _framework density 19.292456999999999
#
# number of rings (size 3 to 8) (size 9 to 14) (size 15 to 20)
#    0.000    1.750    6.250    1.875    0.000    0.500 
#    0.000    3.750    0.000   13.500    0.000    0.000 
#    0.000    0.000    0.000    0.000    0.000    0.000 
#
# Total GULP energy -89114.483082 kJ/mol
# GULP energy per Si atom -5569.655193 kJ/mol
# Density = 1.924855 g / cm^3
# Si number density = 19.292457 Si / 1000 Ang^3
#
#
#
# Elastic Constant Matrix: (Units=GPa)
#
#
# Indices 1 2 3 4 5 6 
#
# 1 48.1422 -7.3255 36.8734 7.8545 -27.9686 -8.1389
# 2 -7.3255 40.9340 22.6096 -7.2630 -6.4104 -2.7159
# 3 36.8734 22.6096 127.4544 -9.8735 -42.1835 -9.3097
# 4 7.8545 -7.2630 -9.8735 8.1659 1.8240 -9.2884
# 5 -27.9686 -6.4104 -42.1835 1.8240 22.6552 11.5494
# 6 -8.1389 -2.7159 -9.3097 -9.2884 11.5494 4.5345
#
#
#
# Elastic Compliance Matrix: (Units=1/GPa)
#
#
# Indices 1 2 3 4 5 6 
#
# 1 0.055464 0.025343 0.000560 0.027403 0.044263 0.059273
# 2 0.025343 0.038075 -0.001530 0.013849 0.032098 0.011764
# 3 0.000560 -0.001530 0.022468 0.026040 0.036043 0.007758
# 4 0.027403 0.013849 0.026040 0.055261 0.108827 -0.053045
# 5 0.044263 0.032098 0.036043 0.108827 0.118794 0.093022
# 6 0.059273 0.011764 0.007758 -0.053045 0.093022 0.004309
#
#
# Mechanical properties :
#
#
# Convention : Reuss Voigt Hill
#
# Bulk Modulus (GPa) = 6.06974 35.64950 20.85962
# Shear Modulus (GPa) = 16.63654 18.02933 17.33293
#
# Velocity S-wave (km/s) = 2.93974 3.06032 3.00063
# Velocity P-wave (km/s) = 3.83089 5.56830 4.77921
#
# Compressibility (1/GPa) = 0.16475167
#
# Stress axis : x y z
#
# Youngs Moduli (GPa) = 18.02985 26.26427 44.50703
#
# Poissons Ratio (x) = -0.66560 -0.02494
# Poissons Ratio (y) = -0.45692 0.06811
# Poissons Ratio (z) = -0.01010 0.04019
#
# Static dielectric constant tensor:
#      x y z
#    x 1.683380 -0.018230 -0.037910 
#    y -0.018230 1.702920 -0.027660 
#    z -0.037910 -0.027660 1.752550 
# 
# From -- ./inp_files/586729.got.cif
#   From: 2010.05.17/outbox.cif.g08.bks.cpg/sg2_294_cif.got.tgz:586729.got - 2010.06.03 11:33:40.
