data_PCOD9015507
_publ_section_title
;
Structure prediction by ZEFSAII (Michael W. Deem and Ramdas Pophale) SiO2 
 PCOD9015507
Probable space group: P -1
;
_chemical_formula_sum "Si O2"
_cell_formula_units_Z 16
_cell_length_a 11.925224
_cell_length_b 14.588027
_cell_length_c 12.607235
_cell_angle_alpha 61.994803
_cell_angle_beta 85.834444
_cell_angle_gamma 33.477320
_cell_volume 807.075297
_symmetry_space_group_name_H-M "P -1"
_symmetry_group_IT_number 2
_symmetry_cell_setting 'triclinic'
loop_
_space_group_symop_operation_xyz
x,y,z
-x,-y,-z
loop_
_atom_site_type_symbol
_atom_site_label
_atom_site_fract_x
_atom_site_fract_y
_atom_site_fract_z
Si Si1 0.825635 0.628358 0.835407
Si Si2 0.849932 0.976065 0.801867
Si Si3 0.224406 0.252772 0.821145
Si Si4 0.957464 0.005937 0.378875
Si Si5 0.636623 0.489102 0.449773
Si Si6 0.361583 0.447663 0.158640
Si Si7 0.515477 0.895070 0.332869
Si Si8 0.797947 0.478169 0.649441
O O1 0.702436 0.615601 0.842883
O O2 0.019990 0.474708 0.801396
O O3 0.593005 0.909164 0.712889
O O4 0.000000 0.500000 0.000000
O O5 0.921169 0.001154 0.694243
O O6 0.593811 0.245865 0.730923
O O7 0.732945 0.968775 0.762535
O O8 0.115315 0.725276 0.985028
O O9 0.301456 0.242640 0.710119
O O10 0.093067 0.253373 0.795074
O O11 0.500000 0.000000 0.000000
O O12 0.658512 0.238649 0.227264
O O13 0.000000 0.000000 0.500000
O O14 0.116865 0.763291 0.494166
O O15 0.500000 0.500000 0.500000
O O16 0.761812 0.447871 0.560551
O O17 0.358258 0.446444 0.287168
O O18 0.676604 0.693182 0.517210
#
# Coordination Sequence:
#
# PCOD9015507 Si02
#       8
#     2   2   2   2   2   2   2   2
#     4  11  22  40  65  95 132 166 209 263 320 371
#     4  10  21  42  63  92 127 165 209 262 317 375
#     4  11  22  37  62  91 126 168 207 255 314 375
#     4  11  23  42  65  93 125 162 213 261 320 381
#     4   9  20  40  63  85 119 161 201 258 312 370
#     4  11  22  40  66  93 126 167 209 266 315 377
#     4  11  21  42  63  91 132 167 211 265 312 380
#     4  10  23  41  61  90 128 161 212 259 313 381
#
# _framework density 19.824669
#
# number of rings (size 3 to 8) (size 9 to 14) (size 15 to 20)
#    0.000    1.500    2.500    3.750    1.750    2.000 
#    9.000    6.875    0.000    0.000    0.000    0.000 
#    0.000    0.000    0.000    0.000    0.000    0.000 
#
# Total GULP energy -89200.739366 kJ/mol
# GULP energy per Si atom -5575.046210 kJ/mol
# Density = 1.977955 g / cm^3
# Si number density = 19.824669 Si / 1000 Ang^3
#
#
#
# Elastic Constant Matrix: (Units=GPa)
#
#
# Indices 1 2 3 4 5 6 
#
# 1 75.8570 42.9608 17.0006 -15.9240 5.8184 12.2842
# 2 42.9608 112.3963 44.4304 -0.2188 -2.2971 18.9859
# 3 17.0006 44.4304 85.1750 -11.3860 1.5807 22.3421
# 4 -15.9240 -0.2188 -11.3860 28.3624 -6.9544 -6.5606
# 5 5.8184 -2.2971 1.5807 -6.9544 36.8228 -4.8679
# 6 12.2842 18.9859 22.3421 -6.5606 -4.8679 42.0647
#
#
#
# Elastic Compliance Matrix: (Units=1/GPa)
#
#
# Indices 1 2 3 4 5 6 
#
# 1 0.020218 -0.008369 0.002363 0.011340 -0.001919 -0.001835
# 2 -0.008369 0.015070 -0.006723 -0.007491 0.000891 -0.001852
# 3 0.002363 -0.006723 0.017221 0.006559 -0.001074 -0.005904
# 4 0.011340 -0.007491 0.006559 0.046999 0.006960 0.004721
# 5 -0.001919 0.000891 -0.001074 0.006960 0.029569 0.005236
# 6 -0.001835 -0.001852 -0.005904 0.004721 0.005236 0.029623
#
#
# Mechanical properties :
#
#
# Convention : Reuss Voigt Hill
#
# Bulk Modulus (GPa) = 36.96620 53.57909 45.27264
# Shear Modulus (GPa) = 25.88351 32.71908 29.30129
#
# Velocity S-wave (km/s) = 3.61726 4.06695 3.84868
# Velocity P-wave (km/s) = 6.01108 7.00989 6.52961
#
# Compressibility (1/GPa) = 0.02705174
#
# Stress axis : x y z
#
# Youngs Moduli (GPa) = 49.46148 66.35714 58.06852
#
# Poissons Ratio (x) = 0.55534 -0.13723
# Poissons Ratio (y) = 0.41394 0.39038
# Poissons Ratio (z) = -0.11689 0.44610
#
# Static dielectric constant tensor:
#      x y z
#    x 1.694720 -0.039450 0.000050 
#    y -0.039450 1.773100 -0.041380 
#    z 0.000050 -0.041380 1.713680 
# 
# From -- ./inp_files/433812.got.cif
#   From: 2010.05.17/outbox.cif.g08.bks.cpg/sg2_217_cif.got.tgz:433812.got - 2010.06.03 11:33:40.
