data_PCOD9015934
_publ_section_title
;
Structure prediction by ZEFSAII (Michael W. Deem and Ramdas Pophale) SiO2 
 PCOD9015934
Probable space group: P -1
;
_chemical_formula_sum "Si O2"
_cell_formula_units_Z 14
_cell_length_a 16.790670
_cell_length_b 11.130715
_cell_length_c 6.582059
_cell_angle_alpha 106.650430
_cell_angle_beta 71.751030
_cell_angle_gamma 148.349306
_cell_volume 612.542711
_symmetry_space_group_name_H-M "P -1"
_symmetry_group_IT_number 2
_symmetry_cell_setting 'triclinic'
loop_
_space_group_symop_operation_xyz
x,y,z
-x,-y,-z
loop_
_atom_site_type_symbol
_atom_site_label
_atom_site_fract_x
_atom_site_fract_y
_atom_site_fract_z
Si Si1 0.411415 0.677776 0.478377
Si Si2 0.656716 0.880803 0.090644
Si Si3 0.143257 0.954379 0.646928
Si Si4 0.191525 0.514324 0.258653
Si Si5 0.379144 0.953406 0.147364
Si Si6 0.747746 0.630911 0.178300
Si Si7 0.416853 0.317103 0.303045
O O1 0.511826 0.711504 0.274531
O O2 0.328300 0.667129 0.385886
O O3 0.277009 0.446608 0.607172
O O4 0.532928 0.882103 0.644511
O O5 0.801544 0.054656 0.205895
O O6 0.654221 0.750755 0.894826
O O7 0.655452 0.993599 0.983923
O O8 0.971962 0.702136 0.609912
O O9 0.159907 0.123569 0.770498
O O10 0.266633 0.084092 0.434060
O O11 0.227003 0.689881 0.207364
O O12 0.196935 0.409188 0.035032
O O13 0.500000 0.000000 0.000000
O O14 0.570897 0.436627 0.165990
O O15 0.500000 0.500000 0.500000
#
# Coordination Sequence:
#
# PCOD9015934 Si02
#       7
#     2   2   2   2   2   2   2
#     4  12  22  42  75 100 127 184 232 280 334 396
#     4  12  23  44  71  99 138 176 229 281 338 401
#     4  11  27  43  66 107 143 176 215 287 357 392
#     4  12  26  44  70 102 140 176 227 290 340 391
#     4  12  23  44  73 102 129 179 248 272 322 421
#     4  11  22  44  70 103 134 177 236 264 338 428
#     4  10  21  42  65  99 132 175 230 264 323 420
#
# _framework density 22.855549
#
# number of rings (size 3 to 8) (size 9 to 14) (size 15 to 20)
#    0.000    0.571    7.143    0.857    0.000    6.857 
#    0.000    2.857    0.000    0.000    0.000    0.000 
#    0.000    0.000    0.000    0.000    0.000    0.000 
#
# Total GULP energy -78044.928964 kJ/mol
# GULP energy per Si atom -5574.637783 kJ/mol
# Density = 2.280353 g / cm^3
# Si number density = 22.855549 Si / 1000 Ang^3
#
#
#
# Elastic Constant Matrix: (Units=GPa)
#
#
# Indices 1 2 3 4 5 6 
#
# 1 56.6388 24.2918 32.2116 -2.4117 12.1834 -15.1370
# 2 24.2918 128.4095 23.8311 -19.2658 -4.2152 -4.9034
# 3 32.2116 23.8311 146.3235 2.8618 -1.4544 -3.1724
# 4 -2.4117 -19.2658 2.8618 30.0850 -3.7895 2.8827
# 5 12.1834 -4.2152 -1.4544 -3.7895 32.3405 -9.2689
# 6 -15.1370 -4.9034 -3.1724 2.8827 -9.2689 34.0031
#
#
#
# Elastic Compliance Matrix: (Units=1/GPa)
#
#
# Indices 1 2 3 4 5 6 
#
# 1 0.026346 -0.004332 -0.004954 -0.002078 -0.008521 0.008495
# 2 -0.004332 0.009830 -0.000742 0.006486 0.003597 -0.000149
# 3 -0.004954 -0.000742 0.008067 -0.001332 0.001694 -0.000985
# 4 -0.002078 0.006486 -0.001332 0.038225 0.005517 -0.001851
# 5 -0.008521 0.003597 0.001694 0.005517 0.037202 0.006556
# 6 0.008495 -0.000149 -0.000985 -0.001851 0.006556 0.035021
#
#
# Mechanical properties :
#
#
# Convention : Reuss Voigt Hill
#
# Bulk Modulus (GPa) = 41.34292 54.67121 48.00707
# Shear Modulus (GPa) = 27.35098 36.02154 31.68626
#
# Velocity S-wave (km/s) = 3.46307 3.97426 3.72744
# Velocity P-wave (km/s) = 5.84111 6.71058 6.29088
#
# Compressibility (1/GPa) = 0.02418794
#
# Stress axis : x y z
#
# Youngs Moduli (GPa) = 37.95661 101.72801 123.95999
#
# Poissons Ratio (x) = 0.44065 0.61412
# Poissons Ratio (y) = 0.16441 0.09195
# Poissons Ratio (z) = 0.18804 0.07546
#
# Static dielectric constant tensor:
#      x y z
#    x 2.019540 -0.168280 -0.035040 
#    y -0.168280 1.916110 0.029740 
#    z -0.035040 0.029740 1.865860 
# 
# From -- ./inp_files/109774.got.cif
#   From: 2010.05.17/outbox.cif.g08.bks.cpg/sg2_55_cif.got.tgz:109774.got - 2010.06.03 11:33:40.
