data_PCOD9015738
_publ_section_title
;
Structure prediction by ZEFSAII (Michael W. Deem and Ramdas Pophale) SiO2 
 PCOD9015738
Probable space group: P -1
;
_chemical_formula_sum "Si O2"
_cell_formula_units_Z 14
_cell_length_a 11.004080
_cell_length_b 5.019842
_cell_length_c 12.551916
_cell_angle_alpha 60.721215
_cell_angle_beta 118.656232
_cell_angle_gamma 93.063854
_cell_volume 515.633657
_symmetry_space_group_name_H-M "P -1"
_symmetry_group_IT_number 2
_symmetry_cell_setting 'triclinic'
loop_
_space_group_symop_operation_xyz
x,y,z
-x,-y,-z
loop_
_atom_site_type_symbol
_atom_site_label
_atom_site_fract_x
_atom_site_fract_y
_atom_site_fract_z
Si Si1 0.750181 0.144737 0.587323
Si Si2 0.860946 0.367149 0.269193
Si Si3 0.292699 0.879548 0.096150
Si Si4 0.452444 0.441696 0.871724
Si Si5 0.401267 0.187892 0.273977
Si Si6 0.026771 0.788386 0.886714
Si Si7 0.156156 0.257390 0.504697
O O1 0.608844 0.087918 0.595451
O O2 0.750910 0.493180 0.482990
O O3 0.794597 0.909786 0.554197
O O4 0.879445 0.034173 0.748038
O O5 0.708335 0.587975 0.186774
O O6 0.902105 0.348271 0.167434
O O7 0.989519 0.428359 0.382304
O O8 0.844488 0.017338 0.359273
O O9 0.424641 0.824350 0.079119
O O10 0.315850 0.119789 0.147143
O O11 0.320486 0.521946 0.225006
O O12 0.139590 0.942190 0.965292
O O13 0.460088 0.737100 0.737619
O O14 0.500000 0.500000 0.000000
O O15 0.000000 0.500000 0.000000
#
# Coordination Sequence:
#
# PCOD9015738 Si02
#       7
#     2   2   2   2   2   2   2
#     4  11  23  43  69  93 136 164 231 267 326 382
#     4  10  22  45  67  97 135 170 226 267 327 390
#     4  10  22  39  61  94 135 163 213 252 339 384
#     4  10  21  42  64  98 133 175 209 270 328 400
#     4  10  22  40  62  92 133 170 210 268 314 397
#     4  11  21  38  67 101 131 172 210 276 333 389
#     4  10  25  45  68  97 124 184 218 275 316 385
#
# _framework density 27.151057999999999
#
# number of rings (size 3 to 8) (size 9 to 14) (size 15 to 20)
#    0.857    0.857    2.857    0.857    2.000    9.714 
#    7.714    1.429    0.000    0.000    0.000    0.000 
#    0.000    0.000    0.000    0.000    0.000    0.000 
#
# Total GULP energy -78518.662948 kJ/mol
# GULP energy per Si atom -5608.475925 kJ/mol
# Density = 2.708926 g / cm^3
# Si number density = 27.151058 Si / 1000 Ang^3
#
#
#
# Elastic Constant Matrix: (Units=GPa)
#
#
# Indices 1 2 3 4 5 6 
#
# 1 154.0561 33.3154 53.5471 -1.9014 -30.6434 25.6703
# 2 33.3154 110.1932 24.9395 -8.3144 -0.9161 16.5619
# 3 53.5471 24.9395 94.9585 -14.0610 -10.9384 19.1530
# 4 -1.9014 -8.3144 -14.0610 40.0556 18.1884 0.1208
# 5 -30.6434 -0.9161 -10.9384 18.1884 53.9969 -2.1294
# 6 25.6703 16.5619 19.1530 0.1208 -2.1294 30.5698
#
#
#
# Elastic Compliance Matrix: (Units=1/GPa)
#
#
# Indices 1 2 3 4 5 6 
#
# 1 0.010309 -0.001711 -0.004353 -0.004181 0.006168 -0.004556
# 2 -0.001711 0.010562 -0.000849 0.002754 -0.002045 -0.003907
# 3 -0.004353 -0.000849 0.014941 0.005582 -0.001551 -0.005375
# 4 -0.004181 0.002754 0.005582 0.032929 -0.012384 -0.002471
# 5 0.006168 -0.002045 -0.001551 -0.012384 0.025793 -0.001254
# 6 -0.004556 -0.003907 -0.005375 -0.002471 -0.001254 0.041945
#
#
# Mechanical properties :
#
#
# Convention : Reuss Voigt Hill
#
# Bulk Modulus (GPa) = 45.48483 64.75688 55.12086
# Shear Modulus (GPa) = 31.71897 41.41819 36.56858
#
# Velocity S-wave (km/s) = 3.42166 3.90997 3.67394
# Velocity P-wave (km/s) = 5.69203 6.65478 6.19215
#
# Compressibility (1/GPa) = 0.02198535
#
# Stress axis : x y z
#
# Youngs Moduli (GPa) = 97.00531 94.67543 66.92988
#
# Poissons Ratio (x) = 0.16198 0.29138
# Poissons Ratio (y) = 0.16596 0.05683
# Poissons Ratio (z) = 0.42231 0.08039
#
# Static dielectric constant tensor:
#      x y z
#    x 2.103690 0.050010 0.003990 
#    y 0.050010 2.068470 -0.066150 
#    z 0.003990 -0.066150 2.201200 
# 
# From -- ./inp_files/510126.got.cif
#   From: 2010.05.17/outbox.cif.g08.bks.cpg/sg2_256_cif.got.tgz:510126.got - 2010.06.03 11:33:40.
