data_PCOD9015859
_publ_section_title
;
Structure prediction by ZEFSAII (Michael W. Deem and Ramdas Pophale) SiO2 
 PCOD9015859
Probable space group: P -1
;
_chemical_formula_sum "Si O2"
_cell_formula_units_Z 15
_cell_length_a 9.155696
_cell_length_b 20.417011
_cell_length_c 15.723633
_cell_angle_alpha 147.604126
_cell_angle_beta 25.699910
_cell_angle_gamma 141.242851
_cell_volume 680.623119
_symmetry_space_group_name_H-M "P -1"
_symmetry_group_IT_number 2
_symmetry_cell_setting 'triclinic'
loop_
_space_group_symop_operation_xyz
x,y,z
-x,-y,-z
loop_
_atom_site_type_symbol
_atom_site_label
_atom_site_fract_x
_atom_site_fract_y
_atom_site_fract_z
Si Si1 0.757012 0.892804 0.620764
Si Si2 0.900196 0.794084 0.618836
Si Si3 0.216090 0.995859 0.796291
Si Si4 0.163903 0.554684 0.271259
Si Si5 0.000000 0.500000 0.500000
Si Si6 0.899654 0.865746 0.329272
Si Si7 0.847534 0.326682 0.118820
Si Si8 0.007550 0.765902 0.872093
O O1 0.889025 0.828148 0.563214
O O2 0.953122 0.865618 0.401868
O O3 0.373311 0.840641 0.749169
O O4 0.815410 0.039936 0.760443
O O5 0.531040 0.728313 0.761440
O O6 0.000598 0.916378 0.752581
O O7 0.154819 0.694407 0.401344
O O8 0.553940 0.927628 0.559145
O O9 0.000000 0.000000 0.000000
O O10 0.266276 0.136694 0.893778
O O11 0.095797 0.536960 0.388248
O O12 0.881937 0.471419 0.273782
O O13 0.500000 0.500000 0.000000
O O14 0.021090 0.353575 0.303217
O O15 0.919383 0.729277 0.135580
O O16 0.976965 0.274719 0.082987
#
# Coordination Sequence:
#
# PCOD9015859 Si02
#       8
#     2   2   2   2   1   2   2   2
#     4  10  23  41  65  92 136 168 217 271 335 391
#     4  11  24  44  67  95 134 176 220 274 337 403
#     4  12  23  37  65  95 129 169 221 269 334 390
#     4  11  24  44  69 100 136 179 225 278 340 398
#     4  10  24  44  68  98 138 170 224 276 330 400
#     4  11  23  41  64 100 132 170 224 280 324 404
#     4  10  23  41  67  91 131 177 221 274 333 399
#     4  10  21  42  65  94 130 178 214 272 339 391
#
# _framework density 22.038629
#
# number of rings (size 3 to 8) (size 9 to 14) (size 15 to 20)
#    0.000    1.333    1.333    3.600    3.733    6.400 
#    2.400    0.667    0.000    0.000    0.000    0.000 
#    0.000    0.000    0.000    0.000    0.000    0.000 
#
# Total GULP energy -83588.637506 kJ/mol
# GULP energy per Si atom -5572.575834 kJ/mol
# Density = 2.198847 g / cm^3
# Si number density = 22.038629 Si / 1000 Ang^3
#
#
#
# Elastic Constant Matrix: (Units=GPa)
#
#
# Indices 1 2 3 4 5 6 
#
# 1 96.3882 24.2814 58.8342 11.0536 7.5968 3.4534
# 2 24.2814 75.9093 32.6122 18.9870 0.1101 4.8349
# 3 58.8342 32.6122 127.4743 28.5323 6.0680 9.1043
# 4 11.0536 18.9870 28.5323 40.0911 9.0618 -1.1580
# 5 7.5968 0.1101 6.0680 9.0618 30.0198 7.4461
# 6 3.4534 4.8349 9.1043 -1.1580 7.4461 34.0648
#
#
#
# Elastic Compliance Matrix: (Units=1/GPa)
#
#
# Indices 1 2 3 4 5 6 
#
# 1 0.015167 -0.002710 -0.006891 0.002889 -0.003704 0.001597
# 2 -0.002710 0.016567 -0.001395 -0.007024 0.003710 -0.002753
# 3 -0.006891 -0.001395 0.013175 -0.007398 0.002149 -0.003346
# 4 0.002889 -0.007024 -0.007398 0.035528 -0.011524 0.006408
# 5 -0.003704 0.003710 0.002149 -0.011524 0.039709 -0.009797
# 6 0.001597 -0.002753 -0.003346 0.006408 -0.009797 0.032838
#
#
# Mechanical properties :
#
#
# Convention : Reuss Voigt Hill
#
# Bulk Modulus (GPa) = 43.63890 59.02528 51.33209
# Shear Modulus (GPa) = 27.37982 33.10473 30.24228
#
# Velocity S-wave (km/s) = 3.52853 3.87993 3.70839
# Velocity P-wave (km/s) = 6.03695 6.84928 6.45590
#
# Compressibility (1/GPa) = 0.02291533
#
# Stress axis : x y z
#
# Youngs Moduli (GPa) = 65.93201 60.36158 75.90226
#
# Poissons Ratio (x) = 0.16358 0.52307
# Poissons Ratio (y) = 0.17867 0.10592
# Poissons Ratio (z) = 0.45436 0.08423
#
# Static dielectric constant tensor:
#      x y z
#    x 1.797690 0.028530 -0.028030 
#    y 0.028530 1.885430 -0.030270 
#    z -0.028030 -0.030270 1.815520 
# 
# From -- ./inp_files/466020.got.cif
#   From: 2010.05.17/outbox.cif.g08.bks.cpg/sg2_234_cif.got.tgz:466020.got - 2010.06.03 11:33:40.
