data_PCOD9015095
_publ_section_title
;
Structure prediction by ZEFSAII (Michael W. Deem and Ramdas Pophale) SiO2 
 PCOD9015095
Probable space group: P -1
;
_chemical_formula_sum "Si O2"
_cell_formula_units_Z 12
_cell_length_a 18.076692
_cell_length_b 7.832625
_cell_length_c 9.590915
_cell_angle_alpha 149.777616
_cell_angle_beta 136.449110
_cell_angle_gamma 45.193504
_cell_volume 458.745800
_symmetry_space_group_name_H-M "P -1"
_symmetry_group_IT_number 2
_symmetry_cell_setting 'triclinic'
loop_
_space_group_symop_operation_xyz
x,y,z
-x,-y,-z
loop_
_atom_site_type_symbol
_atom_site_label
_atom_site_fract_x
_atom_site_fract_y
_atom_site_fract_z
Si Si1 0.034071 0.987805 0.203325
Si Si2 0.815947 0.579012 0.127178
Si Si3 0.619960 0.942065 0.433325
Si Si4 0.209107 0.764819 0.877040
Si Si5 0.606353 0.938034 0.729951
Si Si6 0.393782 0.835073 0.726331
O O1 0.104700 0.252517 0.544215
O O2 0.116666 0.609609 0.045300
O O3 0.921467 0.078552 0.201379
O O4 0.000000 0.000000 0.000000
O O5 0.779082 0.296460 0.980748
O O6 0.710578 0.878353 0.160898
O O7 0.725110 0.619718 0.352843
O O8 0.598299 0.068025 0.650080
O O9 0.499014 0.846710 0.178549
O O10 0.626133 0.185186 0.482411
O O11 0.271988 0.002532 0.041417
O O12 0.603289 0.538648 0.468600
O O13 0.500000 0.000000 0.000000
#
# Coordination Sequence:
#
# PCOD9015095 Si02
#       6
#     2   2   2   2   2   2
#     4  10  21  41  71 105 138 188 240 289 355 425
#     4  10  24  42  70 103 144 184 239 292 355 425
#     4  10  25  43  67  98 142 177 234 285 362 411
#     4  10  22  38  70  99 136 181 234 291 349 418
#     4  11  25  42  69 104 139 180 240 294 351 426
#     4  11  27  45  69 103 142 190 230 293 363 427
#
# _framework density 26.158276000000001
#
# number of rings (size 3 to 8) (size 9 to 14) (size 15 to 20)
#    0.000    1.667    0.000    3.000   23.333    1.333 
#    0.000    1.667    0.000    0.000    0.000    0.000 
#    0.000    0.000    0.000    0.000    0.000    0.000 
#
# Total GULP energy -66997.206294 kJ/mol
# GULP energy per Si atom -5583.100525 kJ/mol
# Density = 2.609874 g / cm^3
# Si number density = 26.158276 Si / 1000 Ang^3
#
#
#
# Elastic Constant Matrix: (Units=GPa)
#
#
# Indices 1 2 3 4 5 6 
#
# 1 161.0703 72.5728 45.7798 3.8862 3.7846 -24.6193
# 2 72.5728 141.6738 45.9837 27.4469 9.0843 -23.5353
# 3 45.7798 45.9837 123.9136 15.5249 5.0398 6.5219
# 4 3.8862 27.4469 15.5249 40.4591 -1.8595 -3.8435
# 5 3.7846 9.0843 5.0398 -1.8595 38.1663 7.0448
# 6 -24.6193 -23.5353 6.5219 -3.8435 7.0448 68.3144
#
#
#
# Elastic Compliance Matrix: (Units=1/GPa)
#
#
# Indices 1 2 3 4 5 6 
#
# 1 0.008953 -0.004063 -0.002296 0.002992 0.000122 0.002202
# 2 -0.004063 0.011730 -0.002039 -0.006663 -0.002943 0.002700
# 3 -0.002296 -0.002039 0.010143 -0.002549 -0.000268 -0.002614
# 4 0.002992 -0.006663 -0.002549 0.030105 0.003017 0.000409
# 5 0.000122 -0.002943 -0.000268 0.003017 0.027743 -0.003636
# 6 0.002202 0.002700 -0.002614 0.000409 -0.003636 0.017009
#
#
# Mechanical properties :
#
#
# Convention : Reuss Voigt Hill
#
# Bulk Modulus (GPa) = 71.27671 83.92556 77.60113
# Shear Modulus (GPa) = 39.32213 46.87606 43.09910
#
# Velocity S-wave (km/s) = 3.88137 4.23781 4.06350
# Velocity P-wave (km/s) = 6.88434 7.48991 7.19350
#
# Compressibility (1/GPa) = 0.01402983
#
# Stress axis : x y z
#
# Youngs Moduli (GPa) = 111.69485 85.25364 98.59104
#
# Poissons Ratio (x) = 0.34636 0.22633
# Poissons Ratio (y) = 0.45378 0.20107
# Poissons Ratio (z) = 0.25642 0.17387
#
# Static dielectric constant tensor:
#      x y z
#    x 2.032130 -0.067100 0.035510 
#    y -0.067100 2.239890 -0.178540 
#    z 0.035510 -0.178540 2.271720 
# 
# From -- ./inp_files/461735.got.cif
#   From: 2010.05.17/outbox.cif.g08.bks.cpg/sg2_231_cif.got.tgz:461735.got - 2010.06.03 11:33:40.
