data_PCOD9015096
_publ_section_title
;
Structure prediction by ZEFSAII (Michael W. Deem and Ramdas Pophale) SiO2 
 PCOD9015096
Probable space group: P -1
;
_chemical_formula_sum "Si O2"
_cell_formula_units_Z 14
_cell_length_a 11.627122
_cell_length_b 13.362040
_cell_length_c 13.824015
_cell_angle_alpha 146.725446
_cell_angle_beta 149.568739
_cell_angle_gamma 31.431986
_cell_volume 524.764306
_symmetry_space_group_name_H-M "P -1"
_symmetry_group_IT_number 2
_symmetry_cell_setting 'triclinic'
loop_
_space_group_symop_operation_xyz
x,y,z
-x,-y,-z
loop_
_atom_site_type_symbol
_atom_site_label
_atom_site_fract_x
_atom_site_fract_y
_atom_site_fract_z
Si Si1 0.775863 0.189802 0.931345
Si Si2 0.825257 0.396566 0.319187
Si Si3 0.822638 0.865908 0.974088
Si Si4 0.374567 0.838578 0.564776
Si Si5 0.393865 0.343383 0.008389
Si Si6 0.930960 0.763944 0.192477
Si Si7 0.289256 0.157409 0.598011
O O1 0.728581 0.362144 0.116440
O O2 0.910759 0.212566 0.952303
O O3 0.536378 0.144746 0.709684
O O4 0.000000 0.000000 0.000000
O O5 0.038480 0.223534 0.404498
O O6 0.000000 0.500000 0.500000
O O7 0.549768 0.474021 0.235103
O O8 0.674410 0.742535 0.729401
O O9 0.848897 0.842341 0.087814
O O10 0.633706 0.106694 0.002996
O O11 0.229525 0.705584 0.369324
O O12 0.225029 0.032253 0.687474
O O13 0.342927 0.950871 0.528830
O O14 0.181332 0.382653 0.966846
O O15 0.263777 0.322508 0.797195
#
# Coordination Sequence:
#
# PCOD9015096 Si02
#       7
#     2   2   2   2   2   2   2
#     4  11  20  36  51  81 113 135 172 216 265 314
#     4  11  23  37  55  76 102 143 184 213 258 313
#     4  10  17  30  49  75 113 136 158 215 263 308
#     4   9  16  27  47  79 105 133 173 204 259 320
#     4   9  18  33  49  77 107 134 173 217 256 310
#     4   9  17  27  46  74 107 140 165 207 259 307
#     4   9  19  33  53  75 107 139 169 219 264 302
#
# _framework density 26.678642
#
# number of rings (size 3 to 8) (size 9 to 14) (size 15 to 20)
#    0.000    2.571    4.286    2.571    0.000    6.286 
#    0.000    0.000    0.000    0.857    0.000    6.000 
#    0.000    0.000    0.000    0.000    0.000    0.000 
#
# Total GULP energy -78239.363001 kJ/mol
# GULP energy per Si atom -5588.525929 kJ/mol
# Density = 2.661792 g / cm^3
# Si number density = 26.678642 Si / 1000 Ang^3
#
#
#
# Elastic Constant Matrix: (Units=GPa)
#
#
# Indices 1 2 3 4 5 6 
#
# 1 200.8292 9.4802 91.1686 -13.3565 58.5496 -18.1092
# 2 9.4802 60.4018 27.3232 -14.7916 3.7938 -4.3530
# 3 91.1686 27.3232 228.1545 -21.7259 52.7217 -1.0052
# 4 -13.3565 -14.7916 -21.7259 43.2876 -2.6454 7.6947
# 5 58.5496 3.7938 52.7217 -2.6454 56.9907 -6.2384
# 6 -18.1092 -4.3530 -1.0052 7.6947 -6.2384 19.4354
#
#
#
# Elastic Compliance Matrix: (Units=1/GPa)
#
#
# Indices 1 2 3 4 5 6 
#
# 1 0.008050 0.000421 -0.001819 0.000384 -0.006004 0.005422
# 2 0.000421 0.018835 -0.002116 0.005063 0.000808 0.002756
# 3 -0.001819 -0.002116 0.006615 0.002519 -0.004458 -0.004256
# 4 0.000384 0.005063 0.002519 0.027876 -0.002901 -0.010345
# 5 -0.006004 0.000808 -0.004458 -0.002901 0.028148 0.004539
# 6 0.005422 0.002756 -0.004256 -0.010345 0.004539 0.062455
#
#
# Mechanical properties :
#
#
# Convention : Reuss Voigt Hill
#
# Bulk Modulus (GPa) = 37.77706 82.81441 60.29573
# Shear Modulus (GPa) = 29.79193 48.03698 38.91446
#
# Velocity S-wave (km/s) = 3.34533 4.24793 3.82335
# Velocity P-wave (km/s) = 5.39559 7.42756 6.49157
#
# Compressibility (1/GPa) = 0.02647109
#
# Stress axis : x y z
#
# Youngs Moduli (GPa) = 124.21920 53.09312 151.17588
#
# Poissons Ratio (x) = -0.02237 0.27505
# Poissons Ratio (y) = -0.05235 0.31995
# Poissons Ratio (z) = 0.22601 0.11237
#
# Static dielectric constant tensor:
#      x y z
#    x 2.272700 -0.040470 0.015590 
#    y -0.040470 2.270010 0.188790 
#    z 0.015590 0.188790 2.174590 
# 
# From -- ./inp_files/521052.got.cif
#   From: 2010.05.17/outbox.cif.g08.bks.cpg/sg2_261_cif.got.tgz:521052.got - 2010.06.03 11:33:40.
