data_PCOD9015878
_publ_section_title
;
Structure prediction by ZEFSAII (Michael W. Deem and Ramdas Pophale) SiO2 
 PCOD9015878
Probable space group: P -1
;
_chemical_formula_sum "Si O2"
_cell_formula_units_Z 14
_cell_length_a 11.849582
_cell_length_b 9.324058
_cell_length_c 12.860488
_cell_angle_alpha 119.505123
_cell_angle_beta 36.569169
_cell_angle_gamma 130.078958
_cell_volume 646.813196
_symmetry_space_group_name_H-M "P -1"
_symmetry_group_IT_number 2
_symmetry_cell_setting 'triclinic'
loop_
_space_group_symop_operation_xyz
x,y,z
-x,-y,-z
loop_
_atom_site_type_symbol
_atom_site_label
_atom_site_fract_x
_atom_site_fract_y
_atom_site_fract_z
Si Si1 0.329015 0.791832 0.522641
Si Si2 0.281692 0.060836 0.026712
Si Si3 0.151706 0.352298 0.145501
Si Si4 0.057638 0.973913 0.563994
Si Si5 0.280346 0.736882 0.302934
Si Si6 0.930023 0.812677 0.057200
Si Si7 0.426144 0.302567 0.539718
O O1 0.361795 0.742276 0.363237
O O2 0.360584 0.679490 0.554209
O O3 0.098027 0.781622 0.691125
O O4 0.500000 0.000000 0.500000
O O5 0.285872 0.248435 0.042136
O O6 0.137366 0.033731 0.224988
O O7 0.528636 0.110284 0.856100
O O8 0.145028 0.881233 0.990526
O O9 0.211581 0.540412 0.229210
O O10 0.148576 0.358802 0.025568
O O11 0.087813 0.788595 0.473274
O O12 0.284338 0.136533 0.502925
O O13 0.000000 0.000000 0.500000
O O14 0.739352 0.756057 0.260885
O O15 0.000000 0.000000 0.000000
O O16 0.500000 0.500000 0.500000
#
# Coordination Sequence:
#
# PCOD9015878 Si02
#       7
#     2   2   2   2   2   2   2
#     4  12  21  41  69  98 133 179 234 275 342 421
#     4  10  21  42  65  95 133 175 227 280 346 407
#     4  11  22  37  66 103 133 164 230 299 330 399
#     4  11  26  45  65  94 138 180 227 283 351 417
#     4  12  24  40  70 101 130 178 231 290 345 403
#     4   9  19  41  65  95 132 180 229 276 333 415
#     4  11  25  43  69 101 136 186 229 288 351 409
#
# _framework density 21.644580999999999
#
# number of rings (size 3 to 8) (size 9 to 14) (size 15 to 20)
#    0.000    1.143    2.857    5.143    2.000    1.714 
#    0.000    0.714    0.000    0.000    0.000    0.000 
#    0.000    0.000    0.000    0.000    0.000    0.000 
#
# Total GULP energy -78087.536003 kJ/mol
# GULP energy per Si atom -5577.681143 kJ/mol
# Density = 2.159532 g / cm^3
# Si number density = 21.644581 Si / 1000 Ang^3
#
#
#
# Elastic Constant Matrix: (Units=GPa)
#
#
# Indices 1 2 3 4 5 6 
#
# 1 96.3565 31.2608 40.1369 16.3905 31.5919 3.4973
# 2 31.2608 78.8807 20.3671 18.7830 25.1479 12.5918
# 3 40.1369 20.3671 102.3915 3.7478 20.8451 12.6026
# 4 16.3905 18.7830 3.7478 37.9588 17.2884 9.9502
# 5 31.5919 25.1479 20.8451 17.2884 40.4222 6.5982
# 6 3.4973 12.5918 12.6026 9.9502 6.5982 40.0924
#
#
#
# Elastic Compliance Matrix: (Units=1/GPa)
#
#
# Indices 1 2 3 4 5 6 
#
# 1 0.015951 -0.002496 -0.004338 -0.002197 -0.008168 0.002646
# 2 -0.002496 0.017222 -0.000645 -0.003691 -0.006358 -0.003026
# 3 -0.004338 -0.000645 0.012665 0.003579 -0.003668 -0.003684
# 4 -0.002197 -0.003691 0.003579 0.036067 -0.012160 -0.006724
# 5 -0.008168 -0.006358 -0.003668 -0.012160 0.042181 -0.000062
# 6 0.002646 -0.003026 -0.003684 -0.006724 -0.000062 0.028499
#
#
# Mechanical properties :
#
#
# Convention : Reuss Voigt Hill
#
# Bulk Modulus (GPa) = 32.38565 51.23982 41.81273
# Shear Modulus (GPa) = 28.11561 36.08561 32.10061
#
# Velocity S-wave (km/s) = 3.60803 4.08755 3.85525
# Velocity P-wave (km/s) = 5.68789 6.78249 6.25916
#
# Compressibility (1/GPa) = 0.03087787
#
# Stress axis : x y z
#
# Youngs Moduli (GPa) = 62.69209 58.06423 78.95985
#
# Poissons Ratio (x) = 0.14494 0.34256
# Poissons Ratio (y) = 0.15650 0.05095
# Poissons Ratio (z) = 0.27199 0.03747
#
# Static dielectric constant tensor:
#      x y z
#    x 1.909220 -0.030070 -0.034240 
#    y -0.030070 1.827780 0.015100 
#    z -0.034240 0.015100 1.862220 
# 
# From -- ./inp_files/153862.got.cif
#   From: 2010.05.17/outbox.cif.g08.bks.cpg/sg2_77_cif.got.tgz:153862.got - 2010.06.03 11:33:40.
