data_PCOD9015786
_publ_section_title
;
Structure prediction by ZEFSAII (Michael W. Deem and Ramdas Pophale) SiO2 
 PCOD9015786
Probable space group: P -1
;
_chemical_formula_sum "Si O2"
_cell_formula_units_Z 14
_cell_length_a 9.835472
_cell_length_b 6.064644
_cell_length_c 15.762112
_cell_angle_alpha 67.676133
_cell_angle_beta 132.740112
_cell_angle_gamma 125.667403
_cell_volume 560.783636
_symmetry_space_group_name_H-M "P -1"
_symmetry_group_IT_number 2
_symmetry_cell_setting 'triclinic'
loop_
_space_group_symop_operation_xyz
x,y,z
-x,-y,-z
loop_
_atom_site_type_symbol
_atom_site_label
_atom_site_fract_x
_atom_site_fract_y
_atom_site_fract_z
Si Si1 0.974975 0.255014 0.844270
Si Si2 0.854784 0.300887 0.394834
Si Si3 0.608757 0.688967 0.404031
Si Si4 0.558705 0.573456 0.209166
Si Si5 0.327191 0.733227 0.418501
Si Si6 0.731300 0.162178 0.174820
Si Si7 0.717533 0.913777 0.939733
O O1 0.136312 0.578553 0.865798
O O2 0.842428 0.203561 0.708294
O O3 0.103754 0.086221 0.924530
O O4 0.822167 0.145730 0.877953
O O5 0.681410 0.402421 0.297395
O O6 0.868357 0.247200 0.307735
O O7 0.000000 0.500000 0.500000
O O8 0.773465 0.001773 0.441120
O O9 0.524705 0.641137 0.280103
O O10 0.420212 0.637949 0.393964
O O11 0.716299 0.503479 0.497868
O O12 0.357163 0.368645 0.102112
O O13 0.691481 0.863032 0.177965
O O14 0.500000 0.000000 0.500000
O O15 0.492646 0.113637 0.100072
#
# Coordination Sequence:
#
# PCOD9015786 Si02
#       7
#     2   2   2   2   2   2   2
#     4  11  23  41  72  94 127 180 225 268 341 402
#     4  10  22  36  60  91 132 171 215 264 329 394
#     4  10  22  38  61  91 132 173 211 269 332 391
#     4  10  21  42  65  87 136 176 207 283 336 379
#     4  11  23  40  63  96 137 169 219 278 328 399
#     4  10  23  41  66  99 132 171 227 275 328 405
#     4  10  23  47  64  95 136 170 221 288 330 391
#
# _framework density 24.965062
#
# number of rings (size 3 to 8) (size 9 to 14) (size 15 to 20)
#    0.000    1.714    0.000    4.714    6.000    1.714 
#    0.000   12.143    0.000    0.000    0.000    0.000 
#    0.000    0.000    0.000    0.000    0.000    0.000 
#
# Total GULP energy -78200.224763 kJ/mol
# GULP energy per Si atom -5585.730340 kJ/mol
# Density = 2.490824 g / cm^3
# Si number density = 24.965062 Si / 1000 Ang^3
#
#
#
# Elastic Constant Matrix: (Units=GPa)
#
#
# Indices 1 2 3 4 5 6 
#
# 1 61.9072 36.0898 18.2910 3.3164 -10.1493 9.5540
# 2 36.0898 177.9435 53.1046 -29.4635 -7.9506 20.3445
# 3 18.2910 53.1046 168.5549 -21.1485 19.8249 7.4835
# 4 3.3164 -29.4635 -21.1485 27.0542 4.9680 -3.9116
# 5 -10.1493 -7.9506 19.8249 4.9680 30.3491 -6.0418
# 6 9.5540 20.3445 7.4835 -3.9116 -6.0418 33.8598
#
#
#
# Elastic Compliance Matrix: (Units=1/GPa)
#
#
# Indices 1 2 3 4 5 6 
#
# 1 0.023022 -0.005056 -0.003745 -0.013531 0.010576 -0.002306
# 2 -0.005056 0.008679 -0.000795 0.009232 -0.000949 -0.002715
# 3 -0.003745 -0.000795 0.008613 0.007752 -0.008555 -0.001000
# 4 -0.013531 0.009232 0.007752 0.057820 -0.016580 0.000279
# 5 0.010576 -0.000949 -0.008555 -0.016580 0.045677 0.005712
# 6 -0.002306 -0.002715 -0.001000 0.000279 0.005712 0.033088
#
#
# Mechanical properties :
#
#
# Convention : Reuss Voigt Hill
#
# Bulk Modulus (GPa) = 47.34319 69.26406 58.30363
# Shear Modulus (GPa) = 24.61455 38.31399 31.46427
#
# Velocity S-wave (km/s) = 3.14341 3.92178 3.55397
# Velocity P-wave (km/s) = 5.67271 6.95067 6.34395
#
# Compressibility (1/GPa) = 0.02112236
#
# Stress axis : x y z
#
# Youngs Moduli (GPa) = 43.43734 115.21901 116.10449
#
# Poissons Ratio (x) = 0.58253 0.43477
# Poissons Ratio (y) = 0.21961 0.09233
# Poissons Ratio (z) = 0.16266 0.09163
#
# Static dielectric constant tensor:
#      x y z
#    x 2.133450 0.089020 0.002780 
#    y 0.089020 1.983890 0.002860 
#    z 0.002780 0.002860 2.020670 
# 
# From -- ./inp_files/27565.got.cif
#   From: 2010.05.17/outbox.cif.g08.bks.cpg/sg2_14_cif.got.tgz:27565.got - 2010.06.03 11:33:40.
