data_PCOD9015107
_publ_section_title
;
Structure prediction by ZEFSAII (Michael W. Deem and Ramdas Pophale) SiO2 
 PCOD9015107
Probable space group: P -1
;
_chemical_formula_sum "Si O2"
_cell_formula_units_Z 16
_cell_length_a 5.756882
_cell_length_b 8.679428
_cell_length_c 19.590809
_cell_angle_alpha 116.253400
_cell_angle_beta 57.432600
_cell_angle_gamma 87.099683
_cell_volume 683.762209
_symmetry_space_group_name_H-M "P -1"
_symmetry_group_IT_number 2
_symmetry_cell_setting 'triclinic'
loop_
_space_group_symop_operation_xyz
x,y,z
-x,-y,-z
loop_
_atom_site_type_symbol
_atom_site_label
_atom_site_fract_x
_atom_site_fract_y
_atom_site_fract_z
Si Si1 0.283567 0.041517 0.941778
Si Si2 0.438500 0.918886 0.381308
Si Si3 0.831665 0.399015 0.962282
Si Si4 0.656968 0.013123 0.749642
Si Si5 0.931357 0.306823 0.782454
Si Si6 0.145098 0.625559 0.576875
Si Si7 0.037335 0.702385 0.446416
Si Si8 0.408141 0.275366 0.075624
O O1 0.389523 0.020184 0.842945
O O2 0.559792 0.880684 0.905029
O O3 0.266115 0.227839 0.020291
O O4 0.000000 0.000000 0.000000
O O5 0.413293 0.978084 0.317523
O O6 0.778613 0.816463 0.328657
O O7 0.284303 0.770318 0.388972
O O8 0.262709 0.115564 0.483648
O O9 0.021199 0.314840 0.848794
O O10 0.500000 0.500000 0.000000
O O11 0.735236 0.268772 0.002025
O O12 0.000000 0.500000 0.000000
O O13 0.712579 0.198630 0.794418
O O14 0.963941 0.830448 0.677725
O O15 0.777592 0.519764 0.826841
O O16 0.500000 0.500000 0.500000
O O17 0.092304 0.669398 0.512823
O O18 0.993448 0.489435 0.605643
#
# Coordination Sequence:
#
# PCOD9015107 Si02
#       8
#     2   2   2   2   2   2   2   2
#     4  11  26  43  63  88 136 179 229 282 347 410
#     4  10  23  39  67  93 132 168 220 284 337 414
#     4  10  23  40  68  96 132 178 233 284 349 412
#     4  11  25  41  61 102 124 174 231 281 336 422
#     4  11  24  39  67  93 130 168 230 284 344 403
#     4  10  21  41  71  91 135 171 208 272 348 412
#     4   9  21  43  61 100 130 169 217 267 347 422
#     4  10  25  42  60  93 127 179 224 285 340 415
#
# _framework density 23.399948999999999
#
# number of rings (size 3 to 8) (size 9 to 14) (size 15 to 20)
#    0.000    1.750    1.250    0.750    8.750    4.000 
#    0.000    3.750    0.000    0.000    0.000    0.000 
#    0.000    0.000    0.000    0.000    0.000    0.000 
#
# Total GULP energy -89285.274429 kJ/mol
# GULP energy per Si atom -5580.329652 kJ/mol
# Density = 2.334669 g / cm^3
# Si number density = 23.399949 Si / 1000 Ang^3
#
#
#
# Elastic Constant Matrix: (Units=GPa)
#
#
# Indices 1 2 3 4 5 6 
#
# 1 53.0396 33.4295 31.4851 7.3119 -5.2503 8.2458
# 2 33.4295 128.0110 33.5799 3.7962 -9.3063 -2.7441
# 3 31.4851 33.5799 85.2627 -2.9824 -16.0642 -3.3751
# 4 7.3119 3.7962 -2.9824 48.1267 -5.7794 -3.4551
# 5 -5.2503 -9.3063 -16.0642 -5.7794 43.5751 3.3744
# 6 8.2458 -2.7441 -3.3751 -3.4551 3.3744 43.9102
#
#
#
# Elastic Compliance Matrix: (Units=1/GPa)
#
#
# Indices 1 2 3 4 5 6 
#
# 1 0.029523 -0.005297 -0.009511 -0.005304 -0.001247 -0.006927
# 2 -0.005297 0.009713 -0.001672 0.000125 0.000726 0.001427
# 3 -0.009511 -0.001672 0.017081 0.003446 0.005028 0.002879
# 4 -0.005304 0.000125 0.003446 0.022397 0.003414 0.002769
# 5 -0.001247 0.000726 0.005028 0.003414 0.025338 -0.001013
# 6 -0.006927 0.001427 0.002879 0.002769 -0.001013 0.024681
#
#
# Mechanical properties :
#
#
# Convention : Reuss Voigt Hill
#
# Bulk Modulus (GPa) = 42.81158 51.47804 47.14481
# Shear Modulus (GPa) = 29.50252 38.31032 33.90642
#
# Velocity S-wave (km/s) = 3.55462 4.05062 3.81070
# Velocity P-wave (km/s) = 5.93147 6.62749 6.28912
#
# Compressibility (1/GPa) = 0.02335817
#
# Stress axis : x y z
#
# Youngs Moduli (GPa) = 33.87240 102.95152 58.54558
#
# Poissons Ratio (x) = 0.54531 0.55680
# Poissons Ratio (y) = 0.17941 0.09788
# Poissons Ratio (z) = 0.32214 0.17213
#
# Static dielectric constant tensor:
#      x y z
#    x 1.934000 -0.056730 -0.015640 
#    y -0.056730 1.954680 -0.022980 
#    z -0.015640 -0.022980 1.941370 
# 
# From -- ./inp_files/582480.got.cif
#   From: 2010.05.17/outbox.cif.g08.bks.cpg/sg2_292_cif.got.tgz:582480.got - 2010.06.03 11:33:40.
