data_PCOD9015438
_publ_section_title
;
Structure prediction by ZEFSAII (Michael W. Deem and Ramdas Pophale) SiO2 
 PCOD9015438
Probable space group: P -1
;
_chemical_formula_sum "Si O2"
_cell_formula_units_Z 16
_cell_length_a 9.949955
_cell_length_b 18.197152
_cell_length_c 5.461027
_cell_angle_alpha 109.743683
_cell_angle_beta 117.969294
_cell_angle_gamma 57.480704
_cell_volume 731.475051
_symmetry_space_group_name_H-M "P -1"
_symmetry_group_IT_number 2
_symmetry_cell_setting 'triclinic'
loop_
_space_group_symop_operation_xyz
x,y,z
-x,-y,-z
loop_
_atom_site_type_symbol
_atom_site_label
_atom_site_fract_x
_atom_site_fract_y
_atom_site_fract_z
Si Si1 0.569107 0.910334 0.302888
Si Si2 0.516576 0.588665 0.594058
Si Si3 0.862303 0.728205 0.587977
Si Si4 0.355547 0.364267 0.734890
Si Si5 0.651680 0.175216 0.851349
Si Si6 0.844248 0.258734 0.416160
Si Si7 0.842403 0.848711 0.096087
Si Si8 0.025834 0.947795 0.214024
O O1 0.723878 0.820655 0.450852
O O2 0.418780 0.882181 0.125313
O O3 0.663018 0.912018 0.135619
O O4 0.500000 0.000000 0.500000
O O5 0.500000 0.500000 0.500000
O O6 0.617182 0.590428 0.434730
O O7 0.320423 0.666184 0.506650
O O8 0.604082 0.601959 0.934386
O O9 0.814794 0.649171 0.419415
O O10 0.051478 0.705228 0.627347
O O11 0.842032 0.761903 0.887180
O O12 0.497749 0.263084 0.721246
O O13 0.774278 0.119955 0.679680
O O14 0.767245 0.205579 0.141013
O O15 0.993621 0.190187 0.633091
O O16 0.899033 0.903871 0.026051
O O17 0.000000 0.000000 0.500000
O O18 0.000000 0.000000 0.000000
#
# Coordination Sequence:
#
# PCOD9015438 Si02
#       8
#     2   2   2   2   2   2   2   2
#     4  10  23  40  59  89 129 172 227 288 335 374
#     4  11  24  45  73 106 134 163 210 270 329 389
#     4  10  23  41  63  93 127 177 225 260 326 394
#     4  10  24  43  70  96 134 174 213 262 321 403
#     4  10  21  42  62  93 122 175 226 266 328 389
#     4  10  22  41  68  93 128 170 222 265 323 403
#     4  11  23  41  63  87 128 177 222 274 327 396
#     4  12  25  39  59  87 126 166 220 282 328 368
#
# _framework density 21.873607
#
# number of rings (size 3 to 8) (size 9 to 14) (size 15 to 20)
#    0.000    1.500    1.250    2.625   12.250    1.500 
#    2.250    1.250    0.000    0.000    0.000    0.000 
#    0.000    0.000    0.000    0.000    0.000    0.000 
#
# Total GULP energy -89320.003753 kJ/mol
# GULP energy per Si atom -5582.500235 kJ/mol
# Density = 2.182382 g / cm^3
# Si number density = 21.873607 Si / 1000 Ang^3
#
#
#
# Elastic Constant Matrix: (Units=GPa)
#
#
# Indices 1 2 3 4 5 6 
#
# 1 160.8570 30.5885 51.4566 14.1000 18.1084 30.3378
# 2 30.5885 43.8921 9.2693 12.9611 3.9530 26.6957
# 3 51.4566 9.2693 57.4024 3.5963 12.2207 19.0418
# 4 14.1000 12.9611 3.5963 19.8726 6.5144 4.1417
# 5 18.1084 3.9530 12.2207 6.5144 38.1931 3.1447
# 6 30.3378 26.6957 19.0418 4.1417 3.1447 36.2107
#
#
#
# Elastic Compliance Matrix: (Units=1/GPa)
#
#
# Indices 1 2 3 4 5 6 
#
# 1 0.009909 -0.003680 -0.007404 -0.002563 -0.001406 -0.001280
# 2 -0.003680 0.055393 0.008912 -0.027261 0.001055 -0.039414
# 3 -0.007404 0.008912 0.028738 -0.000940 -0.005218 -0.014918
# 4 -0.002563 -0.027261 -0.000940 0.069750 -0.008838 0.015529
# 5 -0.001406 0.001055 -0.005218 -0.008838 0.029788 0.001568
# 6 -0.001280 -0.039414 -0.014918 0.015529 0.001568 0.063679
#
#
# Mechanical properties :
#
#
# Convention : Reuss Voigt Hill
#
# Bulk Modulus (GPa) = 11.14877 49.42002 30.28440
# Shear Modulus (GPa) = 17.15266 30.24442 23.69854
#
# Velocity S-wave (km/s) = 2.80334 3.72249 3.29512
# Velocity P-wave (km/s) = 3.94795 6.41236 5.32469
#
# Compressibility (1/GPa) = 0.08969596
#
# Stress axis : x y z
#
# Youngs Moduli (GPa) = 100.91411 18.05282 34.79761
#
# Poissons Ratio (x) = 0.06643 0.25765
# Poissons Ratio (y) = 0.37136 -0.31012
# Poissons Ratio (z) = 0.74718 -0.16089
#
# Static dielectric constant tensor:
#      x y z
#    x 1.871400 -0.031200 0.003870 
#    y -0.031200 1.496340 0.203200 
#    z 0.003870 0.203200 1.806560 
# 
# From -- ./inp_files/48745.got.cif
#   From: 2010.05.17/outbox.cif.g08.bks.cpg/sg2_25_cif.got.tgz:48745.got - 2010.06.03 11:33:40.
