data_PCOD9015701
_publ_section_title
;
Structure prediction by ZEFSAII (Michael W. Deem and Ramdas Pophale) SiO2 
 PCOD9015701
Probable space group: P -1
;
_chemical_formula_sum "Si O2"
_cell_formula_units_Z 14
_cell_length_a 19.144192
_cell_length_b 8.986126
_cell_length_c 8.202409
_cell_angle_alpha 48.072988
_cell_angle_beta 47.688897
_cell_angle_gamma 35.637961
_cell_volume 583.496050
_symmetry_space_group_name_H-M "P -1"
_symmetry_group_IT_number 2
_symmetry_cell_setting 'triclinic'
loop_
_space_group_symop_operation_xyz
x,y,z
-x,-y,-z
loop_
_atom_site_type_symbol
_atom_site_label
_atom_site_fract_x
_atom_site_fract_y
_atom_site_fract_z
Si Si1 0.561973 0.876771 0.766681
Si Si2 0.204986 0.839848 0.534940
Si Si3 0.686356 0.712139 0.338634
Si Si4 0.442639 0.743192 0.286559
Si Si5 0.865740 0.154564 0.008198
Si Si6 0.056865 0.586504 0.465110
Si Si7 0.872002 0.755786 0.092876
O O1 0.632455 0.752836 0.574945
O O2 0.423561 0.140873 0.728774
O O3 0.605856 0.999237 0.720850
O O4 0.541679 0.704558 0.032070
O O5 0.217189 0.600576 0.621187
O O6 0.326877 0.801016 0.331217
O O7 0.213687 0.809393 0.741156
O O8 0.069551 0.119521 0.494274
O O9 0.753472 0.832907 0.129442
O O10 0.500000 0.500000 0.500000
O O11 0.870286 0.987410 0.979121
O O12 0.846821 0.397200 0.783850
O O13 0.000000 0.000000 0.000000
O O14 0.000000 0.500000 0.500000
O O15 0.127964 0.368398 0.649727
O O16 0.000000 0.500000 0.000000
#
# Coordination Sequence:
#
# PCOD9015701 Si02
#       7
#     2   2   2   2   2   2   2
#     4  10  25  47  71  97 141 181 223 288 343 399
#     4  11  23  41  72 100 133 178 227 282 334 406
#     4  11  25  46  66 105 143 178 226 283 348 404
#     4  11  23  46  73 102 126 179 239 278 337 411
#     4  10  21  42  64  95 131 174 226 269 322 408
#     4  11  24  43  69  97 136 183 227 272 339 403
#     4  12  25  42  68 101 140 176 224 283 338 403
#
# _framework density 23.993307000000001
#
# number of rings (size 3 to 8) (size 9 to 14) (size 15 to 20)
#    0.000    1.143    4.286    2.571    2.000    4.000 
#    0.000    0.000    0.000    0.000    0.000    0.000 
#    0.000    0.000    0.000    0.000    0.000    0.000 
#
# Total GULP energy -78325.819483 kJ/mol
# GULP energy per Si atom -5594.701392 kJ/mol
# Density = 2.393870 g / cm^3
# Si number density = 23.993307 Si / 1000 Ang^3
#
#
#
# Elastic Constant Matrix: (Units=GPa)
#
#
# Indices 1 2 3 4 5 6 
#
# 1 68.0373 13.3820 10.2869 -10.8913 -22.5783 11.5580
# 2 13.3820 89.9981 11.9608 -7.9688 -13.1913 15.9197
# 3 10.2869 11.9608 128.7242 -12.8724 -7.7242 6.0919
# 4 -10.8913 -7.9688 -12.8724 34.3883 0.1903 -0.3841
# 5 -22.5783 -13.1913 -7.7242 0.1903 43.6469 -9.1501
# 6 11.5580 15.9197 6.0919 -0.3841 -9.1501 42.2515
#
#
#
# Elastic Compliance Matrix: (Units=1/GPa)
#
#
# Indices 1 2 3 4 5 6 
#
# 1 0.019309 -0.000444 -0.000224 0.005844 0.009150 -0.003048
# 2 -0.000444 0.012553 -0.000536 0.002509 0.002633 -0.003938
# 3 -0.000224 -0.000536 0.008216 0.002867 0.001022 -0.000674
# 4 0.005844 0.002509 0.002867 0.032544 0.003760 -0.001848
# 5 0.009150 0.002633 0.001022 0.003760 0.029173 0.002709
# 6 -0.003048 -0.003938 -0.000674 -0.001848 0.002709 0.026653
#
#
# Mechanical properties :
#
#
# Convention : Reuss Voigt Hill
#
# Bulk Modulus (GPa) = 26.54518 39.77988 33.16253
# Shear Modulus (GPa) = 34.86476 40.79932 37.83204
#
# Velocity S-wave (km/s) = 3.81610 4.12812 3.97517
# Velocity P-wave (km/s) = 5.52308 6.27195 5.90939
#
# Compressibility (1/GPa) = 0.03767162
#
# Stress axis : x y z
#
# Youngs Moduli (GPa) = 51.79008 79.66050 121.71073
#
# Poissons Ratio (x) = 0.03533 0.02728
# Poissons Ratio (y) = 0.02297 0.06520
# Poissons Ratio (z) = 0.01161 0.04267
#
# Static dielectric constant tensor:
#      x y z
#    x 1.112960 0.820680 -0.025420 
#    y 0.820680 1.295140 0.013510 
#    z -0.025420 0.013510 2.049670 
# 
# From -- ./inp_files/343259.got.cif
#   From: 2010.05.17/outbox.cif.g08.bks.cpg/sg2_172_cif.got.tgz:343259.got - 2010.06.03 11:33:40.
