data_PCOD9015474
_publ_section_title
;
Structure prediction by ZEFSAII (Michael W. Deem and Ramdas Pophale) SiO2 
 PCOD9015474
Probable space group: P -1
;
_chemical_formula_sum "Si O2"
_cell_formula_units_Z 16
_cell_length_a 6.639526
_cell_length_b 17.529342
_cell_length_c 9.134441
_cell_angle_alpha 133.949287
_cell_angle_beta 103.674381
_cell_angle_gamma 68.136908
_cell_volume 709.964892
_symmetry_space_group_name_H-M "P -1"
_symmetry_group_IT_number 2
_symmetry_cell_setting 'triclinic'
loop_
_space_group_symop_operation_xyz
x,y,z
-x,-y,-z
loop_
_atom_site_type_symbol
_atom_site_label
_atom_site_fract_x
_atom_site_fract_y
_atom_site_fract_z
Si Si1 0.607119 0.522007 0.196929
Si Si2 0.880889 0.080399 0.817627
Si Si3 0.288910 0.910960 0.514162
Si Si4 0.229893 0.740878 0.488503
Si Si5 0.073427 0.346142 0.505926
Si Si6 0.453068 0.237909 0.206636
Si Si7 0.276207 0.661949 0.786744
Si Si8 0.421495 0.991548 0.142556
O O1 0.412754 0.621963 0.363365
O O2 0.673192 0.413677 0.163918
O O3 0.818023 0.566799 0.288179
O O4 0.500000 0.500000 0.000000
O O5 0.725150 0.082939 0.653950
O O6 0.814731 0.011459 0.846876
O O7 0.850299 0.207944 0.027625
O O8 0.111280 0.012780 0.699282
O O9 0.234916 0.801922 0.418815
O O10 0.512371 0.918785 0.629437
O O11 0.006583 0.723621 0.477961
O O12 0.327040 0.804526 0.713514
O O13 0.865013 0.385810 0.415389
O O14 0.256533 0.274202 0.332190
O O15 0.499914 0.333103 0.243293
O O16 0.443588 0.136527 0.969323
O O17 0.500000 0.000000 0.000000
#
# Coordination Sequence:
#
# PCOD9015474 Si02
#       8
#     2   2   2   2   2   2   2   2
#     4  11  24  41  62  89 121 159 202 255 312 365
#     4  10  24  39  60  91 124 165 203 251 311 364
#     4  11  22  40  60  89 131 162 201 254 307 367
#     4  10  22  38  60  90 121 158 206 251 303 361
#     4  10  22  39  64  90 117 158 209 253 309 363
#     4   9  20  38  58  94 119 157 206 254 305 354
#     4  10  21  42  63  86 123 160 207 254 301 373
#     4  11  21  36  62  90 120 164 207 250 300 362
#
# _framework density 22.536328999999999
#
# number of rings (size 3 to 8) (size 9 to 14) (size 15 to 20)
#    0.000    1.750    1.250    2.250    1.750    6.500 
#    0.000    6.250    0.000    0.000    0.000    0.000 
#    0.000    0.000    0.000    0.000    0.000    0.000 
#
# Total GULP energy -89271.737371 kJ/mol
# GULP energy per Si atom -5579.483586 kJ/mol
# Density = 2.248503 g / cm^3
# Si number density = 22.536329 Si / 1000 Ang^3
#
#
#
# Elastic Constant Matrix: (Units=GPa)
#
#
# Indices 1 2 3 4 5 6 
#
# 1 109.9981 49.0439 42.7023 3.8248 14.2776 32.5944
# 2 49.0439 102.8619 31.7265 -2.3677 15.1769 20.3728
# 3 42.7023 31.7265 92.3245 -7.7631 15.4944 9.7373
# 4 3.8248 -2.3677 -7.7631 31.7104 -3.5599 -0.9513
# 5 14.2776 15.1769 15.4944 -3.5599 36.3853 4.3087
# 6 32.5944 20.3728 9.7373 -0.9513 4.3087 34.1525
#
#
#
# Elastic Compliance Matrix: (Units=1/GPa)
#
#
# Indices 1 2 3 4 5 6 
#
# 1 0.016800 -0.003829 -0.005231 -0.004152 -0.001735 -0.012155
# 2 -0.003829 0.013213 -0.001910 0.000573 -0.002746 -0.003320
# 3 -0.005231 -0.001910 0.014504 0.003749 -0.003258 0.002512
# 4 -0.004152 0.000573 0.003749 0.033393 0.002689 0.003143
# 5 -0.001735 -0.002746 -0.003258 0.002689 0.030913 0.000397
# 6 -0.012155 -0.003320 0.002512 0.003143 0.000397 0.042183
#
#
# Mechanical properties :
#
#
# Convention : Reuss Voigt Hill
#
# Bulk Modulus (GPa) = 44.29276 61.34776 52.82026
# Shear Modulus (GPa) = 27.70523 32.56377 30.13450
#
# Velocity S-wave (km/s) = 3.51002 3.80537 3.66068
# Velocity P-wave (km/s) = 6.01029 6.82558 6.43087
#
# Compressibility (1/GPa) = 0.02257706
#
# Stress axis : x y z
#
# Youngs Moduli (GPa) = 59.52305 75.68550 68.94574
#
# Poissons Ratio (x) = 0.28981 0.36064
# Poissons Ratio (y) = 0.22792 0.13170
# Poissons Ratio (z) = 0.31135 0.14457
#
# Static dielectric constant tensor:
#      x y z
#    x 1.882600 0.014150 0.015770 
#    y 0.014150 1.851720 0.018360 
#    z 0.015770 0.018360 1.910590 
# 
# From -- ./inp_files/124161.got.cif
#   From: 2010.05.17/outbox.cif.g08.bks.cpg/sg2_63_cif.got.tgz:124161.got - 2010.06.03 11:33:40.
