data_PCOD9015283
_publ_section_title
;
Structure prediction by ZEFSAII (Michael W. Deem and Ramdas Pophale) SiO2 
 PCOD9015283
Probable space group: P -1
;
_chemical_formula_sum "Si O2"
_cell_formula_units_Z 13
_cell_length_a 10.744969
_cell_length_b 8.103030
_cell_length_c 10.725492
_cell_angle_alpha 47.660817
_cell_angle_beta 53.770608
_cell_angle_gamma 82.577077
_cell_volume 496.982150
_symmetry_space_group_name_H-M "P -1"
_symmetry_group_IT_number 2
_symmetry_cell_setting 'triclinic'
loop_
_space_group_symop_operation_xyz
x,y,z
-x,-y,-z
loop_
_atom_site_type_symbol
_atom_site_label
_atom_site_fract_x
_atom_site_fract_y
_atom_site_fract_z
Si Si1 0.695766 0.655199 0.353876
Si Si2 0.103196 0.320886 0.282595
Si Si3 0.380497 0.215881 0.260537
Si Si4 0.830641 0.343019 0.594046
Si Si5 0.500000 0.000000 0.500000
Si Si6 0.665236 0.114291 0.050543
Si Si7 0.827750 0.529340 0.097407
O O1 0.500000 0.500000 0.500000
O O2 0.744235 0.516882 0.507033
O O3 0.815604 0.656594 0.167109
O O4 0.706380 0.931204 0.208033
O O5 0.186062 0.173700 0.386098
O O6 0.216730 0.613944 0.100297
O O7 0.913023 0.265372 0.468194
O O8 0.155849 0.304941 0.118034
O O9 0.422396 0.178778 0.394543
O O10 0.500000 0.500000 0.000000
O O11 0.467292 0.063051 0.213212
O O12 0.708962 0.129161 0.871359
O O13 0.000000 0.500000 0.500000
O O14 0.669545 0.254891 0.319730
O O15 0.000000 0.500000 0.000000
#
# Coordination Sequence:
#
# PCOD9015283 Si02
#       7
#     2   2   2   2   1   2   2
#     4  12  28  46  72 113 154 194 255 325 373 456
#     4  10  22  47  72 106 147 194 253 312 367 458
#     4  10  21  41  75 106 140 193 260 294 364 468
#     4  10  24  46  72 103 151 196 249 310 384 453
#     4  12  24  46  82 104 148 210 236 310 398 428
#     4  10  23  45  72 104 143 198 246 302 388 449
#     4  12  26  49  76 113 154 191 264 315 370 464
#
# _framework density 26.157879999999999
#
# number of rings (size 3 to 8) (size 9 to 14) (size 15 to 20)
#    0.000    1.231    4.615    0.923    2.154    9.231 
#    2.769    1.538    0.000    0.000    0.000    0.000 
#    0.000    0.000    0.000    0.000    0.000    0.000 
#
# Total GULP energy -72485.319509 kJ/mol
# GULP energy per Si atom -5575.793808 kJ/mol
# Density = 2.609834 g / cm^3
# Si number density = 26.157880 Si / 1000 Ang^3
#
#
#
# Elastic Constant Matrix: (Units=GPa)
#
#
# Indices 1 2 3 4 5 6 
#
# 1 140.9751 18.0338 45.0989 -14.9559 33.3404 -48.9408
# 2 18.0338 77.0657 37.8145 -11.3404 8.4220 -27.7281
# 3 45.0989 37.8145 131.0060 6.4898 28.5215 -15.7615
# 4 -14.9559 -11.3404 6.4898 57.8216 -1.7380 -1.1427
# 5 33.3404 8.4220 28.5215 -1.7380 54.2415 -5.5805
# 6 -48.9408 -27.7281 -15.7615 -1.1427 -5.5805 51.2128
#
#
#
# Elastic Compliance Matrix: (Units=1/GPa)
#
#
# Indices 1 2 3 4 5 6 
#
# 1 0.015158 0.005481 -0.003796 0.005541 -0.006378 0.015714
# 2 0.005481 0.021180 -0.006180 0.006507 -0.001680 0.014765
# 3 -0.003796 -0.006180 0.011092 -0.003609 -0.003064 -0.003974
# 4 0.005541 0.006507 -0.003609 0.020537 -0.001031 0.008053
# 5 -0.006378 -0.001680 -0.003064 -0.001031 0.023640 -0.005395
# 6 0.015714 0.014765 -0.003974 0.008053 -0.005395 0.040906
#
#
# Mechanical properties :
#
#
# Convention : Reuss Voigt Hill
#
# Bulk Modulus (GPa) = 26.01479 61.21570 43.61524
# Shear Modulus (GPa) = 32.40126 49.19515 40.79821
#
# Velocity S-wave (km/s) = 3.52331 4.34141 3.95358
# Velocity P-wave (km/s) = 5.14961 6.97020 6.12789
#
# Compressibility (1/GPa) = 0.03843968
#
# Stress axis : x y z
#
# Youngs Moduli (GPa) = 65.97250 47.21534 90.15829
#
# Poissons Ratio (x) = -0.25881 0.34221
# Poissons Ratio (y) = -0.36163 0.55722
# Poissons Ratio (z) = 0.25041 0.29181
#
# Static dielectric constant tensor:
#      x y z
#    x 2.172420 0.102230 0.021560 
#    y 0.102230 2.150360 0.080830 
#    z 0.021560 0.080830 2.121560 
# 
# From -- ./inp_files/411454.got.cif
#   From: 2010.05.17/outbox.cif.g08.bks.cpg/sg2_206_cif.got.tgz:411454.got - 2010.06.03 11:33:40.
