data_PCOD9015948
_publ_section_title
;
Structure prediction by ZEFSAII (Michael W. Deem and Ramdas Pophale) SiO2 
 PCOD9015948
Probable space group: P -1
;
_chemical_formula_sum "Si O2"
_cell_formula_units_Z 16
_cell_length_a 11.711792
_cell_length_b 11.821533
_cell_length_c 6.324076
_cell_angle_alpha 92.990057
_cell_angle_beta 91.060026
_cell_angle_gamma 52.022803
_cell_volume 689.135939
_symmetry_space_group_name_H-M "P -1"
_symmetry_group_IT_number 2
_symmetry_cell_setting 'triclinic'
loop_
_space_group_symop_operation_xyz
x,y,z
-x,-y,-z
loop_
_atom_site_type_symbol
_atom_site_label
_atom_site_fract_x
_atom_site_fract_y
_atom_site_fract_z
Si Si1 0.371430 0.895984 0.777723
Si Si2 0.444119 0.600028 0.808547
Si Si3 0.154195 0.955315 0.434238
Si Si4 0.766205 0.894866 0.838485
Si Si5 0.176500 0.339768 0.880556
Si Si6 0.870249 0.481505 0.730387
Si Si7 0.271256 0.642248 0.440592
Si Si8 0.653195 0.780018 0.516111
O O1 0.410246 0.750522 0.860563
O O2 0.225807 0.971336 0.642587
O O3 0.496311 0.849602 0.610221
O O4 0.349606 0.990912 0.983539
O O5 0.303249 0.633730 0.690674
O O6 0.583359 0.506075 0.652194
O O7 0.500000 0.500000 0.000000
O O8 0.251235 0.783559 0.374566
O O9 0.152266 0.046282 0.251257
O O10 0.000000 0.000000 0.500000
O O11 0.700009 0.867903 0.636631
O O12 0.848082 0.747328 0.960807
O O13 0.318469 0.234627 0.733875
O O14 0.036218 0.420224 0.733495
O O15 0.182653 0.450657 0.028650
O O16 0.856203 0.360393 0.645747
O O17 0.762859 0.617059 0.590021
#
# Coordination Sequence:
#
# PCOD9015948 Si02
#       8
#     2   2   2   2   2   2   2   2
#     4  11  24  45  68 103 138 179 233 283 351 411
#     4  10  21  42  66 100 134 175 225 286 342 410
#     4  11  27  47  68  98 140 187 227 282 344 416
#     4  11  25  44  69 100 139 180 235 286 341 413
#     4  10  24  44  70 103 139 181 234 281 349 408
#     4  10  22  44  68 103 138 176 227 287 344 412
#     4  10  22  42  68  98 133 176 227 277 347 407
#     4  11  23  44  72 101 136 181 229 292 349 406
#
# _framework density 23.217480999999999
#
# number of rings (size 3 to 8) (size 9 to 14) (size 15 to 20)
#    0.000    1.500    1.250    2.250    3.500    5.500 
#    4.500    0.000    0.000    0.000    0.000    0.000 
#    0.000    0.000    0.000    0.000    0.000    0.000 
#
# Total GULP energy -89420.483904 kJ/mol
# GULP energy per Si atom -5588.780244 kJ/mol
# Density = 2.316464 g / cm^3
# Si number density = 23.217481 Si / 1000 Ang^3
#
#
#
# Elastic Constant Matrix: (Units=GPa)
#
#
# Indices 1 2 3 4 5 6 
#
# 1 105.7797 14.3996 48.7018 -4.7284 -4.1123 7.6580
# 2 14.3996 83.2670 32.7658 -5.9112 2.3589 17.0490
# 3 48.7018 32.7658 78.3815 0.0845 -18.2203 14.0221
# 4 -4.7284 -5.9112 0.0845 49.5504 2.6969 2.4693
# 5 -4.1123 2.3589 -18.2203 2.6969 27.0454 5.6163
# 6 7.6580 17.0490 14.0221 2.4693 5.6163 34.9022
#
#
#
# Elastic Compliance Matrix: (Units=1/GPa)
#
#
# Indices 1 2 3 4 5 6 
#
# 1 0.014119 0.002035 -0.011266 0.001876 -0.006073 0.001279
# 2 0.002035 0.016365 -0.008922 0.002718 -0.006571 -0.003991
# 3 -0.011266 -0.008922 0.029942 -0.002929 0.021277 -0.008416
# 4 0.001876 0.002718 -0.002929 0.020964 -0.003715 -0.001448
# 5 -0.006073 -0.006571 0.021277 -0.003715 0.053908 -0.012418
# 6 0.001279 -0.003991 -0.008416 -0.001448 -0.012418 0.035802
#
#
# Mechanical properties :
#
#
# Convention : Reuss Voigt Hill
#
# Bulk Modulus (GPa) = 41.45830 51.01808 46.23819
# Shear Modulus (GPa) = 23.20789 33.73700 28.47244
#
# Velocity S-wave (km/s) = 3.16505 3.81607 3.50571
# Velocity P-wave (km/s) = 5.59035 6.43725 6.02869
#
# Compressibility (1/GPa) = 0.02412062
#
# Stress axis : x y z
#
# Youngs Moduli (GPa) = 70.82864 61.10756 33.39780
#
# Poissons Ratio (x) = -0.12435 0.37625
# Poissons Ratio (y) = -0.14413 0.29796
# Poissons Ratio (z) = 0.79793 0.54518
#
# Static dielectric constant tensor:
#      x y z
#    x 1.906710 -0.006070 -0.021960 
#    y -0.006070 1.889600 -0.003960 
#    z -0.021960 -0.003960 1.936960 
# 
# From -- ./inp_files/70561.got.cif
#   From: 2010.05.17/outbox.cif.g08.bks.cpg/sg2_36_cif.got.tgz:70561.got - 2010.06.03 11:33:40.
