data_PCOD9015187
_publ_section_title
;
Structure prediction by ZEFSAII (Michael W. Deem and Ramdas Pophale) SiO2 
 PCOD9015187
Probable space group: P -1
;
_chemical_formula_sum "Si O2"
_cell_formula_units_Z 14
_cell_length_a 23.437037
_cell_length_b 5.378295
_cell_length_c 5.101228
_cell_angle_alpha 92.113461
_cell_angle_beta 72.414996
_cell_angle_gamma 58.902291
_cell_volume 510.006689
_symmetry_space_group_name_H-M "P -1"
_symmetry_group_IT_number 2
_symmetry_cell_setting 'triclinic'
loop_
_space_group_symop_operation_xyz
x,y,z
-x,-y,-z
loop_
_atom_site_type_symbol
_atom_site_label
_atom_site_fract_x
_atom_site_fract_y
_atom_site_fract_z
Si Si1 0.452870 0.293000 0.906252
Si Si2 0.319759 0.667585 0.886472
Si Si3 0.958715 0.886380 0.231264
Si Si4 0.591193 0.188940 0.588816
Si Si5 0.260507 0.415531 0.614410
Si Si6 0.919535 0.786665 0.784723
Si Si7 0.793737 0.729945 0.792421
O O1 0.378777 0.343875 0.906636
O O2 0.515879 0.235735 0.620519
O O3 0.426708 0.577019 0.143608
O O4 0.500000 0.000000 0.000000
O O5 0.374504 0.737634 0.691983
O O6 0.270651 0.664237 0.730170
O O7 0.266802 0.921710 0.169520
O O8 0.898698 0.938204 0.106545
O O9 0.929072 0.993809 0.572579
O O10 0.011311 0.537262 0.233322
O O11 0.000000 0.000000 0.000000
O O12 0.657054 0.858852 0.562699
O O13 0.227389 0.336178 0.900303
O O14 0.214372 0.457974 0.425706
O O15 0.866915 0.712375 0.719625
#
# Coordination Sequence:
#
# PCOD9015187 Si02
#       7
#     2   2   2   2   2   2   2
#     4  11  23  39  68  93 125 170 229 288 360 417
#     4  11  25  43  67  92 134 176 227 289 350 415
#     4  10  21  41  72 107 142 182 233 288 337 413
#     4  10  23  41  62  93 129 170 223 294 353 416
#     4  11  25  42  71  94 135 181 235 282 349 416
#     4  10  22  42  69 103 145 186 231 286 348 405
#     4  11  25  46  67 101 141 185 228 285 339 418
#
# _framework density 27.450617999999999
#
# number of rings (size 3 to 8) (size 9 to 14) (size 15 to 20)
#    0.000    1.429    1.429    2.571    4.000    4.571 
#    0.000    2.857    0.000    0.000    0.000    0.000 
#    0.000    0.000    0.000    0.000    0.000    0.000 
#
# Total GULP energy -78314.926018 kJ/mol
# GULP energy per Si atom -5593.923287 kJ/mol
# Density = 2.738814 g / cm^3
# Si number density = 27.450618 Si / 1000 Ang^3
#
#
#
# Elastic Constant Matrix: (Units=GPa)
#
#
# Indices 1 2 3 4 5 6 
#
# 1 157.1056 31.6113 49.5543 -20.2731 23.1540 -13.8913
# 2 31.6113 74.4931 42.0118 -15.4020 -5.3346 0.7710
# 3 49.5543 42.0118 150.6864 -29.6623 12.1046 3.0171
# 4 -20.2731 -15.4020 -29.6623 52.9545 13.0887 -0.4844
# 5 23.1540 -5.3346 12.1046 13.0887 46.4809 -8.1832
# 6 -13.8913 0.7710 3.0171 -0.4844 -8.1832 40.9336
#
#
#
# Elastic Compliance Matrix: (Units=1/GPa)
#
#
# Indices 1 2 3 4 5 6 
#
# 1 0.008550 -0.002736 -0.001106 0.003057 -0.004773 0.002116
# 2 -0.002736 0.017364 -0.004158 0.000623 0.004247 -0.000093
# 3 -0.001106 -0.004158 0.009422 0.004614 -0.003985 -0.001733
# 4 0.003057 0.000623 0.004614 0.025269 -0.009945 -0.001004
# 5 -0.004773 0.004247 -0.003985 -0.009945 0.028969 0.004268
# 6 0.002116 -0.000093 -0.001733 -0.001004 0.004268 0.026119
#
#
# Mechanical properties :
#
#
# Convention : Reuss Voigt Hill
#
# Bulk Modulus (GPa) = 51.71684 69.84887 60.78285
# Shear Modulus (GPa) = 36.19574 45.34764 40.77169
#
# Velocity S-wave (km/s) = 3.63516 4.06885 3.85811
# Velocity P-wave (km/s) = 6.04153 6.89744 6.48362
#
# Compressibility (1/GPa) = 0.01933606
#
# Stress axis : x y z
#
# Youngs Moduli (GPa) = 116.96532 57.59047 106.13089
#
# Poissons Ratio (x) = 0.15756 0.11738
# Poissons Ratio (y) = 0.32001 0.44129
# Poissons Ratio (z) = 0.12936 0.23946
#
# Static dielectric constant tensor:
#      x y z
#    x 2.177620 -0.017790 -0.014730 
#    y -0.017790 2.336880 -0.016690 
#    z -0.014730 -0.016690 2.239350 
# 
# From -- ./inp_files/10049.got.cif
#   From: 2010.05.17/outbox.cif.g08.bks.cpg/sg2_6_cif.got.tgz:10049.got - 2010.06.03 11:33:40.
