data_PCOD9015180
_publ_section_title
;
Structure prediction by ZEFSAII (Michael W. Deem and Ramdas Pophale) SiO2 
 PCOD9015180
Probable space group: P -1
;
_chemical_formula_sum "Si O2"
_cell_formula_units_Z 12
_cell_length_a 12.201553
_cell_length_b 7.747571
_cell_length_c 7.684349
_cell_angle_alpha 61.317818
_cell_angle_beta 127.790614
_cell_angle_gamma 87.278375
_cell_volume 438.246326
_symmetry_space_group_name_H-M "P -1"
_symmetry_group_IT_number 2
_symmetry_cell_setting 'triclinic'
loop_
_space_group_symop_operation_xyz
x,y,z
-x,-y,-z
loop_
_atom_site_type_symbol
_atom_site_label
_atom_site_fract_x
_atom_site_fract_y
_atom_site_fract_z
Si Si1 0.873794 0.313809 0.050056
Si Si2 0.977495 0.637656 0.159326
Si Si3 0.702803 0.788176 0.267864
Si Si4 0.212116 0.892455 0.648515
Si Si5 0.617266 0.423701 0.319352
Si Si6 0.633517 0.027411 0.725985
O O1 0.753278 0.265005 0.069815
O O2 0.877359 0.535542 0.011368
O O3 0.906738 0.315845 0.876941
O O4 0.036374 0.100708 0.371397
O O5 0.113419 0.411786 0.499753
O O6 0.827193 0.870988 0.960404
O O7 0.618453 0.640850 0.288985
O O8 0.699013 0.959044 0.328296
O O9 0.628767 0.943916 0.953848
O O10 0.229305 0.750918 0.561016
O O11 0.592628 0.279080 0.512665
O O12 0.500000 0.500000 0.000000
O O13 0.500000 0.000000 0.500000
#
# Coordination Sequence:
#
# PCOD9015180 Si02
#       6
#     2   2   2   2   2   2
#     4   9  19  38  69 105 139 179 223 296 354 390
#     4  10  21  41  72 106 139 176 239 289 339 414
#     4  11  26  45  72 111 132 181 245 283 339 417
#     4  10  22  44  69 101 142 180 232 286 346 412
#     4  12  26  48  70 101 147 188 224 288 354 411
#     4  12  25  46  69 102 146 188 224 285 356 412
#
# _framework density 27.381861000000001
#
# number of rings (size 3 to 8) (size 9 to 14) (size 15 to 20)
#    0.000    1.333    3.333    1.500    2.333    4.000 
#    0.000    0.833    0.000    0.000    0.000    0.000 
#    0.000    0.000    0.000    0.000    0.000    0.000 
#
# Total GULP energy -66937.153185 kJ/mol
# GULP energy per Si atom -5578.096099 kJ/mol
# Density = 2.731954 g / cm^3
# Si number density = 27.381861 Si / 1000 Ang^3
#
#
#
# Elastic Constant Matrix: (Units=GPa)
#
#
# Indices 1 2 3 4 5 6 
#
# 1 88.8978 50.4734 53.1257 -20.1162 -20.4838 29.5983
# 2 50.4734 151.3396 30.8877 -17.5107 -21.5459 27.3103
# 3 53.1257 30.8877 161.4240 -20.8453 -18.5628 8.9574
# 4 -20.1162 -17.5107 -20.8453 40.9036 5.6879 -0.6765
# 5 -20.4838 -21.5459 -18.5628 5.6879 56.0977 -13.7114
# 6 29.5983 27.3103 8.9574 -0.6765 -13.7114 19.0358
#
#
#
# Elastic Compliance Matrix: (Units=1/GPa)
#
#
# Indices 1 2 3 4 5 6 
#
# 1 0.036516 0.000615 -0.007678 0.013960 -0.004218 -0.056590
# 2 0.000615 0.009552 -0.000773 0.003796 -0.000253 -0.014344
# 3 -0.007678 -0.000773 0.008558 0.000107 0.002338 0.010708
# 4 0.013960 0.003796 0.000107 0.033044 -0.003788 -0.028756
# 5 -0.004218 -0.000253 0.002338 -0.003788 0.022740 0.022066
# 6 -0.056590 -0.014344 0.010708 -0.028756 0.022066 0.170937
#
#
# Mechanical properties :
#
#
# Convention : Reuss Voigt Hill
#
# Bulk Modulus (GPa) = 25.67062 74.51501 50.09282
# Shear Modulus (GPa) = 16.12890 41.01905 28.57398
#
# Velocity S-wave (km/s) = 2.42964 3.87465 3.23389
# Velocity P-wave (km/s) = 4.15527 6.87674 5.68136
#
# Compressibility (1/GPa) = 0.03895504
#
# Stress axis : x y z
#
# Youngs Moduli (GPa) = 27.38497 104.69088 116.84976
#
# Poissons Ratio (x) = -0.06441 0.89713
# Poissons Ratio (y) = -0.01685 0.09035
# Poissons Ratio (z) = 0.21025 0.08095
#
# Static dielectric constant tensor:
#      x y z
#    x 2.340800 -0.040590 0.029200 
#    y -0.040590 2.179640 0.075650 
#    z 0.029200 0.075650 2.186730 
# 
# From -- ./inp_files/242317.got.cif
#   From: 2010.05.17/outbox.cif.g08.bks.cpg/sg2_122_cif.got.tgz:242317.got - 2010.06.03 11:33:40.
