data_PCOD9015752
_publ_section_title
;
Structure prediction by ZEFSAII (Michael W. Deem and Ramdas Pophale) SiO2 
 PCOD9015752
Probable space group: P -1
;
_chemical_formula_sum "Si O2"
_cell_formula_units_Z 12
_cell_length_a 7.253981
_cell_length_b 5.833128
_cell_length_c 17.623020
_cell_angle_alpha 110.176670
_cell_angle_beta 46.813353
_cell_angle_gamma 121.254314
_cell_volume 464.735518
_symmetry_space_group_name_H-M "P -1"
_symmetry_group_IT_number 2
_symmetry_cell_setting 'triclinic'
loop_
_space_group_symop_operation_xyz
x,y,z
-x,-y,-z
loop_
_atom_site_type_symbol
_atom_site_label
_atom_site_fract_x
_atom_site_fract_y
_atom_site_fract_z
Si Si1 0.274933 0.641635 0.236539
Si Si2 0.258740 0.289391 0.596617
Si Si3 0.697632 0.747196 0.921933
Si Si4 0.316172 0.873820 0.923074
Si Si5 0.613084 0.498335 0.248267
Si Si6 0.024776 0.213473 0.450744
O O1 0.143939 0.366127 0.192939
O O2 0.495380 0.641680 0.236676
O O3 0.015977 0.674975 0.347255
O O4 0.451820 0.880076 0.158099
O O5 0.500000 0.500000 0.500000
O O6 0.264930 0.339458 0.691225
O O7 0.211190 0.983937 0.561068
O O8 0.485776 0.795452 0.930054
O O9 0.500000 0.500000 0.000000
O O10 0.853180 0.997682 0.963166
O O11 0.209409 0.632603 0.864259
O O12 0.322947 0.276909 0.336536
O O13 0.000000 0.500000 0.500000
O O14 0.000000 0.000000 0.500000
#
# Coordination Sequence:
#
# PCOD9015752 Si02
#       6
#     2   2   2   2   2   2
#     4  10  21  42  64  99 143 183 232 293 354 421
#     4  12  26  46  71 104 140 193 245 295 360 431
#     4   8  16  33  68  99 128 186 222 281 360 421
#     4   9  17  37  66  98 139 176 230 286 358 420
#     4  11  24  42  69  99 141 184 238 297 357 425
#     4  12  26  49  70  99 143 193 247 310 364 428
#
# _framework density 25.821141000000001
#
# number of rings (size 3 to 8) (size 9 to 14) (size 15 to 20)
#    0.000    1.667    3.333    1.000    0.000    0.667 
#    6.000    0.833    0.000   34.000    0.000    0.000 
#    0.000    0.000    0.000    0.000    0.000    0.000 
#
# Total GULP energy -66994.479910 kJ/mol
# GULP energy per Si atom -5582.873326 kJ/mol
# Density = 2.576237 g / cm^3
# Si number density = 25.821141 Si / 1000 Ang^3
#
#
#
# Elastic Constant Matrix: (Units=GPa)
#
#
# Indices 1 2 3 4 5 6 
#
# 1 82.8491 53.6960 47.6384 18.5480 29.7621 -8.3603
# 2 53.6960 161.2387 80.5089 34.8767 25.6586 -1.3209
# 3 47.6384 80.5089 132.1217 47.1570 25.7125 -5.7811
# 4 18.5480 34.8767 47.1570 79.1472 6.1182 24.0998
# 5 29.7621 25.6586 25.7125 6.1182 58.4116 -3.8207
# 6 -8.3603 -1.3209 -5.7811 24.0998 -3.8207 40.5488
#
#
#
# Elastic Compliance Matrix: (Units=1/GPa)
#
#
# Indices 1 2 3 4 5 6 
#
# 1 0.019062 -0.003569 -0.002461 -0.002182 -0.006562 0.004141
# 2 -0.003569 0.009794 -0.004399 -0.000591 -0.000534 -0.000743
# 3 -0.002461 -0.004399 0.014571 -0.007797 -0.002027 0.005870
# 4 -0.002182 -0.000591 -0.007797 0.022436 0.001487 -0.014775
# 5 -0.006562 -0.000534 -0.002027 0.001487 0.021400 -0.000527
# 6 0.004141 -0.000743 0.005870 -0.014775 -0.000527 0.035060
#
#
# Mechanical properties :
#
#
# Convention : Reuss Voigt Hill
#
# Bulk Modulus (GPa) = 44.30937 82.21066 63.26001
# Shear Modulus (GPa) = 33.17779 48.57927 40.87853
#
# Velocity S-wave (km/s) = 3.58845 4.34219 3.98319
# Velocity P-wave (km/s) = 5.86231 7.55295 6.76069
#
# Compressibility (1/GPa) = 0.02256859
#
# Stress axis : x y z
#
# Youngs Moduli (GPa) = 52.45977 102.10837 68.63059
#
# Poissons Ratio (x) = 0.36443 0.16893
# Poissons Ratio (y) = 0.18723 0.30187
# Poissons Ratio (z) = 0.12912 0.44912
#
# Static dielectric constant tensor:
#      x y z
#    x 2.102740 0.039390 0.074410 
#    y 0.039390 2.127240 0.147970 
#    z 0.074410 0.147970 2.039100 
# 
# From -- ./inp_files/552165.got.cif
#   From: 2010.05.17/outbox.cif.g08.bks.cpg/sg2_277_cif.got.tgz:552165.got - 2010.06.03 11:33:40.
