data_PCOD9015686
_publ_section_title
;
Structure prediction by ZEFSAII (Michael W. Deem and Ramdas Pophale) SiO2 
 PCOD9015686
Probable space group: P -1
;
_chemical_formula_sum "Si O2"
_cell_formula_units_Z 16
_cell_length_a 24.328476
_cell_length_b 14.286520
_cell_length_c 5.638892
_cell_angle_alpha 124.991367
_cell_angle_beta 128.670946
_cell_angle_gamma 23.261128
_cell_volume 604.305411
_symmetry_space_group_name_H-M "P -1"
_symmetry_group_IT_number 2
_symmetry_cell_setting 'triclinic'
loop_
_space_group_symop_operation_xyz
x,y,z
-x,-y,-z
loop_
_atom_site_type_symbol
_atom_site_label
_atom_site_fract_x
_atom_site_fract_y
_atom_site_fract_z
Si Si1 0.336387 0.133314 0.462136
Si Si2 0.388623 0.694147 0.189176
Si Si3 0.592729 0.559765 0.807831
Si Si4 0.096818 0.506914 0.726722
Si Si5 0.126822 0.276536 0.842718
Si Si6 0.367340 0.315331 0.520925
Si Si7 0.934480 0.907135 0.132633
Si Si8 0.867305 0.210851 0.708728
O O1 0.236065 0.330327 0.682769
O O2 0.338686 0.228690 0.406721
O O3 0.504532 0.873064 0.602448
O O4 0.267079 0.115198 0.138222
O O5 0.454954 0.715388 0.506145
O O6 0.386699 0.586350 0.199150
O O7 0.500000 0.500000 0.000000
O O8 0.218089 0.943171 0.035553
O O9 0.743963 0.368818 0.802132
O O10 0.566137 0.704992 0.114117
O O11 0.135899 0.331190 0.697881
O O12 0.952930 0.722065 0.479247
O O13 0.053957 0.640322 0.034252
O O14 0.000000 0.500000 0.000000
O O15 0.230808 0.583703 0.456182
O O16 0.989923 0.911010 0.067705
O O17 0.924378 0.010752 0.469225
#
# Coordination Sequence:
#
# PCOD9015686 Si02
#       8
#     2   2   2   2   2   2   2   2
#     4  10  23  41  65  93 125 171 219 269 322 377
#     4  11  23  46  63  98 138 170 220 263 323 394
#     4  11  23  43  68  93 132 177 219 262 328 390
#     4  10  21  42  64  94 131 168 216 262 328 389
#     4   9  20  42  59  89 126 166 215 264 316 377
#     4  11  23  43  66  95 130 167 221 272 318 387
#     4  11  23  43  68  97 137 172 209 276 324 393
#     4  11  24  45  65 100 135 171 219 270 331 389
#
# _framework density 26.476680000000002
#
# number of rings (size 3 to 8) (size 9 to 14) (size 15 to 20)
#    0.000    1.500    2.500    1.500    1.750    1.500 
#   20.250    3.125    0.000    0.000    0.000    0.000 
#    0.000    0.000    0.000    0.000    0.000    0.000 
#
# Total GULP energy -89300.693442 kJ/mol
# GULP energy per Si atom -5581.293340 kJ/mol
# Density = 2.641642 g / cm^3
# Si number density = 26.476680 Si / 1000 Ang^3
#
#
#
# Elastic Constant Matrix: (Units=GPa)
#
#
# Indices 1 2 3 4 5 6 
#
# 1 114.8341 30.3167 23.3309 5.4106 5.1370 -40.9250
# 2 30.3167 159.8820 55.2785 12.2202 3.8636 -40.8929
# 3 23.3309 55.2785 89.2634 -4.6806 28.9455 -3.6529
# 4 5.4106 12.2202 -4.6806 41.8158 -5.3945 -2.2366
# 5 5.1370 3.8636 28.9455 -5.3945 36.5238 4.1974
# 6 -40.9250 -40.8929 -3.6529 -2.2366 4.1974 50.4234
#
#
#
# Elastic Compliance Matrix: (Units=1/GPa)
#
#
# Indices 1 2 3 4 5 6 
#
# 1 0.013607 0.002389 -0.004523 -0.002340 -0.000374 0.012581
# 2 0.002389 0.011681 -0.008829 -0.003683 0.003697 0.010302
# 3 -0.004523 -0.008829 0.022541 0.003348 -0.014902 -0.007809
# 4 -0.002340 -0.003683 0.003348 0.025767 0.002295 -0.003692
# 5 -0.000374 0.003697 -0.014902 0.002295 0.039369 -0.001560
# 6 0.012581 0.010302 -0.007809 -0.003692 -0.001560 0.037799
#
#
# Mechanical properties :
#
#
# Convention : Reuss Voigt Hill
#
# Bulk Modulus (GPa) = 38.60381 64.64798 51.62590
# Shear Modulus (GPa) = 27.57517 42.75615 35.16566
#
# Velocity S-wave (km/s) = 3.23071 4.02289 3.64837
# Velocity P-wave (km/s) = 5.34122 6.78588 6.10642
#
# Compressibility (1/GPa) = 0.02590418
#
# Stress axis : x y z
#
# Youngs Moduli (GPa) = 73.49109 85.60813 44.36437
#
# Poissons Ratio (x) = -0.20456 0.20066
# Poissons Ratio (y) = -0.17560 0.39169
# Poissons Ratio (z) = 0.33240 0.75582
#
# Static dielectric constant tensor:
#      x y z
#    x 2.157870 0.028510 0.023850 
#    y 0.028510 2.151710 -0.178280 
#    z 0.023850 -0.178280 2.180990 
# 
# From -- ./inp_files/127541.got.cif
#   From: 2010.05.17/outbox.cif.g08.bks.cpg/sg2_64_cif.got.tgz:127541.got - 2010.06.03 11:33:40.
