data_PCOD9015312
_publ_section_title
;
Structure prediction by ZEFSAII (Michael W. Deem and Ramdas Pophale) SiO2 
 PCOD9015312
Probable space group: P -1
;
_chemical_formula_sum "Si O2"
_cell_formula_units_Z 14
_cell_length_a 27.229500
_cell_length_b 6.762811
_cell_length_c 5.246872
_cell_angle_alpha 71.946400
_cell_angle_beta 54.424388
_cell_angle_gamma 47.382581
_cell_volume 572.580545
_symmetry_space_group_name_H-M "P -1"
_symmetry_group_IT_number 2
_symmetry_cell_setting 'triclinic'
loop_
_space_group_symop_operation_xyz
x,y,z
-x,-y,-z
loop_
_atom_site_type_symbol
_atom_site_label
_atom_site_fract_x
_atom_site_fract_y
_atom_site_fract_z
Si Si1 0.653135 0.104447 0.127228
Si Si2 0.951802 0.668950 0.328194
Si Si3 0.583726 0.556629 0.496450
Si Si4 0.309201 0.539962 0.405230
Si Si5 0.170090 0.408206 0.184037
Si Si6 0.144193 0.717487 0.657449
Si Si7 0.431195 0.017300 0.962714
O O1 0.596293 0.300293 0.451119
O O2 0.611628 0.039959 0.084788
O O3 0.671465 0.285465 0.863615
O O4 0.738006 0.828828 0.056623
O O5 0.871807 0.711770 0.563333
O O6 0.000000 0.500000 0.500000
O O7 0.926516 0.964024 0.279938
O O8 0.000000 0.500000 0.000000
O O9 0.668866 0.450177 0.375808
O O10 0.555678 0.782682 0.280684
O O11 0.517871 0.726329 0.847163
O O12 0.222455 0.662219 0.545010
O O13 0.369040 0.218893 0.285288
O O14 0.161106 0.578643 0.387220
O O15 0.129773 0.583906 0.979294
#
# Coordination Sequence:
#
# PCOD9015312 Si02
#       7
#     2   2   2   2   2   2   2
#     4  11  23  39  65  97 137 187 250 292 363 429
#     4  12  28  51  79 113 150 183 235 298 362 441
#     4  10  23  37  64  91 141 184 242 312 356 418
#     4  11  23  39  65  96 137 189 245 301 358 424
#     4  12  27  47  77 109 147 197 239 293 365 433
#     4  12  27  47  76 108 149 192 243 295 359 437
#     4  10  21  42  58  96 133 187 243 305 365 419
#
# _framework density 24.450709
#
# number of rings (size 3 to 8) (size 9 to 14) (size 15 to 20)
#    0.000    0.857    2.857    3.429    4.000    6.286 
#    0.000    0.000    0.000    0.000    0.000    0.000 
#    0.000    0.000    0.000    0.000    0.000    0.000 
#
# Total GULP energy -78400.097844 kJ/mol
# GULP energy per Si atom -5600.006989 kJ/mol
# Density = 2.439506 g / cm^3
# Si number density = 24.450709 Si / 1000 Ang^3
#
#
#
# Elastic Constant Matrix: (Units=GPa)
#
#
# Indices 1 2 3 4 5 6 
#
# 1 88.5195 27.4809 17.3619 20.5151 7.4066 2.0842
# 2 27.4809 168.4065 46.7166 17.4830 18.3918 2.1667
# 3 17.3619 46.7166 102.8756 5.7064 9.3912 0.5981
# 4 20.5151 17.4830 5.7064 33.8909 7.8950 1.3150
# 5 7.4066 18.3918 9.3912 7.8950 43.1914 -1.7479
# 6 2.0842 2.1667 0.5981 1.3150 -1.7479 39.5687
#
#
#
# Elastic Compliance Matrix: (Units=1/GPa)
#
#
# Indices 1 2 3 4 5 6 
#
# 1 0.013641 -0.001036 -0.001395 -0.007412 -0.000256 -0.000406
# 2 -0.001036 0.007346 -0.002859 -0.002217 -0.001936 -0.000316
# 3 -0.001395 -0.002859 0.011320 0.000677 -0.001129 -0.000013
# 4 -0.007412 -0.002217 0.000677 0.036123 -0.004571 -0.000901
# 5 -0.000256 -0.001936 -0.001129 -0.004571 0.025159 0.001400
# 6 -0.000406 -0.000316 -0.000013 -0.000901 0.001400 0.025403
#
#
# Mechanical properties :
#
#
# Convention : Reuss Voigt Hill
#
# Bulk Modulus (GPa) = 46.02732 60.32447 53.17590
# Shear Modulus (GPa) = 36.54563 41.21300 38.87932
#
# Velocity S-wave (km/s) = 3.87028 4.11000 3.99194
# Velocity P-wave (km/s) = 6.23198 6.87374 6.56071
#
# Compressibility (1/GPa) = 0.02172623
#
# Stress axis : x y z
#
# Youngs Moduli (GPa) = 73.30781 136.12739 88.33996
#
# Poissons Ratio (x) = 0.14108 0.12320
# Poissons Ratio (y) = 0.07598 0.25260
# Poissons Ratio (z) = 0.10224 0.38924
#
# Static dielectric constant tensor:
#      x y z
#    x 1.915450 -0.003940 0.001000 
#    y -0.003940 1.905040 -0.033200 
#    z 0.001000 -0.033200 2.004500 
# 
# From -- ./inp_files/6755.got.cif
#   From: 2010.05.17/outbox.cif.g08.bks.cpg/sg2_4_cif.got.tgz:6755.got - 2010.06.03 11:33:40.
