data_PCOD9015563
_publ_section_title
;
Structure prediction by ZEFSAII (Michael W. Deem and Ramdas Pophale) SiO2 
 PCOD9015563
Probable space group: P -1
;
_chemical_formula_sum "Si O2"
_cell_formula_units_Z 11
_cell_length_a 10.370410
_cell_length_b 9.530038
_cell_length_c 16.267149
_cell_angle_alpha 38.358371
_cell_angle_beta 31.319166
_cell_angle_gamma 62.119678
_cell_volume 404.006292
_symmetry_space_group_name_H-M "P -1"
_symmetry_group_IT_number 2
_symmetry_cell_setting 'triclinic'
loop_
_space_group_symop_operation_xyz
x,y,z
-x,-y,-z
loop_
_atom_site_type_symbol
_atom_site_label
_atom_site_fract_x
_atom_site_fract_y
_atom_site_fract_z
Si Si1 0.204765 0.978628 0.249682
Si Si2 0.228969 0.726713 0.841430
Si Si3 0.198643 0.163492 0.613978
Si Si4 0.000000 0.000000 0.000000
Si Si5 0.470474 0.417351 0.146519
Si Si6 0.344710 0.603891 0.446690
O O1 0.268060 0.789802 0.353737
O O2 0.087203 0.896129 0.256041
O O3 0.880842 0.883987 0.512217
O O4 0.481102 0.322442 0.947800
O O5 0.584887 0.870116 0.547515
O O6 0.245504 0.580831 0.979005
O O7 0.129826 0.926761 0.828064
O O8 0.000000 0.500000 0.000000
O O9 0.423057 0.475837 0.387731
O O10 0.624773 0.798850 0.268184
O O11 0.930388 0.703564 0.220566
O O12 0.500000 0.500000 0.000000
#
# Coordination Sequence:
#
# PCOD9015563 Si02
#       6
#     2   2   2   1   2   2
#     4  11  23  43  66 100 130 164 226 275 319 401
#     4  10  21  42  63  95 133 169 230 269 310 400
#     4  10  23  40  68  95 127 177 220 274 329 383
#     4  10  26  44  60  96 134 172 216 260 328 418
#     4  11  24  42  66  96 135 176 216 269 336 380
#     4  11  24  45  68  95 133 172 216 273 338 385
#
# _framework density 27.227298999999999
#
# number of rings (size 3 to 8) (size 9 to 14) (size 15 to 20)
#    0.000    1.455    1.818    2.182    2.545    4.364 
#    3.273    4.545    0.000    0.000    0.000    0.000 
#    0.000    0.000    0.000    0.000    0.000    0.000 
#
# Total GULP energy -61296.136030 kJ/mol
# GULP energy per Si atom -5572.376003 kJ/mol
# Density = 2.716533 g / cm^3
# Si number density = 27.227299 Si / 1000 Ang^3
#
#
#
# Elastic Constant Matrix: (Units=GPa)
#
#
# Indices 1 2 3 4 5 6 
#
# 1 194.5070 33.3137 -2.0067 -32.2451 -8.4049 -44.9629
# 2 33.3137 91.8994 -2.5072 -29.6177 -5.3066 -26.8873
# 3 -2.0067 -2.5072 124.6079 -20.7702 -10.2190 1.7296
# 4 -32.2451 -29.6177 -20.7702 39.6175 9.1193 9.3078
# 5 -8.4049 -5.3066 -10.2190 9.1193 48.9040 -12.8207
# 6 -44.9629 -26.8873 1.7296 9.3078 -12.8207 45.5495
#
#
#
# Elastic Compliance Matrix: (Units=1/GPa)
#
#
# Indices 1 2 3 4 5 6 
#
# 1 0.007861 0.001594 0.001215 0.005597 0.002918 0.008332
# 2 0.001594 0.017625 0.002616 0.012779 0.003001 0.010111
# 3 0.001215 0.002616 0.009404 0.007230 0.001455 0.001319
# 4 0.005597 0.012779 0.007230 0.043222 -0.003413 0.003001
# 5 0.002918 0.003001 0.001455 -0.003413 0.025485 0.012468
# 6 0.008332 0.010111 0.001319 0.003001 0.012468 0.038993
#
#
# Mechanical properties :
#
#
# Convention : Reuss Voigt Hill
#
# Bulk Modulus (GPa) = 21.86291 52.06825 36.96558
# Shear Modulus (GPa) = 34.01714 52.29517 43.15615
#
# Velocity S-wave (km/s) = 3.53849 4.38732 3.98557
# Velocity P-wave (km/s) = 4.97410 6.69551 5.89795
#
# Compressibility (1/GPa) = 0.04573957
#
# Stress axis : x y z
#
# Youngs Moduli (GPa) = 127.21297 56.73769 106.34282
#
# Poissons Ratio (x) = -0.09042 -0.12924
# Poissons Ratio (y) = -0.20274 -0.27820
# Poissons Ratio (z) = -0.15461 -0.14843
#
# Static dielectric constant tensor:
#      x y z
#    x 2.674030 -0.091410 0.438870 
#    y -0.091410 2.278830 -0.036280 
#    z 0.438870 -0.036280 2.261250 
# 
# From -- ./inp_files/22730.got.cif
#   From: 2010.05.17/outbox.cif.g08.bks.cpg/sg2_12_cif.got.tgz:22730.got - 2010.06.03 11:33:40.
