data_PCOD9015910
_publ_section_title
;
Structure prediction by ZEFSAII (Michael W. Deem and Ramdas Pophale) SiO2 
 PCOD9015910
Probable space group: P -1
;
_chemical_formula_sum "Si O2"
_cell_formula_units_Z 16
_cell_length_a 14.419094
_cell_length_b 14.236512
_cell_length_c 11.211111
_cell_angle_alpha 29.575611
_cell_angle_beta 40.266756
_cell_angle_gamma 54.554166
_cell_volume 708.472871
_symmetry_space_group_name_H-M "P -1"
_symmetry_group_IT_number 2
_symmetry_cell_setting 'triclinic'
loop_
_space_group_symop_operation_xyz
x,y,z
-x,-y,-z
loop_
_atom_site_type_symbol
_atom_site_label
_atom_site_fract_x
_atom_site_fract_y
_atom_site_fract_z
Si Si1 0.660676 0.031723 0.746331
Si Si2 0.533674 0.079514 0.566650
Si Si3 0.629380 0.613896 0.159332
Si Si4 0.039589 0.950236 0.150218
Si Si5 0.707732 0.809015 0.631999
Si Si6 0.304212 0.321139 0.477545
Si Si7 0.167822 0.609512 0.698804
Si Si8 0.260173 0.689566 0.257160
O O1 0.630670 0.110163 0.558492
O O2 0.786108 0.163657 0.560212
O O3 0.500000 0.000000 0.000000
O O4 0.692468 0.822580 0.929294
O O5 0.456401 0.255489 0.426002
O O6 0.642002 0.998616 0.459832
O O7 0.392976 0.887438 0.924645
O O8 0.500000 0.500000 0.500000
O O9 0.743062 0.483743 0.191143
O O10 0.605039 0.672457 0.983252
O O11 0.118585 0.772069 0.270941
O O12 0.874107 0.884180 0.440574
O O13 0.162394 0.146431 0.857456
O O14 0.000000 0.000000 0.000000
O O15 0.710706 0.692264 0.636448
O O16 0.295364 0.529640 0.309091
O O17 0.225682 0.590575 0.530280
O O18 0.000000 0.500000 0.000000
#
# Coordination Sequence:
#
# PCOD9015910 Si02
#       8
#     2   2   2   2   2   2   2   2
#     4  11  22  42  68  92 129 181 221 268 336 396
#     4  10  22  40  65  93 129 172 227 269 330 397
#     4  11  23  41  69  95 131 179 228 271 334 400
#     4   9  21  42  65  90 132 173 217 266 333 397
#     4  10  21  42  65  97 131 171 224 277 328 404
#     4  10  23  41  68  94 134 175 215 277 340 389
#     4  12  26  42  66 103 135 169 227 284 332 397
#     4  11  23  40  63  97 131 172 221 271 330 403
#
# _framework density 22.583787000000001
#
# number of rings (size 3 to 8) (size 9 to 14) (size 15 to 20)
#    0.000    1.500    2.500    1.875    1.750    7.000 
#    0.000    8.750    0.000    0.000    0.000    0.000 
#    0.000    0.000    0.000    0.000    0.000    0.000 
#
# Total GULP energy -89336.376190 kJ/mol
# GULP energy per Si atom -5583.523512 kJ/mol
# Density = 2.253239 g / cm^3
# Si number density = 22.583787 Si / 1000 Ang^3
#
#
#
# Elastic Constant Matrix: (Units=GPa)
#
#
# Indices 1 2 3 4 5 6 
#
# 1 66.1598 33.5444 26.1326 -3.3493 -7.6819 -7.1501
# 2 33.5444 121.3382 40.4756 -15.7897 -15.6610 4.9492
# 3 26.1326 40.4756 84.7721 6.5915 -13.5240 6.8854
# 4 -3.3493 -15.7897 6.5915 35.3317 -3.7659 1.0734
# 5 -7.6819 -15.6610 -13.5240 -3.7659 36.9394 -2.3611
# 6 -7.1501 4.9492 6.8854 1.0734 -2.3611 52.3090
#
#
#
# Elastic Compliance Matrix: (Units=1/GPa)
#
#
# Indices 1 2 3 4 5 6 
#
# 1 0.019309 -0.003761 -0.004339 0.000974 0.001162 0.003599
# 2 -0.003761 0.012049 -0.004474 0.006242 0.003258 -0.001046
# 3 -0.004339 -0.004474 0.016235 -0.005111 0.002490 -0.002090
# 4 0.000974 0.006242 -0.005111 0.032603 0.004285 -0.000260
# 5 0.001162 0.003258 0.002490 0.004285 0.030093 0.000793
# 6 0.003599 -0.001046 -0.002090 -0.000260 0.000793 0.020024
#
#
# Mechanical properties :
#
#
# Convention : Reuss Voigt Hill
#
# Bulk Modulus (GPa) = 44.55594 52.50838 48.53216
# Shear Modulus (GPa) = 30.68557 36.39052 33.53805
#
# Velocity S-wave (km/s) = 3.69011 4.01852 3.85781
# Velocity P-wave (km/s) = 6.15856 6.69570 6.43274
#
# Compressibility (1/GPa) = 0.02244370
#
# Stress axis : x y z
#
# Youngs Moduli (GPa) = 51.78991 82.99451 61.59642
#
# Poissons Ratio (x) = 0.31211 0.26729
# Poissons Ratio (y) = 0.19476 0.27560
# Poissons Ratio (z) = 0.22474 0.37135
#
# Static dielectric constant tensor:
#      x y z
#    x 1.836870 -0.022930 0.008020 
#    y -0.022930 1.990140 -0.084380 
#    z 0.008020 -0.084380 2.029340 
# 
# From -- ./inp_files/455360.got.cif
#   From: 2010.05.17/outbox.cif.g08.bks.cpg/sg2_228_cif.got.tgz:455360.got - 2010.06.03 11:33:40.
