data_PCOD9015696
_publ_section_title
;
Structure prediction by ZEFSAII (Michael W. Deem and Ramdas Pophale) SiO2 
 PCOD9015696
Probable space group: P -1
;
_chemical_formula_sum "Si O2"
_cell_formula_units_Z 15
_cell_length_a 23.264826
_cell_length_b 22.036227
_cell_length_c 5.024095
_cell_angle_alpha 109.222995
_cell_angle_beta 73.239629
_cell_angle_gamma 167.596813
_cell_volume 515.344274
_symmetry_space_group_name_H-M "P -1"
_symmetry_group_IT_number 2
_symmetry_cell_setting 'triclinic'
loop_
_space_group_symop_operation_xyz
x,y,z
-x,-y,-z
loop_
_atom_site_type_symbol
_atom_site_label
_atom_site_fract_x
_atom_site_fract_y
_atom_site_fract_z
Si Si1 0.800184 0.920045 0.032695
Si Si2 0.391927 0.113424 0.040523
Si Si3 0.240358 0.253436 0.328882
Si Si4 0.050572 0.793600 0.525335
Si Si5 0.000000 0.500000 0.000000
Si Si6 0.273138 0.417250 0.704848
Si Si7 0.683121 0.100572 0.299489
Si Si8 0.226204 0.622717 0.634073
O O1 0.991283 0.123447 0.811396
O O2 0.795503 0.838391 0.983833
O O3 0.503782 0.632820 0.917534
O O4 0.932491 0.111190 0.325803
O O5 0.153484 0.880295 0.225946
O O6 0.631862 0.411527 0.232087
O O7 0.452402 0.101752 0.952162
O O8 0.282686 0.015988 0.752885
O O9 0.500000 0.500000 0.500000
O O10 0.288828 0.379680 0.398981
O O11 0.000000 0.000000 0.500000
O O12 0.806416 0.489492 0.481299
O O13 0.212575 0.741918 0.831599
O O14 0.161493 0.596644 0.947601
O O15 0.955892 0.361926 0.458249
O O16 0.493591 0.921001 0.542052
#
# Coordination Sequence:
#
# PCOD9015696 Si02
#       8
#     2   2   2   2   1   2   2   2
#     4   9  17  32  55  85 120 162 208 261 319 381
#     4  10  21  42  64  95 128 171 217 271 324 391
#     4   8  14  26  49  80 116 156 204 256 314 377
#     4  10  21  42  64  95 128 171 217 271 324 391
#     4  12  24  46  68 100 128 176 216 270 334 390
#     4   9  17  32  55  85 120 162 208 261 319 381
#     4  11  25  44  66  97 132 171 219 271 328 394
#     4  11  25  44  66  97 132 171 219 271 328 394
#
# _framework density 29.106755
#
# number of rings (size 3 to 8) (size 9 to 14) (size 15 to 20)
#    0.000    2.133    1.333    1.600    0.000    2.133 
#    0.000   14.000    0.000    0.000    0.000   28.000 
#    0.000    0.000    0.000    0.000    0.000    0.000 
#
# Total GULP energy -83871.922519 kJ/mol
# GULP energy per Si atom -5591.461501 kJ/mol
# Density = 2.904051 g / cm^3
# Si number density = 29.106755 Si / 1000 Ang^3
#
#
#
# Elastic Constant Matrix: (Units=GPa)
#
#
# Indices 1 2 3 4 5 6 
#
# 1 146.8427 31.6079 67.7262 -7.8553 -41.2349 -29.7989
# 2 31.6079 511.2236 -33.6567 -63.3363 -142.9197 114.4704
# 3 67.7262 -33.6567 138.1425 14.5766 -11.2938 -28.8283
# 4 -7.8553 -63.3363 14.5766 72.2878 19.3184 -24.4190
# 5 -41.2349 -142.9197 -11.2938 19.3184 110.7723 -28.7532
# 6 -29.7989 114.4704 -28.8283 -24.4190 -28.7532 93.6792
#
#
#
# Elastic Compliance Matrix: (Units=1/GPa)
#
#
# Indices 1 2 3 4 5 6 
#
# 1 0.011181 -0.000824 -0.004624 0.002099 0.003497 0.004761
# 2 -0.000824 0.004088 0.000883 0.001076 0.003964 -0.003488
# 3 -0.004624 0.000883 0.010055 -0.001877 0.000852 0.000317
# 4 0.002099 0.001076 -0.001877 0.016433 -0.000101 0.003027
# 5 0.003497 0.003964 0.000852 -0.000101 0.015909 0.001387
# 6 0.004761 -0.003488 0.000317 0.003027 0.001387 0.017764
#
#
# Mechanical properties :
#
#
# Convention : Reuss Voigt Hill
#
# Bulk Modulus (GPa) = 61.75983 103.06263 82.41123
# Shear Modulus (GPa) = 55.58158 104.04993 79.81576
#
# Velocity S-wave (km/s) = 4.37461 5.98542 5.24226
# Velocity P-wave (km/s) = 6.83965 9.12428 8.06329
#
# Compressibility (1/GPa) = 0.01619175
#
# Stress axis : x y z
#
# Youngs Moduli (GPa) = 89.44073 244.62874 99.45330
#
# Poissons Ratio (x) = 0.20159 0.45990
# Poissons Ratio (y) = 0.07370 -0.08777
# Poissons Ratio (z) = 0.41360 -0.21589
#
# Static dielectric constant tensor:
#      x y z
#    x 2.169840 -0.162960 -0.130750 
#    y -0.162960 2.144020 0.163560 
#    z -0.130750 0.163560 2.353230 
# 
# From -- ./inp_files/128873.got.cif
#   From: 2010.05.17/outbox.cif.g08.bks.cpg/sg2_65_cif.got.tgz:128873.got - 2010.06.03 11:33:40.
