data_PCOD9015053
_publ_section_title
;
Structure prediction by ZEFSAII (Michael W. Deem and Ramdas Pophale) SiO2 
 PCOD9015053
Probable space group: P -1
;
_chemical_formula_sum "Si O2"
_cell_formula_units_Z 14
_cell_length_a 7.893134
_cell_length_b 7.230121
_cell_length_c 11.581495
_cell_angle_alpha 91.374085
_cell_angle_beta 52.173260
_cell_angle_gamma 76.868268
_cell_volume 496.811385
_symmetry_space_group_name_H-M "P -1"
_symmetry_group_IT_number 2
_symmetry_cell_setting 'triclinic'
loop_
_space_group_symop_operation_xyz
x,y,z
-x,-y,-z
loop_
_atom_site_type_symbol
_atom_site_label
_atom_site_fract_x
_atom_site_fract_y
_atom_site_fract_z
Si Si1 0.588047 0.620313 0.331701
Si Si2 0.329455 0.192226 0.135619
Si Si3 0.823574 0.747461 0.025945
Si Si4 0.093719 0.282430 0.614438
Si Si5 0.012620 0.898121 0.128286
Si Si6 0.081856 0.795061 0.527707
Si Si7 0.535027 0.209266 0.291482
O O1 0.642900 0.712091 0.190572
O O2 0.782860 0.614568 0.343287
O O3 0.332573 0.743794 0.471507
O O4 0.580824 0.403478 0.316245
O O5 0.472358 0.235211 0.182741
O O6 0.100409 0.196313 0.297885
O O7 0.239500 0.336698 0.068260
O O8 0.500000 0.000000 0.000000
O O9 0.034224 0.718266 0.026972
O O10 0.865710 0.945276 0.956989
O O11 0.321854 0.176489 0.445689
O O12 0.922933 0.353568 0.578797
O O13 0.964735 0.177309 0.752763
O O14 0.749427 0.027203 0.228778
O O15 0.000000 0.000000 0.500000
#
# Coordination Sequence:
#
# PCOD9015053 Si02
#       7
#     2   2   2   2   2   2   2
#     4  11  26  47  68 104 146 184 225 289 360 413
#     4  11  22  41  67 100 136 180 234 288 337 409
#     4  10  22  41  66  98 137 182 234 279 343 416
#     4  10  24  43  70 102 138 181 236 290 339 410
#     4  10  21  41  70  99 134 182 236 287 340 408
#     4  11  25  42  74 105 134 182 240 287 341 414
#     4  11  24  42  71 102 144 181 228 293 351 417
#
# _framework density 28.179708999999999
#
# number of rings (size 3 to 8) (size 9 to 14) (size 15 to 20)
#    0.000    1.429    1.429    2.571   10.000    3.429 
#    5.143    0.000    0.000    0.000    0.000    0.000 
#    0.000    0.000    0.000    0.000    0.000    0.000 
#
# Total GULP energy -78098.331423 kJ/mol
# GULP energy per Si atom -5578.452245 kJ/mol
# Density = 2.811557 g / cm^3
# Si number density = 28.179709 Si / 1000 Ang^3
#
#
#
# Elastic Constant Matrix: (Units=GPa)
#
#
# Indices 1 2 3 4 5 6 
#
# 1 130.3224 33.3500 47.8228 15.2355 15.0389 19.2503
# 2 33.3500 90.3331 28.6057 -8.2236 13.1483 -7.3215
# 3 47.8228 28.6057 186.8624 -24.5649 27.8070 -8.8214
# 4 15.2355 -8.2236 -24.5649 45.5253 0.8105 -4.0987
# 5 15.0389 13.1483 27.8070 0.8105 75.1618 13.1021
# 6 19.2503 -7.3215 -8.8214 -4.0987 13.1021 36.3815
#
#
#
# Elastic Compliance Matrix: (Units=1/GPa)
#
#
# Indices 1 2 3 4 5 6 
#
# 1 0.013083 -0.005368 -0.004479 -0.008770 0.001952 -0.010779
# 2 -0.005368 0.014400 0.000720 0.005530 -0.003105 0.007654
# 3 -0.004479 0.000720 0.008070 0.006624 -0.003411 0.006446
# 4 -0.008770 0.005530 0.006624 0.030656 -0.004139 0.012304
# 5 0.001952 -0.003105 -0.003411 -0.004139 0.016301 -0.008821
# 6 -0.010779 0.007654 0.006446 0.012304 -0.008821 0.040856
#
#
# Mechanical properties :
#
#
# Convention : Reuss Voigt Hill
#
# Bulk Modulus (GPa) = 57.80622 69.67500 63.74061
# Shear Modulus (GPa) = 33.92461 51.26302 42.59381
#
# Velocity S-wave (km/s) = 3.47344 4.26977 3.89203
# Velocity P-wave (km/s) = 6.05346 7.00620 6.54718
#
# Compressibility (1/GPa) = 0.01729918
#
# Stress axis : x y z
#
# Youngs Moduli (GPa) = 76.43711 69.44587 123.91238
#
# Poissons Ratio (x) = 0.37278 0.55496
# Poissons Ratio (y) = 0.41030 -0.08919
# Poissons Ratio (z) = 0.34233 -0.04999
#
# Static dielectric constant tensor:
#      x y z
#    x 2.279330 0.106930 0.078750 
#    y 0.106930 2.465260 0.175970 
#    z 0.078750 0.175970 2.255440 
# 
# From -- ./inp_files/379394.got.cif
#   From: 2010.05.17/outbox.cif.g08.bks.cpg/sg2_190_cif.got.tgz:379394.got - 2010.06.03 11:33:40.
