data_PCOD9015866
_publ_section_title
;
Structure prediction by ZEFSAII (Michael W. Deem and Ramdas Pophale) SiO2 
 PCOD9015866
Probable space group: P -1
;
_chemical_formula_sum "Si O2"
_cell_formula_units_Z 12
_cell_length_a 10.921773
_cell_length_b 12.038996
_cell_length_c 12.028668
_cell_angle_alpha 145.702482
_cell_angle_beta 146.131418
_cell_angle_gamma 54.919830
_cell_volume 464.474987
_symmetry_space_group_name_H-M "P -1"
_symmetry_group_IT_number 2
_symmetry_cell_setting 'triclinic'
loop_
_space_group_symop_operation_xyz
x,y,z
-x,-y,-z
loop_
_atom_site_type_symbol
_atom_site_label
_atom_site_fract_x
_atom_site_fract_y
_atom_site_fract_z
Si Si1 0.306577 0.361520 0.580679
Si Si2 0.334053 0.168945 0.076310
Si Si3 0.449961 0.810459 0.968786
Si Si4 0.136900 0.512017 0.227290
Si Si5 0.166182 0.499047 0.803503
Si Si6 0.352884 0.944585 0.230863
O O1 0.152999 0.346394 0.563359
O O2 0.270221 0.141402 0.311164
O O3 0.317057 0.561321 0.678870
O O4 0.573633 0.440836 0.897018
O O5 0.160031 0.284811 0.075880
O O6 0.597880 0.319727 0.437078
O O7 0.302348 0.944432 0.917214
O O8 0.347367 0.159853 0.944398
O O9 0.506760 0.907965 0.215056
O O10 0.998304 0.564542 0.267030
O O11 0.000000 0.500000 0.000000
O O12 0.161425 0.715739 0.922490
O O13 0.500000 0.000000 0.500000
#
# Coordination Sequence:
#
# PCOD9015866 Si02
#       6
#     2   2   2   2   2   2
#     4   9  18  37  67  95 132 171 213 282 326 386
#     4  10  25  44  65  98 142 173 219 283 324 396
#     4  10  21  42  65  94 136 178 216 273 343 382
#     4  11  24  43  71  99 131 182 226 269 334 400
#     4   9  19  38  60 100 129 164 230 267 329 392
#     4   9  19  34  67  97 129 174 220 277 328 387
#
# _framework density 25.835622999999998
#
# number of rings (size 3 to 8) (size 9 to 14) (size 15 to 20)
#    0.000    2.333    0.000    2.000    9.333    0.000 
#    6.000   10.833    0.000    0.000    0.000    0.000 
#    0.000    0.000    0.000    0.000    0.000    0.000 
#
# Total GULP energy -67204.834686 kJ/mol
# GULP energy per Si atom -5600.402891 kJ/mol
# Density = 2.577682 g / cm^3
# Si number density = 25.835623 Si / 1000 Ang^3
#
#
#
# Elastic Constant Matrix: (Units=GPa)
#
#
# Indices 1 2 3 4 5 6 
#
# 1 113.3883 34.5679 42.7597 -11.0440 -18.0556 5.2808
# 2 34.5679 134.9859 29.5286 23.1205 -1.7419 0.7560
# 3 42.7597 29.5286 80.5559 1.5680 -23.1168 -0.0051
# 4 -11.0440 23.1205 1.5680 46.8775 1.1656 -13.7928
# 5 -18.0556 -1.7419 -23.1168 1.1656 42.4361 -0.8973
# 6 5.2808 0.7560 -0.0051 -13.7928 -0.8973 41.5268
#
#
#
# Elastic Compliance Matrix: (Units=1/GPa)
#
#
# Indices 1 2 3 4 5 6 
#
# 1 0.012333 -0.002800 -0.004940 0.004391 0.002321 -0.000009
# 2 -0.002800 0.009658 -0.002530 -0.005816 -0.002051 -0.001796
# 3 -0.004940 -0.002530 0.018192 -0.000520 0.007733 0.000671
# 4 0.004391 -0.005816 -0.000520 0.027825 0.000769 0.008806
# 5 0.002321 -0.002051 0.007733 0.000769 0.028673 0.000618
# 6 -0.000009 -0.001796 0.000671 0.008806 0.000618 0.027053
#
#
# Mechanical properties :
#
#
# Convention : Reuss Voigt Hill
#
# Bulk Modulus (GPa) = 50.90250 60.29360 55.59805
# Shear Modulus (GPa) = 33.15180 40.97300 37.06240
#
# Velocity S-wave (km/s) = 3.58604 3.98667 3.79165
# Velocity P-wave (km/s) = 6.07383 6.67678 6.38243
#
# Compressibility (1/GPa) = 0.01964540
#
# Stress axis : x y z
#
# Youngs Moduli (GPa) = 81.08048 103.53726 54.96815
#
# Poissons Ratio (x) = 0.28990 0.27153
# Poissons Ratio (y) = 0.22702 0.13905
# Poissons Ratio (z) = 0.40052 0.26191
#
# Static dielectric constant tensor:
#      x y z
#    x 1.986880 -0.028440 0.048070 
#    y -0.028440 2.110200 -0.054180 
#    z 0.048070 -0.054180 2.106790 
# 
# From -- ./inp_files/427087.got.cif
#   From: 2010.05.17/outbox.cif.g08.bks.cpg/sg2_214_cif.got.tgz:427087.got - 2010.06.03 11:33:40.
