data_PCOD9015789
_publ_section_title
;
Structure prediction by ZEFSAII (Michael W. Deem and Ramdas Pophale) SiO2 
 PCOD9015789
Probable space group: P -1
;
_chemical_formula_sum "Si O2"
_cell_formula_units_Z 10
_cell_length_a 9.367486
_cell_length_b 9.365440
_cell_length_c 12.481688
_cell_angle_alpha 41.691662
_cell_angle_beta 144.100044
_cell_angle_gamma 133.129962
_cell_volume 418.268757
_symmetry_space_group_name_H-M "P -1"
_symmetry_group_IT_number 2
_symmetry_cell_setting 'triclinic'
loop_
_space_group_symop_operation_xyz
x,y,z
-x,-y,-z
loop_
_atom_site_type_symbol
_atom_site_label
_atom_site_fract_x
_atom_site_fract_y
_atom_site_fract_z
Si Si1 0.036809 0.151135 0.181772
Si Si2 0.814899 0.111505 0.396189
Si Si3 0.631419 0.381066 0.829152
Si Si4 0.715999 0.158963 0.798610
Si Si5 0.878389 0.504814 0.537478
O O1 0.224620 0.385300 0.171535
O O2 0.153227 0.980013 0.413533
O O3 0.785232 0.198306 0.061754
O O4 0.946476 0.093999 0.038023
O O5 0.921705 0.368605 0.326673
O O6 0.528253 0.030618 0.238227
O O7 0.000000 0.000000 0.500000
O O8 0.662199 0.354403 0.734879
O O9 0.343730 0.361927 0.685986
O O10 0.765249 0.270195 0.651609
O O11 0.000000 0.500000 0.500000
#
# Coordination Sequence:
#
# PCOD9015789 Si02
#       5
#     2   2   2   2   2
#     4   9  20  37  68  93 121 156 219 260 302 352
#     4  12  22  38  71  96 115 165 218 255 304 365
#     4   9  18  38  68  87 124 161 204 259 309 350
#     4  10  21  42  65  88 126 165 206 260 302 361
#     4  12  25  40  62  96 132 165 201 254 322 372
#
# _framework density 23.908073000000002
#
# number of rings (size 3 to 8) (size 9 to 14) (size 15 to 20)
#    1.200    0.400    4.000    1.800    0.000    4.000 
#    0.000    2.000    0.000    0.000    0.000    0.000 
#    0.000    0.000    0.000    0.000    0.000    0.000 
#
# Total GULP energy -55852.364788 kJ/mol
# GULP energy per Si atom -5585.236479 kJ/mol
# Density = 2.385366 g / cm^3
# Si number density = 23.908073 Si / 1000 Ang^3
#
#
#
# Elastic Constant Matrix: (Units=GPa)
#
#
# Indices 1 2 3 4 5 6 
#
# 1 104.4215 19.4826 0.3837 10.2783 -7.3944 -1.7194
# 2 19.4826 105.3241 11.0949 36.1343 17.9248 15.9538
# 3 0.3837 11.0949 75.8334 16.7094 -0.3279 1.3410
# 4 10.2783 36.1343 16.7094 38.9379 1.5166 6.1024
# 5 -7.3944 17.9248 -0.3279 1.5166 14.5356 1.1662
# 6 -1.7194 15.9538 1.3410 6.1024 1.1662 25.6066
#
#
#
# Elastic Compliance Matrix: (Units=1/GPa)
#
#
# Indices 1 2 3 4 5 6 
#
# 1 0.011236 -0.004486 0.000584 0.000046 0.011015 0.003006
# 2 -0.004486 0.022049 0.000606 -0.017114 -0.026970 -0.008764
# 3 0.000584 0.000606 0.014656 -0.007117 0.000578 0.000564
# 4 0.000046 -0.017114 -0.007117 0.043997 0.016392 -0.000193
# 5 0.011015 -0.026970 0.000578 0.016392 0.105254 0.008812
# 6 0.003006 -0.008764 0.000564 -0.000193 0.008812 0.044329
#
#
# Mechanical properties :
#
#
# Convention : Reuss Voigt Hill
#
# Bulk Modulus (GPa) = 24.18419 38.61125 31.39772
# Shear Modulus (GPa) = 19.09151 32.79053 25.94102
#
# Velocity S-wave (km/s) = 2.82891 3.70743 3.29756
# Velocity P-wave (km/s) = 4.56155 5.87466 5.25925
#
# Compressibility (1/GPa) = 0.04134933
#
# Stress axis : x y z
#
# Youngs Moduli (GPa) = 88.99721 45.35350 68.23237
#
# Poissons Ratio (x) = 0.20344 -0.03983
# Poissons Ratio (y) = 0.39921 -0.04135
# Poissons Ratio (z) = -0.05195 -0.02748
#
# Static dielectric constant tensor:
#      x y z
#    x 1.905800 -0.023040 -0.017880 
#    y -0.023040 1.963230 0.018650 
#    z -0.017880 0.018650 1.953520 
# 
# From -- ./inp_files/160446.got.cif
#   From: 2010.05.17/outbox.cif.g08.bks.cpg/sg2_81_cif.got.tgz:160446.got - 2010.06.03 11:33:40.
