data_PCOD9015569
_publ_section_title
;
Structure prediction by ZEFSAII (Michael W. Deem and Ramdas Pophale) SiO2 
 PCOD9015569
Probable space group: P -1
;
_chemical_formula_sum "Si O2"
_cell_formula_units_Z 14
_cell_length_a 6.850890
_cell_length_b 8.608375
_cell_length_c 16.556196
_cell_angle_alpha 138.030494
_cell_angle_beta 102.031342
_cell_angle_gamma 97.832803
_cell_volume 571.792614
_symmetry_space_group_name_H-M "P -1"
_symmetry_group_IT_number 2
_symmetry_cell_setting 'triclinic'
loop_
_space_group_symop_operation_xyz
x,y,z
-x,-y,-z
loop_
_atom_site_type_symbol
_atom_site_label
_atom_site_fract_x
_atom_site_fract_y
_atom_site_fract_z
Si Si1 0.192662 0.239287 0.211321
Si Si2 0.102259 0.961298 0.323204
Si Si3 0.808293 0.654404 0.302913
Si Si4 0.685189 0.460313 0.398948
Si Si5 0.400980 0.765751 0.334873
Si Si6 0.650210 0.153693 0.996909
Si Si7 0.779321 0.016639 0.209152
O O1 0.418742 0.341956 0.324421
O O2 0.244196 0.491802 0.258615
O O3 0.963410 0.141707 0.202220
O O4 0.219910 0.269799 0.443000
O O5 0.275001 0.842630 0.283913
O O6 0.030111 0.896733 0.385961
O O7 0.885184 0.865496 0.212078
O O8 0.775868 0.534726 0.343034
O O9 0.604932 0.725502 0.302363
O O10 0.788185 0.437992 0.152590
O O11 0.763562 0.246607 0.349102
O O12 0.206214 0.996522 0.074030
O O13 0.500000 0.000000 0.500000
O O14 0.467956 0.134423 0.906786
O O15 0.500000 0.000000 0.000000
#
# Coordination Sequence:
#
# PCOD9015569 Si02
#       7
#     2   2   2   2   2   2   2
#     4  10  22  41  69  92 124 165 212 260 303 374
#     4  12  25  39  62  99 133 163 203 259 326 373
#     4  11  23  42  70  89 127 169 210 266 300 369
#     4  10  21  42  63  96 125 166 213 251 314 376
#     4  11  22  39  63  98 125 160 208 254 315 372
#     4  11  22  46  66  91 120 168 226 251 302 374
#     4  11  25  40  64  95 127 170 208 256 317 371
#
# _framework density 24.484399
#
# number of rings (size 3 to 8) (size 9 to 14) (size 15 to 20)
#    0.000    1.143    7.143    1.714    2.000    5.143 
#    0.000    1.429    0.000    0.000    0.000    0.000 
#    0.000    0.000    0.000    0.000    0.000    0.000 
#
# Total GULP energy -78313.997649 kJ/mol
# GULP energy per Si atom -5593.856975 kJ/mol
# Density = 2.442867 g / cm^3
# Si number density = 24.484399 Si / 1000 Ang^3
#
#
#
# Elastic Constant Matrix: (Units=GPa)
#
#
# Indices 1 2 3 4 5 6 
#
# 1 145.1120 40.5582 29.2677 4.4725 -2.9067 -34.6011
# 2 40.5582 71.7524 28.1279 1.8617 -8.7956 -18.3492
# 3 29.2677 28.1279 81.3681 10.4126 -11.1978 -11.7283
# 4 4.4725 1.8617 10.4126 24.9219 -9.5507 6.1000
# 5 -2.9067 -8.7956 -11.1978 -9.5507 31.4914 -6.6615
# 6 -34.6011 -18.3492 -11.7283 6.1000 -6.6615 59.9895
#
#
#
# Elastic Compliance Matrix: (Units=1/GPa)
#
#
# Indices 1 2 3 4 5 6 
#
# 1 0.009197 -0.003650 -0.001247 -0.001997 -0.000350 0.004109
# 2 -0.003650 0.019078 -0.004447 0.002123 0.004725 0.003169
# 3 -0.001247 -0.004447 0.015628 -0.005280 0.002989 0.001845
# 4 -0.001997 0.002123 -0.005280 0.048434 0.012139 -0.005112
# 5 -0.000350 0.004725 0.002989 0.012139 0.038824 0.004904
# 6 0.004109 0.003169 0.001845 -0.005112 0.004904 0.021434
#
#
# Mechanical properties :
#
#
# Convention : Reuss Voigt Hill
#
# Bulk Modulus (GPa) = 39.65739 54.90447 47.28093
# Shear Modulus (GPa) = 27.82598 36.63248 32.22923
#
# Velocity S-wave (km/s) = 3.37483 3.87221 3.63204
# Velocity P-wave (km/s) = 5.60519 6.51652 6.07796
#
# Compressibility (1/GPa) = 0.02521598
#
# Stress axis : x y z
#
# Youngs Moduli (GPa) = 108.72911 52.41664 63.98622
#
# Poissons Ratio (x) = 0.19134 0.07977
# Poissons Ratio (y) = 0.39691 0.28452
# Poissons Ratio (z) = 0.13556 0.23307
#
# Static dielectric constant tensor:
#      x y z
#    x 1.920490 -0.029230 -0.013800 
#    y -0.029230 2.000340 0.022590 
#    z -0.013800 0.022590 2.054490 
# 
# From -- ./inp_files/493911.got.cif
#   From: 2010.05.17/outbox.cif.g08.bks.cpg/sg2_247_cif.got.tgz:493911.got - 2010.06.03 11:33:40.
