data_PCOD9015820
_publ_section_title
;
Structure prediction by ZEFSAII (Michael W. Deem and Ramdas Pophale) SiO2 
 PCOD9015820
Probable space group: P -1
;
_chemical_formula_sum "Si O2"
_cell_formula_units_Z 14
_cell_length_a 6.729536
_cell_length_b 14.247340
_cell_length_c 13.877164
_cell_angle_alpha 29.939592
_cell_angle_beta 98.432541
_cell_angle_gamma 111.953047
_cell_volume 568.917330
_symmetry_space_group_name_H-M "P -1"
_symmetry_group_IT_number 2
_symmetry_cell_setting 'triclinic'
loop_
_space_group_symop_operation_xyz
x,y,z
-x,-y,-z
loop_
_atom_site_type_symbol
_atom_site_label
_atom_site_fract_x
_atom_site_fract_y
_atom_site_fract_z
Si Si1 0.862665 0.916946 0.757142
Si Si2 0.706291 0.707356 0.198393
Si Si3 0.379019 0.615003 0.947375
Si Si4 0.981106 0.615259 0.139868
Si Si5 0.095690 0.743437 0.674122
Si Si6 0.492452 0.962644 0.917935
Si Si7 0.293518 0.256623 0.607978
O O1 0.587625 0.794037 0.868021
O O2 0.928631 0.728956 0.944118
O O3 0.875987 0.027111 0.556997
O O4 0.064056 0.109535 0.662272
O O5 0.862832 0.650148 0.194064
O O6 0.446445 0.501635 0.365941
O O7 0.769371 0.748431 0.279148
O O8 0.697858 0.909542 0.970693
O O9 0.278386 0.737789 0.765986
O O10 0.500000 0.500000 0.000000
O O11 0.161443 0.426905 0.155627
O O12 0.881039 0.368370 0.322851
O O13 0.252341 0.754809 0.054168
O O14 0.468800 0.159564 0.697671
O O15 0.500000 0.000000 0.000000
#
# Coordination Sequence:
#
# PCOD9015820 Si02
#       7
#     2   2   2   2   2   2   2
#     4  11  24  43  71 104 131 180 223 272 345 395
#     4  10  21  42  65  91 145 180 222 281 323 387
#     4  11  25  50  73 100 135 173 219 286 344 405
#     4  11  24  41  65 101 133 180 229 270 331 401
#     4  11  26  48  69 100 138 171 224 280 339 410
#     4   9  20  37  57  88 128 173 219 270 320 382
#     4   9  21  40  65 100 134 181 229 273 329 396
#
# _framework density 24.608146000000001
#
# number of rings (size 3 to 8) (size 9 to 14) (size 15 to 20)
#    0.000    1.714    1.429    1.286    4.000    6.857 
#    5.143   10.000    0.000    0.000    0.000    0.000 
#    0.000    0.000    0.000    0.000    0.000    0.000 
#
# Total GULP energy -78267.863366 kJ/mol
# GULP energy per Si atom -5590.561669 kJ/mol
# Density = 2.455214 g / cm^3
# Si number density = 24.608146 Si / 1000 Ang^3
#
#
#
# Elastic Constant Matrix: (Units=GPa)
#
#
# Indices 1 2 3 4 5 6 
#
# 1 110.1330 21.6816 43.1627 7.1703 -5.8548 6.3427
# 2 21.6816 57.6058 6.5838 -15.3669 -5.0251 6.7341
# 3 43.1627 6.5838 116.7771 14.5965 25.6956 16.9544
# 4 7.1703 -15.3669 14.5965 26.0093 7.9786 -9.4734
# 5 -5.8548 -5.0251 25.6956 7.9786 35.5547 -1.4675
# 6 6.3427 6.7341 16.9544 -9.4734 -1.4675 51.2912
#
#
#
# Elastic Compliance Matrix: (Units=1/GPa)
#
#
# Indices 1 2 3 4 5 6 
#
# 1 0.012825 -0.005203 -0.005118 -0.005718 0.006355 -0.000085
# 2 -0.005203 0.023897 -0.001721 0.016956 0.000009 0.001207
# 3 -0.005118 -0.001721 0.014408 -0.006510 -0.010260 -0.005400
# 4 -0.005718 0.016956 -0.006510 0.059984 -0.006825 0.011517
# 5 0.006355 0.000009 -0.010260 -0.006825 0.038221 0.002437
# 6 -0.000085 0.001207 -0.005400 0.011517 0.002437 0.023330
#
#
# Mechanical properties :
#
#
# Convention : Reuss Voigt Hill
#
# Bulk Modulus (GPa) = 36.97465 47.48581 42.23023
# Shear Modulus (GPa) = 24.29950 36.77688 30.53819
#
# Velocity S-wave (km/s) = 3.14579 3.87007 3.52657
# Velocity P-wave (km/s) = 5.31532 6.26966 5.81211
#
# Compressibility (1/GPa) = 0.02704556
#
# Stress axis : x y z
#
# Youngs Moduli (GPa) = 77.97096 41.84573 69.40784
#
# Poissons Ratio (x) = 0.21773 0.35526
# Poissons Ratio (y) = 0.40570 0.11943
# Poissons Ratio (z) = 0.39909 0.07201
#
# Static dielectric constant tensor:
#      x y z
#    x 1.953310 -0.066070 0.036840 
#    y -0.066070 1.999940 -0.004110 
#    z 0.036840 -0.004110 1.919130 
# 
# From -- ./inp_files/484152.got.cif
#   From: 2010.05.17/outbox.cif.g08.bks.cpg/sg2_243_cif.got.tgz:484152.got - 2010.06.03 11:33:40.
