data_PCOD9015604
_publ_section_title
;
Structure prediction by ZEFSAII (Michael W. Deem and Ramdas Pophale) SiO2 
 PCOD9015604
Probable space group: P -1
;
_chemical_formula_sum "Si O2"
_cell_formula_units_Z 14
_cell_length_a 20.415960
_cell_length_b 8.668243
_cell_length_c 10.793176
_cell_angle_alpha 138.144033
_cell_angle_beta 144.532077
_cell_angle_gamma 43.068561
_cell_volume 700.631463
_symmetry_space_group_name_H-M "P -1"
_symmetry_group_IT_number 2
_symmetry_cell_setting 'triclinic'
loop_
_space_group_symop_operation_xyz
x,y,z
-x,-y,-z
loop_
_atom_site_type_symbol
_atom_site_label
_atom_site_fract_x
_atom_site_fract_y
_atom_site_fract_z
Si Si1 0.216609 0.756540 0.496192
Si Si2 0.055347 0.765251 0.028427
Si Si3 0.816478 0.763588 0.114636
Si Si4 0.838434 0.730126 0.838064
Si Si5 0.498821 0.651848 0.865268
Si Si6 0.460877 0.146651 0.218568
Si Si7 0.588347 0.126873 0.648982
O O1 0.160980 0.793317 0.295001
O O2 0.179351 0.533741 0.361752
O O3 0.359731 0.673460 0.662403
O O4 0.171681 0.008897 0.653782
O O5 0.107938 0.506458 0.884095
O O6 0.951757 0.743485 0.946640
O O7 0.000000 0.000000 0.000000
O O8 0.850849 0.771419 0.028533
O O9 0.676991 0.785443 0.915644
O O10 0.719572 0.938745 0.736452
O O11 0.530297 0.732022 0.826477
O O12 0.577522 0.377454 0.852584
O O13 0.511003 0.854974 0.100341
O O14 0.536682 0.208024 0.481236
O O15 0.500000 0.000000 0.500000
#
# Coordination Sequence:
#
# PCOD9015604 Si02
#       7
#     2   2   2   2   2   2   2
#     4  10  21  42  64  83 116 158 195 236 288 343
#     4  11  26  41  59  88 117 146 200 248 288 343
#     4  10  21  42  64  83 116 158 195 236 288 343
#     4  11  24  39  59  90 116 154 197 237 285 348
#     4  10  22  38  60  89 120 155 193 234 287 349
#     4  10  22  38  60  89 120 155 193 234 287 349
#     4  12  21  36  61  89 120 152 188 239 295 338
#
# _framework density 19.981974999999998
#
# number of rings (size 3 to 8) (size 9 to 14) (size 15 to 20)
#    0.000    1.429    2.857    3.000    4.000    4.571 
#    0.000    0.000    0.000    0.000    0.000    0.000 
#    0.000    0.000    0.000    0.000    0.000    0.000 
#
# Total GULP energy -78261.904595 kJ/mol
# GULP energy per Si atom -5590.136043 kJ/mol
# Density = 1.993649 g / cm^3
# Si number density = 19.981975 Si / 1000 Ang^3
#
#
#
# Elastic Constant Matrix: (Units=GPa)
#
#
# Indices 1 2 3 4 5 6 
#
# 1 61.2126 19.2498 0.9717 11.8744 2.5893 -7.7455
# 2 19.2498 158.5658 31.4581 27.8155 -9.5690 -21.4757
# 3 0.9717 31.4581 54.8767 20.1388 -3.9470 -12.5775
# 4 11.8744 27.8155 20.1388 33.7584 -5.3905 -1.0817
# 5 2.5893 -9.5690 -3.9470 -5.3905 15.3347 3.5697
# 6 -7.7455 -21.4757 -12.5775 -1.0817 3.5697 26.1312
#
#
#
# Elastic Compliance Matrix: (Units=1/GPa)
#
#
# Indices 1 2 3 4 5 6 
#
# 1 0.020015 -0.001029 0.005404 -0.010466 -0.008261 0.008383
# 2 -0.001029 0.008517 -0.001546 -0.005243 0.001976 0.005464
# 3 0.005404 -0.001546 0.028416 -0.017780 -0.004031 0.013823
# 4 -0.010466 -0.005243 -0.017780 0.050157 0.015270 -0.015979
# 5 -0.008261 0.001976 -0.004031 0.015270 0.075053 -0.012386
# 6 0.008383 0.005464 0.013823 -0.015979 -0.012386 0.052927
#
#
# Mechanical properties :
#
#
# Convention : Reuss Voigt Hill
#
# Bulk Modulus (GPa) = 15.97288 42.00158 28.98723
# Shear Modulus (GPa) = 19.97635 29.90991 24.94313
#
# Velocity S-wave (km/s) = 3.16526 3.87311 3.53694
# Velocity P-wave (km/s) = 4.62272 6.40832 5.58731
#
# Compressibility (1/GPa) = 0.06260611
#
# Stress axis : x y z
#
# Youngs Moduli (GPa) = 49.96288 117.41127 35.19115
#
# Poissons Ratio (x) = 0.12081 -0.19016
# Poissons Ratio (y) = 0.05141 0.05439
# Poissons Ratio (z) = -0.26998 0.18148
#
# Static dielectric constant tensor:
#      x y z
#    x 1.689960 -0.000240 -0.005550 
#    y -0.000240 1.723290 0.018780 
#    z -0.005550 0.018780 1.681170 
# 
# From -- ./inp_files/251332.got.cif
#   From: 2010.05.17/outbox.cif.g08.bks.cpg/sg2_126_cif.got.tgz:251332.got - 2010.06.03 11:33:40.
