data_PCOD9015362
_publ_section_title
;
Structure prediction by ZEFSAII (Michael W. Deem and Ramdas Pophale) SiO2 
 PCOD9015362
Probable space group: P -1
;
_chemical_formula_sum "Si O2"
_cell_formula_units_Z 14
_cell_length_a 12.504831
_cell_length_b 8.011098
_cell_length_c 8.903944
_cell_angle_alpha 49.390236
_cell_angle_beta 117.645585
_cell_angle_gamma 98.963993
_cell_volume 585.496231
_symmetry_space_group_name_H-M "P -1"
_symmetry_group_IT_number 2
_symmetry_cell_setting 'triclinic'
loop_
_space_group_symop_operation_xyz
x,y,z
-x,-y,-z
loop_
_atom_site_type_symbol
_atom_site_label
_atom_site_fract_x
_atom_site_fract_y
_atom_site_fract_z
Si Si1 0.242944 0.602128 0.820127
Si Si2 0.563028 0.692637 0.368379
Si Si3 0.440688 0.833674 0.894089
Si Si4 0.015055 0.737098 0.803798
Si Si5 0.902050 0.154446 0.699664
Si Si6 0.206483 0.202361 0.605748
Si Si7 0.847947 0.807453 0.076704
O O1 0.380686 0.647589 0.882294
O O2 0.180548 0.700466 0.564903
O O3 0.232727 0.342966 0.971138
O O4 0.148049 0.704613 0.831800
O O5 0.500000 0.500000 0.500000
O O6 0.712746 0.627180 0.508927
O O7 0.516518 0.941791 0.271744
O O8 0.528202 0.732131 0.146658
O O9 0.311261 0.976404 0.791393
O O10 0.912698 0.794634 0.572288
O O11 0.980947 0.937300 0.785802
O O12 0.000000 0.500000 0.000000
O O13 0.001188 0.275578 0.773115
O O14 0.829304 0.046638 0.841733
O O15 0.180297 0.215996 0.754699
#
# Coordination Sequence:
#
# PCOD9015362 Si02
#       7
#     2   2   2   2   2   2   2
#     4  12  22  38  60  90 128 159 201 248 302 363
#     4   9  20  41  65  89 112 153 214 257 297 349
#     4   9  21  39  66  86 113 156 206 255 298 346
#     4  12  23  37  63  94 124 165 207 242 298 365
#     4  11  22  40  55  86 128 172 196 241 293 368
#     4  10  21  42  61  90 124 159 200 257 297 357
#     4  11  24  37  57  89 131 163 196 242 311 363
#
# _framework density 23.911339999999999
#
# number of rings (size 3 to 8) (size 9 to 14) (size 15 to 20)
#    0.857    0.571    4.286    1.714    2.000    1.143 
#    2.571    0.714    0.000    1.714    0.000    0.000 
#    0.000    0.000    0.000    0.000    0.000    0.000 
#
# Total GULP energy -78075.923410 kJ/mol
# GULP energy per Si atom -5576.851672 kJ/mol
# Density = 2.385692 g / cm^3
# Si number density = 23.911340 Si / 1000 Ang^3
#
#
#
# Elastic Constant Matrix: (Units=GPa)
#
#
# Indices 1 2 3 4 5 6 
#
# 1 74.4860 40.9698 24.7294 -6.0696 -15.0403 24.8605
# 2 40.9698 90.7609 6.5656 -16.8721 -8.8560 33.1509
# 3 24.7294 6.5656 50.4751 -14.0046 -17.4437 2.9099
# 4 -6.0696 -16.8721 -14.0046 30.5761 10.6889 -14.2267
# 5 -15.0403 -8.8560 -17.4437 10.6889 34.8101 -7.4418
# 6 24.8605 33.1509 2.9099 -14.2267 -7.4418 46.5172
#
#
#
# Elastic Compliance Matrix: (Units=1/GPa)
#
#
# Indices 1 2 3 4 5 6 
#
# 1 0.025481 -0.008912 -0.012572 -0.011326 0.003928 -0.009315
# 2 -0.008912 0.018423 0.004179 0.007590 -0.000775 -0.006430
# 3 -0.012572 0.004179 0.032208 0.015094 0.008792 0.007749
# 4 -0.011326 0.007590 0.015094 0.050867 -0.008031 0.013972
# 5 0.003928 -0.000775 0.008792 -0.008031 0.037405 0.001431
# 6 -0.009315 -0.006430 0.007749 0.013972 0.001431 0.035076
#
#
# Mechanical properties :
#
#
# Convention : Reuss Voigt Hill
#
# Bulk Modulus (GPa) = 24.09701 40.02796 32.06248
# Shear Modulus (GPa) = 20.16907 31.94449 26.05678
#
# Velocity S-wave (km/s) = 2.90745 3.65904 3.30468
# Velocity P-wave (km/s) = 4.62283 5.88455 5.29143
#
# Compressibility (1/GPa) = 0.04149893
#
# Stress axis : x y z
#
# Youngs Moduli (GPa) = 39.24511 54.28101 31.04866
#
# Poissons Ratio (x) = 0.48377 0.39036
# Poissons Ratio (y) = 0.34976 -0.12974
# Poissons Ratio (z) = 0.49341 -0.22682
#
# Static dielectric constant tensor:
#      x y z
#    x 1.951720 0.081270 -0.022420 
#    y 0.081270 2.336770 -0.101620 
#    z -0.022420 -0.101620 1.872350 
# 
# From -- ./inp_files/222289.got.cif
#   From: 2010.05.17/outbox.cif.g08.bks.cpg/sg2_112_cif.got.tgz:222289.got - 2010.06.03 11:33:40.
