data_PCOD9015311
_publ_section_title
;
Structure prediction by ZEFSAII (Michael W. Deem and Ramdas Pophale) SiO2 
 PCOD9015311
Probable space group: P -1
;
_chemical_formula_sum "Si O2"
_cell_formula_units_Z 16
_cell_length_a 17.687771
_cell_length_b 14.893812
_cell_length_c 8.844008
_cell_angle_alpha 52.262318
_cell_angle_beta 35.593549
_cell_angle_gamma 34.844325
_cell_volume 763.977824
_symmetry_space_group_name_H-M "P -1"
_symmetry_group_IT_number 2
_symmetry_cell_setting 'triclinic'
loop_
_space_group_symop_operation_xyz
x,y,z
-x,-y,-z
loop_
_atom_site_type_symbol
_atom_site_label
_atom_site_fract_x
_atom_site_fract_y
_atom_site_fract_z
Si Si1 0.731773 0.582597 0.856003
Si Si2 0.369566 0.730484 0.371379
Si Si3 0.758954 0.248729 0.899569
Si Si4 0.976254 0.223059 0.820462
Si Si5 0.556155 0.573199 0.540561
Si Si6 0.912364 0.344468 0.335427
Si Si7 0.060759 0.373686 0.331335
Si Si8 0.038354 0.076818 0.183674
O O1 0.800935 0.410860 0.953615
O O2 0.798090 0.621210 0.844458
O O3 0.859680 0.536263 0.553117
O O4 0.515560 0.714305 0.056363
O O5 0.441868 0.696838 0.461223
O O6 0.400843 0.581940 0.419873
O O7 0.153446 0.875157 0.560621
O O8 0.901739 0.171113 0.886552
O O9 0.799350 0.338322 0.648700
O O10 0.566725 0.355142 0.183595
O O11 0.806493 0.112338 0.860244
O O12 0.095706 0.236812 0.513067
O O13 0.059689 0.125399 0.937527
O O14 0.755852 0.499330 0.330384
O O15 0.021487 0.185235 0.223690
O O16 0.038058 0.351978 0.218214
#
# Coordination Sequence:
#
# PCOD9015311 Si02
#       8
#     2   2   2   2   2   2   2   2
#     4   9  15  32  55  73  98 129 171 216 235 291
#     4  10  17  30  49  80 103 124 163 214 249 289
#     4  11  19  32  48  75 107 137 162 190 256 318
#     4   9  16  31  50  71  99 126 167 204 234 296
#     4  10  18  30  50  74 106 130 162 205 260 287
#     4  10  20  32  48  77 105 128 164 215 246 289
#     4   8  18  32  53  75  96 131 174 207 247 285
#     4  11  21  30  50  79 107 134 157 200 260 303
#
# _framework density 20.943014000000002
#
# number of rings (size 3 to 8) (size 9 to 14) (size 15 to 20)
#    0.750    1.500    2.500    2.625    0.000    1.000 
#    0.000    2.500    0.000    3.000    3.250    1.750 
#    0.000    0.000    0.000    0.000    0.000    0.000 
#
# Total GULP energy -89209.775301 kJ/mol
# GULP energy per Si atom -5575.610956 kJ/mol
# Density = 2.089535 g / cm^3
# Si number density = 20.943014 Si / 1000 Ang^3
#
#
#
# Elastic Constant Matrix: (Units=GPa)
#
#
# Indices 1 2 3 4 5 6 
#
# 1 125.2320 21.0496 15.4796 5.1477 6.6074 21.6803
# 2 21.0496 38.4629 8.9236 12.9637 3.8135 10.4707
# 3 15.4796 8.9236 42.4561 6.9428 1.5819 2.5464
# 4 5.1477 12.9637 6.9428 19.3587 -2.1883 6.6796
# 5 6.6074 3.8135 1.5819 -2.1883 23.9265 -3.6580
# 6 21.6803 10.4707 2.5464 6.6796 -3.6580 20.7862
#
#
#
# Elastic Compliance Matrix: (Units=1/GPa)
#
#
# Indices 1 2 3 4 5 6 
#
# 1 0.010878 -0.003056 -0.003123 0.003748 -0.003692 -0.011278
# 2 -0.003056 0.039550 -0.002615 -0.021976 -0.008968 -0.010932
# 3 -0.003123 -0.002615 0.026389 -0.008298 -0.000629 0.003898
# 4 0.003748 -0.021976 -0.008298 0.074151 0.007610 -0.014311
# 5 -0.003692 -0.008968 -0.000629 0.007610 0.047167 0.014300
# 6 -0.011278 -0.010932 0.003898 -0.014311 0.014300 0.072017
#
#
# Mechanical properties :
#
#
# Convention : Reuss Voigt Hill
#
# Bulk Modulus (GPa) = 16.88341 33.00629 24.94485
# Shear Modulus (GPa) = 16.26112 23.52749 19.89430
#
# Velocity S-wave (km/s) = 2.78950 3.35536 3.08543
# Velocity P-wave (km/s) = 4.29583 5.55027 4.96285
#
# Compressibility (1/GPa) = 0.05922973
#
# Stress axis : x y z
#
# Youngs Moduli (GPa) = 91.92858 25.28438 37.89515
#
# Poissons Ratio (x) = 0.07726 0.11834
# Poissons Ratio (y) = 0.28089 0.09910
# Poissons Ratio (z) = 0.28707 0.06612
#
# Static dielectric constant tensor:
#      x y z
#    x 1.788350 -0.026090 0.049320 
#    y -0.026090 1.777550 -0.004330 
#    z 0.049320 -0.004330 1.799590 
# 
# From -- ./inp_files/310727.got.cif
#   From: 2010.05.17/outbox.cif.g08.bks.cpg/sg2_156_cif.got.tgz:310727.got - 2010.06.03 11:33:40.
