data_PCOD9015994
_publ_section_title
;
Structure prediction by ZEFSAII (Michael W. Deem and Ramdas Pophale) SiO2 
 PCOD9015994
Probable space group: P -1
;
_chemical_formula_sum "Si O2"
_cell_formula_units_Z 16
_cell_length_a 18.778874
_cell_length_b 31.986402
_cell_length_c 25.241564
_cell_angle_alpha 9.924128
_cell_angle_beta 17.427319
_cell_angle_gamma 17.948943
_cell_volume 762.890229
_symmetry_space_group_name_H-M "P -1"
_symmetry_group_IT_number 2
_symmetry_cell_setting 'triclinic'
loop_
_space_group_symop_operation_xyz
x,y,z
-x,-y,-z
loop_
_atom_site_type_symbol
_atom_site_label
_atom_site_fract_x
_atom_site_fract_y
_atom_site_fract_z
Si Si1 0.925339 0.921153 0.593951
Si Si2 0.717568 0.170139 0.049284
Si Si3 0.566453 0.236484 0.629750
Si Si4 0.115799 0.135501 0.900777
Si Si5 0.464133 0.596530 0.759673
Si Si6 0.125801 0.449890 0.603896
Si Si7 0.505377 0.630420 0.275856
Si Si8 0.351413 0.367256 0.231393
O O1 0.158935 0.815421 0.523336
O O2 0.762029 0.171589 0.371876
O O3 0.747927 0.736039 0.962983
O O4 0.000000 0.000000 0.500000
O O5 0.625276 0.923383 0.411259
O O6 0.501979 0.410330 0.915430
O O7 0.859245 0.278538 0.767210
O O8 0.895652 0.123454 0.032607
O O9 0.384346 0.311212 0.616357
O O10 0.509852 0.446158 0.453384
O O11 0.500000 0.000000 0.000000
O O12 0.297401 0.285094 0.555919
O O13 0.048689 0.291955 0.807344
O O14 0.274888 0.864263 0.141610
O O15 0.439308 0.420275 0.045435
O O16 0.929163 0.495322 0.732977
O O17 0.500000 0.500000 0.500000
O O18 0.500000 0.500000 0.000000
#
# Coordination Sequence:
#
# PCOD9015994 Si02
#       8
#     2   2   2   2   2   2   2   2
#     4  11  23  42  66  93 126 167 214 268 321 376
#     4  11  22  40  63  89 124 168 203 248 316 384
#     4  12  24  43  65  94 129 169 217 268 318 379
#     4  10  21  42  66  89 123 166 208 253 315 384
#     4  10  22  40  61  88 121 159 204 256 311 373
#     4  11  23  41  65  92 123 163 207 261 318 378
#     4  11  24  42  66  96 129 170 216 263 321 383
#     4  12  24  38  59  93 126 158 205 259 309 373
#
# _framework density 20.972874000000001
#
# number of rings (size 3 to 8) (size 9 to 14) (size 15 to 20)
#    0.000    1.000    0.000    9.375    0.000    3.000 
#    0.000    6.250    0.000    0.000    0.000    0.000 
#    0.000    0.000    0.000    0.000    0.000    0.000 
#
# Total GULP energy -89469.213510 kJ/mol
# GULP energy per Si atom -5591.825844 kJ/mol
# Density = 2.092514 g / cm^3
# Si number density = 20.972874 Si / 1000 Ang^3
#
#
#
# Elastic Constant Matrix: (Units=GPa)
#
#
# Indices 1 2 3 4 5 6 
#
# 1 71.5975 9.7195 38.5241 3.7816 4.8615 -2.2989
# 2 9.7195 107.6463 31.9946 -1.9785 14.6124 4.4134
# 3 38.5241 31.9946 145.6261 -12.8320 -1.2106 0.2947
# 4 3.7816 -1.9785 -12.8320 25.3000 6.7774 5.0241
# 5 4.8615 14.6124 -1.2106 6.7774 37.6214 3.2519
# 6 -2.2989 4.4134 0.2947 5.0241 3.2519 31.3739
#
#
#
# Elastic Compliance Matrix: (Units=1/GPa)
#
#
# Indices 1 2 3 4 5 6 
#
# 1 0.017109 -0.000028 -0.004988 -0.005106 -0.001639 0.002292
# 2 -0.000028 0.010615 -0.002264 0.001072 -0.004281 -0.001202
# 3 -0.004988 -0.002264 0.009148 0.005156 0.000981 -0.001060
# 4 -0.005106 0.001072 0.005156 0.046387 -0.007321 -0.007243
# 5 -0.001639 -0.004281 0.000981 -0.007321 0.029932 -0.001457
# 6 0.002292 -0.001202 -0.001060 -0.007243 -0.001457 0.033531
#
#
# Mechanical properties :
#
#
# Convention : Reuss Voigt Hill
#
# Bulk Modulus (GPa) = 44.81463 53.92736 49.37100
# Shear Modulus (GPa) = 29.63487 35.16784 32.40136
#
# Velocity S-wave (km/s) = 3.76308 4.09935 3.93481
# Velocity P-wave (km/s) = 6.34786 6.94082 6.65095
#
# Compressibility (1/GPa) = 0.02231414
#
# Stress axis : x y z
#
# Youngs Moduli (GPa) = 58.44802 94.20521 109.30780
#
# Poissons Ratio (x) = 0.00259 0.54525
# Poissons Ratio (y) = 0.00161 0.24743
# Poissons Ratio (z) = 0.29155 0.21325
#
# Static dielectric constant tensor:
#      x y z
#    x 1.061230 -0.328700 -0.903060 
#    y -0.328700 1.628530 -0.447130 
#    z -0.903060 -0.447130 0.661810 
# 
# From -- ./inp_files/271320.got.cif
#   From: 2010.05.17/outbox.cif.g08.bks.cpg/sg2_136_cif.got.tgz:271320.got - 2010.06.03 11:33:40.
