data_PCOD9015004
_publ_section_title
;
Structure prediction by ZEFSAII (Michael W. Deem and Ramdas Pophale) SiO2 
 PCOD9015004
Probable space group: P -1
;
_chemical_formula_sum "Si O2"
_cell_formula_units_Z 14
_cell_length_a 15.685992
_cell_length_b 5.749255
_cell_length_c 13.795410
_cell_angle_alpha 52.434632
_cell_angle_beta 31.415258
_cell_angle_gamma 58.384539
_cell_volume 513.996081
_symmetry_space_group_name_H-M "P -1"
_symmetry_group_IT_number 2
_symmetry_cell_setting 'triclinic'
loop_
_space_group_symop_operation_xyz
x,y,z
-x,-y,-z
loop_
_atom_site_type_symbol
_atom_site_label
_atom_site_fract_x
_atom_site_fract_y
_atom_site_fract_z
Si Si1 0.115247 0.580875 0.611381
Si Si2 0.313519 0.573611 0.125615
Si Si3 0.458788 0.662461 0.273638
Si Si4 0.785402 0.907996 0.789807
Si Si5 0.220405 0.436782 0.765822
Si Si6 0.062347 0.950628 0.842817
Si Si7 0.545821 0.037038 0.276164
O O1 0.285298 0.717203 0.376492
O O2 0.160468 0.519909 0.695739
O O3 0.954562 0.769648 0.703075
O O4 0.086688 0.249458 0.686822
O O5 0.228444 0.276274 0.250539
O O6 0.214384 0.759664 0.253456
O O7 0.500000 0.500000 0.000000
O O8 0.332946 0.780613 0.959171
O O9 0.473813 0.307423 0.340039
O O10 0.453308 0.834782 0.337400
O O11 0.614840 0.795531 0.033985
O O12 0.223497 0.745218 0.740879
O O13 0.368863 0.212073 0.678995
O O14 0.083761 0.248674 0.003956
O O15 0.000000 0.000000 0.000000
#
# Coordination Sequence:
#
# PCOD9015004 Si02
#       7
#     2   2   2   2   2   2   2
#     4  11  24  38  63  90 127 169 211 247 302 376
#     4  10  21  41  70  96 120 160 210 257 314 379
#     4  10  24  40  60  91 129 166 208 257 299 367
#     4  10  23  41  68  94 127 164 201 257 320 362
#     4  10  22  35  58  87 127 169 211 256 299 366
#     4   9  20  33  53  83 121 162 208 260 291 347
#     4  10  23  40  60  87 128 166 204 260 318 353
#
# _framework density 27.237563000000002
#
# number of rings (size 3 to 8) (size 9 to 14) (size 15 to 20)
#    0.000    2.000    0.000    2.143   20.000    1.143 
#    0.000    0.000    0.000   20.571    0.000    0.000 
#    0.000    0.000    0.000    0.000    0.000    0.000 
#
# Total GULP energy -78173.259025 kJ/mol
# GULP energy per Si atom -5583.804216 kJ/mol
# Density = 2.717557 g / cm^3
# Si number density = 27.237563 Si / 1000 Ang^3
#
#
#
# Elastic Constant Matrix: (Units=GPa)
#
#
# Indices 1 2 3 4 5 6 
#
# 1 91.8457 57.5475 9.2265 1.3396 -3.0103 22.2569
# 2 57.5475 276.8846 34.4753 -5.3499 -12.2141 34.6113
# 3 9.2265 34.4753 86.2617 6.4068 -23.8178 15.8647
# 4 1.3396 -5.3499 6.4068 36.2813 0.3833 -3.5909
# 5 -3.0103 -12.2141 -23.8178 0.3833 34.6491 4.4849
# 6 22.2569 34.6113 15.8647 -3.5909 4.4849 32.4847
#
#
#
# Elastic Compliance Matrix: (Units=1/GPa)
#
#
# Indices 1 2 3 4 5 6 
#
# 1 0.014320 -0.001955 0.002011 -0.002135 0.003176 -0.009385
# 2 -0.001955 0.004594 -0.000646 0.000514 0.001437 -0.003382
# 3 0.002011 -0.000646 0.018026 -0.004681 0.013934 -0.011934
# 4 -0.002135 0.000514 -0.004681 0.029289 -0.004459 0.007054
# 5 0.003176 0.001437 0.013934 -0.004459 0.041436 -0.016726
# 6 -0.009385 -0.003382 -0.011934 0.007054 -0.016726 0.049735
#
#
# Mechanical properties :
#
#
# Convention : Reuss Voigt Hill
#
# Bulk Modulus (GPa) = 27.96396 73.05452 50.50924
# Shear Modulus (GPa) = 29.32550 44.26585 36.79567
#
# Velocity S-wave (km/s) = 3.28480 4.03572 3.67947
# Velocity P-wave (km/s) = 4.96745 6.97105 6.05273
#
# Compressibility (1/GPa) = 0.03576031
#
# Stress axis : x y z
#
# Youngs Moduli (GPa) = 69.83194 217.65437 55.47639
#
# Poissons Ratio (x) = 0.42543 -0.11157
# Poissons Ratio (y) = 0.13650 0.03586
# Poissons Ratio (z) = -0.14044 0.14070
#
# Static dielectric constant tensor:
#      x y z
#    x 2.240940 -0.043020 -0.124000 
#    y -0.043020 2.303980 0.182060 
#    z -0.124000 0.182060 2.738810 
# 
# From -- ./inp_files/51722.got.cif
#   From: 2010.05.17/outbox.cif.g08.bks.cpg/sg2_26_cif.got.tgz:51722.got - 2010.06.03 11:33:40.
