data_PCOD9015555
_publ_section_title
;
Structure prediction by ZEFSAII (Michael W. Deem and Ramdas Pophale) SiO2 
 PCOD9015555
Probable space group: P -1
;
_chemical_formula_sum "Si O2"
_cell_formula_units_Z 16
_cell_length_a 16.430903
_cell_length_b 9.651050
_cell_length_c 13.984202
_cell_angle_alpha 135.750610
_cell_angle_beta 143.841266
_cell_angle_gamma 64.151996
_cell_volume 856.675218
_symmetry_space_group_name_H-M "P -1"
_symmetry_group_IT_number 2
_symmetry_cell_setting 'triclinic'
loop_
_space_group_symop_operation_xyz
x,y,z
-x,-y,-z
loop_
_atom_site_type_symbol
_atom_site_label
_atom_site_fract_x
_atom_site_fract_y
_atom_site_fract_z
Si Si1 0.059398 0.710882 0.900767
Si Si2 0.387040 0.482702 0.800328
Si Si3 0.127134 0.475444 0.673363
Si Si4 0.402641 0.511697 0.505830
Si Si5 0.901134 0.397559 0.763944
Si Si6 0.235676 0.183286 0.350706
Si Si7 0.441056 0.191586 0.033822
Si Si8 0.873989 0.947667 0.433978
O O1 0.132304 0.617134 0.840861
O O2 0.994686 0.533977 0.832269
O O3 0.912682 0.756839 0.751162
O O4 0.176310 0.931571 0.156722
O O5 0.263122 0.545129 0.766138
O O6 0.323564 0.264017 0.572560
O O7 0.461582 0.647704 0.871572
O O8 0.500000 0.500000 0.000000
O O9 0.114000 0.242075 0.582489
O O10 0.000000 0.500000 0.500000
O O11 0.500000 0.500000 0.500000
O O12 0.259981 0.576427 0.374863
O O13 0.329084 0.308287 0.408029
O O14 0.519708 0.687014 0.769045
O O15 0.883124 0.153767 0.606781
O O16 0.000000 0.500000 0.000000
O O17 0.276686 0.123217 0.804658
O O18 0.500000 0.000000 0.000000
O O19 0.000000 0.000000 0.500000
#
# Coordination Sequence:
#
# PCOD9015555 Si02
#       8
#     2   2   2   2   2   2   2   2
#     4  10  21  42  63  95 127 173 219 272 326 388
#     4  11  23  42  65  96 131 172 218 272 335 394
#     4  12  25  41  69  99 133 172 229 272 329 402
#     4  10  23  42  67  98 131 178 223 268 334 402
#     4  11  25  42  65  97 137 174 223 278 332 393
#     4   9  21  41  66  90 132 169 216 275 329 383
#     4  11  24  44  69  93 136 178 218 277 336 396
#     4  12  26  44  69 101 133 177 228 282 333 397
#
# _framework density 18.676856999999998
#
# number of rings (size 3 to 8) (size 9 to 14) (size 15 to 20)
#    0.000    1.250    5.000    0.000    5.250    2.000 
#    0.000    0.625    0.000    0.000    0.000    0.000 
#    0.000    0.000    0.000    0.000    0.000    0.000 
#
# Total GULP energy -89249.620344 kJ/mol
# GULP energy per Si atom -5578.101271 kJ/mol
# Density = 1.863435 g / cm^3
# Si number density = 18.676857 Si / 1000 Ang^3
#
#
#
# Elastic Constant Matrix: (Units=GPa)
#
#
# Indices 1 2 3 4 5 6 
#
# 1 160.1556 31.7166 79.3336 0.5356 -15.1604 -16.8813
# 2 31.7166 95.4440 77.5677 -0.6046 -17.3250 -17.1857
# 3 79.3336 77.5677 174.0931 -2.1335 -19.4851 -9.4077
# 4 0.5356 -0.6046 -2.1335 38.9195 -3.9759 -2.6099
# 5 -15.1604 -17.3250 -19.4851 -3.9759 37.1439 -5.1946
# 6 -16.8813 -17.1857 -9.4077 -2.6099 -5.1946 17.8279
#
#
#
# Elastic Compliance Matrix: (Units=1/GPa)
#
#
# Indices 1 2 3 4 5 6 
#
# 1 0.009596 0.003751 -0.004858 0.000940 0.004854 0.011691
# 2 0.003751 0.023534 -0.009561 0.002605 0.011247 0.024851
# 3 -0.004858 -0.009561 0.011606 -0.000146 -0.001510 -0.008154
# 4 0.000940 0.002605 -0.000146 0.026887 0.005645 0.008905
# 5 0.004854 0.011247 -0.001510 0.005645 0.037659 0.026440
# 6 0.011691 0.024851 -0.008154 0.008905 0.026440 0.095823
#
#
# Mechanical properties :
#
#
# Convention : Reuss Voigt Hill
#
# Bulk Modulus (GPa) = 42.73432 89.65873 66.19653
# Shear Modulus (GPa) = 21.34545 34.84991 28.09768
#
# Velocity S-wave (km/s) = 3.38432 4.32434 3.88288
# Velocity P-wave (km/s) = 6.18078 8.54650 7.45804
#
# Compressibility (1/GPa) = 0.02340040
#
# Stress axis : x y z
#
# Youngs Moduli (GPa) = 104.21134 42.49131 86.15917
#
# Poissons Ratio (x) = -0.15939 0.41853
# Poissons Ratio (y) = -0.39090 0.82381
# Poissons Ratio (z) = 0.50622 0.40628
#
# Static dielectric constant tensor:
#      x y z
#    x 1.636450 0.007850 -0.043030 
#    y 0.007850 1.624090 -0.002040 
#    z -0.043030 -0.002040 1.710340 
# 
# From -- ./inp_files/184409.got.cif
#   From: 2010.05.17/outbox.cif.g08.bks.cpg/sg2_93_cif.got.tgz:184409.got - 2010.06.03 11:33:40.
