data_PCOD9015775
_publ_section_title
;
Structure prediction by ZEFSAII (Michael W. Deem and Ramdas Pophale) SiO2 
 PCOD9015775
Probable space group: P -1
;
_chemical_formula_sum "Si O2"
_cell_formula_units_Z 16
_cell_length_a 12.189423
_cell_length_b 9.052422
_cell_length_c 10.610100
_cell_angle_alpha 126.319577
_cell_angle_beta 75.836059
_cell_angle_gamma 118.646648
_cell_volume 826.566502
_symmetry_space_group_name_H-M "P -1"
_symmetry_group_IT_number 2
_symmetry_cell_setting 'triclinic'
loop_
_space_group_symop_operation_xyz
x,y,z
-x,-y,-z
loop_
_atom_site_type_symbol
_atom_site_label
_atom_site_fract_x
_atom_site_fract_y
_atom_site_fract_z
Si Si1 0.176980 0.411869 0.438201
Si Si2 0.730009 0.841750 0.211298
Si Si3 0.422396 0.622850 0.627604
Si Si4 0.543940 0.383204 0.092204
Si Si5 0.259126 0.310467 0.116937
Si Si6 0.500104 0.064217 0.721979
Si Si7 0.065893 0.894430 0.514750
Si Si8 0.235907 0.694787 0.339459
O O1 0.280610 0.488255 0.556015
O O2 0.196255 0.609697 0.449755
O O3 0.042309 0.286150 0.470116
O O4 0.207678 0.274587 0.255992
O O5 0.651674 0.601896 0.137028
O O6 0.781424 0.862306 0.064032
O O7 0.625289 0.926829 0.288866
O O8 0.837630 0.946478 0.334555
O O9 0.500000 0.500000 0.500000
O O10 0.435762 0.660353 0.791744
O O11 0.473335 0.837604 0.651745
O O12 0.409666 0.394188 0.126337
O O13 0.536225 0.209153 0.909503
O O14 0.219973 0.486775 0.171334
O O15 0.618142 0.159795 0.644355
O O16 0.149654 0.800341 0.371888
O O17 0.000000 0.000000 0.500000
#
# Coordination Sequence:
#
# PCOD9015775 Si02
#       8
#     2   2   2   2   2   2   2   2
#     4  10  22  43  57  89 124 164 211 249 300 359
#     4  11  21  41  68  93 119 165 209 249 313 367
#     4  12  24  36  63  94 130 165 193 256 321 365
#     4  11  19  40  61  99 132 150 196 263 317 366
#     4   9  19  39  67  88 119 158 203 262 300 357
#     4  11  23  39  67  98 119 160 208 257 314 369
#     4  12  27  39  60  89 127 168 210 251 302 364
#     4  10  21  42  65  85 122 160 208 260 298 358
#
# _framework density 19.357182999999999
#
# number of rings (size 3 to 8) (size 9 to 14) (size 15 to 20)
#    0.750    0.500    3.750    3.000    3.500    1.500 
#    0.000    0.625    0.000    0.000    0.000    0.000 
#    0.000    0.000    0.000    0.000    0.000    0.000 
#
# Total GULP energy -89279.831113 kJ/mol
# GULP energy per Si atom -5579.989445 kJ/mol
# Density = 1.931313 g / cm^3
# Si number density = 19.357183 Si / 1000 Ang^3
#
#
#
# Elastic Constant Matrix: (Units=GPa)
#
#
# Indices 1 2 3 4 5 6 
#
# 1 142.1853 42.4288 63.6114 4.3859 5.9087 -6.2175
# 2 42.4288 69.2185 34.3159 4.2661 9.7385 -1.2685
# 3 63.6114 34.3159 102.4686 -1.6327 -1.7595 0.1533
# 4 4.3859 4.2661 -1.6327 27.6185 -6.0684 0.0616
# 5 5.9087 9.7385 -1.7595 -6.0684 29.6280 -1.6936
# 6 -6.2175 -1.2685 0.1533 0.0616 -1.6936 28.1803
#
#
#
# Elastic Compliance Matrix: (Units=1/GPa)
#
#
# Indices 1 2 3 4 5 6 
#
# 1 0.010789 -0.003456 -0.005601 -0.001869 -0.001608 0.002163
# 2 -0.003456 0.020235 -0.004825 -0.004437 -0.007171 -0.000247
# 3 -0.005601 -0.004825 0.014982 0.003452 0.004226 -0.001288
# 4 -0.001869 -0.004437 0.003452 0.039623 0.010146 -0.000108
# 5 -0.001608 -0.007171 0.004226 0.010146 0.038851 0.001612
# 6 0.002163 -0.000247 -0.001288 -0.000108 0.001612 0.036056
#
#
# Mechanical properties :
#
#
# Convention : Reuss Voigt Hill
#
# Bulk Modulus (GPa) = 54.81685 66.06495 60.44090
# Shear Modulus (GPa) = 25.72284 28.65311 27.18797
#
# Velocity S-wave (km/s) = 3.64930 3.85155 3.75179
# Velocity P-wave (km/s) = 6.79239 7.34730 7.07529
#
# Compressibility (1/GPa) = 0.01824257
#
# Stress axis : x y z
#
# Youngs Moduli (GPa) = 92.68593 49.41918 66.74896
#
# Poissons Ratio (x) = 0.17077 0.37387
# Poissons Ratio (y) = 0.32028 0.32205
# Poissons Ratio (z) = 0.51915 0.23844
#
# Static dielectric constant tensor:
#      x y z
#    x 1.661780 -0.018580 -0.019080 
#    y -0.018580 1.690620 -0.021320 
#    z -0.019080 -0.021320 1.708290 
# 
# From -- ./inp_files/420009.got.cif
#   From: 2010.05.17/outbox.cif.g08.bks.cpg/sg2_211_cif.got.tgz:420009.got - 2010.06.03 11:33:40.
