data_PCOD9015631
_publ_section_title
;
Structure prediction by ZEFSAII (Michael W. Deem and Ramdas Pophale) SiO2 
 PCOD9015631
Probable space group: P -1
;
_chemical_formula_sum "Si O2"
_cell_formula_units_Z 16
_cell_length_a 10.995248
_cell_length_b 14.655219
_cell_length_c 10.035536
_cell_angle_alpha 92.297500
_cell_angle_beta 154.415912
_cell_angle_gamma 91.318948
_cell_volume 691.168179
_symmetry_space_group_name_H-M "P -1"
_symmetry_group_IT_number 2
_symmetry_cell_setting 'triclinic'
loop_
_space_group_symop_operation_xyz
x,y,z
-x,-y,-z
loop_
_atom_site_type_symbol
_atom_site_label
_atom_site_fract_x
_atom_site_fract_y
_atom_site_fract_z
Si Si1 0.780899 0.069546 0.261478
Si Si2 0.329222 0.494982 0.541748
Si Si3 0.777317 0.334481 0.711777
Si Si4 0.617437 0.637057 0.047493
Si Si5 0.169579 0.744735 0.526018
Si Si6 0.784276 0.748726 0.705577
Si Si7 0.281370 0.811344 0.052878
Si Si8 0.253997 0.608403 0.949547
O O1 0.851324 0.153547 0.440179
O O2 0.751786 0.116385 0.090725
O O3 0.000000 0.000000 0.500000
O O4 0.500000 0.000000 0.000000
O O5 0.265669 0.561546 0.363586
O O6 0.529029 0.563875 0.840653
O O7 0.034518 0.460485 0.323427
O O8 0.521010 0.411918 0.712358
O O9 0.879302 0.284325 0.677365
O O10 0.476920 0.274491 0.450325
O O11 0.026853 0.333501 0.067799
O O12 0.485452 0.727259 0.876097
O O13 0.452939 0.604210 0.016981
O O14 0.950995 0.668499 0.384554
O O15 0.596119 0.790437 0.404153
O O16 0.074582 0.822684 0.974980
O O17 0.163234 0.709913 0.872389
#
# Coordination Sequence:
#
# PCOD9015631 Si02
#       8
#     2   2   2   2   2   2   2   2
#     4  12  26  44  72 102 133 155 194 265 331 402
#     4  11  22  35  57  93 129 175 220 266 305 351
#     4  10  21  42  64  90 126 170 229 260 300 353
#     4  11  21  36  59  90 134 172 207 257 315 387
#     4  11  22  40  68  97 126 166 206 262 324 384
#     4  10  22  42  67  86 121 182 219 262 296 369
#     4  11  24  43  65  92 128 170 216 245 332 388
#     4  12  22  36  57  89 136 173 213 261 315 379
#
# _framework density 23.149213
#
# number of rings (size 3 to 8) (size 9 to 14) (size 15 to 20)
#    0.000    1.000    1.250    7.500    1.750    0.000 
#    0.000   12.500    0.000   15.000    0.000    0.000 
#    0.000    0.000    0.000    0.000    0.000    0.000 
#
# Total GULP energy -89169.567206 kJ/mol
# GULP energy per Si atom -5573.097950 kJ/mol
# Density = 2.309652 g / cm^3
# Si number density = 23.149213 Si / 1000 Ang^3
#
#
#
# Elastic Constant Matrix: (Units=GPa)
#
#
# Indices 1 2 3 4 5 6 
#
# 1 83.1579 35.6835 28.8577 1.5578 6.5363 24.2753
# 2 35.6835 132.6068 49.8314 -26.3157 4.5076 28.9676
# 3 28.8577 49.8314 167.6820 -13.0930 13.3820 20.6800
# 4 1.5578 -26.3157 -13.0930 50.1032 12.7152 0.7640
# 5 6.5363 4.5076 13.3820 12.7152 38.6892 1.0868
# 6 24.2753 28.9676 20.6800 0.7640 1.0868 39.4684
#
#
#
# Elastic Compliance Matrix: (Units=1/GPa)
#
#
# Indices 1 2 3 4 5 6 
#
# 1 0.015716 -0.002548 -0.001100 -0.001696 -0.001219 -0.007153
# 2 -0.002548 0.011487 -0.001538 0.006389 -0.002304 -0.006118
# 3 -0.001100 -0.001538 0.007203 0.001815 -0.002669 -0.001930
# 4 -0.001696 0.006389 0.001815 0.026354 -0.009611 -0.004842
# 5 -0.001219 -0.002304 -0.002669 -0.009611 0.030313 0.003190
# 6 -0.007153 -0.006118 -0.001930 -0.004842 0.003190 0.035244
#
#
# Mechanical properties :
#
#
# Convention : Reuss Voigt Hill
#
# Bulk Modulus (GPa) = 41.60869 68.02133 54.81501
# Shear Modulus (GPa) = 34.55357 43.59044 39.07200
#
# Velocity S-wave (km/s) = 3.86767 4.34409 4.11278
# Velocity P-wave (km/s) = 6.16103 7.38980 6.80321
#
# Compressibility (1/GPa) = 0.02403344
#
# Stress axis : x y z
#
# Youngs Moduli (GPa) = 63.62780 87.05189 138.83367
#
# Poissons Ratio (x) = 0.22182 0.15277
# Poissons Ratio (y) = 0.16213 0.21353
# Poissons Ratio (z) = 0.07002 0.13389
#
# Static dielectric constant tensor:
#      x y z
#    x 1.965870 -0.038960 0.011470 
#    y -0.038960 1.856040 -0.037510 
#    z 0.011470 -0.037510 1.869930 
# 
# From -- ./inp_files/433974.got.cif
#   From: 2010.05.17/outbox.cif.g08.bks.cpg/sg2_217_cif.got.tgz:433974.got - 2010.06.03 11:33:40.
