data_PCOD9015592
_publ_section_title
;
Structure prediction by ZEFSAII (Michael W. Deem and Ramdas Pophale) SiO2 
 PCOD9015592
Probable space group: P -1
;
_chemical_formula_sum "Si O2"
_cell_formula_units_Z 14
_cell_length_a 6.495423
_cell_length_b 10.212605
_cell_length_c 11.047891
_cell_angle_alpha 124.990378
_cell_angle_beta 87.842852
_cell_angle_gamma 93.188349
_cell_volume 599.453428
_symmetry_space_group_name_H-M "P -1"
_symmetry_group_IT_number 2
_symmetry_cell_setting 'triclinic'
loop_
_space_group_symop_operation_xyz
x,y,z
-x,-y,-z
loop_
_atom_site_type_symbol
_atom_site_label
_atom_site_fract_x
_atom_site_fract_y
_atom_site_fract_z
Si Si1 0.763365 0.885356 0.879307
Si Si2 0.455839 0.679240 0.621709
Si Si3 0.527554 0.190896 0.575995
Si Si4 0.444439 0.843101 0.064526
Si Si5 0.714970 0.657170 0.138228
Si Si6 0.876915 0.324271 0.180010
Si Si7 0.139313 0.600653 0.183885
O O1 0.633853 0.740797 0.742220
O O2 0.979453 0.826622 0.888276
O O3 0.728599 0.025332 0.857479
O O4 0.630701 0.920495 0.020587
O O5 0.500000 0.500000 0.500000
O O6 0.464142 0.780908 0.552853
O O7 0.234346 0.670840 0.686502
O O8 0.359313 0.308004 0.703523
O O9 0.735195 0.268342 0.672231
O O10 0.500000 0.000000 0.500000
O O11 0.567628 0.779577 0.140290
O O12 0.313926 0.703361 0.923421
O O13 0.962798 0.684018 0.154676
O O14 0.718014 0.501959 0.964381
O O15 0.020165 0.470558 0.204288
#
# Coordination Sequence:
#
# PCOD9015592 Si02
#       7
#     2   2   2   2   2   2   2
#     4  10  21  42  64 100 140 182 233 292 357 421
#     4  11  25  44  70 101 142 193 240 293 355 430
#     4  12  28  49  70 103 152 197 235 294 366 438
#     4  10  22  39  69 103 141 180 229 298 363 415
#     4  11  25  45  73 105 142 186 244 297 355 432
#     4  11  23  42  74 106 139 182 243 300 356 426
#     4  11  26  44  75 112 134 190 246 303 359 426
#
# _framework density 23.354607999999999
#
# number of rings (size 3 to 8) (size 9 to 14) (size 15 to 20)
#    0.000    1.143    1.429    3.429    8.000    4.000 
#    2.571    0.000    0.000    0.000    0.000    0.000 
#    0.000    0.000    0.000    0.000    0.000    0.000 
#
# Total GULP energy -78102.915781 kJ/mol
# GULP energy per Si atom -5578.779699 kJ/mol
# Density = 2.330145 g / cm^3
# Si number density = 23.354608 Si / 1000 Ang^3
#
#
#
# Elastic Constant Matrix: (Units=GPa)
#
#
# Indices 1 2 3 4 5 6 
#
# 1 119.5204 51.1988 33.4282 -3.5396 -8.0832 -21.1085
# 2 51.1988 134.2553 32.8424 -5.5165 -14.6210 -1.0019
# 3 33.4282 32.8424 71.7495 0.0186 -10.7327 7.9713
# 4 -3.5396 -5.5165 0.0186 42.0762 8.2336 2.6484
# 5 -8.0832 -14.6210 -10.7327 8.2336 46.1027 -0.1778
# 6 -21.1085 -1.0019 7.9713 2.6484 -0.1778 46.6292
#
#
#
# Elastic Compliance Matrix: (Units=1/GPa)
#
#
# Indices 1 2 3 4 5 6 
#
# 1 0.012333 -0.003464 -0.004876 0.000203 -0.000083 0.006330
# 2 -0.003464 0.009566 -0.002395 0.000685 0.001743 -0.000985
# 3 -0.004876 -0.002395 0.018316 -0.000945 0.002798 -0.005326
# 4 0.000203 0.000685 -0.000945 0.024808 -0.004402 -0.001158
# 5 -0.000083 0.001743 0.002798 -0.004402 0.023666 -0.000138
# 6 0.006330 -0.000985 -0.005326 -0.001158 -0.000138 0.025266
#
#
# Mechanical properties :
#
#
# Convention : Reuss Voigt Hill
#
# Bulk Modulus (GPa) = 53.34809 62.27379 57.81094
# Shear Modulus (GPa) = 35.29286 40.83200 38.06243
#
# Velocity S-wave (km/s) = 3.89160 4.18586 4.04141
# Velocity P-wave (km/s) = 6.56391 7.07702 6.82529
#
# Compressibility (1/GPa) = 0.01874481
#
# Stress axis : x y z
#
# Youngs Moduli (GPa) = 81.08539 104.53854 54.59760
#
# Poissons Ratio (x) = 0.36210 0.26622
# Poissons Ratio (y) = 0.28086 0.13076
# Poissons Ratio (z) = 0.39538 0.25036
#
# Static dielectric constant tensor:
#      x y z
#    x 1.870810 0.015610 -0.002140 
#    y 0.015610 1.989330 -0.014330 
#    z -0.002140 -0.014330 1.931630 
# 
# From -- ./inp_files/365374.got.cif
#   From: 2010.05.17/outbox.cif.g08.bks.cpg/sg2_183_cif.got.tgz:365374.got - 2010.06.03 11:33:40.
