data_PCOD9015834
_publ_section_title
;
Structure prediction by ZEFSAII (Michael W. Deem and Ramdas Pophale) SiO2 
 PCOD9015834
Probable space group: P -1
;
_chemical_formula_sum "Si O2"
_cell_formula_units_Z 16
_cell_length_a 9.054578
_cell_length_b 13.595737
_cell_length_c 17.864793
_cell_angle_alpha 158.025438
_cell_angle_beta 93.167867
_cell_angle_gamma 76.083304
_cell_volume 708.454273
_symmetry_space_group_name_H-M "P -1"
_symmetry_group_IT_number 2
_symmetry_cell_setting 'triclinic'
loop_
_space_group_symop_operation_xyz
x,y,z
-x,-y,-z
loop_
_atom_site_type_symbol
_atom_site_label
_atom_site_fract_x
_atom_site_fract_y
_atom_site_fract_z
Si Si1 0.024769 0.796794 0.524622
Si Si2 0.614292 0.777141 0.221453
Si Si3 0.041578 0.194921 0.081626
Si Si4 0.485014 0.671164 0.923719
Si Si5 0.400667 0.657599 0.447297
Si Si6 0.293904 0.799523 0.287618
Si Si7 0.441561 0.886842 0.844197
Si Si8 0.835976 0.306102 0.001943
O O1 0.222734 0.680536 0.435722
O O2 0.007826 0.506356 0.339281
O O3 0.901491 0.955246 0.561760
O O4 0.961013 0.045723 0.764316
O O5 0.425676 0.912059 0.347038
O O6 0.622747 0.014391 0.334061
O O7 0.660360 0.478753 0.964484
O O8 0.753551 0.637763 0.193985
O O9 0.928757 0.277757 0.062037
O O10 0.000000 0.000000 0.000000
O O11 0.240012 0.016114 0.935502
O O12 0.459346 0.555515 0.761103
O O13 0.646492 0.374019 0.754860
O O14 0.324657 0.744104 0.022503
O O15 0.513693 0.952882 0.108340
O O16 0.457088 0.478381 0.400434
O O17 0.500000 0.000000 0.000000
#
# Coordination Sequence:
#
# PCOD9015834 Si02
#       8
#     2   2   2   2   2   2   2   2
#     4  11  25  44  65 100 133 168 218 274 326 380
#     4   9  21  42  63  95 132 167 214 268 325 389
#     4  12  25  43  70  96 132 175 218 270 323 390
#     4  10  21  42  65  92 133 170 213 267 322 391
#     4  11  23  40  67  91 133 175 208 274 328 381
#     4   9  21  39  65  95 128 169 215 270 323 382
#     4  10  21  43  62  92 133 170 212 265 325 386
#     4  10  25  44  68  99 130 170 218 272 322 386
#
# _framework density 22.584378000000001
#
# number of rings (size 3 to 8) (size 9 to 14) (size 15 to 20)
#    0.000    1.750    2.500    2.250    5.250    6.000 
#    0.000    1.250    0.000    0.000    0.000    0.000 
#    0.000    0.000    0.000    0.000    0.000    0.000 
#
# Total GULP energy -89416.545615 kJ/mol
# GULP energy per Si atom -5588.534101 kJ/mol
# Density = 2.253297 g / cm^3
# Si number density = 22.584378 Si / 1000 Ang^3
#
#
#
# Elastic Constant Matrix: (Units=GPa)
#
#
# Indices 1 2 3 4 5 6 
#
# 1 87.6387 38.4593 31.1986 33.1101 -0.4217 -1.6628
# 2 38.4593 98.7707 21.5484 31.6105 9.5048 -1.6359
# 3 31.1986 21.5484 69.7130 34.4622 10.5838 6.0111
# 4 33.1101 31.6105 34.4622 51.6334 8.2393 3.5709
# 5 -0.4217 9.5048 10.5838 8.2393 34.1833 9.6022
# 6 -1.6628 -1.6359 6.0111 3.5709 9.6022 35.8933
#
#
#
# Elastic Compliance Matrix: (Units=1/GPa)
#
#
# Indices 1 2 3 4 5 6 
#
# 1 0.017072 -0.004064 -0.003774 -0.006617 0.003861 0.000863
# 2 -0.004064 0.013781 0.000870 -0.006023 -0.003190 0.001747
# 3 -0.003774 0.000870 0.022680 -0.012525 -0.003824 -0.001664
# 4 -0.006617 -0.006023 -0.012525 0.036209 -0.002887 -0.001313
# 5 0.003861 -0.003190 -0.003824 -0.002887 0.034383 -0.008237
# 6 0.000863 0.001747 -0.001664 -0.001313 -0.008237 0.030593
#
#
# Mechanical properties :
#
#
# Convention : Reuss Voigt Hill
#
# Bulk Modulus (GPa) = 25.25361 48.72611 36.98986
# Shear Modulus (GPa) = 27.49492 35.33640 31.41566
#
# Velocity S-wave (km/s) = 3.49296 3.95984 3.73370
# Velocity P-wave (km/s) = 5.24155 6.52144 5.91620
#
# Compressibility (1/GPa) = 0.03959829
#
# Stress axis : x y z
#
# Youngs Moduli (GPa) = 58.57520 72.56578 44.09110
#
# Poissons Ratio (x) = 0.29490 0.16639
# Poissons Ratio (y) = 0.23804 -0.03838
# Poissons Ratio (z) = 0.22105 -0.06316
#
# Static dielectric constant tensor:
#      x y z
#    x 1.796750 -0.040260 0.027400 
#    y -0.040260 1.896970 0.016490 
#    z 0.027400 0.016490 1.861160 
# 
# From -- ./inp_files/590540.got.cif
#   From: 2010.05.17/outbox.cif.g08.bks.cpg/sg2_296_cif.got.tgz:590540.got - 2010.06.03 11:33:40.
