data_PCOD9015272
_publ_section_title
;
Structure prediction by ZEFSAII (Michael W. Deem and Ramdas Pophale) SiO2 
 PCOD9015272
Probable space group: P -1
;
_chemical_formula_sum "Si O2"
_cell_formula_units_Z 12
_cell_length_a 7.810156
_cell_length_b 7.256122
_cell_length_c 9.446328
_cell_angle_alpha 99.651935
_cell_angle_beta 109.584970
_cell_angle_gamma 60.591351
_cell_volume 439.369617
_symmetry_space_group_name_H-M "P -1"
_symmetry_group_IT_number 2
_symmetry_cell_setting 'triclinic'
loop_
_space_group_symop_operation_xyz
x,y,z
-x,-y,-z
loop_
_atom_site_type_symbol
_atom_site_label
_atom_site_fract_x
_atom_site_fract_y
_atom_site_fract_z
Si Si1 0.924955 0.372472 0.358394
Si Si2 0.675854 0.056695 0.612738
Si Si3 0.184937 0.088458 0.904914
Si Si4 0.531671 0.910908 0.793626
Si Si5 0.800257 0.338016 0.019826
Si Si6 0.538109 0.505254 0.707445
O O1 0.883076 0.428851 0.184145
O O2 0.702880 0.417703 0.355975
O O3 0.000000 0.500000 0.500000
O O4 0.101093 0.129086 0.383774
O O5 0.628883 0.042150 0.763012
O O6 0.500000 0.000000 0.500000
O O7 0.648963 0.289820 0.622168
O O8 0.287661 0.040051 0.771137
O O9 0.202633 0.864006 0.931235
O O10 0.339935 0.155421 0.035359
O O11 0.966092 0.254861 0.925603
O O12 0.583010 0.695205 0.699831
O O13 0.597944 0.469080 0.886684
#
# Coordination Sequence:
#
# PCOD9015272 Si02
#       6
#     2   2   2   2   2   2
#     4  12  25  47  73 107 147 200 247 291 368 449
#     4  12  26  52  73 102 154 198 236 306 370 433
#     4  10  21  41  74 109 150 181 246 309 350 436
#     4  11  24  43  71 118 145 181 259 301 355 446
#     4  11  21  45  75 107 149 192 239 303 370 420
#     4  12  26  45  79 109 143 198 242 303 371 422
#
# _framework density 27.311858000000001
#
# number of rings (size 3 to 8) (size 9 to 14) (size 15 to 20)
#    0.000    0.667    6.667    1.500    0.000    1.333 
#    3.000    0.833    0.000    0.000    0.000    0.000 
#    0.000    0.000    0.000    0.000    0.000    0.000 
#
# Total GULP energy -67110.535408 kJ/mol
# GULP energy per Si atom -5592.544617 kJ/mol
# Density = 2.724969 g / cm^3
# Si number density = 27.311858 Si / 1000 Ang^3
#
#
#
# Elastic Constant Matrix: (Units=GPa)
#
#
# Indices 1 2 3 4 5 6 
#
# 1 99.0278 77.7807 21.0197 5.1397 13.6497 -19.4312
# 2 77.7807 111.8645 56.8924 25.7677 0.8523 -16.6795
# 3 21.0197 56.8924 171.8950 9.6508 30.7613 -0.0879
# 4 5.1397 25.7677 9.6508 38.5496 -1.6787 8.2874
# 5 13.6497 0.8523 30.7613 -1.6787 50.8275 -1.9637
# 6 -19.4312 -16.6795 -0.0879 8.2874 -1.9637 49.3670
#
#
#
# Elastic Compliance Matrix: (Units=1/GPa)
#
#
# Indices 1 2 3 4 5 6 
#
# 1 0.032257 -0.028724 0.007004 0.012532 -0.011990 0.000424
# 2 -0.028724 0.040182 -0.010968 -0.021065 0.013226 0.006313
# 3 0.007004 -0.010968 0.009707 0.004051 -0.007512 -0.001910
# 4 0.012532 -0.021065 0.004051 0.039055 -0.004518 -0.008913
# 5 -0.011990 0.013226 -0.007512 -0.004518 0.027130 0.001574
# 6 0.000424 0.006313 -0.001910 -0.008913 0.001574 0.024112
#
#
# Mechanical properties :
#
#
# Convention : Reuss Voigt Hill
#
# Bulk Modulus (GPa) = 59.62061 77.13032 68.37546
# Shear Modulus (GPa) = 20.54164 42.88845 31.71505
#
# Velocity S-wave (km/s) = 2.74545 3.96703 3.41136
# Velocity P-wave (km/s) = 5.65039 7.02033 6.37228
#
# Compressibility (1/GPa) = 0.01677272
#
# Stress axis : x y z
#
# Youngs Moduli (GPa) = 31.00059 24.88682 103.02007
#
# Poissons Ratio (x) = 0.71484 -0.72160
# Poissons Ratio (y) = 0.89045 1.12989
# Poissons Ratio (z) = -0.21714 0.27295
#
# Static dielectric constant tensor:
#      x y z
#    x 2.118770 -0.044900 -0.181620 
#    y -0.044900 2.204680 -0.068990 
#    z -0.181620 -0.068990 2.586480 
# 
# From -- ./inp_files/383338.got.cif
#   From: 2010.05.17/outbox.cif.g08.bks.cpg/sg2_192_cif.got.tgz:383338.got - 2010.06.03 11:33:40.
