data_PCOD9015378
_publ_section_title
;
Structure prediction by ZEFSAII (Michael W. Deem and Ramdas Pophale) SiO2 
 PCOD9015378
Probable space group: P -1
;
_chemical_formula_sum "Si O2"
_cell_formula_units_Z 12
_cell_length_a 7.401208
_cell_length_b 7.340775
_cell_length_c 8.618849
_cell_angle_alpha 86.588736
_cell_angle_beta 75.856078
_cell_angle_gamma 101.379059
_cell_volume 442.279367
_symmetry_space_group_name_H-M "P -1"
_symmetry_group_IT_number 2
_symmetry_cell_setting 'triclinic'
loop_
_space_group_symop_operation_xyz
x,y,z
-x,-y,-z
loop_
_atom_site_type_symbol
_atom_site_label
_atom_site_fract_x
_atom_site_fract_y
_atom_site_fract_z
Si Si1 0.728740 0.469155 0.101642
Si Si2 0.004184 0.927382 0.331811
Si Si3 0.397809 0.509501 0.356397
Si Si4 0.218811 0.085429 0.999854
Si Si5 0.069786 0.535333 0.246643
Si Si6 0.574032 0.933065 0.322222
O O1 0.519987 0.412162 0.218017
O O2 0.751594 0.693360 0.056100
O O3 0.879496 0.428990 0.201385
O O4 0.782418 0.400119 0.929076
O O5 0.020188 0.715961 0.320120
O O6 0.790309 0.924088 0.319578
O O7 0.000000 0.000000 0.500000
O O8 0.185547 0.045228 0.191615
O O9 0.500000 0.500000 0.500000
O O10 0.179296 0.438903 0.355270
O O11 0.434776 0.734263 0.325307
O O12 0.367704 0.994610 0.872577
O O13 0.000000 0.000000 0.000000
O O14 0.500000 0.000000 0.500000
#
# Coordination Sequence:
#
# PCOD9015378 Si02
#       6
#     2   2   2   2   2   2
#     4  10  22  44  65  95 132 167 227 271 324 405
#     4  11  22  41  67  98 129 174 224 268 335 401
#     4  11  24  42  62  96 135 170 218 271 330 398
#     4   9  18  40  66  88 130 172 215 266 329 394
#     4  11  22  42  67  92 131 174 216 273 330 385
#     4  10  21  42  61  93 137 167 217 276 321 400
#
# _framework density 27.132171
#
# number of rings (size 3 to 8) (size 9 to 14) (size 15 to 20)
#    0.000    1.667    5.000    1.500    0.000    3.333 
#    9.000    7.500    0.000    0.000    0.000    0.000 
#    0.000    0.000    0.000    0.000    0.000    0.000 
#
# Total GULP energy -67010.631894 kJ/mol
# GULP energy per Si atom -5584.219324 kJ/mol
# Density = 2.707042 g / cm^3
# Si number density = 27.132171 Si / 1000 Ang^3
#
#
#
# Elastic Constant Matrix: (Units=GPa)
#
#
# Indices 1 2 3 4 5 6 
#
# 1 133.4713 28.0353 76.1367 -3.2744 -7.6547 -32.2370
# 2 28.0353 41.8543 61.2577 16.7254 -13.9173 -4.8690
# 3 76.1367 61.2577 228.3198 36.3353 -38.7778 -15.1931
# 4 -3.2744 16.7254 36.3353 49.3496 -12.8128 -6.6007
# 5 -7.6547 -13.9173 -38.7778 -12.8128 69.5328 10.9322
# 6 -32.2370 -4.8690 -15.1931 -6.6007 10.9322 32.0735
#
#
#
# Elastic Compliance Matrix: (Units=1/GPa)
#
#
# Indices 1 2 3 4 5 6 
#
# 1 0.014342 -0.006143 -0.003766 0.006992 -0.002671 0.014048
# 2 -0.006143 0.043947 -0.008190 -0.009381 0.002810 -0.006270
# 3 -0.003766 -0.008190 0.008655 -0.003529 0.002518 -0.002513
# 4 0.006992 -0.009381 -0.003529 0.027924 0.000579 0.009481
# 5 -0.002671 0.002810 0.002518 0.000579 0.017233 -0.006820
# 6 0.014048 -0.006270 -0.002513 0.009481 -0.006820 0.047432
#
#
# Mechanical properties :
#
#
# Convention : Reuss Voigt Hill
#
# Bulk Modulus (GPa) = 32.52323 81.61165 57.06744
# Shear Modulus (GPa) = 24.27432 46.07224 35.17328
#
# Velocity S-wave (km/s) = 2.99435 4.12523 3.60442
# Velocity P-wave (km/s) = 4.89569 7.26874 6.19687
#
# Compressibility (1/GPa) = 0.03074725
#
# Stress axis : x y z
#
# Youngs Moduli (GPa) = 69.72419 22.75467 115.54080
#
# Poissons Ratio (x) = 0.13978 0.43514
# Poissons Ratio (y) = 0.42831 0.94622
# Poissons Ratio (z) = 0.26259 0.18635
#
# Static dielectric constant tensor:
#      x y z
#    x 2.166570 -0.035590 0.116010 
#    y -0.035590 2.151640 -0.105730 
#    z 0.116010 -0.105730 2.493870 
# 
# From -- ./inp_files/28252.got.cif
#   From: 2010.05.17/outbox.cif.g08.bks.cpg/sg2_15_cif.got.tgz:28252.got - 2010.06.03 11:33:40.
