data_PCOD9015011
_publ_section_title
;
Structure prediction by ZEFSAII (Michael W. Deem and Ramdas Pophale) SiO2 
 PCOD9015011
Probable space group: P -1
;
_chemical_formula_sum "Si O2"
_cell_formula_units_Z 14
_cell_length_a 13.050053
_cell_length_b 16.802138
_cell_length_c 24.327621
_cell_angle_alpha 162.493259
_cell_angle_beta 154.091928
_cell_angle_gamma 35.510431
_cell_volume 660.998597
_symmetry_space_group_name_H-M "P -1"
_symmetry_group_IT_number 2
_symmetry_cell_setting 'triclinic'
loop_
_space_group_symop_operation_xyz
x,y,z
-x,-y,-z
loop_
_atom_site_type_symbol
_atom_site_label
_atom_site_fract_x
_atom_site_fract_y
_atom_site_fract_z
Si Si1 0.455101 0.561003 0.196959
Si Si2 0.714077 0.325282 0.256984
Si Si3 0.111371 0.227140 0.608157
Si Si4 0.656985 0.703299 0.852976
Si Si5 0.886560 0.106792 0.718528
Si Si6 0.460318 0.242666 0.885267
Si Si7 0.625482 0.329372 0.487920
O O1 0.557448 0.376249 0.164424
O O2 0.256460 0.669022 0.202834
O O3 0.690444 0.833064 0.472995
O O4 0.358387 0.393407 0.983899
O O5 0.603713 0.416454 0.319165
O O6 0.000000 0.500000 0.500000
O O7 0.670289 0.998028 0.026623
O O8 0.252957 0.143674 0.672603
O O9 0.866404 0.288483 0.549249
O O10 0.061302 0.998352 0.384971
O O11 0.304095 0.517342 0.868472
O O12 0.692584 0.503913 0.691611
O O13 0.872506 0.779692 0.052715
O O14 0.531210 0.987523 0.777658
O O15 0.500000 0.500000 0.500000
#
# Coordination Sequence:
#
# PCOD9015011 Si02
#       7
#     2   2   2   2   2   2   2
#     4  10  21  41  70  96 129 172 217 269 324 379
#     4  11  24  43  68  95 132 170 211 274 328 381
#     4  10  24  44  69  94 135 172 219 274 321 389
#     4  11  26  42  66 100 130 168 223 265 326 393
#     4  10  22  41  69 101 126 166 225 270 321 382
#     4  10  23  45  67  95 132 177 219 265 329 384
#     4  12  27  43  66  97 135 174 217 267 330 398
#
# _framework density 21.180077000000001
#
# number of rings (size 3 to 8) (size 9 to 14) (size 15 to 20)
#    0.000    1.429    1.429    2.143    8.000    3.429 
#    0.000    0.000    0.000    0.000    0.000    0.000 
#    0.000    0.000    0.000    0.000    0.000    0.000 
#
# Total GULP energy -78352.297498 kJ/mol
# GULP energy per Si atom -5596.592678 kJ/mol
# Density = 2.113187 g / cm^3
# Si number density = 21.180077 Si / 1000 Ang^3
#
#
#
# Elastic Constant Matrix: (Units=GPa)
#
#
# Indices 1 2 3 4 5 6 
#
# 1 163.3847 54.1326 69.0982 -5.2799 -17.7044 -16.0648
# 2 54.1326 131.4165 48.3928 -0.1480 -0.0084 8.4467
# 3 69.0982 48.3928 96.6017 -6.1553 -19.3515 0.8058
# 4 -5.2799 -0.1480 -6.1553 23.4182 1.6444 2.8103
# 5 -17.7044 -0.0084 -19.3515 1.6444 42.0262 5.1075
# 6 -16.0648 8.4467 0.8058 2.8103 5.1075 37.0969
#
#
#
# Elastic Compliance Matrix: (Units=1/GPa)
#
#
# Indices 1 2 3 4 5 6 
#
# 1 0.009890 -0.002244 -0.005805 0.000051 0.000909 0.004791
# 2 -0.002244 0.010195 -0.004026 -0.000994 -0.002419 -0.002797
# 3 -0.005805 -0.004026 0.017976 0.003333 0.006074 -0.003076
# 4 0.000051 -0.000994 0.003333 0.043950 0.000223 -0.003184
# 5 0.000909 -0.002419 0.006074 0.000223 0.027326 -0.002967
# 6 0.004791 -0.002797 -0.003076 -0.003184 -0.002967 0.030385
#
#
# Mechanical properties :
#
#
# Convention : Reuss Voigt Hill
#
# Bulk Modulus (GPa) = 71.88971 81.62779 76.75875
# Shear Modulus (GPa) = 29.67202 35.16021 32.41611
#
# Velocity S-wave (km/s) = 3.74697 4.07880 3.91641
# Velocity P-wave (km/s) = 7.26193 7.79780 7.53463
#
# Compressibility (1/GPa) = 0.01391020
#
# Stress axis : x y z
#
# Youngs Moduli (GPa) = 101.10987 98.08657 55.63026
#
# Poissons Ratio (x) = 0.22013 0.32292
# Poissons Ratio (y) = 0.22691 0.22399
# Poissons Ratio (z) = 0.58692 0.39494
#
# Static dielectric constant tensor:
#      x y z
#    x 1.772010 0.014680 0.028340 
#    y 0.014680 1.719770 0.011440 
#    z 0.028340 0.011440 1.768570 
# 
# From -- ./inp_files/244823.got.cif
#   From: 2010.05.17/outbox.cif.g08.bks.cpg/sg2_123_cif.got.tgz:244823.got - 2010.06.03 11:33:40.
