data_PCOD9015059
_publ_section_title
;
Structure prediction by ZEFSAII (Michael W. Deem and Ramdas Pophale) SiO2 
 PCOD9015059
Probable space group: P -1
;
_chemical_formula_sum "Si O2"
_cell_formula_units_Z 16
_cell_length_a 14.986882
_cell_length_b 10.628488
_cell_length_c 15.347212
_cell_angle_alpha 37.289611
_cell_angle_beta 27.311870
_cell_angle_gamma 47.198306
_cell_volume 676.244385
_symmetry_space_group_name_H-M "P -1"
_symmetry_group_IT_number 2
_symmetry_cell_setting 'triclinic'
loop_
_space_group_symop_operation_xyz
x,y,z
-x,-y,-z
loop_
_atom_site_type_symbol
_atom_site_label
_atom_site_fract_x
_atom_site_fract_y
_atom_site_fract_z
Si Si1 0.027936 0.147555 0.072524
Si Si2 0.477863 0.512993 0.115957
Si Si3 0.335584 0.744778 0.561731
Si Si4 0.937409 0.431850 0.262900
Si Si5 0.908371 0.716291 0.446715
Si Si6 0.303225 0.321224 0.897070
Si Si7 0.132091 0.267858 0.324661
Si Si8 0.529575 0.971894 0.854670
O O1 0.812405 0.174827 0.284090
O O2 0.031431 0.903721 0.187127
O O3 0.066173 0.319394 0.869773
O O4 0.172134 0.226888 0.982174
O O5 0.303613 0.338384 0.383822
O O6 0.500000 0.500000 0.000000
O O7 0.704568 0.530644 0.937899
O O8 0.419114 0.740344 0.071865
O O9 0.415860 0.541497 0.647217
O O10 0.471645 0.928825 0.297148
O O11 0.212294 0.656027 0.632918
O O12 0.938211 0.323388 0.415287
O O13 0.145973 0.374381 0.074929
O O14 0.891377 0.786985 0.523321
O O15 0.000000 0.500000 0.500000
O O16 0.442407 0.143523 0.895347
O O17 0.248415 0.079871 0.290812
#
# Coordination Sequence:
#
# PCOD9015059 Si02
#       8
#     2   2   2   2   2   2   2   2
#     4   9  17  34  52  74  96 133 166 197 243 291
#     4   8  17  32  47  68  97 124 161 206 243 280
#     4   9  16  31  51  73 102 133 165 192 239 297
#     4   9  19  34  50  70 109 131 156 198 245 297
#     4  11  19  34  56  74  90 126 175 212 238 287
#     4   9  18  29  50  76 101 135 162 194 235 299
#     4   9  20  34  49  73 103 128 160 203 253 285
#     4  10  17  30  49  75 101 124 170 199 240 288
#
# _framework density 23.660084999999999
#
# number of rings (size 3 to 8) (size 9 to 14) (size 15 to 20)
#    0.750    2.000    1.250    2.625    0.000    1.000 
#    0.000    2.500    0.000    0.000    0.000    0.000 
#    0.000    0.000    0.000    0.000    0.000    0.000 
#
# Total GULP energy -89162.030672 kJ/mol
# GULP energy per Si atom -5572.626917 kJ/mol
# Density = 2.360623 g / cm^3
# Si number density = 23.660085 Si / 1000 Ang^3
#
#
#
# Elastic Constant Matrix: (Units=GPa)
#
#
# Indices 1 2 3 4 5 6 
#
# 1 56.5235 10.2715 5.1349 -15.4395 -2.9889 -6.7709
# 2 10.2715 93.5594 8.9116 -21.0408 9.0681 -12.9386
# 3 5.1349 8.9116 52.1669 -24.2111 -2.8698 1.7074
# 4 -15.4395 -21.0408 -24.2111 44.3984 0.5892 3.3029
# 5 -2.9889 9.0681 -2.8698 0.5892 16.4832 -5.9175
# 6 -6.7709 -12.9386 1.7074 3.3029 -5.9175 15.4260
#
#
#
# Elastic Compliance Matrix: (Units=1/GPa)
#
#
# Indices 1 2 3 4 5 6 
#
# 1 0.021207 -0.000143 0.001338 0.007158 0.007650 0.010442
# 2 -0.000143 0.013630 -0.000178 0.005756 -0.004772 0.008325
# 3 0.001338 -0.000178 0.026363 0.015068 0.002718 -0.004663
# 4 0.007158 0.005756 0.015068 0.036115 -0.001218 -0.001897
# 5 0.007650 -0.004772 0.002718 -0.001218 0.075324 0.028210
# 6 0.010442 0.008325 -0.004663 -0.001897 0.028210 0.088135
#
#
# Mechanical properties :
#
#
# Convention : Reuss Voigt Hill
#
# Bulk Modulus (GPa) = 15.81410 27.87620 21.84515
# Shear Modulus (GPa) = 17.86878 27.12365 22.49621
#
# Velocity S-wave (km/s) = 2.75112 3.38951 3.08686
# Velocity P-wave (km/s) = 4.09756 5.20825 4.68593
#
# Compressibility (1/GPa) = 0.06323472
#
# Stress axis : x y z
#
# Youngs Moduli (GPa) = 47.15464 73.37024 37.93136
#
# Poissons Ratio (x) = 0.01051 -0.05077
# Poissons Ratio (y) = 0.00676 0.00674
# Poissons Ratio (z) = -0.06311 0.01303
#
# Static dielectric constant tensor:
#      x y z
#    x 1.907520 -0.005140 -0.007870 
#    y -0.005140 1.988290 0.012700 
#    z -0.007870 0.012700 1.999560 
# 
# From -- ./inp_files/268390.got.cif
#   From: 2010.05.17/outbox.cif.g08.bks.cpg/sg2_135_cif.got.tgz:268390.got - 2010.06.03 11:33:40.
