data_PCOD9015886
_publ_section_title
;
Structure prediction by ZEFSAII (Michael W. Deem and Ramdas Pophale) SiO2 
 PCOD9015886
Probable space group: P -1
;
_chemical_formula_sum "Si O2"
_cell_formula_units_Z 16
_cell_length_a 17.023211
_cell_length_b 10.807678
_cell_length_c 13.921326
_cell_angle_alpha 55.937809
_cell_angle_beta 22.774847
_cell_angle_gamma 52.412550
_cell_volume 785.659936
_symmetry_space_group_name_H-M "P -1"
_symmetry_group_IT_number 2
_symmetry_cell_setting 'triclinic'
loop_
_space_group_symop_operation_xyz
x,y,z
-x,-y,-z
loop_
_atom_site_type_symbol
_atom_site_label
_atom_site_fract_x
_atom_site_fract_y
_atom_site_fract_z
Si Si1 0.037241 0.769314 0.453357
Si Si2 0.301676 0.486866 0.391370
Si Si3 0.538541 0.411006 0.645488
Si Si4 0.245044 0.750804 0.038819
Si Si5 0.931995 0.343775 0.121853
Si Si6 0.163184 0.048488 0.117106
Si Si7 0.079513 0.646408 0.082984
Si Si8 0.610165 0.856852 0.004167
O O1 0.227628 0.653921 0.349214
O O2 0.823060 0.763964 0.747785
O O3 0.040502 0.949560 0.362789
O O4 0.080850 0.715324 0.316965
O O5 0.342829 0.508032 0.448082
O O6 0.526657 0.375581 0.150487
O O7 0.108505 0.412189 0.634895
O O8 0.678792 0.383961 0.404363
O O9 0.290953 0.505103 0.881194
O O10 0.541868 0.247546 0.759097
O O11 0.157592 0.745385 0.032830
O O12 0.260679 0.919496 0.981422
O O13 0.032725 0.207590 0.144242
O O14 0.992513 0.284397 0.971137
O O15 0.000000 0.500000 0.000000
O O16 0.325688 0.088752 0.989330
O O17 0.500000 0.000000 0.000000
#
# Coordination Sequence:
#
# PCOD9015886 Si02
#       8
#     2   2   2   2   2   2   2   2
#     4  10  21  42  65  95 139 169 214 269 327 389
#     4  11  20  43  66  95 134 172 221 269 322 393
#     4  11  23  40  66 104 122 164 228 271 335 386
#     4   9  25  41  64  98 135 176 221 260 325 397
#     4  12  23  44  73  91 131 175 218 285 328 377
#     4  10  24  43  62 102 134 173 218 267 330 392
#     4  11  23  42  68  94 129 177 226 268 320 389
#     4  12  22  38  68 102 136 170 210 277 337 394
#
# _framework density 20.365047000000001
#
# number of rings (size 3 to 8) (size 9 to 14) (size 15 to 20)
#    0.750    0.500    2.500    4.125    0.000    2.000 
#    0.000    0.625    0.000    0.000    0.000    0.000 
#    0.000    0.000    0.000    0.000    0.000    0.000 
#
# Total GULP energy -89217.838433 kJ/mol
# GULP energy per Si atom -5576.114902 kJ/mol
# Density = 2.031869 g / cm^3
# Si number density = 20.365047 Si / 1000 Ang^3
#
#
#
# Elastic Constant Matrix: (Units=GPa)
#
#
# Indices 1 2 3 4 5 6 
#
# 1 108.3852 38.3306 26.8604 13.1812 1.3389 1.0856
# 2 38.3306 93.2215 51.8328 8.2731 5.3929 -15.5160
# 3 26.8604 51.8328 65.8512 -14.3862 -12.6226 21.9986
# 4 13.1812 8.2731 -14.3862 0.2536 -14.5256 8.9894
# 5 1.3389 5.3929 -12.6226 -14.5256 17.1007 12.9568
# 6 1.0856 -15.5160 21.9986 8.9894 12.9568 25.5243
#
#
#
# Elastic Compliance Matrix: (Units=1/GPa)
#
#
# Indices 1 2 3 4 5 6 
#
# 1 0.011596 -0.006157 0.001378 -0.004203 0.002387 -0.005155
# 2 -0.006157 0.013578 -0.003578 0.017565 0.007112 0.001803
# 3 0.001378 -0.003578 0.010325 -0.021039 -0.010413 0.001563
# 4 -0.004203 0.017565 -0.021039 0.026049 -0.022143 0.031055
# 5 0.002387 0.007112 -0.010413 -0.022143 0.022172 0.009741
# 6 -0.005155 0.001803 0.001563 0.031055 0.009741 0.023265
#
#
# Mechanical properties :
#
#
# Convention : Reuss Voigt Hill
#
# Bulk Modulus (GPa) = 53.23405 55.72285 54.47845
# Shear Modulus (GPa) = 38.47326 18.60466 28.53896
#
# Velocity S-wave (km/s) = 4.35119 3.02579 3.74755
# Velocity P-wave (km/s) = 7.17220 6.29513 6.74793
#
# Compressibility (1/GPa) = 0.01878497
#
# Stress axis : x y z
#
# Youngs Moduli (GPa) = 86.23905 73.64758 96.84923
#
# Poissons Ratio (x) = 0.45347 -0.13347
# Poissons Ratio (y) = 0.53100 0.34652
# Poissons Ratio (z) = -0.11885 0.26351
#
# Static dielectric constant tensor:
#      x y z
#    x 1.735490 -0.001340 0.010630 
#    y -0.001340 1.733820 0.017110 
#    z 0.010630 0.017110 1.725310 
# 
# From -- ./inp_files/538203.got.cif
#   From: 2010.05.17/outbox.cif.g08.bks.cpg/sg2_270_cif.got.tgz:538203.got - 2010.06.03 11:33:40.
