data_PCOD9015373
_publ_section_title
;
Structure prediction by ZEFSAII (Michael W. Deem and Ramdas Pophale) SiO2 
 PCOD9015373
Probable space group: P -1
;
_chemical_formula_sum "Si O2"
_cell_formula_units_Z 15
_cell_length_a 12.473089
_cell_length_b 15.716631
_cell_length_c 5.150484
_cell_angle_alpha 62.858340
_cell_angle_beta 113.578370
_cell_angle_gamma 140.164990
_cell_volume 573.362908
_symmetry_space_group_name_H-M "P -1"
_symmetry_group_IT_number 2
_symmetry_cell_setting 'triclinic'
loop_
_space_group_symop_operation_xyz
x,y,z
-x,-y,-z
loop_
_atom_site_type_symbol
_atom_site_label
_atom_site_fract_x
_atom_site_fract_y
_atom_site_fract_z
Si Si1 0.586970 0.647758 0.292079
Si Si2 0.193855 0.229696 0.166851
Si Si3 0.994307 0.737621 0.772854
Si Si4 0.409472 0.148273 0.869248
Si Si5 0.500000 0.000000 0.000000
Si Si6 0.083955 0.473976 0.314942
Si Si7 0.222776 0.734153 0.300517
Si Si8 0.823344 0.981695 0.682693
O O1 0.500000 0.500000 0.500000
O O2 0.735284 0.743574 0.513277
O O3 0.498764 0.699165 0.172646
O O4 0.658779 0.677578 0.031186
O O5 0.098761 0.077787 0.204202
O O6 0.086863 0.262355 0.052094
O O7 0.869356 0.593047 0.705361
O O8 0.056370 0.860500 0.485181
O O9 0.155581 0.768711 0.963148
O O10 0.320707 0.100009 0.567686
O O11 0.263522 0.056760 0.071874
O O12 0.509588 0.108847 0.011303
O O13 0.398785 0.887072 0.306000
O O14 0.222238 0.620757 0.386401
O O15 0.931654 0.354245 0.523753
O O16 0.000000 0.500000 0.000000
#
# Coordination Sequence:
#
# PCOD9015373 Si02
#       8
#     2   2   2   2   1   2   2   2
#     4  10  22  44  63  91 130 171 216 273 323 399
#     4  10  23  37  67  94 125 168 215 264 338 390
#     4  11  21  37  64  94 125 167 216 271 325 399
#     4  10  23  40  62  91 130 165 219 267 334 384
#     4  12  22  42  66 100 124 184 220 280 338 394
#     4   9  21  42  60  88 131 174 209 284 326 393
#     4  10  22  41  64  91 136 166 227 275 333 395
#     4  10  21  42  61  92 129 166 204 278 324 392
#
# _framework density 26.161443999999999
#
# number of rings (size 3 to 8) (size 9 to 14) (size 15 to 20)
#    0.000    1.867    1.333    1.600    1.867    1.600 
#    9.600    4.000    0.000    0.000    0.000    0.000 
#    0.000    0.000    0.000    0.000    0.000    0.000 
#
# Total GULP energy -83633.468035 kJ/mol
# GULP energy per Si atom -5575.564536 kJ/mol
# Density = 2.610190 g / cm^3
# Si number density = 26.161444 Si / 1000 Ang^3
#
#
#
# Elastic Constant Matrix: (Units=GPa)
#
#
# Indices 1 2 3 4 5 6 
#
# 1 164.9437 53.9541 28.6727 -17.2784 -10.0920 -60.8206
# 2 53.9541 118.3039 31.8761 -42.1438 6.2124 -48.7225
# 3 28.6727 31.8761 103.9483 -29.7513 -9.4109 -12.4114
# 4 -17.2784 -42.1438 -29.7513 58.7685 -5.4281 14.8105
# 5 -10.0920 6.2124 -9.4109 -5.4281 17.9356 -5.6874
# 6 -60.8206 -48.7225 -12.4114 14.8105 -5.6874 49.6013
#
#
#
# Elastic Compliance Matrix: (Units=1/GPa)
#
#
# Indices 1 2 3 4 5 6 
#
# 1 0.013784 0.001650 -0.000337 0.001389 0.013639 0.019588
# 2 0.001650 0.018070 -0.001289 0.008671 0.002038 0.017095
# 3 -0.000337 -0.001289 0.012753 0.006082 0.009021 0.000730
# 4 0.001389 0.008671 0.006082 0.026421 0.010572 0.005065
# 5 0.013639 0.002038 0.009021 0.010572 0.079189 0.026907
# 6 0.019588 0.017095 0.000730 0.005065 0.026907 0.062726
#
#
# Mechanical properties :
#
#
# Convention : Reuss Voigt Hill
#
# Bulk Modulus (GPa) = 22.39416 68.46685 45.43051
# Shear Modulus (GPa) = 21.95097 43.44062 32.69579
#
# Velocity S-wave (km/s) = 2.89979 4.07932 3.53904
# Velocity P-wave (km/s) = 4.44863 6.95813 5.83977
#
# Compressibility (1/GPa) = 0.04465449
#
# Stress axis : x y z
#
# Youngs Moduli (GPa) = 72.54675 55.34071 78.41324
#
# Poissons Ratio (x) = -0.09130 0.02643
# Poissons Ratio (y) = -0.11968 0.10107
# Poissons Ratio (z) = 0.02445 0.07133
#
# Static dielectric constant tensor:
#      x y z
#    x 2.163490 -0.045320 -0.055570 
#    y -0.045320 1.878290 -0.239120 
#    z -0.055570 -0.239120 1.914180 
# 
# From -- ./inp_files/65678.got.cif
#   From: 2010.05.17/outbox.cif.g08.bks.cpg/sg2_33_cif.got.tgz:65678.got - 2010.06.03 11:33:40.
