data_PCOD9015721
_publ_section_title
;
Structure prediction by ZEFSAII (Michael W. Deem and Ramdas Pophale) SiO2 
 PCOD9015721
Probable space group: P -1
;
_chemical_formula_sum "Si O2"
_cell_formula_units_Z 16
_cell_length_a 15.482685
_cell_length_b 19.824363
_cell_length_c 5.192735
_cell_angle_alpha 87.619921
_cell_angle_beta 96.343900
_cell_angle_gamma 152.442848
_cell_volume 727.302610
_symmetry_space_group_name_H-M "P -1"
_symmetry_group_IT_number 2
_symmetry_cell_setting 'triclinic'
loop_
_space_group_symop_operation_xyz
x,y,z
-x,-y,-z
loop_
_atom_site_type_symbol
_atom_site_label
_atom_site_fract_x
_atom_site_fract_y
_atom_site_fract_z
Si Si1 0.352924 0.816081 0.519450
Si Si2 0.627580 0.653449 0.094731
Si Si3 0.340208 0.924632 0.791155
Si Si4 0.376233 0.259414 0.433020
Si Si5 0.772949 0.011247 0.059343
Si Si6 0.053458 0.929765 0.398122
Si Si7 0.406233 0.704881 0.791407
Si Si8 0.002662 0.454998 0.766467
O O1 0.240559 0.789005 0.678450
O O2 0.385181 0.764644 0.651622
O O3 0.205054 0.719308 0.256725
O O4 0.556487 0.976038 0.448081
O O5 0.555711 0.653037 0.304279
O O6 0.837419 0.782782 0.255701
O O7 0.500000 0.500000 0.000000
O O8 0.642480 0.704763 0.825460
O O9 0.250737 0.925987 0.902815
O O10 0.500000 0.000000 0.000000
O O11 0.517851 0.298051 0.381702
O O12 0.171964 0.081695 0.424504
O O13 0.915007 0.080216 0.308947
O O14 0.842374 0.042721 0.791067
O O15 0.569908 0.831614 0.038999
O O16 0.191494 0.540425 0.826637
O O17 0.000000 0.500000 0.500000
O O18 0.000000 0.500000 0.000000
#
# Coordination Sequence:
#
# PCOD9015721 Si02
#       8
#     2   2   2   2   2   2   2   2
#     4  10  22  38  59  89 131 175 215 267 314 375
#     4  12  26  48  69 100 137 169 203 271 353 403
#     4  11  21  36  61  89 130 176 218 257 321 373
#     4  11  23  42  75 100 127 172 223 269 320 404
#     4  11  22  39  66  97 128 168 219 271 311 372
#     4  11  24  44  72  99 128 168 227 270 318 394
#     4  10  21  42  64  97 125 168 223 272 314 369
#     4  10  22  38  59  86 124 168 210 260 315 361
#
# _framework density 21.999095000000001
#
# number of rings (size 3 to 8) (size 9 to 14) (size 15 to 20)
#    0.000    1.250    1.250    5.625    3.500    4.000 
#    4.500    0.000    0.000    0.000    0.000    0.000 
#    0.000    0.000    0.000    0.000    0.000    0.000 
#
# Total GULP energy -89189.908920 kJ/mol
# GULP energy per Si atom -5574.369307 kJ/mol
# Density = 2.194902 g / cm^3
# Si number density = 21.999095 Si / 1000 Ang^3
#
#
#
# Elastic Constant Matrix: (Units=GPa)
#
#
# Indices 1 2 3 4 5 6 
#
# 1 116.9167 43.7298 27.5967 15.1110 -30.1367 -10.6324
# 2 43.7298 61.3743 14.2995 19.8972 -0.8511 -4.2892
# 3 27.5967 14.2995 105.6112 16.1419 -22.9956 -13.4074
# 4 15.1110 19.8972 16.1419 39.1838 -7.1130 -0.7458
# 5 -30.1367 -0.8511 -22.9956 -7.1130 38.7834 6.1060
# 6 -10.6324 -4.2892 -13.4074 -0.7458 6.1060 36.3082
#
#
#
# Elastic Compliance Matrix: (Units=1/GPa)
#
#
# Indices 1 2 3 4 5 6 
#
# 1 0.016007 -0.011820 -0.000063 0.002118 0.012335 0.001237
# 2 -0.011820 0.028704 -0.001441 -0.011527 -0.011700 0.001129
# 3 -0.000063 -0.001441 0.011814 -0.002983 0.005885 0.003123
# 4 0.002118 -0.011527 -0.002983 0.032832 0.005988 -0.002176
# 5 0.012335 -0.011700 0.005885 0.005988 0.040048 -0.002209
# 6 0.001237 0.001129 0.003123 -0.002176 -0.002209 0.029517
#
#
# Mechanical properties :
#
#
# Convention : Reuss Voigt Hill
#
# Bulk Modulus (GPa) = 33.46847 50.57270 42.02059
# Shear Modulus (GPa) = 25.57172 36.07351 30.82261
#
# Velocity S-wave (km/s) = 3.41310 4.05380 3.74717
# Velocity P-wave (km/s) = 5.54787 6.70444 6.15339
#
# Compressibility (1/GPa) = 0.02987886
#
# Stress axis : x y z
#
# Youngs Moduli (GPa) = 62.47202 34.83823 84.64448
#
# Poissons Ratio (x) = 0.41177 0.00535
# Poissons Ratio (y) = 0.73839 0.12193
# Poissons Ratio (z) = 0.00395 0.05019
#
# Static dielectric constant tensor:
#      x y z
#    x 1.867080 0.014040 -0.037180 
#    y 0.014040 1.951940 0.019680 
#    z -0.037180 0.019680 1.864570 
# 
# From -- ./inp_files/99778.got.cif
#   From: 2010.05.17/outbox.cif.g08.bks.cpg/sg2_50_cif.got.tgz:99778.got - 2010.06.03 11:33:40.
