data_PCOD9015616
_publ_section_title
;
Structure prediction by ZEFSAII (Michael W. Deem and Ramdas Pophale) SiO2 
 PCOD9015616
Probable space group: P -1
;
_chemical_formula_sum "Si O2"
_cell_formula_units_Z 14
_cell_length_a 11.716184
_cell_length_b 12.447819
_cell_length_c 13.013495
_cell_angle_alpha 139.422652
_cell_angle_beta 32.571186
_cell_angle_gamma 142.858983
_cell_volume 593.992990
_symmetry_space_group_name_H-M "P -1"
_symmetry_group_IT_number 2
_symmetry_cell_setting 'triclinic'
loop_
_space_group_symop_operation_xyz
x,y,z
-x,-y,-z
loop_
_atom_site_type_symbol
_atom_site_label
_atom_site_fract_x
_atom_site_fract_y
_atom_site_fract_z
Si Si1 0.353202 0.218017 0.384307
Si Si2 0.559659 0.332419 0.523655
Si Si3 0.301519 0.911073 0.473511
Si Si4 0.866781 0.203447 0.695826
Si Si5 0.518862 0.684830 0.877418
Si Si6 0.248841 0.154759 0.972231
Si Si7 0.022616 0.654410 0.675163
O O1 0.514251 0.340587 0.443465
O O2 0.432257 0.248825 0.229195
O O3 0.112719 0.241680 0.588525
O O4 0.303261 0.009016 0.297987
O O5 0.529072 0.489889 0.724557
O O6 0.821884 0.352310 0.353805
O O7 0.386424 0.128173 0.549162
O O8 0.116851 0.803928 0.445098
O O9 0.181557 0.834293 0.616419
O O10 0.523739 0.864167 0.255507
O O11 0.737227 0.327264 0.910938
O O12 0.699497 0.823447 0.926932
O O13 0.216797 0.338219 0.106130
O O14 0.000000 0.000000 0.000000
O O15 0.000000 0.500000 0.500000
#
# Coordination Sequence:
#
# PCOD9015616 Si02
#       7
#     2   2   2   2   2   2   2
#     4  10  21  42  64  88 130 167 210 262 316 369
#     4  11  23  40  64  98 129 167 213 260 317 383
#     4  10  23  44  65  91 131 168 214 265 314 383
#     4   9  21  40  64  92 120 170 216 257 315 377
#     4  11  22  41  63  95 129 165 214 265 311 380
#     4  11  23  41  66  96 126 169 216 255 322 382
#     4  12  24  44  66  94 129 171 211 265 323 371
#
# _framework density 23.569300999999999
#
# number of rings (size 3 to 8) (size 9 to 14) (size 15 to 20)
#    0.000    1.429    2.857    2.143    0.000    1.143 
#    0.000    1.429    0.000    0.000    0.000    0.000 
#    0.000    0.000    0.000    0.000    0.000    0.000 
#
# Total GULP energy -78248.476626 kJ/mol
# GULP energy per Si atom -5589.176902 kJ/mol
# Density = 2.351566 g / cm^3
# Si number density = 23.569301 Si / 1000 Ang^3
#
#
#
# Elastic Constant Matrix: (Units=GPa)
#
#
# Indices 1 2 3 4 5 6 
#
# 1 126.8936 42.9856 52.5032 5.4038 -7.0270 35.4240
# 2 42.9856 69.5666 27.4131 16.3839 9.2977 6.4446
# 3 52.5032 27.4131 133.4920 12.6018 -10.1020 -1.5230
# 4 5.4038 16.3839 12.6018 22.5620 5.5861 -1.3177
# 5 -7.0270 9.2977 -10.1020 5.5861 41.3787 6.3945
# 6 35.4240 6.4446 -1.5230 -1.3177 6.3945 48.0487
#
#
#
# Elastic Compliance Matrix: (Units=1/GPa)
#
#
# Indices 1 2 3 4 5 6 
#
# 1 0.015881 -0.008290 -0.004587 0.002932 0.004790 -0.011299
# 2 -0.008290 0.023244 -0.000674 -0.012943 -0.005567 0.003359
# 3 -0.004587 -0.000674 0.010017 -0.004268 0.001865 0.003425
# 4 0.002932 -0.012943 -0.004268 0.056887 -0.005585 0.001742
# 5 0.004790 -0.005567 0.001865 -0.005585 0.028471 -0.006668
# 6 -0.011299 0.003359 0.003425 0.001742 -0.006668 0.029736
#
#
# Mechanical properties :
#
#
# Convention : Reuss Voigt Hill
#
# Bulk Modulus (GPa) = 45.37165 63.97289 54.67227
# Shear Modulus (GPa) = 25.16555 36.20122 30.68339
#
# Velocity S-wave (km/s) = 3.27115 3.92337 3.61201
# Velocity P-wave (km/s) = 5.79304 6.90834 6.37513
#
# Compressibility (1/GPa) = 0.02204019
#
# Stress axis : x y z
#
# Youngs Moduli (GPa) = 62.96641 43.02265 99.83240
#
# Poissons Ratio (x) = 0.35665 0.45795
# Poissons Ratio (y) = 0.52197 0.06728
# Poissons Ratio (z) = 0.28884 0.02899
#
# Static dielectric constant tensor:
#      x y z
#    x 1.920190 -0.037650 -0.037750 
#    y -0.037650 1.984740 0.045390 
#    z -0.037750 0.045390 1.902070 
# 
# From -- ./inp_files/523809.got.cif
#   From: 2010.05.17/outbox.cif.g08.bks.cpg/sg2_262_cif.got.tgz:523809.got - 2010.06.03 11:33:40.
