data_PCOD9015432
_publ_section_title
;
Structure prediction by ZEFSAII (Michael W. Deem and Ramdas Pophale) SiO2 
 PCOD9015432
Probable space group: P -1
;
_chemical_formula_sum "Si O2"
_cell_formula_units_Z 14
_cell_length_a 11.943136
_cell_length_b 12.215796
_cell_length_c 15.658245
_cell_angle_alpha 25.173411
_cell_angle_beta 142.544651
_cell_angle_gamma 144.642280
_cell_volume 547.709839
_symmetry_space_group_name_H-M "P -1"
_symmetry_group_IT_number 2
_symmetry_cell_setting 'triclinic'
loop_
_space_group_symop_operation_xyz
x,y,z
-x,-y,-z
loop_
_atom_site_type_symbol
_atom_site_label
_atom_site_fract_x
_atom_site_fract_y
_atom_site_fract_z
Si Si1 0.764385 0.329763 0.967186
Si Si2 0.782770 0.290597 0.807805
Si Si3 0.841263 0.890426 0.405159
Si Si4 0.784850 0.899216 0.627692
Si Si5 0.727231 0.214328 0.501513
Si Si6 0.858736 0.693547 0.100042
Si Si7 0.410912 0.000370 0.267991
O O1 0.744905 0.228409 0.929135
O O2 0.688320 0.571899 0.778095
O O3 0.000000 0.500000 0.000000
O O4 0.711365 0.073454 0.180466
O O5 0.732320 0.566106 0.573967
O O6 0.649646 0.065050 0.819988
O O7 0.010358 0.371677 0.850564
O O8 0.000000 0.000000 0.500000
O O9 0.995122 0.960977 0.371803
O O10 0.636863 0.028409 0.401167
O O11 0.823267 0.001409 0.676416
O O12 0.806383 0.479265 0.300482
O O13 0.724103 0.257575 0.570030
O O14 0.500000 0.000000 0.500000
O O15 0.658891 0.753608 0.917779
O O16 0.000000 0.000000 0.000000
#
# Coordination Sequence:
#
# PCOD9015432 Si02
#       7
#     2   2   2   2   2   2   2
#     4  10  22  38  63  92 125 160 223 265 324 385
#     4  11  22  40  64  95 125 170 214 273 321 385
#     4  11  21  40  65  94 120 168 220 267 326 388
#     4  10  21  42  62  92 129 168 211 271 319 384
#     4  10  22  41  62  96 133 172 218 264 325 384
#     4  10  23  40  64  96 131 175 218 265 327 385
#     4  10  25  41  62  94 137 170 216 265 333 386
#
# _framework density 25.560979
#
# number of rings (size 3 to 8) (size 9 to 14) (size 15 to 20)
#    0.000    1.714    4.286    0.000    4.000    7.429 
#    5.143    0.714    0.000    0.000    0.000    0.000 
#    0.000    0.000    0.000    0.000    0.000    0.000 
#
# Total GULP energy -78023.170575 kJ/mol
# GULP energy per Si atom -5573.083613 kJ/mol
# Density = 2.550280 g / cm^3
# Si number density = 25.560979 Si / 1000 Ang^3
#
#
#
# Elastic Constant Matrix: (Units=GPa)
#
#
# Indices 1 2 3 4 5 6 
#
# 1 86.9089 20.5626 46.4627 -2.6709 -4.7111 -7.6030
# 2 20.5626 71.6347 21.4072 2.5093 -3.7088 -3.2299
# 3 46.4627 21.4072 138.1399 -1.0588 -1.4942 4.2561
# 4 -2.6709 2.5093 -1.0588 25.3570 -0.6054 0.8415
# 5 -4.7111 -3.7088 -1.4942 -0.6054 41.0906 9.9811
# 6 -7.6030 -3.2299 4.2561 0.8415 9.9811 44.0164
#
#
#
# Elastic Compliance Matrix: (Units=1/GPa)
#
#
# Indices 1 2 3 4 5 6 
#
# 1 0.014982 -0.002807 -0.004666 0.001589 0.000674 0.002650
# 2 -0.002807 0.015338 -0.001457 -0.001876 0.000829 0.000629
# 3 -0.004666 -0.001457 0.009092 0.000095 0.000107 -0.001818
# 4 0.001589 -0.001876 0.000095 0.039840 0.000802 -0.000816
# 5 0.000674 0.000829 0.000107 0.000802 0.025894 -0.005720
# 6 0.002650 0.000629 -0.001818 -0.000816 -0.005720 0.024711
#
#
# Mechanical properties :
#
#
# Convention : Reuss Voigt Hill
#
# Bulk Modulus (GPa) = 46.40298 52.61651 49.50974
# Shear Modulus (GPa) = 32.27809 35.97621 34.12715
#
# Velocity S-wave (km/s) = 3.55743 3.75569 3.65790
# Velocity P-wave (km/s) = 5.92174 6.27984 6.10341
#
# Compressibility (1/GPa) = 0.02155034
#
# Stress axis : x y z
#
# Youngs Moduli (GPa) = 66.74464 65.19702 109.98296
#
# Poissons Ratio (x) = 0.18304 0.51322
# Poissons Ratio (y) = 0.18738 0.16029
# Poissons Ratio (z) = 0.31146 0.09502
#
# Static dielectric constant tensor:
#      x y z
#    x 2.422310 -0.150960 -0.030180 
#    y -0.150960 2.126300 0.055640 
#    z -0.030180 0.055640 2.200110 
# 
# From -- ./inp_files/517537.got.cif
#   From: 2010.05.17/outbox.cif.g08.bks.cpg/sg2_259_cif.got.tgz:517537.got - 2010.06.03 11:33:40.
