data_PCOD9015422
_publ_section_title
;
Structure prediction by ZEFSAII (Michael W. Deem and Ramdas Pophale) SiO2 
 PCOD9015422
Probable space group: P -1
;
_chemical_formula_sum "Si O2"
_cell_formula_units_Z 13
_cell_length_a 11.947264
_cell_length_b 8.903530
_cell_length_c 7.963013
_cell_angle_alpha 101.341898
_cell_angle_beta 96.633111
_cell_angle_gamma 42.121433
_cell_volume 556.430080
_symmetry_space_group_name_H-M "P -1"
_symmetry_group_IT_number 2
_symmetry_cell_setting 'triclinic'
loop_
_space_group_symop_operation_xyz
x,y,z
-x,-y,-z
loop_
_atom_site_type_symbol
_atom_site_label
_atom_site_fract_x
_atom_site_fract_y
_atom_site_fract_z
Si Si1 0.483286 0.492487 0.298033
Si Si2 0.680742 0.828377 0.784303
Si Si3 0.715485 0.500046 0.200865
Si Si4 0.815104 0.704172 0.442544
Si Si5 0.332882 0.005937 0.834454
Si Si6 0.186328 0.595990 0.156204
Si Si7 0.000000 0.000000 0.000000
O O1 0.500000 0.500000 0.500000
O O2 0.549191 0.574203 0.230109
O O3 0.601786 0.232240 0.211587
O O4 0.297003 0.626829 0.248393
O O5 0.706312 0.876372 0.617334
O O6 0.496393 0.943330 0.797427
O O7 0.804396 0.556539 0.754213
O O8 0.719682 0.896242 0.964642
O O9 0.750392 0.600435 0.356517
O O10 0.712731 0.568184 0.026449
O O11 0.867907 0.226705 0.149296
O O12 0.000000 0.500000 0.500000
O O13 0.796369 0.824811 0.298747
O O14 0.021438 0.837435 0.107132
#
# Coordination Sequence:
#
# PCOD9015422 Si02
#       7
#     2   2   2   2   2   2   1
#     4  11  23  39  65  97 127 163 211 263 318 377
#     4  10  21  42  71  88 129 165 218 266 312 373
#     4  10  21  42  62  91 131 163 211 262 311 376
#     4  12  26  42  65  96 129 171 215 264 316 382
#     4  10  22  44  64  98 122 169 214 262 320 374
#     4   9  19  41  65  95 123 168 208 259 319 371
#     4   8  20  34  64  88 130 166 202 246 322 372
#
# _framework density 23.363223000000001
#
# number of rings (size 3 to 8) (size 9 to 14) (size 15 to 20)
#    0.923    0.923    1.538    2.769    0.000    4.308 
#    2.769    2.308    0.000    0.000    0.000    0.000 
#    0.000    0.000    0.000    0.000    0.000    0.000 
#
# Total GULP energy -72389.091800 kJ/mol
# GULP energy per Si atom -5568.391677 kJ/mol
# Density = 2.331005 g / cm^3
# Si number density = 23.363223 Si / 1000 Ang^3
#
#
#
# Elastic Constant Matrix: (Units=GPa)
#
#
# Indices 1 2 3 4 5 6 
#
# 1 58.5785 5.0483 30.9654 5.2175 6.0706 1.7377
# 2 5.0483 94.0805 2.8486 0.9200 7.2344 7.1143
# 3 30.9654 2.8486 144.9301 1.3913 -4.8370 -1.7691
# 4 5.2175 0.9200 1.3913 32.0417 -1.1635 3.8845
# 5 6.0706 7.2344 -4.8370 -1.1635 29.6369 0.1184
# 6 1.7377 7.1143 -1.7691 3.8845 0.1184 20.0963
#
#
#
# Elastic Compliance Matrix: (Units=1/GPa)
#
#
# Indices 1 2 3 4 5 6 
#
# 1 0.020302 -0.000444 -0.004479 -0.003111 -0.004898 -0.001363
# 2 -0.000444 0.011162 -0.000263 0.000145 -0.002655 -0.003949
# 3 -0.004479 -0.000263 0.007949 0.000341 0.002288 0.001101
# 4 -0.003111 0.000145 0.000341 0.032501 0.001958 -0.006046
# 5 -0.004898 -0.002655 0.002288 0.001958 0.035840 0.000975
# 6 -0.001363 -0.003949 0.001101 -0.006046 0.000975 0.052536
#
#
# Mechanical properties :
#
#
# Convention : Reuss Voigt Hill
#
# Bulk Modulus (GPa) = 34.43326 41.70151 38.06738
# Shear Modulus (GPa) = 27.72512 33.60342 30.66427
#
# Velocity S-wave (km/s) = 3.44859 3.79661 3.62678
# Velocity P-wave (km/s) = 5.53419 6.09155 5.81955
#
# Compressibility (1/GPa) = 0.02904169
#
# Stress axis : x y z
#
# Youngs Moduli (GPa) = 49.25556 89.58704 125.80860
#
# Poissons Ratio (x) = 0.03975 0.56353
# Poissons Ratio (y) = 0.02185 0.03306
# Poissons Ratio (z) = 0.22063 0.02354
#
# Static dielectric constant tensor:
#      x y z
#    x 1.895440 -0.060820 -0.017820 
#    y -0.060820 1.879540 -0.030390 
#    z -0.017820 -0.030390 1.897800 
# 
# From -- ./inp_files/240557.got.cif
#   From: 2010.05.17/outbox.cif.g08.bks.cpg/sg2_121_cif.got.tgz:240557.got - 2010.06.03 11:33:40.
