data_PCOD9015083
_publ_section_title
;
Structure prediction by ZEFSAII (Michael W. Deem and Ramdas Pophale) SiO2 
 PCOD9015083
Probable space group: P -1
;
_chemical_formula_sum "Si O2"
_cell_formula_units_Z 12
_cell_length_a 9.617911
_cell_length_b 8.776893
_cell_length_c 11.832374
_cell_angle_alpha 102.971124
_cell_angle_beta 38.773520
_cell_angle_gamma 81.619977
_cell_volume 518.578966
_symmetry_space_group_name_H-M "P -1"
_symmetry_group_IT_number 2
_symmetry_cell_setting 'triclinic'
loop_
_space_group_symop_operation_xyz
x,y,z
-x,-y,-z
loop_
_atom_site_type_symbol
_atom_site_label
_atom_site_fract_x
_atom_site_fract_y
_atom_site_fract_z
Si Si1 0.954300 0.656839 0.639805
Si Si2 0.766895 0.502461 0.329538
Si Si3 0.014281 0.825946 0.030453
Si Si4 0.440620 0.077370 0.411806
Si Si5 0.393437 0.865867 0.933544
Si Si6 0.077509 0.924747 0.564449
O O1 0.640218 0.781361 0.845391
O O2 0.000000 0.500000 0.500000
O O3 0.050950 0.587782 0.692133
O O4 0.153965 0.716446 0.476835
O O5 0.500000 0.500000 0.500000
O O6 0.680978 0.715869 0.428789
O O7 0.924838 0.355203 0.105961
O O8 0.713357 0.933344 0.274656
O O9 0.252994 0.761403 0.955565
O O10 0.000000 0.000000 0.000000
O O11 0.512948 0.083718 0.232734
O O12 0.261635 0.991311 0.502964
O O13 0.152986 0.014027 0.186768
O O14 0.000000 0.000000 0.500000
#
# Coordination Sequence:
#
# PCOD9015083 Si02
#       6
#     2   2   2   2   2   2
#     4  12  23  44  73 101 140 185 232 288 351 420
#     4  12  22  43  75 104 140 189 233 286 352 418
#     4  10  21  41  71 102 136 185 227 286 346 412
#     4  11  24  47  70 105 143 180 238 289 347 416
#     4  11  23  45  71  99 137 185 234 278 358 411
#     4  12  26  43  70 107 139 182 235 293 347 416
#
# _framework density 23.140160999999999
#
# number of rings (size 3 to 8) (size 9 to 14) (size 15 to 20)
#    0.000    0.667    6.667    2.500    2.333    0.667 
#    3.000    2.500    0.000    0.000    0.000    0.000 
#    0.000    0.000    0.000    0.000    0.000    0.000 
#
# Total GULP energy -66867.198202 kJ/mol
# GULP energy per Si atom -5572.266517 kJ/mol
# Density = 2.308749 g / cm^3
# Si number density = 23.140161 Si / 1000 Ang^3
#
#
#
# Elastic Constant Matrix: (Units=GPa)
#
#
# Indices 1 2 3 4 5 6 
#
# 1 227.0968 78.0608 51.7138 -0.6790 -21.3536 33.3594
# 2 78.0608 147.0278 60.1394 1.3294 -14.7037 39.7266
# 3 51.7138 60.1394 89.2683 8.3512 -19.7447 21.9360
# 4 -0.6790 1.3294 8.3512 19.3469 7.8563 2.2385
# 5 -21.3536 -14.7037 -19.7447 7.8563 55.7551 -5.7197
# 6 33.3594 39.7266 21.9360 2.2385 -5.7197 54.2983
#
#
#
# Elastic Compliance Matrix: (Units=1/GPa)
#
#
# Indices 1 2 3 4 5 6 
#
# 1 0.005713 -0.001944 -0.001536 0.000805 0.000873 -0.001408
# 2 -0.001944 0.011448 -0.005711 0.002441 -0.000609 -0.005039
# 3 -0.001536 -0.005711 0.018434 -0.009770 0.005675 -0.001325
# 4 0.000805 0.002441 -0.009770 0.060567 -0.011249 -0.002015
# 5 0.000873 -0.000609 0.005675 -0.011249 0.021742 0.000370
# 6 -0.001408 -0.005039 -0.001325 -0.002015 0.000370 0.023626
#
#
# Mechanical properties :
#
#
# Convention : Reuss Voigt Hill
#
# Bulk Modulus (GPa) = 58.09621 93.69121 75.89371
# Shear Modulus (GPa) = 30.18421 44.11198 37.14809
#
# Velocity S-wave (km/s) = 3.61558 4.37085 4.01103
# Velocity P-wave (km/s) = 6.52615 8.12705 7.37019
#
# Compressibility (1/GPa) = 0.01721283
#
# Stress axis : x y z
#
# Youngs Moduli (GPa) = 175.04422 87.34882 54.24789
#
# Poissons Ratio (x) = 0.16984 0.08331
# Poissons Ratio (y) = 0.34036 0.30981
# Poissons Ratio (z) = 0.26881 0.49885
#
# Static dielectric constant tensor:
#      x y z
#    x 1.760520 0.007660 -0.148460 
#    y 0.007660 2.088660 0.094970 
#    z -0.148460 0.094970 1.573630 
# 
# From -- ./inp_files/380843.got.cif
#   From: 2010.05.17/outbox.cif.g08.bks.cpg/sg2_191_cif.got.tgz:380843.got - 2010.06.03 11:33:40.
