data_PCOD9015402
_publ_section_title
;
Structure prediction by ZEFSAII (Michael W. Deem and Ramdas Pophale) SiO2 
 PCOD9015402
Probable space group: P -1
;
_chemical_formula_sum "Si O2"
_cell_formula_units_Z 16
_cell_length_a 9.838274
_cell_length_b 8.808035
_cell_length_c 13.063582
_cell_angle_alpha 125.202329
_cell_angle_beta 73.575787
_cell_angle_gamma 120.482533
_cell_volume 797.084112
_symmetry_space_group_name_H-M "P -1"
_symmetry_group_IT_number 2
_symmetry_cell_setting 'triclinic'
loop_
_space_group_symop_operation_xyz
x,y,z
-x,-y,-z
loop_
_atom_site_type_symbol
_atom_site_label
_atom_site_fract_x
_atom_site_fract_y
_atom_site_fract_z
Si Si1 0.047327 0.697107 0.263447
Si Si2 0.289194 0.470610 0.822759
Si Si3 0.648890 0.328504 0.890725
Si Si4 0.735635 0.835196 0.638676
Si Si5 0.499387 0.739596 0.310282
Si Si6 0.430350 0.788641 0.561544
Si Si7 0.891194 0.527012 0.446476
Si Si8 0.519743 0.896896 0.851336
O O1 0.894586 0.617798 0.193799
O O2 0.989966 0.604896 0.351928
O O3 0.177309 0.637804 0.164281
O O4 0.137837 0.944937 0.344680
O O5 0.345668 0.294229 0.720462
O O6 0.382816 0.664662 0.802244
O O7 0.335639 0.551205 0.960386
O O8 0.582861 0.382806 0.822697
O O9 0.540351 0.082739 0.841091
O O10 0.574451 0.767741 0.580108
O O11 0.817393 0.684259 0.553708
O O12 0.675632 0.866550 0.776449
O O13 0.406040 0.677965 0.412836
O O14 0.528079 0.973873 0.377222
O O15 0.266466 0.686211 0.616389
O O16 0.000000 0.500000 0.500000
O O17 0.500000 0.000000 0.000000
#
# Coordination Sequence:
#
# PCOD9015402 Si02
#       8
#     2   2   2   2   2   2   2   2
#     4  11  23  39  60  89 127 161 202 245 311 368
#     4  11  22  37  65  92 119 161 208 252 305 355
#     4  10  21  42  62  87 124 162 205 253 300 367
#     4  11  22  43  62  87 128 165 202 245 310 374
#     4  11  22  38  65  90 121 157 209 253 303 358
#     4  11  23  40  65  87 126 163 203 249 309 366
#     4  12  26  38  63  93 126 160 205 257 306 360
#     4   9  19  37  62  87 115 157 206 247 293 360
#
# _framework density 20.073163999999998
#
# number of rings (size 3 to 8) (size 9 to 14) (size 15 to 20)
#    0.000    1.250    2.500    4.500    3.500    0.000 
#    0.000    0.000    0.000    0.750    0.000    0.000 
#    0.000    0.000    0.000    0.000    0.000    0.000 
#
# Total GULP energy -89222.302755 kJ/mol
# GULP energy per Si atom -5576.393922 kJ/mol
# Density = 2.002748 g / cm^3
# Si number density = 20.073164 Si / 1000 Ang^3
#
#
#
# Elastic Constant Matrix: (Units=GPa)
#
#
# Indices 1 2 3 4 5 6 
#
# 1 129.5868 47.2881 31.5964 -3.4564 2.7608 -0.5562
# 2 47.2881 73.8478 34.7521 -23.5696 1.2646 18.9760
# 3 31.5964 34.7521 90.7943 -32.5862 5.6302 -8.6919
# 4 -3.4564 -23.5696 -32.5862 28.9785 3.7557 -6.2811
# 5 2.7608 1.2646 5.6302 3.7557 33.3249 5.9907
# 6 -0.5562 18.9760 -8.6919 -6.2811 5.9907 28.0609
#
#
#
# Elastic Compliance Matrix: (Units=1/GPa)
#
#
# Indices 1 2 3 4 5 6 
#
# 1 0.012070 -0.010220 -0.003666 -0.010281 0.000518 0.003603
# 2 -0.010220 0.033183 -0.007096 0.012393 0.003490 -0.022811
# 3 -0.003666 -0.007096 0.031215 0.036106 -0.013322 0.025321
# 4 -0.010281 0.012393 0.036106 0.092753 -0.021184 0.027884
# 5 0.000518 0.003490 -0.013322 -0.021184 0.037943 -0.019319
# 6 0.003603 -0.022811 0.025321 0.027884 -0.019319 0.069343
#
#
# Mechanical properties :
#
#
# Convention : Reuss Voigt Hill
#
# Bulk Modulus (GPa) = 28.98321 57.94467 43.46394
# Shear Modulus (GPa) = 15.15275 30.11236 22.63255
#
# Velocity S-wave (km/s) = 2.75048 3.87735 3.36147
# Velocity P-wave (km/s) = 4.95550 6.99818 6.06348
#
# Compressibility (1/GPa) = 0.03450273
#
# Stress axis : x y z
#
# Youngs Moduli (GPa) = 82.84749 30.13608 32.03637
#
# Poissons Ratio (x) = 0.30800 0.11744
# Poissons Ratio (y) = 0.84673 0.22735
# Poissons Ratio (z) = 0.30369 0.21386
#
# Static dielectric constant tensor:
#      x y z
#    x 1.675000 -0.019080 0.016610 
#    y -0.019080 1.721820 0.003050 
#    z 0.016610 0.003050 1.774560 
# 
# From -- ./inp_files/217641.got.cif
#   From: 2010.05.17/outbox.cif.g08.bks.cpg/sg2_109_cif.got.tgz:217641.got - 2010.06.03 11:33:40.
