data_PCOD9015877
_publ_section_title
;
Structure prediction by ZEFSAII (Michael W. Deem and Ramdas Pophale) SiO2 
 PCOD9015877
Probable space group: P -1
;
_chemical_formula_sum "Si O2"
_cell_formula_units_Z 16
_cell_length_a 6.330916
_cell_length_b 8.794484
_cell_length_c 17.466987
_cell_angle_alpha 131.897020
_cell_angle_beta 71.942302
_cell_angle_gamma 105.471616
_cell_volume 685.772110
_symmetry_space_group_name_H-M "P -1"
_symmetry_group_IT_number 2
_symmetry_cell_setting 'triclinic'
loop_
_space_group_symop_operation_xyz
x,y,z
-x,-y,-z
loop_
_atom_site_type_symbol
_atom_site_label
_atom_site_fract_x
_atom_site_fract_y
_atom_site_fract_z
Si Si1 0.827013 0.235758 0.663437
Si Si2 0.696422 0.807254 0.482682
Si Si3 0.110238 0.288729 0.409949
Si Si4 0.296438 0.561931 0.863618
Si Si5 0.341771 0.152534 0.026950
Si Si6 0.004522 0.098807 0.928096
Si Si7 0.590527 0.530479 0.687635
Si Si8 0.972841 0.858920 0.239989
O O1 0.748763 0.438382 0.702296
O O2 0.080111 0.209465 0.598599
O O3 0.840961 0.216225 0.747165
O O4 0.673115 0.046877 0.580019
O O5 0.753179 0.731299 0.535011
O O6 0.502031 0.658580 0.418696
O O7 0.274195 0.304613 0.324439
O O8 0.000000 0.500000 0.500000
O O9 0.939999 0.086811 0.351436
O O10 0.508323 0.634996 0.916658
O O11 0.384443 0.608740 0.783552
O O12 0.223814 0.322011 0.794831
O O13 0.100587 0.700159 0.956900
O O14 0.125502 0.104790 0.089249
O O15 0.253356 0.104738 0.935823
O O16 0.500000 0.000000 0.000000
O O17 0.974917 0.114489 0.846462
#
# Coordination Sequence:
#
# PCOD9015877 Si02
#       8
#     2   2   2   2   2   2   2   2
#     4  10  22  40  66  93 139 168 229 286 344 405
#     4  10  21  42  65  95 131 175 226 286 349 405
#     4  11  24  44  70  98 138 177 229 292 345 406
#     4  11  24  40  68 101 138 179 235 269 340 411
#     4   9  21  44  69 101 131 177 226 280 338 395
#     4  10  22  46  72  95 147 177 223 285 336 402
#     4  12  23  40  68  99 128 184 226 279 342 411
#     4  11  24  45  65 102 136 188 221 281 349 402
#
# _framework density 23.331364000000001
#
# number of rings (size 3 to 8) (size 9 to 14) (size 15 to 20)
#    0.000    1.500    2.500    1.875    1.750    1.500 
#   13.500    0.000    0.000    0.000    0.000    0.000 
#    0.000    0.000    0.000    0.000    0.000    0.000 
#
# Total GULP energy -89368.711955 kJ/mol
# GULP energy per Si atom -5585.544497 kJ/mol
# Density = 2.327826 g / cm^3
# Si number density = 23.331364 Si / 1000 Ang^3
#
#
#
# Elastic Constant Matrix: (Units=GPa)
#
#
# Indices 1 2 3 4 5 6 
#
# 1 71.4123 33.8411 47.7735 12.3563 31.9838 0.9192
# 2 33.8411 108.8154 52.2491 1.4799 15.8540 -9.6163
# 3 47.7735 52.2491 104.3221 -1.8949 23.4697 -12.1088
# 4 12.3563 1.4799 -1.8949 51.2706 5.8698 20.2999
# 5 31.9838 15.8540 23.4697 5.8698 39.9632 5.2810
# 6 0.9192 -9.6163 -12.1088 20.2999 5.2810 40.1032
#
#
#
# Elastic Compliance Matrix: (Units=1/GPa)
#
#
# Indices 1 2 3 4 5 6 
#
# 1 0.029331 -0.002441 -0.008339 -0.005948 -0.016929 0.001465
# 2 -0.002441 0.012514 -0.004861 -0.000703 -0.000315 0.001986
# 3 -0.008339 -0.004861 0.016705 0.001595 -0.001907 0.003513
# 4 -0.005948 -0.000703 0.001595 0.025906 0.002006 -0.012928
# 5 -0.016929 -0.000315 -0.001907 0.002006 0.040394 -0.006598
# 6 0.001465 0.001986 0.003513 -0.012928 -0.006598 0.033852
#
#
# Mechanical properties :
#
#
# Convention : Reuss Voigt Hill
#
# Bulk Modulus (GPa) = 36.67314 61.36414 49.01864
# Shear Modulus (GPa) = 25.11647 36.31314 30.71480
#
# Velocity S-wave (km/s) = 3.28458 3.94941 3.63224
# Velocity P-wave (km/s) = 5.48973 6.86698 6.21661
#
# Compressibility (1/GPa) = 0.02726791
#
# Stress axis : x y z
#
# Youngs Moduli (GPa) = 34.09405 79.90943 59.86331
#
# Poissons Ratio (x) = 0.19505 0.49919
# Poissons Ratio (y) = 0.08322 0.29100
# Poissons Ratio (z) = 0.28430 0.38845
#
# Static dielectric constant tensor:
#      x y z
#    x 1.919800 0.015380 -0.017110 
#    y 0.015380 1.884280 0.032060 
#    z -0.017110 0.032060 1.945510 
# 
# From -- ./inp_files/548405.got.cif
#   From: 2010.05.17/outbox.cif.g08.bks.cpg/sg2_275_cif.got.tgz:548405.got - 2010.06.03 11:33:40.
