data_PCOD9015570
_publ_section_title
;
Structure prediction by ZEFSAII (Michael W. Deem and Ramdas Pophale) SiO2 
 PCOD9015570
Probable space group: P -1
;
_chemical_formula_sum "Si O2"
_cell_formula_units_Z 16
_cell_length_a 6.552502
_cell_length_b 11.106600
_cell_length_c 10.799694
_cell_angle_alpha 91.529473
_cell_angle_beta 106.246785
_cell_angle_gamma 68.219971
_cell_volume 698.080578
_symmetry_space_group_name_H-M "P -1"
_symmetry_group_IT_number 2
_symmetry_cell_setting 'triclinic'
loop_
_space_group_symop_operation_xyz
x,y,z
-x,-y,-z
loop_
_atom_site_type_symbol
_atom_site_label
_atom_site_fract_x
_atom_site_fract_y
_atom_site_fract_z
Si Si1 0.262915 0.391395 0.670947
Si Si2 0.232377 0.724567 0.184700
Si Si3 0.929093 0.127481 0.074339
Si Si4 0.940368 0.970721 0.284591
Si Si5 0.064156 0.498256 0.155319
Si Si6 0.204904 0.227257 0.287719
Si Si7 0.313494 0.890791 0.521436
Si Si8 0.875815 0.333572 0.455386
O O1 0.520095 0.287691 0.724749
O O2 0.266636 0.513098 0.591535
O O3 0.157176 0.445432 0.789626
O O4 0.084261 0.336940 0.576836
O O5 0.205244 0.589952 0.197928
O O6 0.017485 0.836606 0.218517
O O7 0.213658 0.756297 0.035949
O O8 0.151892 0.147036 0.165838
O O9 0.817890 0.089206 0.174091
O O10 0.000000 0.000000 0.000000
O O11 0.189248 0.961815 0.378093
O O12 0.793812 0.003294 0.384756
O O13 0.213005 0.355592 0.227475
O O14 0.000000 0.500000 0.000000
O O15 0.419390 0.161281 0.410835
O O16 0.983672 0.276196 0.339997
O O17 0.240794 0.764051 0.518375
#
# Coordination Sequence:
#
# PCOD9015570 Si02
#       8
#     2   2   2   2   2   2   2   2
#     4  10  23  39  67  94 123 171 195 255 328 357
#     4  11  22  44  63  89 131 165 205 254 309 367
#     4  10  22  43  60  86 130 164 210 255 291 374
#     4  10  23  42  61  92 125 161 209 260 297 371
#     4  11  23  40  63  97 127 156 211 255 297 386
#     4  11  22  41  67  92 123 167 203 258 320 355
#     4  11  22  40  67  92 124 162 205 264 313 358
#     4  10  21  42  63  96 129 150 215 260 301 386
#
# _framework density 22.919989999999999
#
# number of rings (size 3 to 8) (size 9 to 14) (size 15 to 20)
#    0.000    1.500    2.500    2.250    0.000    2.000 
#   13.500    6.250    0.000    0.000    0.000    0.000 
#    0.000    0.000    0.000    0.000    0.000    0.000 
#
# Total GULP energy -89353.988802 kJ/mol
# GULP energy per Si atom -5584.624300 kJ/mol
# Density = 2.286782 g / cm^3
# Si number density = 22.919990 Si / 1000 Ang^3
#
#
#
# Elastic Constant Matrix: (Units=GPa)
#
#
# Indices 1 2 3 4 5 6 
#
# 1 35.0954 21.3571 9.0633 -3.7415 7.0637 11.3603
# 2 21.3571 69.0524 17.1988 8.5768 -1.8263 14.8756
# 3 9.0633 17.1988 88.6074 -3.0810 -12.9838 9.1105
# 4 -3.7415 8.5768 -3.0810 43.8532 1.3108 1.4340
# 5 7.0637 -1.8263 -12.9838 1.3108 29.5747 1.4533
# 6 11.3603 14.8756 9.1105 1.4340 1.4533 35.4808
#
#
#
# Elastic Compliance Matrix: (Units=1/GPa)
#
#
# Indices 1 2 3 4 5 6 
#
# 1 0.041823 -0.011719 -0.002742 0.006268 -0.011824 -0.007543
# 2 -0.011719 0.020212 -0.001941 -0.005061 0.003624 -0.004167
# 3 -0.002742 -0.001941 0.013108 0.000941 0.006345 -0.001972
# 4 0.006268 -0.005061 0.000941 0.024500 -0.002432 -0.001017
# 5 -0.011824 0.003624 0.006345 -0.002432 0.039798 -0.000895
# 6 -0.007543 -0.004167 -0.001972 -0.001017 -0.000895 0.032931
#
#
# Mechanical properties :
#
#
# Convention : Reuss Voigt Hill
#
# Bulk Modulus (GPa) = 23.61893 31.99929 27.80911
# Shear Modulus (GPa) = 22.80105 31.45748 27.12926
#
# Velocity S-wave (km/s) = 3.15748 3.70873 3.44415
# Velocity P-wave (km/s) = 4.86007 5.68605 5.28921
#
# Compressibility (1/GPa) = 0.04233893
#
# Stress axis : x y z
#
# Youngs Moduli (GPa) = 23.91044 49.47588 76.28801
#
# Poissons Ratio (x) = 0.57979 0.20921
# Poissons Ratio (y) = 0.28020 0.14807
# Poissons Ratio (z) = 0.06557 0.09603
#
# Static dielectric constant tensor:
#      x y z
#    x 1.857550 0.025840 -0.031330 
#    y 0.025840 1.914230 -0.010400 
#    z -0.031330 -0.010400 1.874360 
# 
# From -- ./inp_files/308891.got.cif
#   From: 2010.05.17/outbox.cif.g08.bks.cpg/sg2_155_cif.got.tgz:308891.got - 2010.06.03 11:33:40.
