data_PCOD9015537
_publ_section_title
;
Structure prediction by ZEFSAII (Michael W. Deem and Ramdas Pophale) SiO2 
 PCOD9015537
Probable space group: P -1
;
_chemical_formula_sum "Si O2"
_cell_formula_units_Z 16
_cell_length_a 8.361849
_cell_length_b 16.061930
_cell_length_c 13.673283
_cell_angle_alpha 146.408809
_cell_angle_beta 78.223793
_cell_angle_gamma 122.696843
_cell_volume 726.056218
_symmetry_space_group_name_H-M "P -1"
_symmetry_group_IT_number 2
_symmetry_cell_setting 'triclinic'
loop_
_space_group_symop_operation_xyz
x,y,z
-x,-y,-z
loop_
_atom_site_type_symbol
_atom_site_label
_atom_site_fract_x
_atom_site_fract_y
_atom_site_fract_z
Si Si1 0.334202 0.984254 0.366392
Si Si2 0.253323 0.959476 0.579445
Si Si3 0.600020 0.854657 0.784282
Si Si4 0.752331 0.763645 0.492141
Si Si5 0.113000 0.488020 0.562753
Si Si6 0.439872 0.295400 0.021907
Si Si7 0.744096 0.230676 0.011357
Si Si8 0.132261 0.970149 0.887609
O O1 0.262993 0.934003 0.438407
O O2 0.590511 0.074008 0.421451
O O3 0.291817 0.122639 0.463061
O O4 0.180770 0.787157 0.119869
O O5 0.994137 0.833592 0.515762
O O6 0.389858 0.197689 0.825639
O O7 0.708907 0.798110 0.642093
O O8 0.368975 0.638755 0.641646
O O9 0.616991 0.012709 0.867219
O O10 0.702006 0.977254 0.994305
O O11 0.561911 0.526355 0.251094
O O12 0.091840 0.583890 0.752796
O O13 0.000000 0.500000 0.500000
O O14 0.992797 0.252872 0.357274
O O15 0.583779 0.263132 0.030657
O O16 0.213029 0.130787 0.948565
O O17 0.000000 0.000000 0.000000
#
# Coordination Sequence:
#
# PCOD9015537 Si02
#       8
#     2   2   2   2   2   2   2   2
#     4   9  22  46  73 101 136 168 228 281 329 412
#     4  10  22  46  74  97 135 176 218 281 346 392
#     4  11  23  42  60  96 137 170 231 277 325 410
#     4  11  24  43  69  99 138 178 215 282 342 393
#     4  12  23  39  68  91 129 184 224 272 340 389
#     4  11  24  40  63  98 133 169 228 273 326 407
#     4  10  21  42  63  93 135 170 219 283 325 393
#     4  12  25  38  59  91 130 177 221 276 331 392
#
# _framework density 22.036860000000001
#
# number of rings (size 3 to 8) (size 9 to 14) (size 15 to 20)
#    0.000    1.250    2.500    3.000    3.500    1.500 
#    0.000    6.875    0.000    0.000    0.000    0.000 
#    0.000    0.000    0.000    0.000    0.000    0.000 
#
# Total GULP energy -89108.151432 kJ/mol
# GULP energy per Si atom -5569.259465 kJ/mol
# Density = 2.198670 g / cm^3
# Si number density = 22.036860 Si / 1000 Ang^3
#
#
#
# Elastic Constant Matrix: (Units=GPa)
#
#
# Indices 1 2 3 4 5 6 
#
# 1 85.9040 37.7684 40.8890 -1.0283 -9.5307 5.1175
# 2 37.7684 84.6819 59.3442 -35.3152 7.3277 14.0912
# 3 40.8890 59.3442 220.9868 -11.1131 -30.2863 -28.2388
# 4 -1.0283 -35.3152 -11.1131 51.4948 -11.4635 -10.3232
# 5 -9.5307 7.3277 -30.2863 -11.4635 50.2161 21.7596
# 6 5.1175 14.0912 -28.2388 -10.3232 21.7596 72.0651
#
#
#
# Elastic Compliance Matrix: (Units=1/GPa)
#
#
# Indices 1 2 3 4 5 6 
#
# 1 0.016436 -0.009465 -0.000488 -0.005770 0.003490 -0.001388
# 2 -0.009465 0.027801 -0.005949 0.015935 -0.004278 -0.003521
# 3 -0.000488 -0.005949 0.006977 -0.001259 0.003533 0.002685
# 4 -0.005770 0.015935 -0.001259 0.030627 0.002643 0.000390
# 5 0.003490 -0.004278 0.003533 0.002643 0.026365 -0.005609
# 6 -0.001388 -0.003521 0.002685 0.000390 -0.005609 0.017465
#
#
# Mechanical properties :
#
#
# Convention : Reuss Voigt Hill
#
# Bulk Modulus (GPa) = 51.52566 74.17509 62.85038
# Shear Modulus (GPa) = 30.49769 51.65993 41.07881
#
# Velocity S-wave (km/s) = 3.72417 4.84700 4.32220
# Velocity P-wave (km/s) = 6.47495 8.06580 7.31376
#
# Compressibility (1/GPa) = 0.01940781
#
# Stress axis : x y z
#
# Youngs Moduli (GPa) = 60.84271 35.96967 143.32709
#
# Poissons Ratio (x) = 0.34047 0.07000
# Poissons Ratio (y) = 0.57590 0.85269
# Poissons Ratio (z) = 0.02972 0.21399
#
# Static dielectric constant tensor:
#      x y z
#    x 1.963580 0.096690 0.119960 
#    y 0.096690 1.804750 -0.003930 
#    z 0.119960 -0.003930 1.850520 
# 
# From -- ./inp_files/507094.got.cif
#   From: 2010.05.17/outbox.cif.g08.bks.cpg/sg2_254_cif.got.tgz:507094.got - 2010.06.03 11:33:40.
