data_PCOD9015286
_publ_section_title
;
Structure prediction by ZEFSAII (Michael W. Deem and Ramdas Pophale) SiO2 
 PCOD9015286
Probable space group: P -1
;
_chemical_formula_sum "Si O2"
_cell_formula_units_Z 14
_cell_length_a 9.243657
_cell_length_b 7.639008
_cell_length_c 6.910417
_cell_angle_alpha 95.862822
_cell_angle_beta 80.111442
_cell_angle_gamma 88.705230
_cell_volume 477.795882
_symmetry_space_group_name_H-M "P -1"
_symmetry_group_IT_number 2
_symmetry_cell_setting 'triclinic'
loop_
_space_group_symop_operation_xyz
x,y,z
-x,-y,-z
loop_
_atom_site_type_symbol
_atom_site_label
_atom_site_fract_x
_atom_site_fract_y
_atom_site_fract_z
Si Si1 0.359658 0.037685 0.678362
Si Si2 0.769433 0.773849 0.860662
Si Si3 0.776478 0.110861 0.648027
Si Si4 0.644803 0.540537 0.354714
Si Si5 0.924620 0.396227 0.249887
Si Si6 0.976426 0.779589 0.134486
Si Si7 0.428836 0.748319 0.960022
O O1 0.344035 0.251771 0.665854
O O2 0.236567 0.927931 0.579484
O O3 0.500000 0.000000 0.500000
O O4 0.161476 0.139509 0.947914
O O5 0.605756 0.715647 0.926878
O O6 0.905062 0.645561 0.742881
O O7 0.757066 0.919173 0.719122
O O8 0.938054 0.157659 0.692601
O O9 0.403533 0.924782 0.850899
O O10 0.653074 0.225533 0.810901
O O11 0.500000 0.500000 0.500000
O O12 0.784608 0.439537 0.420579
O O13 0.631122 0.420930 0.153382
O O14 0.924423 0.586938 0.172200
O O15 0.906737 0.250702 0.069854
#
# Coordination Sequence:
#
# PCOD9015286 Si02
#       7
#     2   2   2   2   2   2   2
#     4  12  28  49  73 123 160 193 279 326 388 478
#     4  10  21  41  75 112 151 199 260 323 391 467
#     4  12  24  48  81 113 156 215 261 324 400 470
#     4  12  25  50  79 108 162 207 261 333 394 467
#     4   9  22  45  70 115 155 194 270 325 385 481
#     4   9  21  43  73 111 152 196 266 314 394 468
#     4  12  26  50  82 115 159 215 258 334 394 466
#
# _framework density 29.301216
#
# number of rings (size 3 to 8) (size 9 to 14) (size 15 to 20)
#    0.857    0.286    4.286    0.857    2.000    1.143 
#    2.571    5.714    3.143    0.857    0.000    0.000 
#    0.000    0.000    0.000    0.000    0.000    0.000 
#
# Total GULP energy -78232.161858 kJ/mol
# GULP energy per Si atom -5588.011561 kJ/mol
# Density = 2.923453 g / cm^3
# Si number density = 29.301216 Si / 1000 Ang^3
#
#
#
# Elastic Constant Matrix: (Units=GPa)
#
#
# Indices 1 2 3 4 5 6 
#
# 1 217.7947 31.8003 78.7082 46.7152 -2.9818 8.7763
# 2 31.8003 157.7845 56.6054 27.9023 -4.8406 -5.6334
# 3 78.7082 56.6054 125.6591 16.7808 -2.6945 -0.0006
# 4 46.7152 27.9023 16.7808 52.7216 -5.0155 -3.7813
# 5 -2.9818 -4.8406 -2.6945 -5.0155 89.5635 17.2739
# 6 8.7763 -5.6334 -0.0006 -3.7813 17.2739 36.0507
#
#
#
# Elastic Compliance Matrix: (Units=1/GPa)
#
#
# Indices 1 2 3 4 5 6 
#
# 1 0.007332 0.001003 -0.004262 -0.005814 0.000304 -0.002384
# 2 0.001003 0.008227 -0.003802 -0.003987 0.000022 0.000612
# 3 -0.004262 -0.003802 0.012074 0.001992 0.000002 0.000652
# 4 -0.005814 -0.003987 0.001992 0.025875 0.000467 0.003283
# 5 0.000304 0.000022 0.000002 0.000467 0.012348 -0.005938
# 6 -0.002384 0.000612 0.000652 0.003283 -0.005938 0.031604
#
#
# Mechanical properties :
#
#
# Convention : Reuss Voigt Hill
#
# Bulk Modulus (GPa) = 74.00092 92.82956 83.41524
# Shear Modulus (GPa) = 43.07192 57.94212 50.50702
#
# Velocity S-wave (km/s) = 3.83818 4.45169 4.15627
# Velocity P-wave (km/s) = 6.70464 7.62714 7.18072
#
# Compressibility (1/GPa) = 0.01351335
#
# Stress axis : x y z
#
# Youngs Moduli (GPa) = 136.38221 121.55156 82.82259
#
# Poissons Ratio (x) = -0.12197 0.35298
# Poissons Ratio (y) = -0.13685 0.31486
# Poissons Ratio (z) = 0.58124 0.46209
#
# Static dielectric constant tensor:
#      x y z
#    x 2.453150 0.051860 -0.081770 
#    y 0.051860 2.223490 -0.089950 
#    z -0.081770 -0.089950 2.938610 
# 
# From -- ./inp_files/418007.got.cif
#   From: 2010.05.17/outbox.cif.g08.bks.cpg/sg2_210_cif.got.tgz:418007.got - 2010.06.03 11:33:40.
