data_PCOD9015271
_publ_section_title
;
Structure prediction by ZEFSAII (Michael W. Deem and Ramdas Pophale) SiO2 
 PCOD9015271
Probable space group: P -1
;
_chemical_formula_sum "Si O2"
_cell_formula_units_Z 14
_cell_length_a 9.655607
_cell_length_b 12.395843
_cell_length_c 8.091811
_cell_angle_alpha 122.024662
_cell_angle_beta 45.755733
_cell_angle_gamma 102.518831
_cell_volume 569.197024
_symmetry_space_group_name_H-M "P -1"
_symmetry_group_IT_number 2
_symmetry_cell_setting 'triclinic'
loop_
_space_group_symop_operation_xyz
x,y,z
-x,-y,-z
loop_
_atom_site_type_symbol
_atom_site_label
_atom_site_fract_x
_atom_site_fract_y
_atom_site_fract_z
Si Si1 0.689859 0.131640 0.354879
Si Si2 0.393627 0.381169 0.971772
Si Si3 0.792556 0.763810 0.467499
Si Si4 0.521950 0.315110 0.164099
Si Si5 0.082142 0.103578 0.826191
Si Si6 0.265433 0.957368 0.109915
Si Si7 0.864137 0.452909 0.937216
O O1 0.536737 0.257639 0.657965
O O2 0.907665 0.159620 0.151978
O O3 0.629460 0.083932 0.189193
O O4 0.741315 0.004517 0.326175
O O5 0.386188 0.335648 0.129751
O O6 0.198434 0.447536 0.081967
O O7 0.500000 0.500000 0.000000
O O8 0.628463 0.680920 0.555852
O O9 0.710517 0.906379 0.732987
O O10 0.000000 0.500000 0.000000
O O11 0.987261 0.687451 0.344588
O O12 0.662873 0.167508 0.932839
O O13 0.147617 0.210022 0.747059
O O14 0.663702 0.414166 0.134866
O O15 0.964612 0.031030 0.738184
#
# Coordination Sequence:
#
# PCOD9015271 Si02
#       7
#     2   2   2   2   2   2   2
#     4   9  20  39  72 108 147 185 246 301 351 429
#     4  10  24  46  72 103 147 194 243 299 354 431
#     4  12  24  44  73 105 149 187 242 294 378 431
#     4  11  25  47  73 111 145 187 242 305 366 433
#     4   9  20  39  71 109 138 191 235 304 364 425
#     4  10  21  41  74 108 142 186 236 304 366 427
#     4  11  27  49  74 103 140 203 245 294 355 432
#
# _framework density 24.596053999999999
#
# number of rings (size 3 to 8) (size 9 to 14) (size 15 to 20)
#    0.857    0.857    1.429    1.714    6.000    1.143 
#   10.286    1.429    0.000    0.000    0.000    0.000 
#    0.000    0.000    0.000    0.000    0.000    0.000 
#
# Total GULP energy -78242.570209 kJ/mol
# GULP energy per Si atom -5588.755015 kJ/mol
# Density = 2.454007 g / cm^3
# Si number density = 24.596054 Si / 1000 Ang^3
#
#
#
# Elastic Constant Matrix: (Units=GPa)
#
#
# Indices 1 2 3 4 5 6 
#
# 1 150.4195 78.5584 32.9221 13.6914 -5.9337 -26.2366
# 2 78.5584 138.7051 48.6311 1.2231 -7.8042 -29.8417
# 3 32.9221 48.6311 94.3442 22.9041 -8.5501 -11.2429
# 4 13.6914 1.2231 22.9041 38.2805 1.4717 -14.9901
# 5 -5.9337 -7.8042 -8.5501 1.4717 37.8092 11.8244
# 6 -26.2366 -29.8417 -11.2429 -14.9901 11.8244 63.0538
#
#
#
# Elastic Compliance Matrix: (Units=1/GPa)
#
#
# Indices 1 2 3 4 5 6 
#
# 1 0.009896 -0.005506 0.000301 -0.003280 0.000389 0.000713
# 2 -0.005506 0.013472 -0.006332 0.007317 -0.001347 0.004948
# 3 0.000301 -0.006332 0.016436 -0.011199 0.003938 -0.003342
# 4 -0.003280 0.007317 -0.011199 0.038043 -0.006244 0.010316
# 5 0.000389 -0.001347 0.003938 -0.006244 0.029488 -0.006788
# 6 0.000713 0.004948 -0.003342 0.010316 -0.006788 0.021627
#
#
# Mechanical properties :
#
#
# Convention : Reuss Voigt Hill
#
# Bulk Modulus (GPa) = 59.77035 78.18801 68.97918
# Shear Modulus (GPa) = 31.72334 42.71919 37.22126
#
# Velocity S-wave (km/s) = 3.59524 4.17205 3.89434
# Velocity P-wave (km/s) = 6.44886 7.42064 6.95175
#
# Compressibility (1/GPa) = 0.01673070
#
# Stress axis : x y z
#
# Youngs Moduli (GPa) = 101.05037 74.22583 60.84328
#
# Poissons Ratio (x) = 0.40871 -0.01834
# Poissons Ratio (y) = 0.55642 0.38525
# Poissons Ratio (z) = -0.03047 0.46999
#
# Static dielectric constant tensor:
#      x y z
#    x 1.993540 0.011330 -0.032970 
#    y 0.011330 1.958550 -0.022830 
#    z -0.032970 -0.022830 2.005250 
# 
# From -- ./inp_files/263315.got.cif
#   From: 2010.05.17/outbox.cif.g08.bks.cpg/sg2_132_cif.got.tgz:263315.got - 2010.06.03 11:33:40.
