data_PCOD9015349
_publ_section_title
;
Structure prediction by ZEFSAII (Michael W. Deem and Ramdas Pophale) SiO2 
 PCOD9015349
Probable space group: P -1
;
_chemical_formula_sum "Si O2"
_cell_formula_units_Z 16
_cell_length_a 8.211836
_cell_length_b 17.346305
_cell_length_c 8.411471
_cell_angle_alpha 119.264584
_cell_angle_beta 128.574308
_cell_angle_gamma 53.218896
_cell_volume 737.381386
_symmetry_space_group_name_H-M "P -1"
_symmetry_group_IT_number 2
_symmetry_cell_setting 'triclinic'
loop_
_space_group_symop_operation_xyz
x,y,z
-x,-y,-z
loop_
_atom_site_type_symbol
_atom_site_label
_atom_site_fract_x
_atom_site_fract_y
_atom_site_fract_z
Si Si1 0.034273 0.914047 0.060486
Si Si2 0.520275 0.088120 0.513898
Si Si3 0.764309 0.036963 0.290966
Si Si4 0.799022 0.449155 0.478346
Si Si5 0.924826 0.580281 0.895306
Si Si6 0.102503 0.248420 0.298764
Si Si7 0.514920 0.745992 0.698182
Si Si8 0.684870 0.388025 0.693980
O O1 0.272662 0.892154 0.271246
O O2 0.829870 0.958942 0.112132
O O3 0.030508 0.816971 0.890331
O O4 0.000000 0.000000 0.000000
O O5 0.578701 0.052692 0.330946
O O6 0.284210 0.184898 0.479871
O O7 0.500000 0.000000 0.500000
O O8 0.667984 0.144841 0.260577
O O9 0.000000 0.000000 0.500000
O O10 0.919871 0.519545 0.674065
O O11 0.753337 0.408739 0.579146
O O12 0.554211 0.518203 0.320873
O O13 0.944781 0.356150 0.369100
O O14 0.660417 0.664059 0.834983
O O15 0.000000 0.500000 0.000000
O O16 0.113045 0.623420 0.072905
O O17 0.270409 0.251243 0.263976
O O18 0.378951 0.702742 0.458088
#
# Coordination Sequence:
#
# PCOD9015349 Si02
#       8
#     2   2   2   2   2   2   2   2
#     4  11  23  42  62  91 129 171 216 262 323 386
#     4  10  21  42  61  88 124 165 213 266 317 375
#     4   9  22  41  64  90 130 169 212 265 319 373
#     4   9  20  38  60  87 121 159 199 261 312 373
#     4   9  19  39  60  92 124 154 210 258 312 384
#     4  11  24  40  58  91 128 159 215 262 320 378
#     4  10  22  38  62  91 123 162 208 259 319 371
#     4   9  19  38  62  86 119 157 207 253 315 379
#
# _framework density 21.698404
#
# number of rings (size 3 to 8) (size 9 to 14) (size 15 to 20)
#    0.000    2.250    1.250    0.750    1.750    8.000 
#    4.500    2.500    0.000    0.000    0.000    0.000 
#    0.000    0.000    0.000    0.000    0.000    0.000 
#
# Total GULP energy -89268.400925 kJ/mol
# GULP energy per Si atom -5579.275058 kJ/mol
# Density = 2.164902 g / cm^3
# Si number density = 21.698404 Si / 1000 Ang^3
#
#
#
# Elastic Constant Matrix: (Units=GPa)
#
#
# Indices 1 2 3 4 5 6 
#
# 1 46.9039 17.7781 29.8744 10.3513 11.6666 -1.0724
# 2 17.7781 118.3705 43.8003 -2.1901 6.7552 -21.4136
# 3 29.8744 43.8003 138.1666 2.0788 41.2631 -12.4723
# 4 10.3513 -2.1901 2.0788 27.9951 3.4373 0.4686
# 5 11.6666 6.7552 41.2631 3.4373 36.1409 1.1653
# 6 -1.0724 -21.4136 -12.4723 0.4686 1.1653 39.0416
#
#
#
# Elastic Compliance Matrix: (Units=1/GPa)
#
#
# Indices 1 2 3 4 5 6 
#
# 1 0.028021 -0.002996 -0.004426 -0.009934 -0.002420 -0.002096
# 2 -0.002996 0.010783 -0.002964 0.001845 0.002005 0.004803
# 3 -0.004426 -0.002964 0.013447 0.002034 -0.013658 0.002932
# 4 -0.009934 0.001845 0.002034 0.039772 -0.003276 0.001009
# 5 -0.002420 0.002005 -0.013658 -0.003276 0.044130 -0.004608
# 6 -0.002096 0.004803 0.002932 0.001009 -0.004608 0.029253
#
#
# Mechanical properties :
#
#
# Convention : Reuss Voigt Hill
#
# Bulk Modulus (GPa) = 31.76522 54.03852 42.90187
# Shear Modulus (GPa) = 25.42311 34.76806 30.09559
#
# Velocity S-wave (km/s) = 3.42666 4.00726 3.72828
# Velocity P-wave (km/s) = 5.50702 6.80950 6.19260
#
# Compressibility (1/GPa) = 0.03148097
#
# Stress axis : x y z
#
# Youngs Moduli (GPa) = 35.68733 92.73659 74.36449
#
# Poissons Ratio (x) = 0.27780 0.32915
# Poissons Ratio (y) = 0.10690 0.22038
# Poissons Ratio (z) = 0.15796 0.27483
#
# Static dielectric constant tensor:
#      x y z
#    x 1.836090 0.063650 0.005040 
#    y 0.063650 1.885090 -0.013100 
#    z 0.005040 -0.013100 1.800360 
# 
# From -- ./inp_files/218400.got.cif
#   From: 2010.05.17/outbox.cif.g08.bks.cpg/sg2_110_cif.got.tgz:218400.got - 2010.06.03 11:33:40.
