data_PCOD9015340
_publ_section_title
;
Structure prediction by ZEFSAII (Michael W. Deem and Ramdas Pophale) SiO2 
 PCOD9015340
Probable space group: P -1
;
_chemical_formula_sum "Si O2"
_cell_formula_units_Z 14
_cell_length_a 5.078520
_cell_length_b 24.399536
_cell_length_c 8.667127
_cell_angle_alpha 138.516136
_cell_angle_beta 112.581627
_cell_angle_gamma 56.449105
_cell_volume 592.007857
_symmetry_space_group_name_H-M "P -1"
_symmetry_group_IT_number 2
_symmetry_cell_setting 'triclinic'
loop_
_space_group_symop_operation_xyz
x,y,z
-x,-y,-z
loop_
_atom_site_type_symbol
_atom_site_label
_atom_site_fract_x
_atom_site_fract_y
_atom_site_fract_z
Si Si1 0.404924 0.248981 0.280031
Si Si2 0.326656 0.935821 0.856974
Si Si3 0.088375 0.362819 0.716623
Si Si4 0.078597 0.442500 0.200369
Si Si5 0.548251 0.798967 0.348552
Si Si6 0.511144 0.390101 0.448529
Si Si7 0.986424 0.272057 0.956717
O O1 0.526342 0.149395 0.170176
O O2 0.586827 0.284159 0.274357
O O3 0.365217 0.317366 0.558744
O O4 0.093826 0.268386 0.150238
O O5 0.349995 0.888055 0.594248
O O6 0.500000 0.000000 0.000000
O O7 0.000000 0.000000 0.000000
O O8 0.776949 0.405589 0.632876
O O9 0.147659 0.268809 0.624044
O O10 0.098618 0.427987 0.991568
O O11 0.822419 0.541438 0.403042
O O12 0.413753 0.417050 0.306090
O O13 0.961279 0.368031 0.083714
O O14 0.314774 0.749574 0.173346
O O15 0.714187 0.802848 0.233283
#
# Coordination Sequence:
#
# PCOD9015340 Si02
#       7
#     2   2   2   2   2   2   2
#     4  10  25  39  68  93 128 174 225 270 339 395
#     4  11  25  44  69  98 131 169 220 277 337 403
#     4  10  22  36  64  90 131 176 222 270 325 390
#     4   9  21  40  62  94 139 176 226 273 325 378
#     4  10  23  42  69  95 134 173 219 270 340 390
#     4  10  21  42  60  95 135 176 229 272 326 391
#     4  10  22  43  66  97 135 177 217 274 322 397
#
# _framework density 23.648334999999999
#
# number of rings (size 3 to 8) (size 9 to 14) (size 15 to 20)
#    0.000    2.000    0.000    1.286   18.000    0.571 
#    5.143    6.429    0.000    0.000    0.000    0.000 
#    0.000    0.000    0.000    0.000    0.000    0.000 
#
# Total GULP energy -78130.213459 kJ/mol
# GULP energy per Si atom -5580.729533 kJ/mol
# Density = 2.359451 g / cm^3
# Si number density = 23.648335 Si / 1000 Ang^3
#
#
#
# Elastic Constant Matrix: (Units=GPa)
#
#
# Indices 1 2 3 4 5 6 
#
# 1 136.8846 48.3635 55.8499 -4.7159 1.9995 0.0178
# 2 48.3635 115.7829 54.1372 -13.6625 8.4326 9.8877
# 3 55.8499 54.1372 161.7582 -17.7550 -3.1001 0.6847
# 4 -4.7159 -13.6625 -17.7550 49.2975 4.9401 8.9683
# 5 1.9995 8.4326 -3.1001 4.9401 46.6705 -3.6910
# 6 0.0178 9.8877 0.6847 8.9683 -3.6910 32.0426
#
#
#
# Elastic Compliance Matrix: (Units=1/GPa)
#
#
# Indices 1 2 3 4 5 6 
#
# 1 0.009283 -0.003053 -0.002300 -0.001045 0.000215 0.001303
# 2 -0.003053 0.012214 -0.002705 0.003327 -0.003002 -0.004986
# 3 -0.002300 -0.002705 0.008096 0.001802 0.000956 0.000269
# 4 -0.001045 0.003327 0.001802 0.023583 -0.003572 -0.008076
# 5 0.000215 -0.003002 0.000956 -0.003572 0.022760 0.004527
# 6 0.001303 -0.004986 0.000269 -0.008076 0.004527 0.035523
#
#
# Mechanical properties :
#
#
# Convention : Reuss Voigt Hill
#
# Bulk Modulus (GPa) = 74.19116 81.23630 77.71373
# Shear Modulus (GPa) = 37.86002 42.67378 40.26690
#
# Velocity S-wave (km/s) = 4.00554 4.25257 4.13090
# Velocity P-wave (km/s) = 7.26865 7.65107 7.46231
#
# Compressibility (1/GPa) = 0.01347870
#
# Stress axis : x y z
#
# Youngs Moduli (GPa) = 107.72550 81.87488 123.51365
#
# Poissons Ratio (x) = 0.24992 0.28402
# Poissons Ratio (y) = 0.32883 0.33411
# Poissons Ratio (z) = 0.24772 0.22148
#
# Static dielectric constant tensor:
#      x y z
#    x 1.959330 -0.014480 -0.056470 
#    y -0.014480 1.916740 -0.016940 
#    z -0.056470 -0.016940 1.970420 
# 
# From -- ./inp_files/91016.got.cif
#   From: 2010.05.17/outbox.cif.g08.bks.cpg/sg2_46_cif.got.tgz:91016.got - 2010.06.03 11:33:40.
