data_PCOD9015585
_publ_section_title
;
Structure prediction by ZEFSAII (Michael W. Deem and Ramdas Pophale) SiO2 
 PCOD9015585
Probable space group: P -1
;
_chemical_formula_sum "Si O2"
_cell_formula_units_Z 16
_cell_length_a 18.016718
_cell_length_b 5.493168
_cell_length_c 22.205465
_cell_angle_alpha 88.876213
_cell_angle_beta 161.091827
_cell_angle_gamma 81.825191
_cell_volume 618.198608
_symmetry_space_group_name_H-M "P -1"
_symmetry_group_IT_number 2
_symmetry_cell_setting 'triclinic'
loop_
_space_group_symop_operation_xyz
x,y,z
-x,-y,-z
loop_
_atom_site_type_symbol
_atom_site_label
_atom_site_fract_x
_atom_site_fract_y
_atom_site_fract_z
Si Si1 0.452605 0.027977 0.765089
Si Si2 0.607424 0.445605 0.932669
Si Si3 0.089387 0.705645 0.615025
Si Si4 0.905312 0.614587 0.623719
Si Si5 0.760877 0.438374 0.821181
Si Si6 0.144688 0.985507 0.198994
Si Si7 0.625169 0.002014 0.505867
Si Si8 0.812648 0.852853 0.240463
O O1 0.603788 0.690143 0.886356
O O2 0.615970 0.182418 0.906737
O O3 0.222243 0.123843 0.638985
O O4 0.292138 0.169874 0.579637
O O5 0.323257 0.591514 0.747287
O O6 0.834488 0.365382 0.157496
O O7 0.112842 0.432563 0.665725
O O8 0.119631 0.924175 0.680319
O O9 0.027114 0.293303 0.697049
O O10 0.738156 0.720372 0.555857
O O11 0.760620 0.316583 0.755660
O O12 0.491286 0.719919 0.625726
O O13 0.000000 0.500000 0.000000
O O14 0.862965 0.195015 0.951198
O O15 0.166322 0.006549 0.286308
O O16 0.367712 0.047917 0.343441
O O17 0.500000 0.000000 0.000000
#
# Coordination Sequence:
#
# PCOD9015585 Si02
#       8
#     2   2   2   2   2   2   2   2
#     4  11  26  45  67 101 137 178 241 294 355 423
#     4  12  25  46  71 101 137 184 238 297 358 416
#     4  11  22  42  71  99 130 181 244 303 348 422
#     4  11  27  45  66  99 144 186 232 295 362 415
#     4   9  18  37  67  98 134 164 216 275 330 401
#     4   9  19  39  70  99 128 175 222 272 332 409
#     4  10  21  42  63  99 132 176 224 271 340 412
#     4  11  22  40  69  98 137 185 239 290 351 417
#
# _framework density 25.88165
#
# number of rings (size 3 to 8) (size 9 to 14) (size 15 to 20)
#    0.000    1.500    1.250    3.750    1.750    2.000 
#   15.750    0.000    0.000    0.000    0.000    0.000 
#    0.000    0.000    0.000    0.000    0.000    0.000 
#
# Total GULP energy -89408.327174 kJ/mol
# GULP energy per Si atom -5588.020448 kJ/mol
# Density = 2.582274 g / cm^3
# Si number density = 25.881650 Si / 1000 Ang^3
#
#
#
# Elastic Constant Matrix: (Units=GPa)
#
#
# Indices 1 2 3 4 5 6 
#
# 1 55.3131 26.2408 43.0335 -2.7781 -1.9660 -22.5652
# 2 26.2408 168.0725 54.6403 33.3635 -11.5582 -10.6595
# 3 43.0335 54.6403 103.6329 15.0614 -5.9032 -3.0142
# 4 -2.7781 33.3635 15.0614 43.5986 -9.6099 -1.5056
# 5 -1.9660 -11.5582 -5.9032 -9.6099 29.7887 4.1949
# 6 -22.5652 -10.6595 -3.0142 -1.5056 4.1949 34.9256
#
#
#
# Elastic Compliance Matrix: (Units=1/GPa)
#
#
# Indices 1 2 3 4 5 6 
#
# 1 0.045504 -0.001484 -0.019023 0.011206 -0.001669 0.027989
# 2 -0.001484 0.008282 -0.002920 -0.005233 0.000707 0.001006
# 3 -0.019023 -0.002920 0.019673 -0.005902 0.001281 -0.011892
# 4 0.011206 -0.005233 -0.005902 0.031404 0.006873 0.005662
# 5 -0.001669 0.000707 0.001281 0.006873 0.036893 -0.004887
# 6 0.027989 0.001006 -0.011892 0.005662 -0.004887 0.046828
#
#
# Mechanical properties :
#
#
# Convention : Reuss Voigt Hill
#
# Bulk Modulus (GPa) = 37.58674 63.87195 50.72935
# Shear Modulus (GPa) = 20.46600 35.20283 27.83441
#
# Velocity S-wave (km/s) = 2.81508 3.69202 3.28296
# Velocity P-wave (km/s) = 5.01202 6.55032 5.83211
#
# Compressibility (1/GPa) = 0.02660513
#
# Stress axis : x y z
#
# Youngs Moduli (GPa) = 21.97597 120.74114 50.83070
#
# Poissons Ratio (x) = 0.17921 0.96693
# Poissons Ratio (y) = 0.03262 0.14844
# Poissons Ratio (z) = 0.41804 0.35261
#
# Static dielectric constant tensor:
#      x y z
#    x 2.175390 0.026280 -0.065180 
#    y 0.026280 2.070340 -0.029450 
#    z -0.065180 -0.029450 2.047080 
# 
# From -- ./inp_files/613396.got.cif
#   From: 2010.05.17/outbox.cif.g08.bks.cpg/sg2_307_cif.got.tgz:613396.got - 2010.06.03 11:33:40.
