data_PCOD9015298
_publ_section_title
;
Structure prediction by ZEFSAII (Michael W. Deem and Ramdas Pophale) SiO2 
 PCOD9015298
Probable space group: P -1
;
_chemical_formula_sum "Si O2"
_cell_formula_units_Z 15
_cell_length_a 11.192106
_cell_length_b 14.332934
_cell_length_c 12.528879
_cell_angle_alpha 139.364175
_cell_angle_beta 55.153031
_cell_angle_gamma 151.277456
_cell_volume 599.907294
_symmetry_space_group_name_H-M "P -1"
_symmetry_group_IT_number 2
_symmetry_cell_setting 'triclinic'
loop_
_space_group_symop_operation_xyz
x,y,z
-x,-y,-z
loop_
_atom_site_type_symbol
_atom_site_label
_atom_site_fract_x
_atom_site_fract_y
_atom_site_fract_z
Si Si1 0.609432 0.966978 0.336050
Si Si2 0.289408 0.251415 0.814900
Si Si3 0.947473 0.538725 0.900360
Si Si4 0.000000 0.500000 0.500000
Si Si5 0.421135 0.697031 0.605151
Si Si6 0.045946 0.757278 0.273781
Si Si7 0.746679 0.969167 0.888393
Si Si8 0.551319 0.516881 0.294616
O O1 0.735361 0.936369 0.307414
O O2 0.351351 0.687580 0.173709
O O3 0.500000 0.000000 0.500000
O O4 0.786990 0.194443 0.358555
O O5 0.407600 0.378020 0.748765
O O6 0.500000 0.500000 0.000000
O O7 0.006436 0.094261 0.830763
O O8 0.989950 0.404478 0.769574
O O9 0.991547 0.645440 0.086670
O O10 0.137473 0.778906 0.932306
O O11 0.828721 0.432162 0.429449
O O12 0.535623 0.813320 0.766180
O O13 0.406879 0.513944 0.438779
O O14 0.663276 0.947623 0.624742
O O15 0.836685 0.709215 0.359587
O O16 0.607851 0.761832 0.869248
#
# Coordination Sequence:
#
# PCOD9015298 Si02
#       8
#     2   2   2   1   2   2   2   2
#     4  12  26  45  69 104 142 186 243 290 364 426
#     4  12  25  47  72 102 150 194 233 307 360 421
#     4  10  21  45  66 101 140 182 236 297 354 421
#     4  12  26  48  70 104 148 186 226 308 360 434
#     4  11  23  45  72 109 143 184 243 293 371 426
#     4  10  21  41  76  96 138 190 234 294 362 419
#     4  11  25  45  71 110 139 190 248 291 362 435
#     4  12  24  43  74 108 141 193 240 297 355 436
#
# _framework density 25.00386
#
# number of rings (size 3 to 8) (size 9 to 14) (size 15 to 20)
#    0.000    0.800    5.333    2.400    0.000    2.133 
#    4.800    0.000    0.000    0.000    0.000    0.000 
#    0.000    0.000    0.000    0.000    0.000    0.000 
#
# Total GULP energy -83759.162228 kJ/mol
# GULP energy per Si atom -5583.944149 kJ/mol
# Density = 2.494695 g / cm^3
# Si number density = 25.003860 Si / 1000 Ang^3
#
#
#
# Elastic Constant Matrix: (Units=GPa)
#
#
# Indices 1 2 3 4 5 6 
#
# 1 170.3145 19.4931 40.7863 1.8475 -15.7326 -1.6789
# 2 19.4931 56.1847 24.9425 15.4774 3.8126 -15.6685
# 3 40.7863 24.9425 79.5370 12.1228 -3.0301 5.7909
# 4 1.8475 15.4774 12.1228 29.6328 1.6609 -9.1457
# 5 -15.7326 3.8126 -3.0301 1.6609 49.9319 22.9036
# 6 -1.6789 -15.6685 5.7909 -9.1457 22.9036 39.2888
#
#
#
# Elastic Compliance Matrix: (Units=1/GPa)
#
#
# Indices 1 2 3 4 5 6 
#
# 1 0.007046 -0.002080 -0.002936 0.001241 0.002827 -0.001455
# 2 -0.002080 0.030453 -0.009580 -0.005168 -0.012307 0.019439
# 3 -0.002936 -0.009580 0.019309 -0.006939 0.006914 -0.012438
# 4 0.001241 -0.005168 -0.006939 0.043757 -0.007250 0.013427
# 5 0.002827 -0.012307 0.006914 -0.007250 0.035430 -0.028148
# 6 -0.001455 0.019439 -0.012438 0.013427 -0.028148 0.054511
#
#
# Mechanical properties :
#
#
# Convention : Reuss Voigt Hill
#
# Bulk Modulus (GPa) = 36.21184 52.94223 44.57703
# Shear Modulus (GPa) = 21.84324 38.49165 30.16745
#
# Velocity S-wave (km/s) = 2.95887 3.92781 3.47726
# Velocity P-wave (km/s) = 5.11734 6.46451 5.82997
#
# Compressibility (1/GPa) = 0.02761528
#
# Stress axis : x y z
#
# Youngs Moduli (GPa) = 141.92219 32.83779 51.78863
#
# Poissons Ratio (x) = 0.06832 0.15207
# Poissons Ratio (y) = 0.29527 0.49611
# Poissons Ratio (z) = 0.41673 0.31457
#
# Static dielectric constant tensor:
#      x y z
#    x 1.959240 -0.008580 -0.018590 
#    y -0.008580 1.984220 -0.024850 
#    z -0.018590 -0.024850 1.993880 
# 
# From -- ./inp_files/522506.got.cif
#   From: 2010.05.17/outbox.cif.g08.bks.cpg/sg2_262_cif.got.tgz:522506.got - 2010.06.03 11:33:40.
