data_PCOD9015699
_publ_section_title
;
Structure prediction by ZEFSAII (Michael W. Deem and Ramdas Pophale) SiO2 
 PCOD9015699
Probable space group: P -1
;
_chemical_formula_sum "Si O2"
_cell_formula_units_Z 14
_cell_length_a 16.116931
_cell_length_b 8.206645
_cell_length_c 18.647895
_cell_angle_alpha 41.143419
_cell_angle_beta 157.619076
_cell_angle_gamma 127.788904
_cell_volume 582.499499
_symmetry_space_group_name_H-M "P -1"
_symmetry_group_IT_number 2
_symmetry_cell_setting 'triclinic'
loop_
_space_group_symop_operation_xyz
x,y,z
-x,-y,-z
loop_
_atom_site_type_symbol
_atom_site_label
_atom_site_fract_x
_atom_site_fract_y
_atom_site_fract_z
Si Si1 0.731091 0.885247 0.678014
Si Si2 0.411117 0.207006 0.563300
Si Si3 0.353621 0.823188 0.971969
Si Si4 0.227251 0.576203 0.510343
Si Si5 0.169390 0.797349 0.546094
Si Si6 0.139717 0.687401 0.714583
Si Si7 0.129467 0.755072 0.134901
O O1 0.807492 0.136560 0.640120
O O2 0.500000 0.000000 0.500000
O O3 0.665852 0.788194 0.583131
O O4 0.933336 0.696351 0.950198
O O5 0.267197 0.500264 0.376435
O O6 0.679865 0.176633 0.784313
O O7 0.331882 0.980213 0.610054
O O8 0.514003 0.630375 0.223054
O O9 0.313368 0.648043 0.931977
O O10 0.500000 0.000000 0.000000
O O11 0.099097 0.006964 0.731969
O O12 0.194227 0.614785 0.557344
O O13 0.040665 0.461455 0.368397
O O14 0.226597 0.638905 0.718660
O O15 0.000000 0.000000 0.500000
O O16 0.000000 0.000000 0.000000
#
# Coordination Sequence:
#
# PCOD9015699 Si02
#       7
#     2   2   2   2   2   2   2
#     4  11  24  44  67  98 133 177 222 272 334 390
#     4  10  24  44  65 100 132 174 221 277 326 396
#     4  11  23  43  65  93 133 174 213 268 333 389
#     4  11  24  43  65  95 133 171 220 269 331 391
#     4  10  23  42  65  97 133 165 222 270 325 396
#     4  10  21  42  64  95 129 166 217 263 325 399
#     4  11  23  44  68  93 135 172 226 274 330 389
#
# _framework density 24.034357
#
# number of rings (size 3 to 8) (size 9 to 14) (size 15 to 20)
#    0.000    1.429    4.286    0.857    2.000    5.143 
#    5.143    0.000    0.000    0.000    0.000    0.000 
#    0.000    0.000    0.000    0.000    0.000    0.000 
#
# Total GULP energy -78378.387384 kJ/mol
# GULP energy per Si atom -5598.456242 kJ/mol
# Density = 2.397965 g / cm^3
# Si number density = 24.034357 Si / 1000 Ang^3
#
#
#
# Elastic Constant Matrix: (Units=GPa)
#
#
# Indices 1 2 3 4 5 6 
#
# 1 54.3819 3.7348 15.2415 11.9576 13.5635 -2.5980
# 2 3.7348 108.7587 13.6010 22.7279 12.7536 1.5101
# 3 15.2415 13.6010 120.4316 19.9593 17.7218 0.9559
# 4 11.9576 22.7279 19.9593 45.8164 -2.9377 6.6523
# 5 13.5635 12.7536 17.7218 -2.9377 30.5156 2.8151
# 6 -2.5980 1.5101 0.9559 6.6523 2.8151 29.0306
#
#
#
# Elastic Compliance Matrix: (Units=1/GPa)
#
#
# Indices 1 2 3 4 5 6 
#
# 1 0.023683 0.002523 0.000094 -0.009080 -0.013001 0.005326
# 2 0.002523 0.011367 0.000645 -0.007324 -0.007135 0.001983
# 3 0.000094 0.000645 0.010111 -0.005413 -0.006847 0.001546
# 4 -0.009080 -0.007324 -0.005413 0.032412 0.014196 -0.009057
# 5 -0.013001 -0.007135 -0.006847 0.014196 0.047652 -0.008441
# 6 0.005326 0.001983 0.001546 -0.009057 -0.008441 0.037663
#
#
# Mechanical properties :
#
#
# Convention : Reuss Voigt Hill
#
# Bulk Modulus (GPa) = 19.34845 38.74742 29.04793
# Shear Modulus (GPa) = 28.80305 37.80551 33.30428
#
# Velocity S-wave (km/s) = 3.46556 3.97038 3.72653
# Velocity P-wave (km/s) = 4.90727 6.09715 5.53428
#
# Compressibility (1/GPa) = 0.05168372
#
# Stress axis : x y z
#
# Youngs Moduli (GPa) = 42.22518 87.97442 98.90136
#
# Poissons Ratio (x) = -0.22197 -0.00925
# Poissons Ratio (y) = -0.10654 -0.06378
# Poissons Ratio (z) = -0.00395 -0.05673
#
# Static dielectric constant tensor:
#      x y z
#    x 1.980460 -0.036730 -0.012060 
#    y -0.036730 1.887010 -0.033010 
#    z -0.012060 -0.033010 1.933990 
# 
# From -- ./inp_files/504647.got.cif
#   From: 2010.05.17/outbox.cif.g08.bks.cpg/sg2_253_cif.got.tgz:504647.got - 2010.06.03 11:33:40.
