data_PCOD9015522
_publ_section_title
;
Structure prediction by ZEFSAII (Michael W. Deem and Ramdas Pophale) SiO2 
 PCOD9015522
Probable space group: P -1
;
_chemical_formula_sum "Si O2"
_cell_formula_units_Z 12
_cell_length_a 6.663467
_cell_length_b 9.252211
_cell_length_c 11.545200
_cell_angle_alpha 116.111663
_cell_angle_beta 48.707339
_cell_angle_gamma 106.752423
_cell_volume 480.211770
_symmetry_space_group_name_H-M "P -1"
_symmetry_group_IT_number 2
_symmetry_cell_setting 'triclinic'
loop_
_space_group_symop_operation_xyz
x,y,z
-x,-y,-z
loop_
_atom_site_type_symbol
_atom_site_label
_atom_site_fract_x
_atom_site_fract_y
_atom_site_fract_z
Si Si1 0.664107 0.626929 0.610475
Si Si2 0.943105 0.402944 0.872622
Si Si3 0.136410 0.959222 0.729062
Si Si4 0.676287 0.156537 0.025622
Si Si5 0.974891 0.606401 0.713025
Si Si6 0.257211 0.149008 0.539859
O O1 0.783210 0.565430 0.665249
O O2 0.815235 0.762544 0.521811
O O3 0.730749 0.467404 0.452649
O O4 0.418908 0.734640 0.791416
O O5 0.709589 0.276313 0.945709
O O6 0.880315 0.524686 0.836712
O O7 0.207178 0.299956 0.699370
O O8 0.000000 0.500000 0.000000
O O9 0.449663 0.926651 0.614108
O O10 0.995634 0.795607 0.760357
O O11 0.103532 0.013147 0.625204
O O12 0.978718 0.094095 0.908456
O O13 0.500000 0.000000 0.000000
#
# Coordination Sequence:
#
# PCOD9015522 Si02
#       6
#     2   2   2   2   2   2
#     4  10  22  41  64  94 129 174 213 273 323 389
#     4  10  24  43  68  98 134 172 220 274 329 387
#     4  10  21  42  63  92 133 169 222 264 325 391
#     4  11  23  44  63  97 135 174 216 270 329 389
#     4  10  22  42  65  95 128 175 220 266 328 394
#     4   9  22  42  65  95 130 175 220 267 326 396
#
# _framework density 24.988976000000001
#
# number of rings (size 3 to 8) (size 9 to 14) (size 15 to 20)
#    0.000    2.000    1.667    0.000    4.667    3.333 
#   12.000    0.000    0.000    0.000    0.000    0.000 
#    0.000    0.000    0.000    0.000    0.000    0.000 
#
# Total GULP energy -66818.147207 kJ/mol
# GULP energy per Si atom -5568.178934 kJ/mol
# Density = 2.493210 g / cm^3
# Si number density = 24.988976 Si / 1000 Ang^3
#
#
#
# Elastic Constant Matrix: (Units=GPa)
#
#
# Indices 1 2 3 4 5 6 
#
# 1 -19.4734 17.1929 14.0507 -15.2184 -0.7270 -21.5425
# 2 17.1929 195.9787 70.2515 -35.3934 14.5739 -32.7769
# 3 14.0507 70.2515 184.4862 19.1199 -6.4730 -16.1636
# 4 -15.2184 -35.3934 19.1199 66.0145 -24.2682 5.8632
# 5 -0.7270 14.5739 -6.4730 -24.2682 27.7214 -8.7977
# 6 -21.5425 -32.7769 -16.1636 5.8632 -8.7977 39.3361
#
#
#
# Elastic Compliance Matrix: (Units=1/GPa)
#
#
# Indices 1 2 3 4 5 6 
#
# 1 -0.024838 -0.002206 0.001994 -0.011171 -0.013904 -0.016067
# 2 -0.002206 0.007627 -0.002870 0.004074 -0.000113 0.003335
# 3 0.001994 -0.002870 0.006896 -0.002724 0.001510 0.002278
# 4 -0.011171 0.004074 -0.002724 0.021102 0.014192 -0.003813
# 5 -0.013904 -0.000113 0.001510 0.014192 0.049110 0.001780
# 6 -0.016067 0.003335 0.002278 -0.003813 0.001780 0.021305
#
#
# Mechanical properties :
#
#
# Convention : Reuss Voigt Hill
#
# Bulk Modulus (GPa) = -60.67949 62.66464 0.99258
# Shear Modulus (GPa) = 61.06987 43.91416 52.49201
#
# Velocity S-wave (km/s) = 4.94892 4.19661 4.58821
# Velocity P-wave (km/s) = 2.88452 6.97233 5.33544
#
# Compressibility (1/GPa) = -0.01648003
#
# Stress axis : x y z
#
# Youngs Moduli (GPa) = -40.26019 131.11299 145.00231
#
# Poissons Ratio (x) = 0.28928 -0.28915
# Poissons Ratio (y) = -0.08883 0.41620
# Poissons Ratio (z) = 0.08028 0.37633
#
# Static dielectric constant tensor:
#      x y z
#    x 2.082540 0.028070 -0.046710 
#    y 0.028070 1.988420 -0.006490 
#    z -0.046710 -0.006490 2.010320 
# 
# From -- ./inp_files/149303.got.cif
#   From: 2010.05.17/outbox.cif.g08.bks.cpg/sg2_75_cif.got.tgz:149303.got - 2010.06.03 11:33:40.
