data_PCOD9015085
_publ_section_title
;
Structure prediction by ZEFSAII (Michael W. Deem and Ramdas Pophale) SiO2 
 PCOD9015085
Probable space group: P -1
;
_chemical_formula_sum "Si O2"
_cell_formula_units_Z 12
_cell_length_a 5.167316
_cell_length_b 10.171385
_cell_length_c 13.619044
_cell_angle_alpha 82.234689
_cell_angle_beta 51.677659
_cell_angle_gamma 111.001874
_cell_volume 457.627124
_symmetry_space_group_name_H-M "P -1"
_symmetry_group_IT_number 2
_symmetry_cell_setting 'triclinic'
loop_
_space_group_symop_operation_xyz
x,y,z
-x,-y,-z
loop_
_atom_site_type_symbol
_atom_site_label
_atom_site_fract_x
_atom_site_fract_y
_atom_site_fract_z
Si Si1 0.249505 0.424058 0.970583
Si Si2 0.642477 0.219317 0.569631
Si Si3 0.398731 0.066118 0.332838
Si Si4 0.805187 0.666810 0.210686
Si Si5 0.442277 0.648839 0.626035
Si Si6 0.248361 0.921557 0.935921
O O1 0.436298 0.441072 0.816943
O O2 0.500000 0.500000 0.000000
O O3 0.000000 0.500000 0.000000
O O4 0.029936 0.232986 0.052704
O O5 0.157363 0.455517 0.721144
O O6 0.628723 0.280466 0.460255
O O7 0.103853 0.303704 0.485042
O O8 0.429900 0.026650 0.645753
O O9 0.595797 0.255612 0.284938
O O10 0.362219 0.003956 0.233696
O O11 0.000000 0.000000 0.500000
O O12 0.569137 0.727379 0.313359
O O13 0.212616 0.826750 0.054545
O O14 0.000000 0.000000 0.000000
#
# Coordination Sequence:
#
# PCOD9015085 Si02
#       6
#     2   2   2   2   2   2
#     4  10  23  42  68 102 141 182 237 295 361 423
#     4  11  23  44  66 101 139 189 233 289 360 425
#     4  10  21  41  71 102 143 186 240 295 360 432
#     4  10  23  41  71  99 144 179 244 291 362 420
#     4  11  24  40  70  99 139 185 235 292 352 429
#     4  10  21  45  74 104 148 190 241 303 367 429
#
# _framework density 26.222225000000002
#
# number of rings (size 3 to 8) (size 9 to 14) (size 15 to 20)
#    1.000    0.667    1.667    2.500    0.000    4.000 
#    0.000    4.167    0.000    0.000    0.000    0.000 
#    0.000    0.000    0.000    0.000    0.000    0.000 
#
# Total GULP energy -66969.319961 kJ/mol
# GULP energy per Si atom -5580.776663 kJ/mol
# Density = 2.616254 g / cm^3
# Si number density = 26.222225 Si / 1000 Ang^3
#
#
#
# Elastic Constant Matrix: (Units=GPa)
#
#
# Indices 1 2 3 4 5 6 
#
# 1 117.0882 41.7377 21.1897 -7.2348 13.2859 -26.5366
# 2 41.7377 213.1542 58.1846 21.0149 -3.9790 -55.0383
# 3 21.1897 58.1846 128.0091 5.9399 6.8641 -39.3701
# 4 -7.2348 21.0149 5.9399 67.1295 -10.8864 -0.1763
# 5 13.2859 -3.9790 6.8641 -10.8864 28.8221 -8.3250
# 6 -26.5366 -55.0383 -39.3701 -0.1763 -8.3250 37.5976
#
#
#
# Elastic Compliance Matrix: (Units=1/GPa)
#
#
# Indices 1 2 3 4 5 6 
#
# 1 0.010518 -0.000721 0.000686 0.000840 -0.002934 0.006440
# 2 -0.000721 0.008408 0.000117 -0.001965 0.004448 0.012897
# 3 0.000686 0.000117 0.011641 -0.000908 0.000314 0.012911
# 4 0.000840 -0.001965 -0.000908 0.016524 0.005221 -0.002001
# 5 -0.002934 0.004448 0.000314 0.005221 0.042674 0.014243
# 6 0.006440 0.012897 0.012911 -0.002001 0.014243 0.066686
#
#
# Mechanical properties :
#
#
# Convention : Reuss Voigt Hill
#
# Bulk Modulus (GPa) = 32.54168 77.83061 55.18615
# Shear Modulus (GPa) = 30.02451 49.18579 39.60515
#
# Velocity S-wave (km/s) = 3.38746 4.33567 3.89056
# Velocity P-wave (km/s) = 5.26657 7.40335 6.42442
#
# Compressibility (1/GPa) = 0.03072982
#
# Stress axis : x y z
#
# Youngs Moduli (GPa) = 95.07525 118.94060 85.90091
#
# Poissons Ratio (x) = 0.08581 -0.05892
# Poissons Ratio (y) = 0.06859 -0.01005
# Poissons Ratio (z) = -0.06521 -0.01392
#
# Static dielectric constant tensor:
#      x y z
#    x 2.047710 0.081520 -0.051360 
#    y 0.081520 2.036280 -0.053350 
#    z -0.051360 -0.053350 2.427720 
# 
# From -- ./inp_files/481510.got.cif
#   From: 2010.05.17/outbox.cif.g08.bks.cpg/sg2_241_cif.got.tgz:481510.got - 2010.06.03 11:33:40.
