data_PCOD9015183
_publ_section_title
;
Structure prediction by ZEFSAII (Michael W. Deem and Ramdas Pophale) SiO2 
 PCOD9015183
Probable space group: P -1
;
_chemical_formula_sum "Si O2"
_cell_formula_units_Z 9
_cell_length_a 5.430280
_cell_length_b 11.240948
_cell_length_c 9.602219
_cell_angle_alpha 140.803950
_cell_angle_beta 109.323068
_cell_angle_gamma 84.043867
_cell_volume 337.907380
_symmetry_space_group_name_H-M "P -1"
_symmetry_group_IT_number 2
_symmetry_cell_setting 'triclinic'
loop_
_space_group_symop_operation_xyz
x,y,z
-x,-y,-z
loop_
_atom_site_type_symbol
_atom_site_label
_atom_site_fract_x
_atom_site_fract_y
_atom_site_fract_z
Si Si1 0.387788 0.290392 0.421413
Si Si2 0.859807 0.296186 0.711636
Si Si3 0.415011 0.263266 0.798432
Si Si4 0.000000 0.000000 0.000000
Si Si5 0.583480 0.268409 0.146753
O O1 0.686092 0.319409 0.564247
O O2 0.370374 0.208037 0.181877
O O3 0.326714 0.497814 0.608757
O O4 0.166123 0.109354 0.271590
O O5 0.631171 0.193914 0.683996
O O6 0.103602 0.202694 0.645248
O O7 0.000000 0.500000 0.000000
O O8 0.500000 0.500000 0.000000
O O9 0.446700 0.225796 0.932999
O O10 0.173798 0.829578 0.882769
#
# Coordination Sequence:
#
# PCOD9015183 Si02
#       5
#     2   2   2   1   2
#     4  11  25  46  75 105 144 199 240 310 358 452
#     4  10  21  41  72 106 142 183 252 293 371 428
#     4  10  21  41  73 110 140 188 244 307 361 443
#     4  12  28  44  70 112 150 184 256 296 374 434
#     4  11  25  46  76 103 146 197 247 298 370 436
#
# _framework density 26.634516999999999
#
# number of rings (size 3 to 8) (size 9 to 14) (size 15 to 20)
#    0.000    1.333    4.444    1.333    6.222    1.778 
#    0.000    2.222    0.000    0.000    0.000    0.000 
#    0.000    0.000    0.000    0.000    0.000    0.000 
#
# Total GULP energy -50143.966864 kJ/mol
# GULP energy per Si atom -5571.551874 kJ/mol
# Density = 2.657390 g / cm^3
# Si number density = 26.634517 Si / 1000 Ang^3
#
#
#
# Elastic Constant Matrix: (Units=GPa)
#
#
# Indices 1 2 3 4 5 6 
#
# 1 193.2559 71.3406 75.8768 -13.1829 -21.8272 -55.4578
# 2 71.3406 101.4318 80.0917 -8.6876 3.6924 -31.4884
# 3 75.8768 80.0917 98.1866 -6.4422 7.3208 -11.1057
# 4 -13.1829 -8.6876 -6.4422 66.2055 16.2532 2.3192
# 5 -21.8272 3.6924 7.3208 16.2532 51.3509 -13.1755
# 6 -55.4578 -31.4884 -11.1057 2.3192 -13.1755 51.8381
#
#
#
# Elastic Compliance Matrix: (Units=1/GPa)
#
#
# Indices 1 2 3 4 5 6 
#
# 1 0.021706 0.015398 -0.027443 -0.002641 0.021125 0.032184
# 2 0.015398 0.051090 -0.050526 -0.001908 0.021516 0.042237
# 3 -0.027443 -0.050526 0.069299 0.004689 -0.033214 -0.053856
# 4 -0.002641 -0.001908 0.004689 0.017100 -0.008587 -0.005928
# 5 0.021125 0.021516 -0.033214 -0.008587 0.044699 0.040299
# 6 0.032184 0.042237 -0.053856 -0.005928 0.040299 0.078348
#
#
# Mechanical properties :
#
#
# Convention : Reuss Voigt Hill
#
# Bulk Modulus (GPa) = 58.98313 94.16585 76.57449
# Shear Modulus (GPa) = 12.10546 44.91656 28.51101
#
# Velocity S-wave (km/s) = 2.13422 4.11104 3.27533
# Velocity P-wave (km/s) = 5.31664 7.61353 6.56629
#
# Compressibility (1/GPa) = 0.01695400
#
# Stress axis : x y z
#
# Youngs Moduli (GPa) = 46.06928 19.57327 14.43014
#
# Poissons Ratio (x) = -0.30139 0.39601
# Poissons Ratio (y) = -0.70939 0.72910
# Poissons Ratio (z) = 1.26428 0.98896
#
# Static dielectric constant tensor:
#      x y z
#    x -2.426170 -2.040700 -2.249040 
#    y -2.040700 1.027890 -1.091690 
#    z -2.249040 -1.091690 0.952590 
# 
# From -- ./inp_files/58439.got.cif
#   From: 2010.05.17/outbox.cif.g08.bks.cpg/sg2_30_cif.got.tgz:58439.got - 2010.06.03 11:33:40.
