data_PCOD9015660
_publ_section_title
;
Structure prediction by ZEFSAII (Michael W. Deem and Ramdas Pophale) SiO2 
 PCOD9015660
Probable space group: P -1
;
_chemical_formula_sum "Si O2"
_cell_formula_units_Z 16
_cell_length_a 8.626956
_cell_length_b 19.300913
_cell_length_c 10.793545
_cell_angle_alpha 42.505897
_cell_angle_beta 38.782478
_cell_angle_gamma 61.193515
_cell_volume 742.085744
_symmetry_space_group_name_H-M "P -1"
_symmetry_group_IT_number 2
_symmetry_cell_setting 'triclinic'
loop_
_space_group_symop_operation_xyz
x,y,z
-x,-y,-z
loop_
_atom_site_type_symbol
_atom_site_label
_atom_site_fract_x
_atom_site_fract_y
_atom_site_fract_z
Si Si1 0.924112 0.591033 0.011733
Si Si2 0.047857 0.468031 0.319667
Si Si3 0.307545 0.038340 0.978165
Si Si4 0.817129 0.099121 0.264410
Si Si5 0.362389 0.910479 0.884570
Si Si6 0.537898 0.303942 0.906871
Si Si7 0.650815 0.242859 0.375667
Si Si8 0.503771 0.627774 0.904912
O O1 0.154659 0.693128 0.731081
O O2 0.665515 0.629647 0.097947
O O3 0.000000 0.500000 0.000000
O O4 0.927360 0.546017 0.208143
O O5 0.250788 0.420858 0.175857
O O6 0.820485 0.374280 0.623707
O O7 0.244540 0.538552 0.199994
O O8 0.452303 0.148104 0.684013
O O9 0.229715 0.955752 0.022363
O O10 0.070501 0.057389 0.176799
O O11 0.500000 0.000000 0.000000
O O12 0.798991 0.120646 0.099727
O O13 0.803124 0.196109 0.234361
O O14 0.586282 0.006064 0.574566
O O15 0.467970 0.809953 0.995383
O O16 0.481007 0.287078 0.110638
O O17 0.511515 0.322551 0.285602
#
# Coordination Sequence:
#
# PCOD9015660 Si02
#       8
#     2   2   2   2   2   2   2   2
#     4  11  24  44  61  94 138 172 207 270 319 378
#     4  10  23  41  63  90 128 169 213 265 316 376
#     4  11  26  42  66  97 130 168 211 263 325 389
#     4  10  22  46  66  92 131 161 216 268 317 378
#     4  10  24  41  67  97 124 167 210 270 318 377
#     4  12  23  39  68  94 124 169 218 256 324 379
#     4  10  24  43  67  93 129 175 212 259 324 378
#     4  10  21  42  64  92 126 164 217 267 312 371
#
# _framework density 21.560851
#
# number of rings (size 3 to 8) (size 9 to 14) (size 15 to 20)
#    0.000    1.500    2.500    1.125    5.250    3.000 
#    4.500    0.000    0.000    0.000    0.000    0.000 
#    0.000    0.000    0.000    0.000    0.000    0.000 
#
# Total GULP energy -89327.820461 kJ/mol
# GULP energy per Si atom -5582.988779 kJ/mol
# Density = 2.151178 g / cm^3
# Si number density = 21.560851 Si / 1000 Ang^3
#
#
#
# Elastic Constant Matrix: (Units=GPa)
#
#
# Indices 1 2 3 4 5 6 
#
# 1 54.0654 20.1682 8.1503 4.9994 -14.4483 -13.9358
# 2 20.1682 107.0386 6.8660 -8.7989 -15.8750 -0.5055
# 3 8.1503 6.8660 28.3567 -7.4458 -5.1044 -3.1958
# 4 4.9994 -8.7989 -7.4458 25.4490 -3.8247 -6.5008
# 5 -14.4483 -15.8750 -5.1044 -3.8247 20.5977 -1.3444
# 6 -13.9358 -0.5055 -3.1958 -6.5008 -1.3444 45.1954
#
#
#
# Elastic Compliance Matrix: (Units=1/GPa)
#
#
# Indices 1 2 3 4 5 6 
#
# 1 0.026567 -0.002644 -0.004086 -0.002972 0.015549 0.007908
# 2 -0.002644 0.011552 0.001221 0.006300 0.008557 0.000561
# 3 -0.004086 0.001221 0.043311 0.016916 0.012250 0.004614
# 4 -0.002972 0.006300 0.016916 0.051695 0.017103 0.008295
# 5 0.015549 0.008557 0.012250 0.017103 0.072941 0.010386
# 6 0.007908 0.000561 0.004614 0.008295 0.010386 0.026399
#
#
# Mechanical properties :
#
#
# Convention : Reuss Voigt Hill
#
# Bulk Modulus (GPa) = 14.20230 28.86997 21.53614
# Shear Modulus (GPa) = 18.72981 28.53349 23.63165
#
# Velocity S-wave (km/s) = 2.95056 3.64179 3.31425
# Velocity P-wave (km/s) = 4.26722 5.57697 4.96547
#
# Compressibility (1/GPa) = 0.07041111
#
# Stress axis : x y z
#
# Youngs Moduli (GPa) = 37.64052 86.56447 23.08905
#
# Poissons Ratio (x) = 0.22892 0.09433
# Poissons Ratio (y) = 0.09954 -0.02819
# Poissons Ratio (z) = 0.15379 -0.10568
#
# Static dielectric constant tensor:
#      x y z
#    x 1.831920 0.026900 0.006380 
#    y 0.026900 1.787630 -0.014170 
#    z 0.006380 -0.014170 1.760080 
# 
# From -- ./inp_files/107196.got.cif
#   From: 2010.05.17/outbox.cif.g08.bks.cpg/sg2_54_cif.got.tgz:107196.got - 2010.06.03 11:33:40.
