data_PCOD9015855
_publ_section_title
;
Structure prediction by ZEFSAII (Michael W. Deem and Ramdas Pophale) SiO2 
 PCOD9015855
Probable space group: P -1
;
_chemical_formula_sum "Si O2"
_cell_formula_units_Z 14
_cell_length_a 15.931188
_cell_length_b 10.772889
_cell_length_c 12.559359
_cell_angle_alpha 132.102476
_cell_angle_beta 32.969964
_cell_angle_gamma 147.161694
_cell_volume 631.748620
_symmetry_space_group_name_H-M "P -1"
_symmetry_group_IT_number 2
_symmetry_cell_setting 'triclinic'
loop_
_space_group_symop_operation_xyz
x,y,z
-x,-y,-z
loop_
_atom_site_type_symbol
_atom_site_label
_atom_site_fract_x
_atom_site_fract_y
_atom_site_fract_z
Si Si1 0.408490 0.756362 0.066758
Si Si2 0.675183 0.987293 0.318899
Si Si3 0.917719 0.630738 0.038357
Si Si4 0.248616 0.978866 0.320120
Si Si5 0.171264 0.084079 0.680424
Si Si6 0.850754 0.192995 0.886388
Si Si7 0.672201 0.658689 0.000549
O O1 0.526759 0.836597 0.873150
O O2 0.315621 0.509516 0.049909
O O3 0.614178 0.955958 0.034794
O O4 0.247498 0.790073 0.260324
O O5 0.889042 0.207809 0.158004
O O6 0.500000 0.000000 0.500000
O O7 0.730807 0.973629 0.372521
O O8 0.603925 0.763794 0.206388
O O9 0.843931 0.384317 0.975702
O O10 0.998661 0.717603 0.123393
O O11 0.772960 0.686500 0.208761
O O12 0.232898 0.091603 0.498403
O O13 0.094344 0.863335 0.314476
O O14 0.914342 0.878016 0.836168
O O15 0.500000 0.500000 0.000000
#
# Coordination Sequence:
#
# PCOD9015855 Si02
#       7
#     2   2   2   2   2   2   2
#     4   9  20  40  64  92 130 167 218 259 326 383
#     4  11  27  43  66  96 135 172 224 272 331 389
#     4  10  21  42  65  94 128 174 212 274 328 386
#     4   9  22  37  66  94 127 172 212 270 312 399
#     4  11  25  42  69  98 134 174 222 270 330 393
#     4   9  20  40  67  87 132 169 215 264 326 386
#     4  11  24  44  69  95 133 176 217 276 326 395
#
# _framework density 22.160712
#
# number of rings (size 3 to 8) (size 9 to 14) (size 15 to 20)
#    0.857    1.143    0.000    3.429    8.000    2.286 
#    5.143    1.429    0.000    0.000    0.000    0.000 
#    0.000    0.000    0.000    0.000    0.000    0.000 
#
# Total GULP energy -78101.265974 kJ/mol
# GULP energy per Si atom -5578.661855 kJ/mol
# Density = 2.211027 g / cm^3
# Si number density = 22.160712 Si / 1000 Ang^3
#
#
#
# Elastic Constant Matrix: (Units=GPa)
#
#
# Indices 1 2 3 4 5 6 
#
# 1 80.1820 -4.9599 5.2638 0.5651 2.4137 16.5767
# 2 -4.9599 79.9480 -7.0370 18.5448 1.4067 -12.6777
# 3 5.2638 -7.0370 64.5165 11.7634 4.7967 -1.0547
# 4 0.5651 18.5448 11.7634 15.2670 0.3496 -3.3887
# 5 2.4137 1.4067 4.7967 0.3496 33.1179 9.4694
# 6 16.5767 -12.6777 -1.0547 -3.3887 9.4694 48.4538
#
#
#
# Elastic Compliance Matrix: (Units=1/GPa)
#
#
# Indices 1 2 3 4 5 6 
#
# 1 0.013529 0.000242 -0.000994 -0.001098 0.000522 -0.004766
# 2 0.000242 0.021150 0.008239 -0.031086 -0.002933 0.004030
# 3 -0.000994 0.008239 0.021535 -0.026068 -0.003652 0.001855
# 4 -0.001098 -0.031086 -0.026068 0.123186 0.004017 -0.000495
# 5 0.000522 -0.002933 -0.003652 0.004017 0.032815 -0.007158
# 6 -0.004766 0.004030 0.001855 -0.000495 -0.007158 0.024727
#
#
# Mechanical properties :
#
#
# Convention : Reuss Voigt Hill
#
# Bulk Modulus (GPa) = 14.04745 23.46446 18.75596
# Shear Modulus (GPa) = 20.35029 34.79306 27.57168
#
# Velocity S-wave (km/s) = 3.03364 3.96666 3.53111
# Velocity P-wave (km/s) = 4.31547 5.62054 5.01068
#
# Compressibility (1/GPa) = 0.07118727
#
# Stress axis : x y z
#
# Youngs Moduli (GPa) = 73.91469 47.28195 46.43690
#
# Poissons Ratio (x) = -0.01143 0.04615
# Poissons Ratio (y) = -0.01787 -0.38260
# Poissons Ratio (z) = 0.07346 -0.38956
#
# Static dielectric constant tensor:
#      x y z
#    x 1.922150 0.058260 -0.008470 
#    y 0.058260 1.862430 0.018040 
#    z -0.008470 0.018040 1.788170 
# 
# From -- ./inp_files/538042.got.cif
#   From: 2010.05.17/outbox.cif.g08.bks.cpg/sg2_270_cif.got.tgz:538042.got - 2010.06.03 11:33:40.
