data_PCOD9015990
_publ_section_title
;
Structure prediction by ZEFSAII (Michael W. Deem and Ramdas Pophale) SiO2 
 PCOD9015990
Probable space group: P -1
;
_chemical_formula_sum "Si O2"
_cell_formula_units_Z 16
_cell_length_a 13.742138
_cell_length_b 8.639270
_cell_length_c 6.936533
_cell_angle_alpha 60.290364
_cell_angle_beta 88.390603
_cell_angle_gamma 79.118465
_cell_volume 700.332882
_symmetry_space_group_name_H-M "P -1"
_symmetry_group_IT_number 2
_symmetry_cell_setting 'triclinic'
loop_
_space_group_symop_operation_xyz
x,y,z
-x,-y,-z
loop_
_atom_site_type_symbol
_atom_site_label
_atom_site_fract_x
_atom_site_fract_y
_atom_site_fract_z
Si Si1 0.483725 0.815381 0.370717
Si Si2 0.113079 0.939373 0.597584
Si Si3 0.577694 0.607390 0.837316
Si Si4 0.310803 0.629332 0.356964
Si Si5 0.126680 0.586407 0.608739
Si Si6 0.948800 0.784375 0.236311
Si Si7 0.359276 0.187299 0.964202
Si Si8 0.182256 0.010720 0.145176
O O1 0.519055 0.778816 0.610352
O O2 0.407293 0.680918 0.419866
O O3 0.424065 0.008521 0.178696
O O4 0.580856 0.778810 0.250434
O O5 0.128564 0.716722 0.717239
O O6 0.118258 0.073162 0.695950
O O7 0.182171 0.989187 0.389593
O O8 0.000000 0.000000 0.500000
O O9 0.648605 0.487312 0.755776
O O10 0.640682 0.657548 0.977654
O O11 0.500000 0.500000 0.000000
O O12 0.238678 0.542265 0.550245
O O13 0.238394 0.817169 0.182196
O O14 0.082220 0.404421 0.713854
O O15 0.054076 0.716071 0.378684
O O16 0.929190 0.906413 0.969515
O O17 0.251062 0.144268 0.981994
#
# Coordination Sequence:
#
# PCOD9015990 Si02
#       8
#     2   2   2   2   2   2   2   2
#     4  10  22  43  62  83 129 163 202 266 314 371
#     4   9  20  40  61  88 123 161 206 251 310 372
#     4  12  24  39  63  92 123 165 210 257 320 372
#     4  10  22  41  59  89 126 159 207 259 309 373
#     4   9  21  40  64  93 124 163 210 257 310 379
#     4  10  21  42  66  88 128 167 201 261 321 360
#     4  10  23  41  62  92 121 164 213 253 315 379
#     4  10  23  41  62  92 124 162 211 255 308 383
#
# _framework density 22.84628
#
# number of rings (size 3 to 8) (size 9 to 14) (size 15 to 20)
#    0.000    2.000    1.250    0.750    3.500    4.500 
#    9.000    5.625    0.000    0.000    0.000    0.000 
#    0.000    0.000    0.000    0.000    0.000    0.000 
#
# Total GULP energy -89208.889600 kJ/mol
# GULP energy per Si atom -5575.555600 kJ/mol
# Density = 2.279428 g / cm^3
# Si number density = 22.846280 Si / 1000 Ang^3
#
#
#
# Elastic Constant Matrix: (Units=GPa)
#
#
# Indices 1 2 3 4 5 6 
#
# 1 81.3537 19.5498 8.6381 -5.3368 -7.0415 1.3470
# 2 19.5498 109.0575 18.9356 11.3206 -5.9054 5.1401
# 3 8.6381 18.9356 84.7019 -9.5790 6.2753 -0.3713
# 4 -5.3368 11.3206 -9.5790 32.6064 -7.2362 1.5082
# 5 -7.0415 -5.9054 6.2753 -7.2362 36.1721 -3.0739
# 6 1.3470 5.1401 -0.3713 1.5082 -3.0739 43.5272
#
#
#
# Elastic Compliance Matrix: (Units=1/GPa)
#
#
# Indices 1 2 3 4 5 6 
#
# 1 0.013458 -0.002506 -0.000634 0.003561 0.003030 -0.000035
# 2 -0.002506 0.010664 -0.002717 -0.004710 0.000698 -0.000992
# 3 -0.000634 -0.002717 0.013105 0.004243 -0.001978 0.000166
# 4 0.003561 -0.004710 0.004243 0.035539 0.006272 -0.000306
# 5 0.003030 0.000698 -0.001978 0.006272 0.030093 0.001715
# 6 -0.000035 -0.000992 0.000166 -0.000306 0.001715 0.023226
#
#
# Mechanical properties :
#
#
# Convention : Reuss Voigt Hill
#
# Bulk Modulus (GPa) = 39.19687 41.04003 40.11845
# Shear Modulus (GPa) = 34.17534 37.66045 35.91789
#
# Velocity S-wave (km/s) = 3.87186 4.06449 3.96934
# Velocity P-wave (km/s) = 6.09774 6.32687 6.21336
#
# Compressibility (1/GPa) = 0.02551224
#
# Stress axis : x y z
#
# Youngs Moduli (GPa) = 74.30510 93.77329 76.30494
#
# Poissons Ratio (x) = 0.23502 0.04839
# Poissons Ratio (y) = 0.18623 0.20733
# Poissons Ratio (z) = 0.04712 0.25479
#
# Static dielectric constant tensor:
#      x y z
#    x 1.904940 0.039690 -0.000100 
#    y 0.039690 1.923250 -0.058850 
#    z -0.000100 -0.058850 1.860000 
# 
# From -- ./inp_files/89800.got.cif
#   From: 2010.05.17/outbox.cif.g08.bks.cpg/sg2_45_cif.got.tgz:89800.got - 2010.06.03 11:33:40.
