data_PCOD9015278
_publ_section_title
;
Structure prediction by ZEFSAII (Michael W. Deem and Ramdas Pophale) SiO2 
 PCOD9015278
Probable space group: P -1
;
_chemical_formula_sum "Si O2"
_cell_formula_units_Z 16
_cell_length_a 11.028740
_cell_length_b 5.463326
_cell_length_c 12.368325
_cell_angle_alpha 99.117517
_cell_angle_beta 91.973638
_cell_angle_gamma 61.338761
_cell_volume 644.917550
_symmetry_space_group_name_H-M "P -1"
_symmetry_group_IT_number 2
_symmetry_cell_setting 'triclinic'
loop_
_space_group_symop_operation_xyz
x,y,z
-x,-y,-z
loop_
_atom_site_type_symbol
_atom_site_label
_atom_site_fract_x
_atom_site_fract_y
_atom_site_fract_z
Si Si1 0.421550 0.980008 0.389650
Si Si2 0.146728 0.226595 0.074680
Si Si3 0.155687 0.555585 0.911501
Si Si4 0.148565 0.468373 0.474832
Si Si5 0.323628 0.682671 0.108544
Si Si6 0.201692 0.728342 0.704929
Si Si7 0.487828 0.654383 0.733283
Si Si8 0.900875 0.259584 0.736135
O O1 0.259793 0.151279 0.425463
O O2 0.452275 0.159401 0.310497
O O3 0.500000 0.000000 0.500000
O O4 0.466895 0.656329 0.339685
O O5 0.112678 0.477919 0.175151
O O6 0.006125 0.203927 0.080202
O O7 0.301619 0.983364 0.089489
O O8 0.148560 0.300835 0.954367
O O9 0.213586 0.528813 0.792363
O O10 0.253842 0.607326 0.001328
O O11 0.205011 0.571931 0.583635
O O12 0.133615 0.652740 0.382154
O O13 0.000000 0.500000 0.500000
O O14 0.459201 0.433285 0.147311
O O15 0.214050 0.791171 0.212057
O O16 0.323482 0.806932 0.725395
O O17 0.053231 0.001941 0.726294
#
# Coordination Sequence:
#
# PCOD9015278 Si02
#       8
#     2   2   2   2   2   2   2   2
#     4  12  27  52  77 106 150 203 248 291 371 457
#     4  10  21  41  75 101 137 190 246 307 372 428
#     4  10  23  40  69 105 141 188 242 309 365 433
#     4  12  27  45  75 112 143 188 244 312 370 435
#     4  11  23  45  72 103 139 196 247 299 364 436
#     4  12  27  46  67 110 152 188 243 308 377 432
#     4  12  29  49  78 106 153 202 247 297 371 451
#     4  11  24  42  71 103 143 180 249 305 368 433
#
# _framework density 24.809373000000001
#
# number of rings (size 3 to 8) (size 9 to 14) (size 15 to 20)
#    0.000    0.750    3.750    2.625    8.750    1.500 
#    0.000    0.625    0.000    0.000    0.000    0.000 
#    0.000    0.000    0.000    0.000    0.000    0.000 
#
# Total GULP energy -89498.979333 kJ/mol
# GULP energy per Si atom -5593.686208 kJ/mol
# Density = 2.475291 g / cm^3
# Si number density = 24.809373 Si / 1000 Ang^3
#
#
#
# Elastic Constant Matrix: (Units=GPa)
#
#
# Indices 1 2 3 4 5 6 
#
# 1 71.1237 -3.0142 13.9548 1.2408 0.6107 -21.9994
# 2 -3.0142 62.1694 31.2156 -4.1865 -1.6546 -3.8021
# 3 13.9548 31.2156 155.2584 -31.0025 17.4526 -1.8520
# 4 1.2408 -4.1865 -31.0025 41.1500 -2.6568 6.3711
# 5 0.6107 -1.6546 17.4526 -2.6568 45.8453 -1.0219
# 6 -21.9994 -3.8021 -1.8520 6.3711 -1.0219 29.7612
#
#
#
# Elastic Compliance Matrix: (Units=1/GPa)
#
#
# Indices 1 2 3 4 5 6 
#
# 1 0.019962 0.003377 -0.003477 -0.005298 0.001233 0.016147
# 2 0.003377 0.018878 -0.004800 -0.002448 0.002438 0.005217
# 3 -0.003477 -0.004800 0.009490 0.007204 -0.003417 -0.004253
# 4 -0.005298 -0.002448 0.007204 0.031189 -0.001187 -0.010498
# 5 0.001233 0.002438 -0.003417 -0.001187 0.023162 0.002059
# 6 0.016147 0.005217 -0.004253 -0.010498 0.002059 0.048257
#
#
# Mechanical properties :
#
#
# Convention : Reuss Voigt Hill
#
# Bulk Modulus (GPa) = 25.95315 41.42933 33.69124
# Shear Modulus (GPa) = 28.80506 39.77764 34.29135
#
# Velocity S-wave (km/s) = 3.41112 4.00851 3.72182
# Velocity P-wave (km/s) = 5.09883 6.17734 5.66381
#
# Compressibility (1/GPa) = 0.03853097
#
# Stress axis : x y z
#
# Youngs Moduli (GPa) = 50.09563 52.97203 105.36973
#
# Poissons Ratio (x) = -0.17890 0.36639
# Poissons Ratio (y) = -0.16919 0.50574
# Poissons Ratio (z) = 0.17419 0.25425
#
# Static dielectric constant tensor:
#      x y z
#    x 2.015890 0.028360 0.003160 
#    y 0.028360 2.183780 -0.017110 
#    z 0.003160 -0.017110 1.928320 
# 
# From -- ./inp_files/410805.got.cif
#   From: 2010.05.17/outbox.cif.g08.bks.cpg/sg2_206_cif.got.tgz:410805.got - 2010.06.03 11:33:40.
