data_PCOD9015353
_publ_section_title
;
Structure prediction by ZEFSAII (Michael W. Deem and Ramdas Pophale) SiO2 
 PCOD9015353
Probable space group: P -1
;
_chemical_formula_sum "Si O2"
_cell_formula_units_Z 14
_cell_length_a 15.424647
_cell_length_b 11.265754
_cell_length_c 11.731703
_cell_angle_alpha 142.829903
_cell_angle_beta 36.590325
_cell_angle_gamma 143.126809
_cell_volume 657.604800
_symmetry_space_group_name_H-M "P -1"
_symmetry_group_IT_number 2
_symmetry_cell_setting 'triclinic'
loop_
_space_group_symop_operation_xyz
x,y,z
-x,-y,-z
loop_
_atom_site_type_symbol
_atom_site_label
_atom_site_fract_x
_atom_site_fract_y
_atom_site_fract_z
Si Si1 0.355451 0.182070 0.081521
Si Si2 0.780082 0.505646 0.970065
Si Si3 0.250924 0.409349 0.183792
Si Si4 0.317119 0.893766 0.561433
Si Si5 0.337891 0.927246 0.317471
Si Si6 0.533502 0.685745 0.697694
Si Si7 0.914205 0.057410 0.965602
O O1 0.366054 0.345925 0.093692
O O2 0.361493 0.287276 0.278602
O O3 0.500503 0.112671 0.869053
O O4 0.184798 0.977206 0.074358
O O5 0.716980 0.570595 0.969872
O O6 0.812109 0.304707 0.735235
O O7 0.922125 0.723483 0.034885
O O8 0.643530 0.383834 0.114853
O O9 0.258497 0.635523 0.395817
O O10 0.085227 0.178808 0.195479
O O11 0.315784 0.003339 0.524352
O O12 0.200161 0.922642 0.798832
O O13 0.500000 0.000000 0.500000
O O14 0.380904 0.093688 0.296132
O O15 0.500000 0.500000 0.500000
#
# Coordination Sequence:
#
# PCOD9015353 Si02
#       7
#     2   2   2   2   2   2   2
#     4   9  20  39  61  85 125 158 203 256 300 359
#     4  10  21  42  61  89 126 163 196 258 314 354
#     4   9  22  37  62  95 128 150 208 250 307 369
#     4  11  21  36  66  96 120 160 205 246 310 365
#     4  10  22  39  59  88 123 163 212 245 298 376
#     4  11  25  40  62  87 122 166 215 249 299 368
#     4  10  22  38  65  93 127 161 192 260 321 348
#
# _framework density 21.289380999999999
#
# number of rings (size 3 to 8) (size 9 to 14) (size 15 to 20)
#    0.857    1.143    1.429    2.143    4.000   10.286 
#    2.571    3.571    0.000    0.000    0.000    0.000 
#    0.000    0.000    0.000    0.000    0.000    0.000 
#
# Total GULP energy -77997.601856 kJ/mol
# GULP energy per Si atom -5571.257275 kJ/mol
# Density = 2.124093 g / cm^3
# Si number density = 21.289381 Si / 1000 Ang^3
#
#
#
# Elastic Constant Matrix: (Units=GPa)
#
#
# Indices 1 2 3 4 5 6 
#
# 1 81.2280 42.3110 24.1643 10.0683 29.6234 9.6252
# 2 42.3110 141.2901 14.0788 27.2693 16.6758 20.6080
# 3 24.1643 14.0788 85.3235 18.0941 29.7752 10.4387
# 4 10.0683 27.2693 18.0941 27.3246 4.0571 8.4636
# 5 29.6234 16.6758 29.7752 4.0571 33.4619 10.0482
# 6 9.6252 20.6080 10.4387 8.4636 10.0482 39.8063
#
#
#
# Elastic Compliance Matrix: (Units=1/GPa)
#
#
# Indices 1 2 3 4 5 6 
#
# 1 0.020481 -0.003996 0.001238 -0.002309 -0.017470 0.001693
# 2 -0.003996 0.010463 0.002383 -0.009467 -0.001871 -0.002590
# 3 0.001238 0.002383 0.020454 -0.013812 -0.019066 0.000853
# 4 -0.002309 -0.009467 -0.013812 0.055914 0.014192 -0.006389
# 5 -0.017470 -0.001871 -0.019066 0.014192 0.064243 -0.009041
# 6 0.001693 -0.002590 0.000853 -0.006389 -0.009041 0.029470
#
#
# Mechanical properties :
#
#
# Convention : Reuss Voigt Hill
#
# Bulk Modulus (GPa) = 19.74426 52.10555 35.92490
# Shear Modulus (GPa) = 22.86676 35.27105 29.06890
#
# Velocity S-wave (km/s) = 3.28089 4.07473 3.69916
# Velocity P-wave (km/s) = 4.86279 6.83124 5.92927
#
# Compressibility (1/GPa) = 0.05064764
#
# Stress axis : x y z
#
# Youngs Moduli (GPa) = 48.82541 95.57884 48.88935
#
# Poissons Ratio (x) = 0.38193 -0.06053
# Poissons Ratio (y) = 0.19511 -0.11649
# Poissons Ratio (z) = -0.06045 -0.22774
#
# Static dielectric constant tensor:
#      x y z
#    x 1.807170 0.023500 0.000650 
#    y 0.023500 1.849030 0.019050 
#    z 0.000650 0.019050 1.861320 
# 
# From -- ./inp_files/449850.got.cif
#   From: 2010.05.17/outbox.cif.g08.bks.cpg/sg2_225_cif.got.tgz:449850.got - 2010.06.03 11:33:40.
