data_PCOD9015968
_publ_section_title
;
Structure prediction by ZEFSAII (Michael W. Deem and Ramdas Pophale) SiO2 
 PCOD9015968
Probable space group: P -1
;
_chemical_formula_sum "Si O2"
_cell_formula_units_Z 14
_cell_length_a 13.562777
_cell_length_b 9.511749
_cell_length_c 19.510131
_cell_angle_alpha 135.687457
_cell_angle_beta 26.620505
_cell_angle_gamma 145.976111
_cell_volume 627.787255
_symmetry_space_group_name_H-M "P -1"
_symmetry_group_IT_number 2
_symmetry_cell_setting 'triclinic'
loop_
_space_group_symop_operation_xyz
x,y,z
-x,-y,-z
loop_
_atom_site_type_symbol
_atom_site_label
_atom_site_fract_x
_atom_site_fract_y
_atom_site_fract_z
Si Si1 0.606452 0.691067 0.437114
Si Si2 0.781780 0.387536 0.159321
Si Si3 0.195470 0.426556 0.155765
Si Si4 0.742569 0.426659 0.679522
Si Si5 0.751882 0.159169 0.241065
Si Si6 0.770025 0.876599 0.792436
Si Si7 0.448487 0.939598 0.119709
O O1 0.500000 0.500000 0.500000
O O2 0.666782 0.551240 0.295015
O O3 0.393108 0.756190 0.588732
O O4 0.902930 0.953066 0.359260
O O5 0.864877 0.341663 0.166479
O O6 0.540588 0.105474 0.187413
O O7 0.000000 0.500000 0.000000
O O8 0.128787 0.447372 0.282150
O O9 0.222572 0.650766 0.176569
O O10 0.987217 0.189370 0.153657
O O11 0.500000 0.500000 0.000000
O O12 0.638098 0.584696 0.772093
O O13 0.000000 0.500000 0.500000
O O14 0.488910 0.129723 0.732460
O O15 0.651303 0.951093 0.833415
O O16 0.695451 0.950589 0.934858
#
# Coordination Sequence:
#
# PCOD9015968 Si02
#       7
#     2   2   2   2   2   2   2
#     4  10  21  42  66 101 143 184 233 296 356 423
#     4  11  22  40  73 111 141 185 249 295 360 431
#     4  12  27  50  73 103 146 192 243 302 366 428
#     4  12  26  49  74 109 148 191 243 292 364 439
#     4  11  26  48  72 103 151 192 236 301 366 429
#     4  11  23  43  70 105 150 184 238 306 352 428
#     4  11  23  43  70 107 143 187 241 302 358 422
#
# _framework density 22.300547000000002
#
# number of rings (size 3 to 8) (size 9 to 14) (size 15 to 20)
#    0.000    0.857    5.714    1.714    2.000    2.286 
#    5.143    2.857    0.000    0.000    0.000    0.000 
#    0.000    0.000    0.000    0.000    0.000    0.000 
#
# Total GULP energy -78151.019604 kJ/mol
# GULP energy per Si atom -5582.215686 kJ/mol
# Density = 2.224979 g / cm^3
# Si number density = 22.300547 Si / 1000 Ang^3
#
#
#
# Elastic Constant Matrix: (Units=GPa)
#
#
# Indices 1 2 3 4 5 6 
#
# 1 99.6120 32.3571 37.6936 -2.4417 10.1329 5.0806
# 2 32.3571 101.0568 19.9419 4.2246 -1.7234 -6.6874
# 3 37.6936 19.9419 109.7129 3.9177 11.1927 -1.2202
# 4 -2.4417 4.2246 3.9177 39.0428 -0.0681 -3.0398
# 5 10.1329 -1.7234 11.1927 -0.0681 34.6556 -0.2354
# 6 5.0806 -6.6874 -1.2202 -3.0398 -0.2354 41.6303
#
#
#
# Elastic Compliance Matrix: (Units=1/GPa)
#
#
# Indices 1 2 3 4 5 6 
#
# 1 0.013043 -0.003721 -0.003588 0.001401 -0.002852 -0.002209
# 2 -0.003721 0.011503 -0.000947 -0.001208 0.001978 0.002197
# 3 -0.003588 -0.000947 0.010821 -0.001173 -0.002492 0.000503
# 4 0.001401 -0.001208 -0.001173 0.026066 -0.000030 0.001504
# 5 -0.002852 0.001978 -0.002492 -0.000030 0.030598 0.000764
# 6 -0.002209 0.002197 0.000503 0.001504 0.000764 0.024772
#
#
# Mechanical properties :
#
#
# Convention : Reuss Voigt Hill
#
# Bulk Modulus (GPa) = 53.03697 54.48523 53.76110
# Shear Modulus (GPa) = 35.81645 37.75836 36.78740
#
# Velocity S-wave (km/s) = 4.01194 4.11926 4.06596
# Velocity P-wave (km/s) = 6.73018 6.86365 6.79724
#
# Compressibility (1/GPa) = 0.01885477
#
# Stress axis : x y z
#
# Youngs Moduli (GPa) = 76.67125 86.93072 92.41078
#
# Poissons Ratio (x) = 0.32350 0.33159
# Poissons Ratio (y) = 0.28532 0.08748
# Poissons Ratio (z) = 0.27512 0.08229
#
# Static dielectric constant tensor:
#      x y z
#    x 1.878710 -0.003080 0.022620 
#    y -0.003080 1.882460 0.004370 
#    z 0.022620 0.004370 1.885420 
# 
# From -- ./inp_files/566908.got.cif
#   From: 2010.05.17/outbox.cif.g08.bks.cpg/sg2_284_cif.got.tgz:566908.got - 2010.06.03 11:33:40.
