data_PCOD9015830
_publ_section_title
;
Structure prediction by ZEFSAII (Michael W. Deem and Ramdas Pophale) SiO2 
 PCOD9015830
Probable space group: P -1
;
_chemical_formula_sum "Si O2"
_cell_formula_units_Z 11
_cell_length_a 18.210141
_cell_length_b 11.419354
_cell_length_c 15.402353
_cell_angle_alpha 27.812823
_cell_angle_beta 16.301577
_cell_angle_gamma 31.836414
_cell_volume 419.468086
_symmetry_space_group_name_H-M "P -1"
_symmetry_group_IT_number 2
_symmetry_cell_setting 'triclinic'
loop_
_space_group_symop_operation_xyz
x,y,z
-x,-y,-z
loop_
_atom_site_type_symbol
_atom_site_label
_atom_site_fract_x
_atom_site_fract_y
_atom_site_fract_z
Si Si1 0.500000 0.000000 0.000000
Si Si2 0.181018 0.175676 0.087425
Si Si3 0.779539 0.575875 0.298217
Si Si4 0.292132 0.786352 0.806540
Si Si5 0.016904 0.038863 0.806392
Si Si6 0.921880 0.723988 0.594799
O O1 0.661482 0.820659 0.005927
O O2 0.653596 0.857738 0.839241
O O3 0.859773 0.101403 0.722793
O O4 0.885926 0.290955 0.367420
O O5 0.281237 0.348128 0.781899
O O6 0.550810 0.641218 0.580338
O O7 0.999578 0.775516 0.946401
O O8 0.244202 0.897571 0.883422
O O9 0.074439 0.564539 0.193066
O O10 0.232334 0.993068 0.665671
O O11 0.058120 0.244590 0.551820
#
# Coordination Sequence:
#
# PCOD9015830 Si02
#       6
#     1   2   2   2   2   2
#     4  12  22  38  64  92 124 164 206 258 316 374
#     4  10  23  40  64  95 128 163 209 264 318 376
#     4  10  21  42  65  92 128 168 210 258 316 380
#     4  11  22  40  66  91 125 171 210 257 316 373
#     4  10  23  41  62  93 128 165 214 261 307 374
#     4  11  23  39  62  95 128 161 209 263 316 375
#
# _framework density 26.223687999999999
#
# number of rings (size 3 to 8) (size 9 to 14) (size 15 to 20)
#    0.000    1.455    0.000    4.909    0.000    1.455 
#    0.000    7.273    0.000   18.545    0.000    0.000 
#    0.000    0.000    0.000    0.000    0.000    0.000 
#
# Total GULP energy -61410.686276 kJ/mol
# GULP energy per Si atom -5582.789661 kJ/mol
# Density = 2.616400 g / cm^3
# Si number density = 26.223688 Si / 1000 Ang^3
#
#
#
# Elastic Constant Matrix: (Units=GPa)
#
#
# Indices 1 2 3 4 5 6 
#
# 1 170.6765 50.0612 42.9929 7.3501 36.6819 -13.3143
# 2 50.0612 109.9627 21.8686 6.8150 1.1436 16.5945
# 3 42.9929 21.8686 39.3793 7.3801 22.0990 1.8887
# 4 7.3501 6.8150 7.3801 47.4689 11.7738 4.9055
# 5 36.6819 1.1436 22.0990 11.7738 41.6569 3.8637
# 6 -13.3143 16.5945 1.8887 4.9055 3.8637 49.2443
#
#
#
# Elastic Compliance Matrix: (Units=1/GPa)
#
#
# Indices 1 2 3 4 5 6 
#
# 1 0.010305 -0.004341 -0.005447 0.001061 -0.006819 0.004887
# 2 -0.004341 0.013255 -0.006467 -0.001574 0.007877 -0.005854
# 3 -0.005447 -0.006467 0.045795 -0.000643 -0.019187 0.000519
# 4 0.001061 -0.001574 -0.000643 0.023053 -0.006981 -0.000907
# 5 -0.006819 0.007877 -0.019187 -0.006981 0.042540 -0.006404
# 6 0.004887 -0.005854 0.000519 -0.000907 -0.006404 0.024174
#
#
# Mechanical properties :
#
#
# Convention : Reuss Voigt Hill
#
# Bulk Modulus (GPa) = 27.13945 61.09599 44.11772
# Shear Modulus (GPa) = 24.52025 41.34708 32.93366
#
# Velocity S-wave (km/s) = 3.06116 3.97508 3.54768
# Velocity P-wave (km/s) = 4.78184 6.66461 5.80013
#
# Compressibility (1/GPa) = 0.03684674
#
# Stress axis : x y z
#
# Youngs Moduli (GPa) = 97.03638 75.44239 21.83654
#
# Poissons Ratio (x) = 0.32747 0.11895
# Poissons Ratio (y) = 0.42120 0.14121
# Poissons Ratio (z) = 0.52857 0.48785
#
# Static dielectric constant tensor:
#      x y z
#    x 1.647040 -0.161040 1.218110 
#    y -0.161040 1.885560 0.624670 
#    z 1.218110 0.624670 -2.473760 
# 
# From -- ./inp_files/537895.got.cif
#   From: 2010.05.17/outbox.cif.g08.bks.cpg/sg2_269_cif.got.tgz:537895.got - 2010.06.03 11:33:40.
