data_PCOD9015252
_publ_section_title
;
Structure prediction by ZEFSAII (Michael W. Deem and Ramdas Pophale) SiO2 
 PCOD9015252
Probable space group: P -1
;
_chemical_formula_sum "Si O2"
_cell_formula_units_Z 16
_cell_length_a 14.743252
_cell_length_b 6.826098
_cell_length_c 13.519627
_cell_angle_alpha 74.721954
_cell_angle_beta 63.389119
_cell_angle_gamma 38.864569
_cell_volume 754.444961
_symmetry_space_group_name_H-M "P -1"
_symmetry_group_IT_number 2
_symmetry_cell_setting 'triclinic'
loop_
_space_group_symop_operation_xyz
x,y,z
-x,-y,-z
loop_
_atom_site_type_symbol
_atom_site_label
_atom_site_fract_x
_atom_site_fract_y
_atom_site_fract_z
Si Si1 0.533462 0.687234 0.475328
Si Si2 0.463756 0.745788 0.051977
Si Si3 0.759249 0.558908 0.977621
Si Si4 0.131169 0.903881 0.520512
Si Si5 0.914093 0.443814 0.106195
Si Si6 0.681612 0.297549 0.719090
Si Si7 0.402939 0.019736 0.690568
Si Si8 0.080664 0.842147 0.232538
O O1 0.500000 0.500000 0.500000
O O2 0.708185 0.449171 0.470654
O O3 0.537965 0.835089 0.360715
O O4 0.403685 0.958573 0.582180
O O5 0.376308 0.812304 0.184080
O O6 0.346762 0.077280 0.009757
O O7 0.500000 0.500000 0.000000
O O8 0.629696 0.586609 0.020195
O O9 0.864191 0.391210 0.850274
O O10 0.856342 0.389277 0.052179
O O11 0.214707 0.922607 0.397799
O O12 0.000000 0.000000 0.500000
O O13 0.039752 0.083429 0.643195
O O14 0.761284 0.747829 0.203128
O O15 0.013485 0.147951 0.170560
O O16 0.000000 0.500000 0.000000
O O17 0.781492 0.281824 0.748585
O O18 0.531434 0.667558 0.717633
#
# Coordination Sequence:
#
# PCOD9015252 Si02
#       8
#     2   2   2   2   2   2   2   2
#     4  10  21  43  71 100 130 180 231 282 336 406
#     4  11  22  44  70  98 134 172 232 287 333 400
#     4  11  26  41  68  99 130 182 230 279 340 404
#     4   9  20  40  66  94 132 179 209 276 348 394
#     4  12  26  42  66  99 141 185 223 279 351 405
#     4  10  21  41  73  95 130 178 224 276 340 402
#     4  10  23  42  68  99 136 175 228 281 335 402
#     4  11  22  44  65  93 142 169 222 281 338 404
#
# _framework density 21.207643999999998
#
# number of rings (size 3 to 8) (size 9 to 14) (size 15 to 20)
#    0.000    1.500    2.500    1.875    3.500    3.000 
#    0.000    0.625    0.000    0.000    0.000    0.000 
#    0.000    0.000    0.000    0.000    0.000    0.000 
#
# Total GULP energy -89179.663902 kJ/mol
# GULP energy per Si atom -5573.728994 kJ/mol
# Density = 2.115937 g / cm^3
# Si number density = 21.207644 Si / 1000 Ang^3
#
#
#
# Elastic Constant Matrix: (Units=GPa)
#
#
# Indices 1 2 3 4 5 6 
#
# 1 -25.6439 103.1994 43.0829 -0.5956 6.8791 -5.8673
# 2 103.1994 -24.5921 -22.2723 16.8688 -20.1700 13.6166
# 3 43.0829 -22.2723 122.6201 36.4712 -20.9525 8.6016
# 4 -0.5956 16.8688 36.4712 44.8429 1.9754 1.5949
# 5 6.8791 -20.1700 -20.9525 1.9754 24.7431 -2.0186
# 6 -5.8673 13.6166 8.6016 1.5949 -2.0186 29.5208
#
#
#
# Elastic Compliance Matrix: (Units=1/GPa)
#
#
# Indices 1 2 3 4 5 6 
#
# 1 0.005911 0.009094 0.003078 -0.006119 0.008620 -0.002996
# 2 0.009094 0.003874 -0.003377 0.001483 -0.002286 0.000768
# 3 0.003078 -0.003377 0.009118 -0.006314 0.004630 0.000170
# 4 -0.006119 0.001483 -0.006314 0.027071 -0.004749 -0.001848
# 5 0.008620 -0.002286 0.004630 -0.004749 0.040820 0.004466
# 6 -0.002996 0.000768 0.000170 -0.001848 0.004466 0.033280
#
#
# Mechanical properties :
#
#
# Convention : Reuss Voigt Hill
#
# Bulk Modulus (GPa) = 27.40297 35.60044 31.50171
# Shear Modulus (GPa) = 43.61086 16.37965 29.99526
#
# Velocity S-wave (km/s) = 4.53965 2.78213 3.76488
# Velocity P-wave (km/s) = 6.35824 5.20993 5.81251
#
# Compressibility (1/GPa) = 0.03649239
#
# Stress axis : x y z
#
# Youngs Moduli (GPa) = 169.16221 258.12220 109.67445
#
# Poissons Ratio (x) = -2.34731 -0.33755
# Poissons Ratio (y) = -1.53833 0.37038
# Poissons Ratio (z) = -0.52064 0.87170
#
# Static dielectric constant tensor:
#      x y z
#    x 1.784040 -0.019040 0.005740 
#    y -0.019040 1.793930 -0.003420 
#    z 0.005740 -0.003420 1.813860 
# 
# From -- ./inp_files/525612.got.cif
#   From: 2010.05.17/outbox.cif.g08.bks.cpg/sg2_263_cif.got.tgz:525612.got - 2010.06.03 11:33:40.
