data_PCOD9015030
_publ_section_title
;
Structure prediction by ZEFSAII (Michael W. Deem and Ramdas Pophale) SiO2 
 PCOD9015030
Probable space group: P -1
;
_chemical_formula_sum "Si O2"
_cell_formula_units_Z 16
_cell_length_a 24.362885
_cell_length_b 14.931813
_cell_length_c 5.287252
_cell_angle_alpha 95.816614
_cell_angle_beta 97.252422
_cell_angle_gamma 21.300917
_cell_volume 692.411837
_symmetry_space_group_name_H-M "P -1"
_symmetry_group_IT_number 2
_symmetry_cell_setting 'triclinic'
loop_
_space_group_symop_operation_xyz
x,y,z
-x,-y,-z
loop_
_atom_site_type_symbol
_atom_site_label
_atom_site_fract_x
_atom_site_fract_y
_atom_site_fract_z
Si Si1 0.032706 0.509872 0.773178
Si Si2 0.724285 0.249084 0.031919
Si Si3 0.421016 0.877204 0.309440
Si Si4 0.778914 0.669936 0.492936
Si Si5 0.402777 0.386436 0.156349
Si Si6 0.664774 0.708879 0.078450
Si Si7 0.021177 0.701489 0.101731
Si Si8 0.444965 0.653685 0.306666
O O1 0.197061 0.301357 0.727017
O O2 0.000000 0.500000 0.500000
O O3 0.963770 0.710827 0.879869
O O4 0.000000 0.500000 0.000000
O O5 0.606740 0.447578 0.244786
O O6 0.703142 0.364678 0.861224
O O7 0.652840 0.262127 0.904933
O O8 0.896424 0.967970 0.120494
O O9 0.545128 0.710562 0.554279
O O10 0.355276 0.881471 0.376625
O O11 0.315115 0.124512 0.318635
O O12 0.462083 0.797298 0.017411
O O13 0.698902 0.699466 0.371047
O O14 0.939430 0.402552 0.635815
O O15 0.339711 0.390896 0.995108
O O16 0.813998 0.513871 0.954641
O O17 0.500000 0.000000 0.000000
O O18 0.500000 0.500000 0.500000
#
# Coordination Sequence:
#
# PCOD9015030 Si02
#       8
#     2   2   2   2   2   2   2   2
#     4  11  24  44  65  99 140 185 221 273 348 417
#     4  10  24  44  66 102 141 181 237 277 353 417
#     4  11  24  41  71 103 136 175 236 287 350 412
#     4  11  25  43  69 104 140 178 234 286 356 418
#     4  11  24  45  69 102 134 184 235 296 337 415
#     4  11  24  44  72 100 136 183 239 293 356 408
#     4  11  26  44  68 105 144 185 227 295 350 422
#     4  10  21  41  70  97 135 185 226 283 340 415
#
# _framework density 23.107637
#
# number of rings (size 3 to 8) (size 9 to 14) (size 15 to 20)
#    0.000    1.250    3.750    0.750    5.250    4.500 
#    0.000    0.625    0.000    0.000    0.000    0.000 
#    0.000    0.000    0.000    0.000    0.000    0.000 
#
# Total GULP energy -89073.948796 kJ/mol
# GULP energy per Si atom -5567.121800 kJ/mol
# Density = 2.305504 g / cm^3
# Si number density = 23.107637 Si / 1000 Ang^3
#
#
#
# Elastic Constant Matrix: (Units=GPa)
#
#
# Indices 1 2 3 4 5 6 
#
# 1 106.4131 25.2713 12.6246 -5.3166 22.1958 15.8186
# 2 25.2713 133.7023 30.0812 -16.0655 -3.1738 16.7279
# 3 12.6246 30.0812 103.0550 -12.8959 12.1771 8.7454
# 4 -5.3166 -16.0655 -12.8959 23.3056 1.2289 -0.2280
# 5 22.1958 -3.1738 12.1771 1.2289 48.6079 7.0622
# 6 15.8186 16.7279 8.7454 -0.2280 7.0622 31.6607
#
#
#
# Elastic Compliance Matrix: (Units=1/GPa)
#
#
# Indices 1 2 3 4 5 6 
#
# 1 0.011433 -0.001627 0.000200 0.001817 -0.004869 -0.003809
# 2 -0.001627 0.009357 -0.001841 0.004899 0.002286 -0.004097
# 3 0.000200 -0.001841 0.011349 0.005197 -0.002959 -0.001565
# 4 0.001817 0.004899 0.005197 0.049667 -0.002483 -0.004020
# 5 -0.004869 0.002286 -0.002959 -0.002483 0.024241 -0.003383
# 6 -0.003809 -0.004097 -0.001565 -0.004020 -0.003383 0.036810
#
#
# Mechanical properties :
#
#
# Convention : Reuss Voigt Hill
#
# Bulk Modulus (GPa) = 39.05798 53.23606 46.14702
# Shear Modulus (GPa) = 31.66022 39.06105 35.36064
#
# Velocity S-wave (km/s) = 3.70553 4.11590 3.91609
# Velocity P-wave (km/s) = 5.93694 6.75839 6.36094
#
# Compressibility (1/GPa) = 0.02560296
#
# Stress axis : x y z
#
# Youngs Moduli (GPa) = 87.46988 106.87675 88.11163
#
# Poissons Ratio (x) = 0.17385 -0.01765
# Poissons Ratio (y) = 0.14228 0.16224
# Poissons Ratio (z) = -0.01752 0.19679
#
# Static dielectric constant tensor:
#      x y z
#    x 2.091190 0.086480 0.030450 
#    y 0.086480 2.036940 0.051040 
#    z 0.030450 0.051040 2.054790 
# 
# From -- ./inp_files/124333.got.cif
#   From: 2010.05.17/outbox.cif.g08.bks.cpg/sg2_63_cif.got.tgz:124333.got - 2010.06.03 11:33:40.
