data_PCOD9015932
_publ_section_title
;
Structure prediction by ZEFSAII (Michael W. Deem and Ramdas Pophale) SiO2 
 PCOD9015932
Probable space group: P -1
;
_chemical_formula_sum "Si O2"
_cell_formula_units_Z 14
_cell_length_a 12.563826
_cell_length_b 23.271633
_cell_length_c 9.069242
_cell_angle_alpha 36.450867
_cell_angle_beta 129.730435
_cell_angle_gamma 155.985296
_cell_volume 588.958665
_symmetry_space_group_name_H-M "P -1"
_symmetry_group_IT_number 2
_symmetry_cell_setting 'triclinic'
loop_
_space_group_symop_operation_xyz
x,y,z
-x,-y,-z
loop_
_atom_site_type_symbol
_atom_site_label
_atom_site_fract_x
_atom_site_fract_y
_atom_site_fract_z
Si Si1 0.016143 0.594371 0.615205
Si Si2 0.596204 0.003824 0.725248
Si Si3 0.946077 0.091955 0.646408
Si Si4 0.500918 0.757790 0.692525
Si Si5 0.473103 0.579181 0.416644
Si Si6 0.355115 0.812054 0.206375
Si Si7 0.458823 0.509807 0.106001
O O1 0.219462 0.803380 0.425447
O O2 0.185012 0.599375 0.792982
O O3 0.046454 0.617210 0.415561
O O4 0.718932 0.445066 0.729254
O O5 0.787976 0.036097 0.763658
O O6 0.500000 0.000000 0.500000
O O7 0.377401 0.827973 0.016377
O O8 0.732747 0.925864 0.674790
O O9 0.214544 0.193868 0.730720
O O10 0.135327 0.293453 0.321729
O O11 0.526386 0.833144 0.405193
O O12 0.526778 0.661300 0.883325
O O13 0.500000 0.500000 0.500000
O O14 0.347795 0.446718 0.719983
O O15 0.500000 0.000000 0.000000
O O16 0.500000 0.500000 0.000000
#
# Coordination Sequence:
#
# PCOD9015932 Si02
#       7
#     2   2   2   2   2   2   2
#     4   9  18  37  69  96 137 179 236 279 346 409
#     4  11  17  34  66 106 136 180 230 292 346 416
#     4  10  22  40  70 100 139 183 235 275 361 412
#     4  10  21  45  73 101 131 188 246 284 341 425
#     4  10  21  42  65  98 151 187 213 293 362 406
#     4   8  18  33  67  99 135 178 233 291 340 394
#     4  10  25  45  71  99 142 183 234 294 357 416
#
# _framework density 23.770768
#
# number of rings (size 3 to 8) (size 9 to 14) (size 15 to 20)
#    1.714    0.571    2.857    0.000    0.000    4.000 
#    0.000    5.714    3.143    0.000    0.000    0.000 
#    0.000    0.000    0.000    0.000    0.000    0.000 
#
# Total GULP energy -77983.316936 kJ/mol
# GULP energy per Si atom -5570.236924 kJ/mol
# Density = 2.371666 g / cm^3
# Si number density = 23.770768 Si / 1000 Ang^3
#
#
#
# Elastic Constant Matrix: (Units=GPa)
#
#
# Indices 1 2 3 4 5 6 
#
# 1 101.7780 23.7345 47.2002 20.0846 -12.6688 0.8835
# 2 23.7345 78.7189 34.4086 23.3181 -4.0525 10.9910
# 3 47.2002 34.4086 105.5863 4.7548 -13.1136 0.2216
# 4 20.0846 23.3181 4.7548 26.5685 -10.0967 7.6353
# 5 -12.6688 -4.0525 -13.1136 -10.0967 49.0719 6.9537
# 6 0.8835 10.9910 0.2216 7.6353 6.9537 35.2102
#
#
#
# Elastic Compliance Matrix: (Units=1/GPa)
#
#
# Indices 1 2 3 4 5 6 
#
# 1 0.014910 0.001879 -0.006800 -0.012507 -0.000659 0.001924
# 2 0.001879 0.021164 -0.007288 -0.019537 -0.003496 -0.001681
# 3 -0.006800 -0.007288 0.014896 0.010554 0.003895 -0.000706
# 4 -0.012507 -0.019537 0.010554 0.071222 0.014322 -0.011927
# 5 -0.000659 -0.003496 0.003895 0.014322 0.024890 -0.006938
# 6 0.001924 -0.001681 -0.000706 -0.011927 -0.006938 0.032838
#
#
# Mechanical properties :
#
#
# Convention : Reuss Voigt Hill
#
# Bulk Modulus (GPa) = 37.66191 55.19665 46.42928
# Shear Modulus (GPa) = 23.45329 34.21944 28.83636
#
# Velocity S-wave (km/s) = 3.14450 3.79827 3.48674
# Velocity P-wave (km/s) = 5.39092 6.51971 5.98200
#
# Compressibility (1/GPa) = 0.02655202
#
# Stress axis : x y z
#
# Youngs Moduli (GPa) = 67.06833 47.24913 67.13310
#
# Poissons Ratio (x) = -0.08879 0.45652
# Poissons Ratio (y) = -0.12603 0.48927
# Poissons Ratio (z) = 0.45608 0.34435
#
# Static dielectric constant tensor:
#      x y z
#    x 1.893270 0.035160 -0.095670 
#    y 0.035160 2.334760 0.240870 
#    z -0.095670 0.240870 2.026340 
# 
# From -- ./inp_files/221872.got.cif
#   From: 2010.05.17/outbox.cif.g08.bks.cpg/sg2_111_cif.got.tgz:221872.got - 2010.06.03 11:33:40.
