data_PCOD9015912
_publ_section_title
;
Structure prediction by ZEFSAII (Michael W. Deem and Ramdas Pophale) SiO2 
 PCOD9015912
Probable space group: P -1
;
_chemical_formula_sum "Si O2"
_cell_formula_units_Z 16
_cell_length_a 12.723305
_cell_length_b 23.128806
_cell_length_c 8.024185
_cell_angle_alpha 124.497913
_cell_angle_beta 42.941196
_cell_angle_gamma 152.408416
_cell_volume 719.198676
_symmetry_space_group_name_H-M "P -1"
_symmetry_group_IT_number 2
_symmetry_cell_setting 'triclinic'
loop_
_space_group_symop_operation_xyz
x,y,z
-x,-y,-z
loop_
_atom_site_type_symbol
_atom_site_label
_atom_site_fract_x
_atom_site_fract_y
_atom_site_fract_z
Si Si1 0.819236 0.625060 0.391813
Si Si2 0.902389 0.174483 0.976164
Si Si3 0.300596 0.765824 0.840550
Si Si4 0.982495 0.881842 0.938809
Si Si5 0.541900 0.459015 0.740345
Si Si6 0.992633 0.851188 0.517242
Si Si7 0.666103 0.363007 0.613324
Si Si8 0.219357 0.088168 0.237038
O O1 0.500000 0.500000 0.500000
O O2 0.795354 0.583406 0.533828
O O3 0.910879 0.740671 0.480219
O O4 0.998887 0.649013 0.092441
O O5 0.916772 0.140023 0.080467
O O6 0.225323 0.325557 0.818307
O O7 0.844964 0.099478 0.766260
O O8 0.708613 0.168671 0.159101
O O9 0.357736 0.719700 0.589219
O O10 0.505395 0.841872 0.887652
O O11 0.632800 0.747041 0.111318
O O12 0.114275 0.924575 0.671813
O O13 0.089946 0.994174 0.083106
O O14 0.624484 0.414001 0.629307
O O15 0.500000 0.500000 0.000000
O O16 0.760993 0.822380 0.690027
O O17 0.000000 0.500000 0.500000
O O18 0.000000 0.000000 0.500000
#
# Coordination Sequence:
#
# PCOD9015912 Si02
#       8
#     2   2   2   2   2   2   2   2
#     4  11  23  41  66  94 133 179 215 276 340 400
#     4  10  21  42  65  97 131 178 225 272 340 409
#     4  11  24  40  68 100 134 178 234 275 342 413
#     4  11  24  44  72  94 136 188 218 288 343 396
#     4  11  21  40  67  93 141 182 217 271 340 411
#     4  11  23  42  69  97 130 177 234 273 343 411
#     4  11  24  37  63 106 136 170 228 278 339 409
#     4  12  23  47  69  95 138 181 229 284 347 399
#
# _framework density 22.246981999999999
#
# number of rings (size 3 to 8) (size 9 to 14) (size 15 to 20)
#    0.000    1.000    5.000    3.375    1.750    2.000 
#    0.000    3.750    0.000    0.000    0.000    0.000 
#    0.000    0.000    0.000    0.000    0.000    0.000 
#
# Total GULP energy -89177.098332 kJ/mol
# GULP energy per Si atom -5573.568646 kJ/mol
# Density = 2.219635 g / cm^3
# Si number density = 22.246982 Si / 1000 Ang^3
#
#
#
# Elastic Constant Matrix: (Units=GPa)
#
#
# Indices 1 2 3 4 5 6 
#
# 1 120.7314 10.9010 53.8282 7.7108 -18.2273 -2.3780
# 2 10.9010 45.6971 5.3945 3.9043 -8.7895 14.7187
# 3 53.8282 5.3945 91.2786 18.3530 0.1685 -0.5220
# 4 7.7108 3.9043 18.3530 43.1008 -0.1095 -2.4686
# 5 -18.2273 -8.7895 0.1685 -0.1095 45.0889 9.8109
# 6 -2.3780 14.7187 -0.5220 -2.4686 9.8109 40.0125
#
#
#
# Elastic Compliance Matrix: (Units=1/GPa)
#
#
# Indices 1 2 3 4 5 6 
#
# 1 0.012369 -0.001237 -0.007448 0.001082 0.004793 -0.000015
# 2 -0.001237 0.027934 -0.000441 -0.002812 0.007639 -0.012401
# 3 -0.007448 -0.000441 0.016517 -0.005647 -0.003256 0.000385
# 4 0.001082 -0.002812 -0.005647 0.025824 -0.000630 0.002773
# 5 0.004793 0.007639 -0.003256 -0.000630 0.027658 -0.009388
# 6 -0.000015 -0.012401 0.000385 0.002773 -0.009388 0.032031
#
#
# Mechanical properties :
#
#
# Convention : Reuss Voigt Hill
#
# Bulk Modulus (GPa) = 25.92728 44.21716 35.07222
# Shear Modulus (GPa) = 28.82792 38.14600 33.48696
#
# Velocity S-wave (km/s) = 3.60365 4.14534 3.88395
# Velocity P-wave (km/s) = 5.38466 6.54450 5.99271
#
# Compressibility (1/GPa) = 0.03856942
#
# Stress axis : x y z
#
# Youngs Moduli (GPa) = 80.84518 35.79825 60.54301
#
# Poissons Ratio (x) = 0.04428 0.45091
# Poissons Ratio (y) = 0.10001 0.02670
# Poissons Ratio (z) = 0.60211 0.01579
#
# Static dielectric constant tensor:
#      x y z
#    x 2.054770 0.090490 -0.023690 
#    y 0.090490 1.912870 -0.093110 
#    z -0.023690 -0.093110 1.792060 
# 
# From -- ./inp_files/284903.got.cif
#   From: 2010.05.17/outbox.cif.g08.bks.cpg/sg2_143_cif.got.tgz:284903.got - 2010.06.03 11:33:40.
