data_PCOD9015437
_publ_section_title
;
Structure prediction by ZEFSAII (Michael W. Deem and Ramdas Pophale) SiO2 
 PCOD9015437
Probable space group: P -1
;
_chemical_formula_sum "Si O2"
_cell_formula_units_Z 16
_cell_length_a 15.603499
_cell_length_b 13.045379
_cell_length_c 5.154355
_cell_angle_alpha 82.387124
_cell_angle_beta 81.363090
_cell_angle_gamma 138.916041
_cell_volume 631.059138
_symmetry_space_group_name_H-M "P -1"
_symmetry_group_IT_number 2
_symmetry_cell_setting 'triclinic'
loop_
_space_group_symop_operation_xyz
x,y,z
-x,-y,-z
loop_
_atom_site_type_symbol
_atom_site_label
_atom_site_fract_x
_atom_site_fract_y
_atom_site_fract_z
Si Si1 0.116963 0.233340 0.164454
Si Si2 0.057868 0.643336 0.606861
Si Si3 0.435464 0.237722 0.561041
Si Si4 0.197963 0.603838 0.844593
Si Si5 0.795419 0.892966 0.556313
Si Si6 0.743809 0.535206 0.479514
Si Si7 0.487113 0.890961 0.741957
Si Si8 0.730679 0.030904 0.875338
O O1 0.169194 0.170202 0.257740
O O2 0.180278 0.366365 0.318537
O O3 0.183280 0.326636 0.826823
O O4 0.945195 0.065935 0.298142
O O5 0.173578 0.695430 0.713707
O O6 0.120781 0.782424 0.330590
O O7 0.000000 0.500000 0.500000
O O8 0.940639 0.565832 0.890291
O O9 0.343117 0.249949 0.515077
O O10 0.573840 0.393458 0.617167
O O11 0.500476 0.214240 0.343840
O O12 0.312607 0.049153 0.800399
O O13 0.231510 0.557539 0.610231
O O14 0.324258 0.734673 0.947875
O O15 0.736671 0.931162 0.742731
O O16 0.500000 0.000000 0.500000
O O17 0.609764 0.999796 0.860730
#
# Coordination Sequence:
#
# PCOD9015437 Si02
#       8
#     2   2   2   2   2   2   2   2
#     4  11  27  48  77 106 144 189 245 295 368 422
#     4  11  25  39  66 101 135 186 233 291 353 425
#     4  10  26  43  70 101 143 187 240 292 364 424
#     4  10  24  43  63  98 139 179 242 287 353 426
#     4  10  26  47  72 105 141 187 238 299 361 434
#     4  11  27  47  73 108 143 192 236 307 351 429
#     4  10  21  42  62  92 133 183 235 285 346 419
#     4  11  24  43  68 100 139 185 231 298 353 425
#
# _framework density 25.354202999999998
#
# number of rings (size 3 to 8) (size 9 to 14) (size 15 to 20)
#    0.000    1.500    1.250    0.750   14.000    4.500 
#    0.000    0.000    0.000    0.000    0.000    0.000 
#    0.000    0.000    0.000    0.000    0.000    0.000 
#
# Total GULP energy -89403.431219 kJ/mol
# GULP energy per Si atom -5587.714451 kJ/mol
# Density = 2.529650 g / cm^3
# Si number density = 25.354203 Si / 1000 Ang^3
#
#
#
# Elastic Constant Matrix: (Units=GPa)
#
#
# Indices 1 2 3 4 5 6 
#
# 1 136.3827 33.6544 15.4368 -7.1441 1.6089 31.9914
# 2 33.6544 54.4766 5.7951 -6.6199 -15.0267 7.8581
# 3 15.4368 5.7951 87.4074 -12.8916 4.5014 12.8297
# 4 -7.1441 -6.6199 -12.8916 32.3806 -0.4093 -2.8194
# 5 1.6089 -15.0267 4.5014 -0.4093 29.5286 -7.3376
# 6 31.9914 7.8581 12.8297 -2.8194 -7.3376 38.8894
#
#
#
# Elastic Compliance Matrix: (Units=1/GPa)
#
#
# Indices 1 2 3 4 5 6 
#
# 1 0.011440 -0.007623 0.000213 0.000162 -0.006823 -0.009217
# 2 -0.007623 0.027386 -0.001344 0.003966 0.015713 0.004433
# 3 0.000213 -0.001344 0.013023 0.004511 -0.003757 -0.004582
# 4 0.000162 0.003966 0.004511 0.033581 0.001879 0.000366
# 5 -0.006823 0.015713 -0.003757 0.001879 0.045933 0.012480
# 6 -0.009217 0.004433 -0.004582 0.000366 0.012480 0.036293
#
#
# Mechanical properties :
#
#
# Convention : Reuss Voigt Hill
#
# Bulk Modulus (GPa) = 29.12007 43.11550 36.11778
# Shear Modulus (GPa) = 25.43076 35.05171 30.24124
#
# Velocity S-wave (km/s) = 3.17048 3.72221 3.45737
# Velocity P-wave (km/s) = 4.99128 5.95947 5.49673
#
# Compressibility (1/GPa) = 0.03434058
#
# Stress axis : x y z
#
# Youngs Moduli (GPa) = 87.41084 36.51540 76.78428
#
# Poissons Ratio (x) = 0.27836 -0.01636
# Poissons Ratio (y) = 0.66635 0.10322
# Poissons Ratio (z) = -0.01862 0.04909
#
# Static dielectric constant tensor:
#      x y z
#    x 2.069520 0.016460 0.047260 
#    y 0.016460 2.122740 0.036950 
#    z 0.047260 0.036950 2.061680 
# 
# From -- ./inp_files/39360.got.cif
#   From: 2010.05.17/outbox.cif.g08.bks.cpg/sg2_20_cif.got.tgz:39360.got - 2010.06.03 11:33:40.
