data_PCOD9015319
_publ_section_title
;
Structure prediction by ZEFSAII (Michael W. Deem and Ramdas Pophale) SiO2 
 PCOD9015319
Probable space group: P -1
;
_chemical_formula_sum "Si O2"
_cell_formula_units_Z 15
_cell_length_a 15.462418
_cell_length_b 15.543119
_cell_length_c 8.661204
_cell_angle_alpha 87.690181
_cell_angle_beta 87.207707
_cell_angle_gamma 19.252750
_cell_volume 685.455772
_symmetry_space_group_name_H-M "P -1"
_symmetry_group_IT_number 2
_symmetry_cell_setting 'triclinic'
loop_
_space_group_symop_operation_xyz
x,y,z
-x,-y,-z
loop_
_atom_site_type_symbol
_atom_site_label
_atom_site_fract_x
_atom_site_fract_y
_atom_site_fract_z
Si Si1 0.000000 0.000000 0.000000
Si Si2 0.602452 0.679961 0.477286
Si Si3 0.292570 0.812658 0.535120
Si Si4 0.764215 0.291174 0.686822
Si Si5 0.254146 0.261930 0.100603
Si Si6 0.843092 0.813898 0.693567
Si Si7 0.878327 0.912320 0.974906
Si Si8 0.337126 0.383352 0.158445
O O1 0.832245 0.198671 0.858161
O O2 0.052493 0.052217 0.060413
O O3 0.465609 0.719317 0.437692
O O4 0.648459 0.624050 0.658260
O O5 0.871664 0.446277 0.386882
O O6 0.382587 0.954614 0.428055
O O7 0.478882 0.601806 0.671665
O O8 0.245547 0.780829 0.421611
O O9 0.018395 0.103345 0.608897
O O10 0.205523 0.236248 0.236532
O O11 0.301922 0.314845 0.139604
O O12 0.000000 0.500000 0.000000
O O13 0.500000 0.000000 0.000000
O O14 0.839870 0.887589 0.828131
O O15 0.102807 0.656044 0.078485
O O16 0.606220 0.162538 0.074086
#
# Coordination Sequence:
#
# PCOD9015319 Si02
#       8
#     1   2   2   2   2   2   2   2
#     4  12  26  42  66 106 136 172 240 298 324 394
#     4  12  25  41  67 103 141 171 228 289 338 408
#     4  10  21  42  60  85 127 183 214 263 343 405
#     4  10  22  38  63  86 124 174 228 273 330 388
#     4  12  23  46  75 101 137 183 226 282 345 426
#     4  12  25  43  70 104 136 182 228 286 345 403
#     4  12  26  45  71 100 141 188 231 281 350 413
#     4  12  25  47  73 101 138 187 229 282 351 414
#
# _framework density 21.883251000000001
#
# number of rings (size 3 to 8) (size 9 to 14) (size 15 to 20)
#    0.000    0.533    2.667    5.600    0.000    5.333 
#    0.000    0.000    0.000    0.000    0.000    0.000 
#    0.000    0.000    0.000    0.000    0.000    0.000 
#
# Total GULP energy -83664.573214 kJ/mol
# GULP energy per Si atom -5577.638214 kJ/mol
# Density = 2.183344 g / cm^3
# Si number density = 21.883251 Si / 1000 Ang^3
#
#
#
# Elastic Constant Matrix: (Units=GPa)
#
#
# Indices 1 2 3 4 5 6 
#
# 1 184.8822 28.3888 -215.9227 -68.5851 5.4445 -23.6448
# 2 28.3888 95.8770 -28.7883 -21.3076 8.9705 -33.7920
# 3 -215.9227 -28.7883 671.2133 225.6643 9.1046 103.1438
# 4 -68.5851 -21.3076 225.6643 135.1284 1.4753 34.6948
# 5 5.4445 8.9705 9.1046 1.4753 25.8907 4.2151
# 6 -23.6448 -33.7920 103.1438 34.6948 4.2151 52.7176
#
#
#
# Elastic Compliance Matrix: (Units=1/GPa)
#
#
# Indices 1 2 3 4 5 6 
#
# 1 0.009875 -0.003716 0.004348 -0.001432 -0.001356 -0.005410
# 2 -0.003716 0.017031 -0.003835 0.003417 -0.006410 0.015015
# 3 0.004348 -0.003835 0.006265 -0.006719 -0.000048 -0.008340
# 4 -0.001432 0.003417 -0.006719 0.017641 -0.000028 0.003086
# 5 -0.001356 -0.006410 -0.000048 -0.000028 0.042450 -0.007998
# 6 -0.005410 0.015015 -0.008340 0.003086 -0.007998 0.041094
#
#
# Mechanical properties :
#
#
# Convention : Reuss Voigt Hill
#
# Bulk Modulus (GPa) = 37.36127 57.70312 47.53219
# Shear Modulus (GPa) = 33.40394 120.63366 77.01880
#
# Velocity S-wave (km/s) = 3.91123 7.43274 5.93900
# Velocity P-wave (km/s) = 6.12430 10.00434 8.29439
#
# Compressibility (1/GPa) = 0.02676568
#
# Stress axis : x y z
#
# Youngs Moduli (GPa) = 101.26772 58.71806 159.60500
#
# Poissons Ratio (x) = 0.21823 -0.69404
# Poissons Ratio (y) = 0.37636 0.61201
# Poissons Ratio (z) = -0.44036 0.22516
#
# Static dielectric constant tensor:
#      x y z
#    x 2.502220 -0.009350 -0.065760 
#    y -0.009350 1.756650 -0.006290 
#    z -0.065760 -0.006290 1.803260 
# 
# From -- ./inp_files/313359.got.cif
#   From: 2010.05.17/outbox.cif.g08.bks.cpg/sg2_157_cif.got.tgz:313359.got - 2010.06.03 11:33:40.
