data_PCOD9015048
_publ_section_title
;
Structure prediction by ZEFSAII (Michael W. Deem and Ramdas Pophale) SiO2 
 PCOD9015048
Probable space group: P -1
;
_chemical_formula_sum "Si O2"
_cell_formula_units_Z 16
_cell_length_a 12.528877
_cell_length_b 8.624961
_cell_length_c 14.908318
_cell_angle_alpha 137.627302
_cell_angle_beta 105.131064
_cell_angle_gamma 48.735376
_cell_volume 730.225857
_symmetry_space_group_name_H-M "P -1"
_symmetry_group_IT_number 2
_symmetry_cell_setting 'triclinic'
loop_
_space_group_symop_operation_xyz
x,y,z
-x,-y,-z
loop_
_atom_site_type_symbol
_atom_site_label
_atom_site_fract_x
_atom_site_fract_y
_atom_site_fract_z
Si Si1 0.905286 0.282581 0.421434
Si Si2 0.523866 0.239617 0.614956
Si Si3 0.585123 0.510393 0.104095
Si Si4 0.762633 0.645117 0.120911
Si Si5 0.928200 0.773050 0.895773
Si Si6 0.876215 0.685551 0.426381
Si Si7 0.655112 0.312611 0.396795
Si Si8 0.094107 0.550678 0.100866
O O1 0.863723 0.525651 0.438276
O O2 0.753996 0.389541 0.479869
O O3 0.019992 0.249720 0.497392
O O4 0.997685 0.928109 0.249505
O O5 0.508603 0.339913 0.758125
O O6 0.393308 0.562213 0.663385
O O7 0.500000 0.000000 0.500000
O O8 0.695435 0.029839 0.519033
O O9 0.625241 0.709926 0.166876
O O10 0.500000 0.500000 0.000000
O O11 0.760794 0.144507 0.002980
O O12 0.937912 0.301396 0.045155
O O13 0.752036 0.931329 0.261967
O O14 0.754389 0.626296 0.003957
O O15 0.883472 0.602766 0.864554
O O16 0.028573 0.576947 0.744494
O O17 0.500000 0.500000 0.500000
O O18 0.000000 0.500000 0.000000
#
# Coordination Sequence:
#
# PCOD9015048 Si02
#       8
#     2   2   2   2   2   2   2   2
#     4  11  24  43  70  98 141 177 238 286 353 408
#     4  12  26  46  72 104 146 190 238 289 364 428
#     4  12  29  46  69 103 148 182 235 303 359 416
#     4  11  24  44  71  97 133 186 236 282 347 426
#     4  11  23  45  73 101 128 186 242 277 349 430
#     4  11  26  43  72 102 142 188 233 292 350 428
#     4  12  24  44  70 104 143 183 235 295 356 424
#     4  10  21  41  70  99 131 171 239 289 338 409
#
# _framework density 21.911028999999999
#
# number of rings (size 3 to 8) (size 9 to 14) (size 15 to 20)
#    0.000    0.750    3.750    4.125    7.000    0.500 
#    2.250    1.250    0.000    0.000    0.000    0.000 
#    0.000    0.000    0.000    0.000    0.000    0.000 
#
# Total GULP energy -89405.421420 kJ/mol
# GULP energy per Si atom -5587.838839 kJ/mol
# Density = 2.186116 g / cm^3
# Si number density = 21.911029 Si / 1000 Ang^3
#
#
#
# Elastic Constant Matrix: (Units=GPa)
#
#
# Indices 1 2 3 4 5 6 
#
# 1 132.5659 30.1220 36.6595 -4.3872 2.3465 -2.7681
# 2 30.1220 71.8748 18.9160 9.0489 9.8641 -3.0352
# 3 36.6595 18.9160 93.3679 -2.3006 -9.0276 -6.4321
# 4 -4.3872 9.0489 -2.3006 32.3203 1.5699 0.2995
# 5 2.3465 9.8641 -9.0276 1.5699 45.7728 3.6477
# 6 -2.7681 -3.0352 -6.4321 0.2995 3.6477 12.9116
#
#
#
# Elastic Compliance Matrix: (Units=1/GPa)
#
#
# Indices 1 2 3 4 5 6 
#
# 1 0.009168 -0.003271 -0.002941 0.001972 -0.000397 -0.000202
# 2 -0.003271 0.017330 -0.002524 -0.005306 -0.004155 0.003412
# 3 -0.002941 -0.002524 0.012983 0.001052 0.002868 0.004409
# 4 0.001972 -0.005306 0.001052 0.032768 0.000215 -0.001122
# 5 -0.000397 -0.004155 0.002868 0.000215 0.023829 -0.006370
# 6 -0.000202 0.003412 0.004409 -0.001122 -0.006370 0.082230
#
#
# Mechanical properties :
#
#
# Convention : Reuss Voigt Hill
#
# Bulk Modulus (GPa) = 45.43317 52.13374 48.78345
# Shear Modulus (GPa) = 24.61638 32.34168 28.47903
#
# Velocity S-wave (km/s) = 3.35546 3.84610 3.60913
# Velocity P-wave (km/s) = 5.98268 6.60063 6.29924
#
# Compressibility (1/GPa) = 0.02201035
#
# Stress axis : x y z
#
# Youngs Moduli (GPa) = 109.07685 57.70219 77.02195
#
# Poissons Ratio (x) = 0.18872 0.22650
# Poissons Ratio (y) = 0.35674 0.19443
# Poissons Ratio (z) = 0.32076 0.14566
#
# Static dielectric constant tensor:
#      x y z
#    x 1.840220 0.021380 -0.044030 
#    y 0.021380 1.843820 -0.006790 
#    z -0.044030 -0.006790 1.838680 
# 
# From -- ./inp_files/516408.got.cif
#   From: 2010.05.17/outbox.cif.g08.bks.cpg/sg2_259_cif.got.tgz:516408.got - 2010.06.03 11:33:40.
