data_PCOD9015167
_publ_section_title
;
Structure prediction by ZEFSAII (Michael W. Deem and Ramdas Pophale) SiO2 
 PCOD9015167
Probable space group: P -1
;
_chemical_formula_sum "Si O2"
_cell_formula_units_Z 16
_cell_length_a 7.231217
_cell_length_b 14.534489
_cell_length_c 7.846616
_cell_angle_alpha 128.212814
_cell_angle_beta 105.092605
_cell_angle_gamma 66.900182
_cell_volume 595.846802
_symmetry_space_group_name_H-M "P -1"
_symmetry_group_IT_number 2
_symmetry_cell_setting 'triclinic'
loop_
_space_group_symop_operation_xyz
x,y,z
-x,-y,-z
loop_
_atom_site_type_symbol
_atom_site_label
_atom_site_fract_x
_atom_site_fract_y
_atom_site_fract_z
Si Si1 0.409306 0.753397 0.817813
Si Si2 0.086610 0.648729 0.567546
Si Si3 0.925743 0.888298 0.280778
Si Si4 0.209701 0.024969 0.028621
Si Si5 0.234296 0.198118 0.540933
Si Si6 0.838870 0.388518 0.985178
Si Si7 0.675790 0.614483 0.428281
Si Si8 0.731740 0.561113 0.856038
O O1 0.194521 0.734850 0.780474
O O2 0.495115 0.676844 0.579830
O O3 0.557986 0.686045 0.924353
O O4 0.378414 0.893640 0.930670
O O5 0.997556 0.717314 0.447072
O O6 0.881098 0.635936 0.579530
O O7 0.239026 0.520106 0.402187
O O8 0.765621 0.868454 0.358190
O O9 0.107623 0.758470 0.164682
O O10 0.826134 0.921635 0.109516
O O11 0.000000 0.000000 0.500000
O O12 0.264703 0.108038 0.283031
O O13 0.000000 0.000000 0.000000
O O14 0.351588 0.297094 0.646137
O O15 0.709701 0.469268 0.893454
O O16 0.739760 0.473234 0.222078
O O17 0.059264 0.408251 0.041221
#
# Coordination Sequence:
#
# PCOD9015167 Si02
#       8
#     2   2   2   2   2   2   2   2
#     4  12  24  43  71 113 146 190 252 302 369 443
#     4   9  19  42  68  96 150 181 238 308 362 423
#     4  12  23  43  78 103 145 206 241 299 375 445
#     4  12  25  45  71 106 148 199 250 296 374 446
#     4  10  21  47  71 102 145 197 244 302 368 435
#     4  10  21  45  71 106 148 192 245 299 386 432
#     4   9  23  45  73 105 147 188 245 310 365 438
#     4  10  21  41  72 102 143 191 238 309 364 438
#
# _framework density 26.852537999999999
#
# number of rings (size 3 to 8) (size 9 to 14) (size 15 to 20)
#    0.750    0.750    3.750    1.125    1.750    3.500 
#    4.500    1.250    0.000    0.000    0.000    0.000 
#    0.000    0.000    0.000    0.000    0.000    0.000 
#
# Total GULP energy -89556.086105 kJ/mol
# GULP energy per Si atom -5597.255382 kJ/mol
# Density = 2.679142 g / cm^3
# Si number density = 26.852538 Si / 1000 Ang^3
#
#
#
# Elastic Constant Matrix: (Units=GPa)
#
#
# Indices 1 2 3 4 5 6 
#
# 1 81.7468 44.8454 42.2026 3.0955 -8.5802 -5.3649
# 2 44.8454 229.4995 82.5387 1.3821 -31.1646 -7.7298
# 3 42.2026 82.5387 153.2508 25.6532 -39.9402 -4.9075
# 4 3.0955 1.3821 25.6532 61.9992 -6.0092 -12.0384
# 5 -8.5802 -31.1646 -39.9402 -6.0092 39.4134 5.6130
# 6 -5.3649 -7.7298 -4.9075 -12.0384 5.6130 47.8184
#
#
#
# Elastic Compliance Matrix: (Units=1/GPa)
#
#
# Indices 1 2 3 4 5 6 
#
# 1 0.015041 -0.001802 -0.003832 0.000961 -0.002099 0.001491
# 2 -0.001802 0.005820 -0.002310 0.001219 0.001973 0.000577
# 3 -0.003832 -0.002310 0.011770 -0.004090 0.008881 -0.001668
# 4 0.000961 0.001219 -0.004090 0.018573 -0.000803 0.004655
# 5 -0.002099 0.001973 0.008881 -0.000803 0.035838 -0.003414
# 6 0.001491 0.000577 -0.001668 0.004655 -0.003414 0.022575
#
#
# Mechanical properties :
#
#
# Convention : Reuss Voigt Hill
#
# Bulk Modulus (GPa) = 59.72122 89.29673 74.50897
# Shear Modulus (GPa) = 38.14330 49.50689 43.82509
#
# Velocity S-wave (km/s) = 3.77300 4.29844 4.04427
# Velocity P-wave (km/s) = 6.42413 7.61329 7.04385
#
# Compressibility (1/GPa) = 0.01674447
#
# Stress axis : x y z
#
# Youngs Moduli (GPa) = 66.48688 171.81874 84.95861
#
# Poissons Ratio (x) = 0.30953 0.32554
# Poissons Ratio (y) = 0.11978 0.19626
# Poissons Ratio (z) = 0.25476 0.39690
#
# Static dielectric constant tensor:
#      x y z
#    x 2.084850 0.013360 -0.021090 
#    y 0.013360 2.210130 -0.041390 
#    z -0.021090 -0.041390 2.137340 
# 
# From -- ./inp_files/204430.got.cif
#   From: 2010.05.17/outbox.cif.g08.bks.cpg/sg2_103_cif.got.tgz:204430.got - 2010.06.03 11:33:40.
