data_PCOD9015457
_publ_section_title
;
Structure prediction by ZEFSAII (Michael W. Deem and Ramdas Pophale) SiO2 
 PCOD9015457
Probable space group: P -1
;
_chemical_formula_sum "Si O2"
_cell_formula_units_Z 14
_cell_length_a 16.812458
_cell_length_b 11.859294
_cell_length_c 9.293852
_cell_angle_alpha 71.373761
_cell_angle_beta 108.704964
_cell_angle_gamma 158.494036
_cell_volume 642.261725
_symmetry_space_group_name_H-M "P -1"
_symmetry_group_IT_number 2
_symmetry_cell_setting 'triclinic'
loop_
_space_group_symop_operation_xyz
x,y,z
-x,-y,-z
loop_
_atom_site_type_symbol
_atom_site_label
_atom_site_fract_x
_atom_site_fract_y
_atom_site_fract_z
Si Si1 0.108159 0.051424 0.153474
Si Si2 0.187667 0.535947 0.871425
Si Si3 0.999130 0.636218 0.890180
Si Si4 0.521710 0.151123 0.360273
Si Si5 0.412880 0.339908 0.860462
Si Si6 0.824352 0.745730 0.381556
Si Si7 0.035034 0.533305 0.336010
O O1 0.360496 0.404598 0.180513
O O2 0.034157 0.825017 0.149328
O O3 0.977424 0.903060 0.279454
O O4 0.000000 0.000000 0.000000
O O5 0.367894 0.721926 0.787033
O O6 0.148375 0.619532 0.768639
O O7 0.182368 0.533728 0.045042
O O8 0.974258 0.597037 0.717653
O O9 0.229816 0.000279 0.904695
O O10 0.000000 0.500000 0.000000
O O11 0.656130 0.417569 0.429330
O O12 0.500000 0.000000 0.500000
O O13 0.283758 0.895199 0.305256
O O14 0.306374 0.308556 0.722819
O O15 0.500000 0.500000 0.000000
O O16 0.000000 0.000000 0.500000
O O17 0.000000 0.500000 0.500000
#
# Coordination Sequence:
#
# PCOD9015457 Si02
#       7
#     2   2   2   2   2   2   2
#     4  11  22  41  71  99 132 181 224 278 343 411
#     4  10  21  42  62  98 130 170 225 280 331 403
#     4  10  24  40  68 103 132 175 231 283 333 412
#     4  11  24  42  69  93 134 187 221 279 353 401
#     4  12  23  45  73  98 142 184 223 282 353 404
#     4  11  27  44  68 105 139 175 236 284 338 415
#     4  11  23  41  65  95 136 176 222 277 345 405
#
# _framework density 21.797967
#
# number of rings (size 3 to 8) (size 9 to 14) (size 15 to 20)
#    0.000    1.143    4.286    0.857    4.000    2.286 
#    0.000    0.000    0.000    0.000    0.000    0.000 
#    0.000    0.000    0.000    0.000    0.000    0.000 
#
# Total GULP energy -78001.885997 kJ/mol
# GULP energy per Si atom -5571.563286 kJ/mol
# Density = 2.174835 g / cm^3
# Si number density = 21.797967 Si / 1000 Ang^3
#
#
#
# Elastic Constant Matrix: (Units=GPa)
#
#
# Indices 1 2 3 4 5 6 
#
# 1 84.6181 45.3968 32.9762 1.5700 -12.5452 5.8742
# 2 45.3968 144.6381 35.2542 -0.4700 -2.1933 -8.4645
# 3 32.9762 35.2542 80.1041 18.5427 -24.6380 -16.7177
# 4 1.5700 -0.4700 18.5427 38.0292 -1.9660 -3.0294
# 5 -12.5452 -2.1933 -24.6380 -1.9660 51.0479 -4.8286
# 6 5.8742 -8.4645 -16.7177 -3.0294 -4.8286 43.4701
#
#
#
# Elastic Compliance Matrix: (Units=1/GPa)
#
#
# Indices 1 2 3 4 5 6 
#
# 1 0.016990 -0.003987 -0.006796 0.002139 0.000286 -0.005505
# 2 -0.003987 0.008953 -0.003089 0.001762 -0.001923 0.001003
# 3 -0.006796 -0.003089 0.024378 -0.010292 0.010526 0.010144
# 4 0.002139 0.001762 -0.010292 0.030903 -0.003377 -0.002125
# 5 0.000286 -0.001923 0.010526 -0.003377 0.025113 0.006189
# 6 -0.005505 0.001003 0.010144 -0.002125 0.006189 0.028384
#
#
# Mechanical properties :
#
#
# Convention : Reuss Voigt Hill
#
# Bulk Modulus (GPa) = 44.29157 59.62385 51.95771
# Shear Modulus (GPa) = 29.41334 39.55832 34.48583
#
# Velocity S-wave (km/s) = 3.67735 4.26463 3.98183
# Velocity P-wave (km/s) = 6.19627 7.18761 6.71027
#
# Compressibility (1/GPa) = 0.02257766
#
# Stress axis : x y z
#
# Youngs Moduli (GPa) = 58.85842 111.68890 41.02088
#
# Poissons Ratio (x) = 0.44531 0.27876
# Poissons Ratio (y) = 0.23467 0.12672
# Poissons Ratio (z) = 0.39997 0.34503
#
# Static dielectric constant tensor:
#      x y z
#    x 1.886170 -0.049640 -0.064790 
#    y -0.049640 1.199370 -0.095560 
#    z -0.064790 -0.095560 1.839170 
# 
# From -- ./inp_files/333147.got.cif
#   From: 2010.05.17/outbox.cif.g08.bks.cpg/sg2_167_cif.got.tgz:333147.got - 2010.06.03 11:33:40.
