data_PCOD9015851
_publ_section_title
;
Structure prediction by ZEFSAII (Michael W. Deem and Ramdas Pophale) SiO2 
 PCOD9015851
Probable space group: P -1
;
_chemical_formula_sum "Si O2"
_cell_formula_units_Z 16
_cell_length_a 17.468696
_cell_length_b 9.434739
_cell_length_c 15.425857
_cell_angle_alpha 36.787311
_cell_angle_beta 31.864362
_cell_angle_gamma 35.105022
_cell_volume 723.211835
_symmetry_space_group_name_H-M "P -1"
_symmetry_group_IT_number 2
_symmetry_cell_setting 'triclinic'
loop_
_space_group_symop_operation_xyz
x,y,z
-x,-y,-z
loop_
_atom_site_type_symbol
_atom_site_label
_atom_site_fract_x
_atom_site_fract_y
_atom_site_fract_z
Si Si1 0.009933 0.711862 0.620019
Si Si2 0.453262 0.953782 0.472150
Si Si3 0.308867 0.616033 0.462458
Si Si4 0.457793 0.252435 0.155319
Si Si5 0.903409 0.957238 0.241633
Si Si6 0.149435 0.147334 0.467638
Si Si7 0.823729 0.414745 0.970636
Si Si8 0.475427 0.779577 0.079136
O O1 0.166222 0.537680 0.611403
O O2 0.989335 0.686043 0.549428
O O3 0.864132 0.662131 0.822081
O O4 0.000000 0.000000 0.500000
O O5 0.539258 0.640691 0.525004
O O6 0.261260 0.069344 0.601601
O O7 0.500000 0.000000 0.500000
O O8 0.504220 0.094247 0.277822
O O9 0.350863 0.706368 0.285635
O O10 0.251622 0.862360 0.462539
O O11 0.276426 0.272339 0.301337
O O12 0.500000 0.500000 0.000000
O O13 0.554271 0.123749 0.037885
O O14 0.929559 0.899491 0.346560
O O15 0.855678 0.250923 0.108390
O O16 0.048805 0.771344 0.131743
O O17 0.645552 0.518849 0.052651
O O18 0.500000 0.000000 0.000000
#
# Coordination Sequence:
#
# PCOD9015851 Si02
#       8
#     2   2   2   2   2   2   2   2
#     4  10  21  42  65  93 133 176 222 271 340 405
#     4  11  23  42  64 100 139 177 227 287 346 407
#     4  11  22  41  71  97 137 180 227 282 347 405
#     4  11  24  41  67 101 138 175 228 281 347 406
#     4  10  24  41  67  92 130 180 227 279 345 406
#     4  10  22  45  66 100 131 180 233 281 340 410
#     4  11  22  43  66  94 130 177 225 275 343 404
#     4  12  22  43  69 102 137 175 229 290 340 406
#
# _framework density 22.123532000000001
#
# number of rings (size 3 to 8) (size 9 to 14) (size 15 to 20)
#    0.000    1.250    3.750    2.250    0.000    4.500 
#    4.500    2.500    0.000    0.000    0.000    0.000 
#    0.000    0.000    0.000    0.000    0.000    0.000 
#
# Total GULP energy -89300.562165 kJ/mol
# GULP energy per Si atom -5581.285135 kJ/mol
# Density = 2.207318 g / cm^3
# Si number density = 22.123532 Si / 1000 Ang^3
#
#
#
# Elastic Constant Matrix: (Units=GPa)
#
#
# Indices 1 2 3 4 5 6 
#
# 1 104.5199 20.5338 40.5912 -4.2783 14.4744 10.1688
# 2 20.5338 89.4186 21.6781 3.7171 0.7248 -2.2619
# 3 40.5912 21.6781 129.0696 -7.6052 29.3510 10.2241
# 4 -4.2783 3.7171 -7.6052 37.4890 -8.5162 -3.4522
# 5 14.4744 0.7248 29.3510 -8.5162 46.1367 3.2999
# 6 10.1688 -2.2619 10.2241 -3.4522 3.2999 30.9384
#
#
#
# Elastic Compliance Matrix: (Units=1/GPa)
#
#
# Indices 1 2 3 4 5 6 
#
# 1 0.011525 -0.002075 -0.002661 0.000350 -0.001622 -0.002848
# 2 -0.002075 0.012222 -0.001928 -0.001369 0.001295 0.001922
# 3 -0.002661 -0.001928 0.010346 0.000556 -0.005468 -0.002040
# 4 0.000350 -0.001369 0.000556 0.028217 0.004605 0.002258
# 5 -0.001622 0.001295 -0.005468 0.004605 0.026483 0.000124
# 6 -0.002848 0.001922 -0.002040 0.002258 0.000124 0.034312
#
#
# Mechanical properties :
#
#
# Convention : Reuss Voigt Hill
#
# Bulk Modulus (GPa) = 48.15496 54.29047 51.22272
# Shear Modulus (GPa) = 34.87875 38.92649 36.90262
#
# Velocity S-wave (km/s) = 3.97488 4.19920 4.08858
# Velocity P-wave (km/s) = 6.54827 6.93570 6.74477
#
# Compressibility (1/GPa) = 0.02076629
#
# Stress axis : x y z
#
# Youngs Moduli (GPa) = 86.77110 81.81861 96.65350
#
# Poissons Ratio (x) = 0.16976 0.25718
# Poissons Ratio (y) = 0.18004 0.18632
# Poissons Ratio (z) = 0.23088 0.15772
#
# Static dielectric constant tensor:
#      x y z
#    x 1.830700 -0.030630 -0.032640 
#    y -0.030630 1.877640 -0.017830 
#    z -0.032640 -0.017830 1.803980 
# 
# From -- ./inp_files/537569.got.cif
#   From: 2010.05.17/outbox.cif.g08.bks.cpg/sg2_269_cif.got.tgz:537569.got - 2010.06.03 11:33:40.
