data_PCOD9015121
_publ_section_title
;
Structure prediction by ZEFSAII (Michael W. Deem and Ramdas Pophale) SiO2 
 PCOD9015121
Probable space group: P -1
;
_chemical_formula_sum "Si O2"
_cell_formula_units_Z 16
_cell_length_a 14.143932
_cell_length_b 9.505602
_cell_length_c 22.494158
_cell_angle_alpha 153.343425
_cell_angle_beta 145.603821
_cell_angle_gamma 29.317354
_cell_volume 649.690323
_symmetry_space_group_name_H-M "P -1"
_symmetry_group_IT_number 2
_symmetry_cell_setting 'triclinic'
loop_
_space_group_symop_operation_xyz
x,y,z
-x,-y,-z
loop_
_atom_site_type_symbol
_atom_site_label
_atom_site_fract_x
_atom_site_fract_y
_atom_site_fract_z
Si Si1 0.205063 0.700520 0.054753
Si Si2 0.596063 0.444107 0.706489
Si Si3 0.421875 0.488095 0.760358
Si Si4 0.582124 0.616218 0.531319
Si Si5 0.991027 0.471463 0.677350
Si Si6 0.714250 0.431521 0.088763
Si Si7 0.995998 0.327844 0.370217
Si Si8 0.887986 0.706936 0.961024
O O1 0.428193 0.445833 0.098777
O O2 0.120368 0.099507 0.193138
O O3 0.206862 0.728997 0.996187
O O4 0.061012 0.560902 0.946321
O O5 0.466245 0.526814 0.729261
O O6 0.486997 0.450893 0.593020
O O7 0.699516 0.677952 0.840772
O O8 0.790948 0.040360 0.665116
O O9 0.189188 0.723066 0.739952
O O10 0.489055 0.062272 0.650240
O O11 0.500000 0.500000 0.500000
O O12 0.821145 0.391568 0.574033
O O13 0.206438 0.298389 0.754254
O O14 0.022976 0.447683 0.614273
O O15 0.500000 0.500000 0.000000
O O16 0.802671 0.141084 0.079049
O O17 0.000000 0.500000 0.500000
O O18 0.000000 0.500000 0.000000
#
# Coordination Sequence:
#
# PCOD9015121 Si02
#       8
#     2   2   2   2   2   2   2   2
#     4  10  21  41  71  95 134 185 217 274 358 415
#     4  12  23  44  67  96 142 176 229 286 341 415
#     4  11  22  43  69  95 132 178 228 279 346 409
#     4  11  24  39  66  93 131 184 226 277 338 404
#     4  10  21  42  66  95 134 175 229 274 336 420
#     4  11  24  44  72 103 139 181 230 286 354 424
#     4  12  22  40  71  97 127 183 231 275 340 406
#     4  11  22  42  69 101 134 183 229 282 350 414
#
# _framework density 24.627117999999999
#
# number of rings (size 3 to 8) (size 9 to 14) (size 15 to 20)
#    0.000    1.000    5.000    4.125    5.250    0.000 
#    2.250    1.875    0.000    0.000    0.000    0.000 
#    0.000    0.000    0.000    0.000    0.000    0.000 
#
# Total GULP energy -89420.035818 kJ/mol
# GULP energy per Si atom -5588.752239 kJ/mol
# Density = 2.457107 g / cm^3
# Si number density = 24.627118 Si / 1000 Ang^3
#
#
#
# Elastic Constant Matrix: (Units=GPa)
#
#
# Indices 1 2 3 4 5 6 
#
# 1 230.5138 37.0311 72.6552 -34.0264 12.3554 -1.5738
# 2 37.0311 75.4955 31.9115 -31.0743 8.1714 0.0902
# 3 72.6552 31.9115 116.4354 -39.3325 17.3126 1.7661
# 4 -34.0264 -31.0743 -39.3325 47.3248 -7.3109 12.2680
# 5 12.3554 8.1714 17.3126 -7.3109 53.5330 -12.4551
# 6 -1.5738 0.0902 1.7661 12.2680 -12.4551 38.3135
#
#
#
# Elastic Compliance Matrix: (Units=1/GPa)
#
#
# Indices 1 2 3 4 5 6 
#
# 1 0.005552 -0.001174 -0.002863 0.000811 -0.000045 0.000088
# 2 -0.001174 0.019302 0.000211 0.012958 -0.002124 -0.004943
# 3 -0.002863 0.000211 0.014782 0.011228 -0.003939 -0.005675
# 4 0.000811 0.012958 0.011228 0.043011 -0.003512 -0.015429
# 5 -0.000045 -0.002124 -0.003939 -0.003512 0.021759 0.008383
# 6 0.000088 -0.004943 -0.005675 -0.015429 0.008383 0.034043
#
#
# Mechanical properties :
#
#
# Convention : Reuss Voigt Hill
#
# Bulk Modulus (GPa) = 31.26702 78.40447 54.83574
# Shear Modulus (GPa) = 31.89510 46.55738 39.22624
#
# Velocity S-wave (km/s) = 3.60268 4.35270 3.99533
# Velocity P-wave (km/s) = 5.47992 7.56089 6.60290
#
# Compressibility (1/GPa) = 0.03198258
#
# Stress axis : x y z
#
# Youngs Moduli (GPa) = 180.11547 51.80742 67.65021
#
# Poissons Ratio (x) = 0.06084 0.19370
# Poissons Ratio (y) = 0.21152 -0.01426
# Poissons Ratio (z) = 0.51571 -0.01092
#
# Static dielectric constant tensor:
#      x y z
#    x 1.809850 0.034670 0.044220 
#    y 0.034670 2.039870 0.048780 
#    z 0.044220 0.048780 2.025510 
# 
# From -- ./inp_files/594259.got.cif
#   From: 2010.05.17/outbox.cif.g08.bks.cpg/sg2_298_cif.got.tgz:594259.got - 2010.06.03 11:33:40.
