data_PCOD9015253
_publ_section_title
;
Structure prediction by ZEFSAII (Michael W. Deem and Ramdas Pophale) SiO2 
 PCOD9015253
Probable space group: P -1
;
_chemical_formula_sum "Si O2"
_cell_formula_units_Z 16
_cell_length_a 11.959258
_cell_length_b 13.271707
_cell_length_c 15.374792
_cell_angle_alpha 30.011039
_cell_angle_beta 59.641485
_cell_angle_gamma 79.757406
_cell_volume 840.931474
_symmetry_space_group_name_H-M "P -1"
_symmetry_group_IT_number 2
_symmetry_cell_setting 'triclinic'
loop_
_space_group_symop_operation_xyz
x,y,z
-x,-y,-z
loop_
_atom_site_type_symbol
_atom_site_label
_atom_site_fract_x
_atom_site_fract_y
_atom_site_fract_z
Si Si1 0.498926 0.162107 0.956094
Si Si2 0.636816 0.128771 0.099056
Si Si3 0.174064 0.374455 0.916081
Si Si4 0.394161 0.214027 0.224533
Si Si5 0.487889 0.550679 0.566780
Si Si6 0.921600 0.438303 0.885199
Si Si7 0.182814 0.006141 0.299538
Si Si8 0.682647 0.186889 0.326288
O O1 0.620051 0.206000 0.951727
O O2 0.320109 0.018256 0.178639
O O3 0.542407 0.419179 0.705984
O O4 0.500000 0.000000 0.000000
O O5 0.513717 0.150799 0.188242
O O6 0.578996 0.844392 0.329500
O O7 0.810481 0.296548 0.950958
O O8 0.301285 0.415351 0.764950
O O9 0.274639 0.615496 0.761704
O O10 0.033749 0.362044 0.931952
O O11 0.117695 0.131531 0.176072
O O12 0.281243 0.174367 0.219220
O O13 0.291759 0.009559 0.493598
O O14 0.500000 0.500000 0.000000
O O15 0.500000 0.500000 0.500000
O O16 0.042657 0.731655 0.594833
O O17 0.799388 0.355693 0.075330
O O18 0.500000 0.000000 0.500000
#
# Coordination Sequence:
#
# PCOD9015253 Si02
#       8
#     2   2   2   2   2   2   2   2
#     4  10  21  41  73  97 119 167 228 271 320 390
#     4  11  23  42  63  99 130 166 220 268 323 390
#     4  11  23  42  63  96 134 168 223 263 328 395
#     4  11  22  41  66  96 132 173 227 270 310 381
#     4  11  21  41  77  95 122 171 222 277 325 381
#     4  12  25  41  63  93 144 173 203 277 332 386
#     4  10  24  40  64  94 132 173 215 270 328 381
#     4  12  22  41  64  93 128 177 227 263 310 390
#
# _framework density 19.026520999999999
#
# number of rings (size 3 to 8) (size 9 to 14) (size 15 to 20)
#    0.000    1.000    5.000    1.875    0.000    4.500 
#    0.000    1.250    0.000    0.000    0.000    0.000 
#    0.000    0.000    0.000    0.000    0.000    0.000 
#
# Total GULP energy -89374.182979 kJ/mol
# GULP energy per Si atom -5585.886436 kJ/mol
# Density = 1.898322 g / cm^3
# Si number density = 19.026521 Si / 1000 Ang^3
#
#
#
# Elastic Constant Matrix: (Units=GPa)
#
#
# Indices 1 2 3 4 5 6 
#
# 1 162.8056 55.1693 72.9887 -2.2974 10.0942 19.1444
# 2 55.1693 110.7262 69.6936 -3.0138 8.8622 16.9082
# 3 72.9887 69.6936 145.1732 1.6093 23.9471 5.1811
# 4 -2.2974 -3.0138 1.6093 29.6189 2.3939 8.1480
# 5 10.0942 8.8622 23.9471 2.3939 28.2817 -3.7755
# 6 19.1444 16.9082 5.1811 8.1480 -3.7755 24.6867
#
#
#
# Elastic Compliance Matrix: (Units=1/GPa)
#
#
# Indices 1 2 3 4 5 6 
#
# 1 0.009000 -0.001029 -0.003686 0.002654 -0.000862 -0.006509
# 2 -0.001029 0.015269 -0.006389 0.004618 -0.000728 -0.009955
# 3 -0.003686 -0.006389 0.012796 -0.002257 -0.006758 0.004260
# 4 0.002654 0.004618 -0.002257 0.040319 -0.006438 -0.019040
# 5 -0.000862 -0.000728 -0.006758 -0.006438 0.043682 0.011391
# 6 -0.006509 -0.009955 0.004260 -0.019040 0.011391 0.059505
#
#
# Mechanical properties :
#
#
# Convention : Reuss Voigt Hill
#
# Bulk Modulus (GPa) = 67.30371 90.48980 78.89676
# Shear Modulus (GPa) = 24.06956 31.24101 27.65529
#
# Velocity S-wave (km/s) = 3.56062 4.05652 3.81663
# Velocity P-wave (km/s) = 7.23564 8.34287 7.80890
#
# Compressibility (1/GPa) = 0.01485802
#
# Stress axis : x y z
#
# Youngs Moduli (GPa) = 111.11611 65.49024 78.14848
#
# Poissons Ratio (x) = 0.06740 0.28802
# Poissons Ratio (y) = 0.11436 0.49928
# Poissons Ratio (z) = 0.40952 0.41841
#
# Static dielectric constant tensor:
#      x y z
#    x 1.685520 -0.014040 0.012890 
#    y -0.014040 1.670450 0.028210 
#    z 0.012890 0.028210 1.664370 
# 
# From -- ./inp_files/284582.got.cif
#   From: 2010.05.17/outbox.cif.g08.bks.cpg/sg2_143_cif.got.tgz:284582.got - 2010.06.03 11:33:40.
