data_PCOD9015520
_publ_section_title
;
Structure prediction by ZEFSAII (Michael W. Deem and Ramdas Pophale) SiO2 
 PCOD9015520
Probable space group: P -1
;
_chemical_formula_sum "Si O2"
_cell_formula_units_Z 16
_cell_length_a 14.997697
_cell_length_b 19.827006
_cell_length_c 8.215079
_cell_angle_alpha 133.499862
_cell_angle_beta 33.184917
_cell_angle_gamma 149.575174
_cell_volume 672.193633
_symmetry_space_group_name_H-M "P -1"
_symmetry_group_IT_number 2
_symmetry_cell_setting 'triclinic'
loop_
_space_group_symop_operation_xyz
x,y,z
-x,-y,-z
loop_
_atom_site_type_symbol
_atom_site_label
_atom_site_fract_x
_atom_site_fract_y
_atom_site_fract_z
Si Si1 0.219869 0.860712 0.709630
Si Si2 0.171283 0.977310 0.397615
Si Si3 0.209191 0.531737 0.827751
Si Si4 0.061994 0.596511 0.416742
Si Si5 0.853811 0.238799 0.984544
Si Si6 0.452356 0.586074 0.249487
Si Si7 0.747758 0.930557 0.930587
Si Si8 0.411041 0.172786 0.649520
O O1 0.136004 0.792337 0.899656
O O2 0.151042 0.740591 0.516172
O O3 0.500000 0.000000 0.500000
O O4 0.113673 0.920786 0.962366
O O5 0.311350 0.064486 0.159814
O O6 0.228934 0.049004 0.601052
O O7 0.911536 0.907236 0.633741
O O8 0.201222 0.879397 0.220138
O O9 0.434389 0.605017 0.497655
O O10 0.000000 0.500000 0.000000
O O11 0.247896 0.612785 0.057042
O O12 0.090381 0.385366 0.812219
O O13 0.806715 0.501028 0.567797
O O14 0.000000 0.500000 0.500000
O O15 0.650848 0.233501 0.297558
O O16 0.619240 0.729640 0.151968
O O17 0.500000 0.500000 0.000000
O O18 0.577546 0.844380 0.203984
#
# Coordination Sequence:
#
# PCOD9015520 Si02
#       8
#     2   2   2   2   2   2   2   2
#     4  11  22  39  70 101 135 171 230 282 341 409
#     4  10  25  41  66  96 137 179 222 287 352 403
#     4  10  21  42  63  92 132 173 224 278 335 417
#     4  11  22  44  73  96 134 186 226 284 346 405
#     4  11  21  42  62 100 130 172 231 280 335 418
#     4  11  27  45  65 100 137 179 236 284 346 428
#     4  10  24  44  62 100 139 176 226 291 342 413
#     4  12  22  43  68  97 136 177 234 278 346 414
#
# _framework density 23.802665000000001
#
# number of rings (size 3 to 8) (size 9 to 14) (size 15 to 20)
#    0.000    1.250    5.000    0.750    3.500    4.000 
#    0.000    0.625    0.000    0.000    0.000    0.000 
#    0.000    0.000    0.000    0.000    0.000    0.000 
#
# Total GULP energy -89118.272065 kJ/mol
# GULP energy per Si atom -5569.892004 kJ/mol
# Density = 2.374849 g / cm^3
# Si number density = 23.802665 Si / 1000 Ang^3
#
#
#
# Elastic Constant Matrix: (Units=GPa)
#
#
# Indices 1 2 3 4 5 6 
#
# 1 37.9876 12.4823 19.4255 5.9162 10.5959 -9.1164
# 2 12.4823 105.2701 21.5298 28.1793 10.1858 -26.1520
# 3 19.4255 21.5298 106.8916 29.3160 11.6179 -17.2286
# 4 5.9162 28.1793 29.3160 47.4461 -6.6377 -0.4649
# 5 10.5959 10.1858 11.6179 -6.6377 36.2063 3.0979
# 6 -9.1164 -26.1520 -17.2286 -0.4649 3.0979 36.0661
#
#
#
# Elastic Compliance Matrix: (Units=1/GPa)
#
#
# Indices 1 2 3 4 5 6 
#
# 1 0.033065 0.001111 -0.002288 -0.004807 -0.010902 0.008945
# 2 0.001111 0.017034 0.003682 -0.013799 -0.010119 0.015083
# 3 -0.002288 0.003682 0.014797 -0.012091 -0.008162 0.009705
# 4 -0.004807 -0.013799 -0.012091 0.039682 0.017986 -0.018030
# 5 -0.010902 -0.010119 -0.008162 0.017986 0.041052 -0.017286
# 6 0.008945 0.015083 0.009705 -0.018030 -0.017286 0.046813
#
#
# Mechanical properties :
#
#
# Convention : Reuss Voigt Hill
#
# Bulk Modulus (GPa) = 14.30458 39.66938 26.98698
# Shear Modulus (GPa) = 23.72642 37.05783 30.39212
#
# Velocity S-wave (km/s) = 3.16063 3.95001 3.57716
# Velocity P-wave (km/s) = 4.39797 6.12418 5.33140
#
# Compressibility (1/GPa) = 0.06990769
#
# Stress axis : x y z
#
# Youngs Moduli (GPa) = 30.24320 58.70441 67.58208
#
# Poissons Ratio (x) = -0.06522 0.15462
# Poissons Ratio (y) = -0.03360 -0.24887
# Poissons Ratio (z) = 0.06919 -0.21618
#
# Static dielectric constant tensor:
#      x y z
#    x 1.980960 0.056540 -0.002580 
#    y 0.056540 2.017430 0.037440 
#    z -0.002580 0.037440 2.011880 
# 
# From -- ./inp_files/337872.got.cif
#   From: 2010.05.17/outbox.cif.g08.bks.cpg/sg2_169_cif.got.tgz:337872.got - 2010.06.03 11:33:40.
