data_PCOD9015980
_publ_section_title
;
Structure prediction by ZEFSAII (Michael W. Deem and Ramdas Pophale) SiO2 
 PCOD9015980
Probable space group: P -1
;
_chemical_formula_sum "Si O2"
_cell_formula_units_Z 16
_cell_length_a 10.153255
_cell_length_b 6.927179
_cell_length_c 11.024276
_cell_angle_alpha 100.591707
_cell_angle_beta 74.552000
_cell_angle_gamma 120.599583
_cell_volume 642.201770
_symmetry_space_group_name_H-M "P -1"
_symmetry_group_IT_number 2
_symmetry_cell_setting 'triclinic'
loop_
_space_group_symop_operation_xyz
x,y,z
-x,-y,-z
loop_
_atom_site_type_symbol
_atom_site_label
_atom_site_fract_x
_atom_site_fract_y
_atom_site_fract_z
Si Si1 0.171960 0.916992 0.704518
Si Si2 0.117084 0.824454 0.048272
Si Si3 0.796038 0.801337 0.488399
Si Si4 0.891262 0.173738 0.663167
Si Si5 0.351186 0.687685 0.245366
Si Si6 0.372508 0.822548 0.815222
Si Si7 0.136225 0.296471 0.091642
Si Si8 0.406528 0.405642 0.699002
O O1 0.167651 0.971693 0.571940
O O2 0.276624 0.811949 0.714112
O O3 0.263225 0.174790 0.762578
O O4 0.000603 0.780513 0.782713
O O5 0.587144 0.376820 0.220573
O O6 0.162164 0.083826 0.046330
O O7 0.094535 0.780153 0.190926
O O8 0.256293 0.802196 0.948874
O O9 0.647391 0.622077 0.431421
O O10 0.937032 0.750662 0.422902
O O11 0.798016 0.901948 0.630750
O O12 0.791634 0.290842 0.659108
O O13 0.473724 0.935515 0.196202
O O14 0.440980 0.614534 0.311224
O O15 0.285473 0.511416 0.131298
O O16 0.953576 0.681741 0.001027
#
# Coordination Sequence:
#
# PCOD9015980 Si02
#       8
#     2   2   2   2   2   2   2   2
#     4   8  18  41  69  98 132 182 223 286 336 407
#     4  10  22  42  69  97 141 183 230 283 342 423
#     4   9  21  44  73  98 140 179 229 292 338 414
#     4  11  23  43  69 106 134 180 240 283 343 407
#     4  11  26  42  68 109 143 178 230 287 346 420
#     4  10  22  43  68 104 141 187 222 276 362 411
#     4  10  21  42  66 104 139 175 231 289 347 399
#     4   9  21  45  70  99 142 185 223 283 348 410
#
# _framework density 24.914287999999999
#
# number of rings (size 3 to 8) (size 9 to 14) (size 15 to 20)
#    0.750    1.500    1.250    0.000    5.250    2.000 
#    9.000    2.500    0.000    0.000    0.000    0.000 
#    0.000    0.000    0.000    0.000    0.000    0.000 
#
# Total GULP energy -89472.291893 kJ/mol
# GULP energy per Si atom -5592.018243 kJ/mol
# Density = 2.485758 g / cm^3
# Si number density = 24.914288 Si / 1000 Ang^3
#
#
#
# Elastic Constant Matrix: (Units=GPa)
#
#
# Indices 1 2 3 4 5 6 
#
# 1 183.1883 68.9559 53.4403 27.1328 -9.9199 -3.0193
# 2 68.9559 127.2109 32.5076 28.9776 -6.9006 -0.3082
# 3 53.4403 32.5076 65.7436 23.8928 3.1730 15.3819
# 4 27.1328 28.9776 23.8928 34.6057 4.1467 7.7949
# 5 -9.9199 -6.9006 3.1730 4.1467 21.4836 5.7447
# 6 -3.0193 -0.3082 15.3819 7.7949 5.7447 31.2136
#
#
#
# Elastic Compliance Matrix: (Units=1/GPa)
#
#
# Indices 1 2 3 4 5 6 
#
# 1 0.008746 -0.002572 -0.006280 -0.001612 0.003467 0.003680
# 2 -0.002572 0.011543 -0.001504 -0.007458 0.003704 0.001787
# 3 -0.006280 -0.001504 0.027400 -0.009913 -0.002526 -0.011185
# 4 -0.001612 -0.007458 -0.009913 0.045473 -0.009109 -0.005024
# 5 0.003467 0.003704 -0.002526 -0.009109 0.053039 -0.005870
# 6 0.003680 0.001787 -0.011185 -0.005024 -0.005870 0.040258
#
#
# Mechanical properties :
#
#
# Convention : Reuss Voigt Hill
#
# Bulk Modulus (GPa) = 37.06666 76.21670 56.64168
# Shear Modulus (GPa) = 23.13058 32.20984 27.67021
#
# Velocity S-wave (km/s) = 3.05028 3.59949 3.33621
# Velocity P-wave (km/s) = 5.22643 6.92337 6.13387
#
# Compressibility (1/GPa) = 0.02697842
#
# Stress axis : x y z
#
# Youngs Moduli (GPa) = 114.33460 86.62976 36.49584
#
# Poissons Ratio (x) = 0.22280 0.22920
# Poissons Ratio (y) = 0.29406 0.05488
# Poissons Ratio (z) = 0.71804 0.13027
#
# Static dielectric constant tensor:
#      x y z
#    x 1.957480 0.002150 0.056350 
#    y 0.002150 2.015820 -0.024150 
#    z 0.056350 -0.024150 2.020860 
# 
# From -- ./inp_files/379514.got.cif
#   From: 2010.05.17/outbox.cif.g08.bks.cpg/sg2_190_cif.got.tgz:379514.got - 2010.06.03 11:33:40.
