data_PCOD9015160
_publ_section_title
;
Structure prediction by ZEFSAII (Michael W. Deem and Ramdas Pophale) SiO2 
 PCOD9015160
Probable space group: P -1
;
_chemical_formula_sum "Si O2"
_cell_formula_units_Z 16
_cell_length_a 14.441276
_cell_length_b 12.028629
_cell_length_c 15.339050
_cell_angle_alpha 27.876131
_cell_angle_beta 41.179356
_cell_angle_gamma 60.863342
_cell_volume 668.464240
_symmetry_space_group_name_H-M "P -1"
_symmetry_group_IT_number 2
_symmetry_cell_setting 'triclinic'
loop_
_space_group_symop_operation_xyz
x,y,z
-x,-y,-z
loop_
_atom_site_type_symbol
_atom_site_label
_atom_site_fract_x
_atom_site_fract_y
_atom_site_fract_z
Si Si1 0.667186 0.011436 0.272415
Si Si2 0.693948 0.366048 0.166170
Si Si3 0.587911 0.681399 0.898512
Si Si4 0.057648 0.740852 0.717724
Si Si5 0.414346 0.192176 0.822654
Si Si6 0.732703 0.179249 0.660531
Si Si7 0.734412 0.307660 0.850622
Si Si8 0.841732 0.697711 0.356058
O O1 0.463754 0.860703 0.502220
O O2 0.696713 0.760616 0.415011
O O3 0.721483 0.167358 0.220126
O O4 0.771923 0.267779 0.949655
O O5 0.605873 0.479268 0.090963
O O6 0.868771 0.643663 0.888462
O O7 0.785661 0.960971 0.555890
O O8 0.500000 0.500000 0.000000
O O9 0.451326 0.741311 0.987120
O O10 0.144759 0.745077 0.561326
O O11 0.000000 0.500000 0.000000
O O12 0.500000 0.500000 0.500000
O O13 0.563932 0.146252 0.766510
O O14 0.319930 0.100911 0.047885
O O15 0.284539 0.950440 0.012693
O O16 0.806598 0.445471 0.491330
O O17 0.859050 0.606865 0.503379
O O18 0.000000 0.000000 0.000000
#
# Coordination Sequence:
#
# PCOD9015160 Si02
#       8
#     2   2   2   2   2   2   2   2
#     4  11  23  43  73 105 146 194 247 294 376 440
#     4  11  25  43  72 107 148 198 247 302 365 441
#     4  12  24  46  73 104 142 194 248 304 370 444
#     4  12  27  47  71 108 153 193 251 311 370 441
#     4  10  21  41  72 101 133 183 242 300 364 436
#     4  10  23  44  66 104 141 184 242 304 364 435
#     4  11  22  41  70 102 136 186 241 297 362 447
#     4  11  24  42  69 101 144 188 240 308 366 431
#
# _framework density 23.935459000000002
#
# number of rings (size 3 to 8) (size 9 to 14) (size 15 to 20)
#    0.000    1.000    3.750    2.625    1.750    2.500 
#    2.250    0.000    0.000    0.000    0.000    0.000 
#    0.000    0.000    0.000    0.000    0.000    0.000 
#
# Total GULP energy -89394.012747 kJ/mol
# GULP energy per Si atom -5587.125797 kJ/mol
# Density = 2.388098 g / cm^3
# Si number density = 23.935459 Si / 1000 Ang^3
#
#
#
# Elastic Constant Matrix: (Units=GPa)
#
#
# Indices 1 2 3 4 5 6 
#
# 1 101.0122 40.6227 50.1163 4.2063 6.9156 6.1443
# 2 40.6227 86.3068 51.3956 7.1192 10.4211 12.7187
# 3 50.1163 51.3956 188.4909 2.6319 21.2122 15.2432
# 4 4.2063 7.1192 2.6319 37.0099 3.6730 1.5686
# 5 6.9156 10.4211 21.2122 3.6730 65.5453 -3.3616
# 6 6.1443 12.7187 15.2432 1.5686 -3.3616 19.0108
#
#
#
# Elastic Compliance Matrix: (Units=1/GPa)
#
#
# Indices 1 2 3 4 5 6 
#
# 1 0.012901 -0.004896 -0.002187 -0.000428 0.000196 0.000929
# 2 -0.004896 0.016876 -0.002448 -0.002017 -0.001665 -0.007874
# 3 -0.002187 -0.002448 0.007057 0.000561 -0.001885 -0.003694
# 4 -0.000428 -0.002017 0.000561 0.027623 -0.001440 -0.001496
# 5 0.000196 -0.001665 -0.001885 -0.001440 0.016478 0.005595
# 6 0.000929 -0.007874 -0.003694 -0.001496 0.005595 0.061644
#
#
# Mechanical properties :
#
#
# Convention : Reuss Voigt Hill
#
# Bulk Modulus (GPa) = 56.25888 73.34213 64.80051
# Shear Modulus (GPa) = 29.83929 39.89153 34.86541
#
# Velocity S-wave (km/s) = 3.53463 4.08687 3.82074
# Velocity P-wave (km/s) = 6.34142 7.27861 6.82612
#
# Compressibility (1/GPa) = 0.01777497
#
# Stress axis : x y z
#
# Youngs Moduli (GPa) = 77.51157 59.25520 141.70177
#
# Poissons Ratio (x) = 0.29009 0.30985
# Poissons Ratio (y) = 0.37946 0.34684
# Poissons Ratio (z) = 0.16949 0.14504
#
# Static dielectric constant tensor:
#      x y z
#    x 1.932090 -0.032290 -0.021240 
#    y -0.032290 1.957810 0.040910 
#    z -0.021240 0.040910 2.026970 
# 
# From -- ./inp_files/532243.got.cif
#   From: 2010.05.17/outbox.cif.g08.bks.cpg/sg2_267_cif.got.tgz:532243.got - 2010.06.03 11:33:40.
