data_PCOD9015930
_publ_section_title
;
Structure prediction by ZEFSAII (Michael W. Deem and Ramdas Pophale) SiO2 
 PCOD9015930
Probable space group: P -1
;
_chemical_formula_sum "Si O2"
_cell_formula_units_Z 14
_cell_length_a 15.875707
_cell_length_b 9.084514
_cell_length_c 5.587282
_cell_angle_alpha 96.833103
_cell_angle_beta 125.246940
_cell_angle_gamma 69.525211
_cell_volume 612.884086
_symmetry_space_group_name_H-M "P -1"
_symmetry_group_IT_number 2
_symmetry_cell_setting 'triclinic'
loop_
_space_group_symop_operation_xyz
x,y,z
-x,-y,-z
loop_
_atom_site_type_symbol
_atom_site_label
_atom_site_fract_x
_atom_site_fract_y
_atom_site_fract_z
Si Si1 0.424811 0.654218 0.261458
Si Si2 0.442684 0.926625 0.590746
Si Si3 0.244632 0.587732 0.636181
Si Si4 0.109920 0.066330 0.916513
Si Si5 0.005208 0.584430 0.278508
Si Si6 0.142306 0.923724 0.436795
Si Si7 0.405049 0.250869 0.782048
O O1 0.500000 0.500000 0.500000
O O2 0.379820 0.816044 0.368939
O O3 0.501828 0.704291 0.206202
O O4 0.328817 0.607863 0.974479
O O5 0.500000 0.000000 0.500000
O O6 0.380205 0.090623 0.652482
O O7 0.538889 0.800408 0.878101
O O8 0.121827 0.607524 0.507448
O O9 0.218553 0.744164 0.462530
O O10 0.300950 0.408430 0.608370
O O11 0.090531 0.246884 0.858778
O O12 0.986853 0.055925 0.742279
O O13 0.167753 0.968716 0.756292
O O14 0.154215 0.025610 0.250505
O O15 0.000000 0.500000 0.500000
O O16 0.000000 0.500000 0.000000
#
# Coordination Sequence:
#
# PCOD9015930 Si02
#       7
#     2   2   2   2   2   2   2
#     4  11  22  39  68 103 138 178 227 289 347 419
#     4   9  20  41  64  90 142 181 214 276 353 413
#     4  11  24  41  69 102 129 180 241 289 346 421
#     4   9  18  39  63  88 128 168 214 284 342 398
#     4  11  25  47  69  98 141 190 236 292 358 421
#     4   9  19  36  63  94 123 164 219 281 343 394
#     4  10  21  42  65  98 139 176 221 282 348 424
#
# _framework density 22.842818000000001
#
# number of rings (size 3 to 8) (size 9 to 14) (size 15 to 20)
#    0.000    2.000    1.429    1.286    0.000    5.714 
#    2.571    5.714    0.000    0.000    0.000    0.000 
#    0.000    0.000    0.000    0.000    0.000    0.000 
#
# Total GULP energy -77992.173699 kJ/mol
# GULP energy per Si atom -5570.869550 kJ/mol
# Density = 2.279083 g / cm^3
# Si number density = 22.842818 Si / 1000 Ang^3
#
#
#
# Elastic Constant Matrix: (Units=GPa)
#
#
# Indices 1 2 3 4 5 6 
#
# 1 63.2562 20.6190 43.4553 -20.5887 -15.7699 21.1338
# 2 20.6190 118.1396 19.7063 -24.1318 -14.6441 8.6836
# 3 43.4553 19.7063 83.3303 -21.4239 -9.5861 26.8281
# 4 -20.5887 -24.1318 -21.4239 45.5334 15.9569 -1.5103
# 5 -15.7699 -14.6441 -9.5861 15.9569 44.3331 -8.3503
# 6 21.1338 8.6836 26.8281 -1.5103 -8.3503 34.4862
#
#
#
# Elastic Compliance Matrix: (Units=1/GPa)
#
#
# Indices 1 2 3 4 5 6 
#
# 1 0.028822 -0.000999 -0.010089 0.006084 0.003982 -0.008332
# 2 -0.000999 0.009755 -0.000169 0.004221 0.001072 -0.001268
# 3 -0.010089 -0.000169 0.022413 0.006704 -0.003424 -0.011746
# 4 0.006084 0.004221 0.006704 0.032844 -0.008830 -0.010706
# 5 0.003982 0.001072 -0.003424 -0.008830 0.027958 0.006337
# 6 -0.008332 -0.001268 -0.011746 -0.010706 0.006337 0.044625
#
#
# Mechanical properties :
#
#
# Convention : Reuss Voigt Hill
#
# Bulk Modulus (GPa) = 25.99023 48.03193 37.01108
# Shear Modulus (GPa) = 24.78218 36.93357 30.85788
#
# Velocity S-wave (km/s) = 3.29736 4.02538 3.67942
# Velocity P-wave (km/s) = 5.08914 6.53282 5.85564
#
# Compressibility (1/GPa) = 0.03847599
#
# Stress axis : x y z
#
# Youngs Moduli (GPa) = 34.69582 102.50665 44.61658
#
# Poissons Ratio (x) = 0.10236 0.45015
# Poissons Ratio (y) = 0.03465 0.00756
# Poissons Ratio (z) = 0.35006 0.01736
#
# Static dielectric constant tensor:
#      x y z
#    x 1.868950 -0.072160 -0.024930 
#    y -0.072160 1.938370 0.060960 
#    z -0.024930 0.060960 1.940050 
# 
# From -- ./inp_files/105494.got.cif
#   From: 2010.05.17/outbox.cif.g08.bks.cpg/sg2_53_cif.got.tgz:105494.got - 2010.06.03 11:33:40.
