data_PCOD9015143
_publ_section_title
;
Structure prediction by ZEFSAII (Michael W. Deem and Ramdas Pophale) SiO2 
 PCOD9015143
Probable space group: P -1
;
_chemical_formula_sum "Si O2"
_cell_formula_units_Z 14
_cell_length_a 15.297193
_cell_length_b 9.797430
_cell_length_c 7.517174
_cell_angle_alpha 117.923538
_cell_angle_beta 140.932091
_cell_angle_gamma 63.735045
_cell_volume 621.040123
_symmetry_space_group_name_H-M "P -1"
_symmetry_group_IT_number 2
_symmetry_cell_setting 'triclinic'
loop_
_space_group_symop_operation_xyz
x,y,z
-x,-y,-z
loop_
_atom_site_type_symbol
_atom_site_label
_atom_site_fract_x
_atom_site_fract_y
_atom_site_fract_z
Si Si1 0.463749 0.883856 0.221192
Si Si2 0.234989 0.598017 0.276106
Si Si3 0.957601 0.781395 0.576735
Si Si4 0.369947 0.427576 0.672175
Si Si5 0.947229 0.505546 0.678623
Si Si6 0.261355 0.808046 0.145967
Si Si7 0.710307 0.064713 0.365120
O O1 0.596381 0.751865 0.334560
O O2 0.340957 0.808928 0.087590
O O3 0.500000 0.000000 0.500000
O O4 0.406695 0.941976 0.974279
O O5 0.354246 0.468163 0.462750
O O6 0.266005 0.638451 0.144197
O O7 0.239269 0.765181 0.479454
O O8 0.081145 0.551093 0.025338
O O9 0.934216 0.648083 0.601061
O O10 0.997286 0.670736 0.403051
O O11 0.827784 0.916271 0.435371
O O12 0.095175 0.859390 0.892515
O O13 0.214005 0.493369 0.525249
O O14 0.500000 0.500000 0.000000
O O15 0.321106 0.913351 0.458713
#
# Coordination Sequence:
#
# PCOD9015143 Si02
#       7
#     2   2   2   2   2   2   2
#     4  12  28  43  65 102 133 182 227 262 337 404
#     4   9  22  43  68  96 128 181 219 273 343 374
#     4  10  21  41  71  99 129 171 224 281 335 385
#     4  12  23  44  64  95 144 173 218 277 327 407
#     4  10  23  40  68 103 130 171 228 276 332 392
#     4   9  22  45  67  95 136 169 224 271 333 398
#     4  10  23  45  67  98 132 175 221 275 340 382
#
# _framework density 22.542828
#
# number of rings (size 3 to 8) (size 9 to 14) (size 15 to 20)
#    0.857    0.857    1.429    1.714    4.000    1.714 
#    2.571    0.000    0.000    0.000    0.000    0.000 
#    0.000    0.000    0.000    0.000    0.000    0.000 
#
# Total GULP energy -77994.989601 kJ/mol
# GULP energy per Si atom -5571.070686 kJ/mol
# Density = 2.249152 g / cm^3
# Si number density = 22.542828 Si / 1000 Ang^3
#
#
#
# Elastic Constant Matrix: (Units=GPa)
#
#
# Indices 1 2 3 4 5 6 
#
# 1 64.6202 -1.4971 22.2640 -1.0319 7.9456 0.5303
# 2 -1.4971 73.7982 55.0141 -19.2137 -14.1550 -12.0101
# 3 22.2640 55.0141 148.3021 -0.6493 -9.4916 -8.1662
# 4 -1.0319 -19.2137 -0.6493 48.0143 4.1005 -1.1051
# 5 7.9456 -14.1550 -9.4916 4.1005 21.4528 4.5478
# 6 0.5303 -12.0101 -8.1662 -1.1051 4.5478 28.4020
#
#
#
# Elastic Compliance Matrix: (Units=1/GPa)
#
#
# Indices 1 2 3 4 5 6 
#
# 1 0.017859 0.002698 -0.004087 0.002045 -0.007217 0.000868
# 2 0.002698 0.025549 -0.008897 0.009596 0.008562 0.007198
# 3 -0.004087 -0.008897 0.010669 -0.003634 0.001262 -0.000962
# 4 0.002045 0.009596 -0.003634 0.024903 -0.001686 0.004214
# 5 -0.007217 0.008562 0.001262 -0.001686 0.056889 -0.005057
# 6 0.000868 0.007198 -0.000962 0.004214 -0.005057 0.038933
#
#
# Mechanical properties :
#
#
# Convention : Reuss Voigt Hill
#
# Bulk Modulus (GPa) = 29.84520 48.69805 39.27163
# Shear Modulus (GPa) = 24.20816 33.63646 28.92231
#
# Velocity S-wave (km/s) = 3.28056 3.86698 3.58578
# Velocity P-wave (km/s) = 5.25523 6.44883 5.88238
#
# Compressibility (1/GPa) = 0.03350623
#
# Stress axis : x y z
#
# Youngs Moduli (GPa) = 55.99514 39.13990 93.73129
#
# Poissons Ratio (x) = -0.10562 0.38310
# Poissons Ratio (y) = -0.15110 0.83389
# Poissons Ratio (z) = 0.22887 0.34821
#
# Static dielectric constant tensor:
#      x y z
#    x 1.960360 0.063400 -0.047210 
#    y 0.063400 1.829290 0.039110 
#    z -0.047210 0.039110 1.855410 
# 
# From -- ./inp_files/332414.got.cif
#   From: 2010.05.17/outbox.cif.g08.bks.cpg/sg2_167_cif.got.tgz:332414.got - 2010.06.03 11:33:40.
