data_PCOD9015790
_publ_section_title
;
Structure prediction by ZEFSAII (Michael W. Deem and Ramdas Pophale) SiO2 
 PCOD9015790
Probable space group: P -1
;
_chemical_formula_sum "Si O2"
_cell_formula_units_Z 12
_cell_length_a 9.132643
_cell_length_b 10.053797
_cell_length_c 5.719608
_cell_angle_alpha 114.158750
_cell_angle_beta 72.650342
_cell_angle_gamma 92.797792
_cell_volume 455.744638
_symmetry_space_group_name_H-M "P -1"
_symmetry_group_IT_number 2
_symmetry_cell_setting 'triclinic'
loop_
_space_group_symop_operation_xyz
x,y,z
-x,-y,-z
loop_
_atom_site_type_symbol
_atom_site_label
_atom_site_fract_x
_atom_site_fract_y
_atom_site_fract_z
Si Si1 0.248485 0.798712 0.448438
Si Si2 0.245403 0.134904 0.656646
Si Si3 0.166376 0.553443 0.943744
Si Si4 0.522511 0.582231 0.298026
Si Si5 0.908882 0.175255 0.050695
Si Si6 0.670303 0.927814 0.916023
O O1 0.207971 0.677942 0.195777
O O2 0.404973 0.725898 0.445400
O O3 0.289370 0.959006 0.476931
O O4 0.083299 0.841367 0.687170
O O5 0.283662 0.176001 0.400030
O O6 0.063300 0.163826 0.822433
O O7 0.320246 0.155312 0.895757
O O8 0.163861 0.655863 0.792180
O O9 0.292379 0.418352 0.803716
O O10 0.000000 0.500000 0.000000
O O11 0.500000 0.500000 0.500000
O O12 0.500000 0.500000 0.000000
O O13 0.787724 0.057104 0.968316
O O14 0.500000 0.000000 0.000000
#
# Coordination Sequence:
#
# PCOD9015790 Si02
#       6
#     2   2   2   2   2   2
#     4  10  21  42  70  92 136 176 220 275 336 396
#     4  11  24  42  72 101 137 176 212 272 349 396
#     4  11  24  43  66  98 129 180 231 274 325 391
#     4  10  21  42  65  88 126 176 220 267 324 381
#     4  11  23  43  68  95 140 174 217 273 339 402
#     4  11  23  43  66 101 136 170 222 268 330 402
#
# _framework density 26.330537
#
# number of rings (size 3 to 8) (size 9 to 14) (size 15 to 20)
#    0.000    1.333    3.333    3.000    2.333    0.667 
#    9.000    0.000    0.000    0.000    0.000    0.000 
#    0.000    0.000    0.000    0.000    0.000    0.000 
#
# Total GULP energy -66857.933265 kJ/mol
# GULP energy per Si atom -5571.494439 kJ/mol
# Density = 2.627061 g / cm^3
# Si number density = 26.330537 Si / 1000 Ang^3
#
#
#
# Elastic Constant Matrix: (Units=GPa)
#
#
# Indices 1 2 3 4 5 6 
#
# 1 132.3018 5.0048 -2.6231 -14.5345 -18.4231 -4.1987
# 2 5.0048 35.0897 3.8575 3.1161 12.5857 -10.0097
# 3 -2.6231 3.8575 129.4604 -24.9239 9.6452 5.2730
# 4 -14.5345 3.1161 -24.9239 49.0311 1.6196 -1.1119
# 5 -18.4231 12.5857 9.6452 1.6196 50.3245 -4.8956
# 6 -4.1987 -10.0097 5.2730 -1.1119 -4.8956 38.7931
#
#
#
# Elastic Compliance Matrix: (Units=1/GPa)
#
#
# Indices 1 2 3 4 5 6 
#
# 1 0.008511 -0.002627 0.000495 0.002837 0.003657 0.000719
# 2 -0.002627 0.034538 -0.001382 -0.003222 -0.008486 0.007652
# 3 0.000495 -0.001382 0.008864 0.004754 -0.001477 -0.001558
# 4 0.002837 -0.003222 0.004754 0.023843 0.000120 -0.000472
# 5 0.003657 -0.008486 -0.001477 0.000120 0.023748 0.001407
# 6 0.000719 0.007652 -0.001558 -0.000472 0.001407 0.028206
#
#
# Mechanical properties :
#
#
# Convention : Reuss Voigt Hill
#
# Bulk Modulus (GPa) = 22.27862 34.37003 28.32433
# Shear Modulus (GPa) = 33.40023 47.00393 40.20208
#
# Velocity S-wave (km/s) = 3.56546 4.22969 3.91170
# Velocity P-wave (km/s) = 5.04277 6.07744 5.58412
#
# Compressibility (1/GPa) = 0.04488607
#
# Stress axis : x y z
#
# Youngs Moduli (GPa) = 117.49020 28.95382 112.81195
#
# Poissons Ratio (x) = 0.07606 -0.05587
# Poissons Ratio (y) = 0.30862 0.15592
# Poissons Ratio (z) = -0.05819 0.04002
#
# Static dielectric constant tensor:
#      x y z
#    x 2.048090 -0.108680 0.045600 
#    y -0.108680 2.238570 -0.165860 
#    z 0.045600 -0.165860 2.198390 
# 
# From -- ./inp_files/28843.got.cif
#   From: 2010.05.17/outbox.cif.g08.bks.cpg/sg2_15_cif.got.tgz:28843.got - 2010.06.03 11:33:40.
