data_PCOD9015714
_publ_section_title
;
Structure prediction by ZEFSAII (Michael W. Deem and Ramdas Pophale) SiO2 
 PCOD9015714
Probable space group: P -1
;
_chemical_formula_sum "Si O2"
_cell_formula_units_Z 16
_cell_length_a 9.271579
_cell_length_b 23.277492
_cell_length_c 11.640623
_cell_angle_alpha 153.549891
_cell_angle_beta 39.435946
_cell_angle_gamma 135.400732
_cell_volume 708.935987
_symmetry_space_group_name_H-M "P -1"
_symmetry_group_IT_number 2
_symmetry_cell_setting 'triclinic'
loop_
_space_group_symop_operation_xyz
x,y,z
-x,-y,-z
loop_
_atom_site_type_symbol
_atom_site_label
_atom_site_fract_x
_atom_site_fract_y
_atom_site_fract_z
Si Si1 0.245255 0.464787 0.941241
Si Si2 0.556783 0.825945 0.453184
Si Si3 0.229779 0.025008 0.221549
Si Si4 0.697380 0.381810 0.593573
Si Si5 0.769386 0.416771 0.073571
Si Si6 0.675906 0.696815 0.738016
Si Si7 0.087407 0.237155 0.053749
Si Si8 0.770630 0.947274 0.983712
O O1 0.490088 0.407815 0.684227
O O2 0.244004 0.576301 0.043983
O O3 0.235551 0.506693 0.155530
O O4 0.016299 0.380714 0.898733
O O5 0.764144 0.883178 0.508708
O O6 0.398791 0.733334 0.467398
O O7 0.408589 0.940896 0.705355
O O8 0.683278 0.757696 0.151095
O O9 0.173794 0.080979 0.233153
O O10 0.500000 0.000000 0.000000
O O11 0.060393 0.898473 0.113948
O O12 0.914109 0.344172 0.322812
O O13 0.740973 0.564211 0.400202
O O14 0.567307 0.331242 0.102430
O O15 0.850920 0.737974 0.806227
O O16 0.673648 0.815997 0.866988
O O17 0.000000 0.000000 0.000000
#
# Coordination Sequence:
#
# PCOD9015714 Si02
#       8
#     2   2   2   2   2   2   2   2
#     4  10  23  44  70  96 131 183 226 281 350 398
#     4  11  25  42  67 103 138 177 225 280 339 407
#     4  10  21  42  64  96 134 175 219 272 334 398
#     4  11  22  45  70 100 133 181 226 278 349 404
#     4  10  23  45  67 100 135 172 231 287 331 400
#     4  11  23  42  69 103 134 178 228 283 335 404
#     4  12  22  44  69  95 144 177 221 283 338 405
#     4  11  22  44  72  97 136 186 223 277 343 409
#
# _framework density 22.569033000000001
#
# number of rings (size 3 to 8) (size 9 to 14) (size 15 to 20)
#    0.000    1.250    5.000    1.125    1.750    0.500 
#   11.250    1.875    0.000    0.000    0.000    0.000 
#    0.000    0.000    0.000    0.000    0.000    0.000 
#
# Total GULP energy -89450.186043 kJ/mol
# GULP energy per Si atom -5590.636628 kJ/mol
# Density = 2.251766 g / cm^3
# Si number density = 22.569033 Si / 1000 Ang^3
#
#
#
# Elastic Constant Matrix: (Units=GPa)
#
#
# Indices 1 2 3 4 5 6 
#
# 1 146.6663 29.8501 29.4390 -3.1557 -16.9572 8.0591
# 2 29.8501 89.3324 11.2692 -4.3553 -7.9755 10.6706
# 3 29.4390 11.2692 73.5920 -13.2032 -18.9695 -0.1733
# 4 -3.1557 -4.3553 -13.2032 28.6173 1.4310 -0.6085
# 5 -16.9572 -7.9755 -18.9695 1.4310 34.5668 -0.0832
# 6 8.0591 10.6706 -0.1733 -0.6085 -0.0832 30.3572
#
#
#
# Elastic Compliance Matrix: (Units=1/GPa)
#
#
# Indices 1 2 3 4 5 6 
#
# 1 0.008044 -0.002046 -0.002484 -0.000708 0.002137 -0.001439
# 2 -0.002046 0.012604 -0.000479 0.001311 0.001578 -0.003859
# 3 -0.002484 -0.000479 0.018178 0.007647 0.008333 0.001108
# 4 -0.000708 0.001311 0.007647 0.038477 0.002560 0.000549
# 5 0.002137 0.001578 0.008333 0.002560 0.034806 -0.000928
# 6 -0.001439 -0.003859 0.001108 0.000549 -0.000928 0.034694
#
#
# Mechanical properties :
#
#
# Convention : Reuss Voigt Hill
#
# Bulk Modulus (GPa) = 34.71304 50.07857 42.39580
# Shear Modulus (GPa) = 30.04358 34.64375 32.34366
#
# Velocity S-wave (km/s) = 3.65250 3.92217 3.78974
# Velocity P-wave (km/s) = 5.76211 6.53823 6.16240
#
# Compressibility (1/GPa) = 0.02880762
#
# Stress axis : x y z
#
# Youngs Moduli (GPa) = 124.31337 79.33926 55.01198
#
# Poissons Ratio (x) = 0.16237 0.13666
# Poissons Ratio (y) = 0.25440 0.02633
# Poissons Ratio (z) = 0.30882 0.03797
#
# Static dielectric constant tensor:
#      x y z
#    x 1.855860 -0.030920 0.097870 
#    y -0.030920 1.857800 -0.062610 
#    z 0.097870 -0.062610 2.070270 
# 
# From -- ./inp_files/406732.got.cif
#   From: 2010.05.17/outbox.cif.g08.bks.cpg/sg2_204_cif.got.tgz:406732.got - 2010.06.03 11:33:40.
