data_PCOD9015191
_publ_section_title
;
Structure prediction by ZEFSAII (Michael W. Deem and Ramdas Pophale) SiO2 
 PCOD9015191
Probable space group: P -1
;
_chemical_formula_sum "Si O2"
_cell_formula_units_Z 14
_cell_length_a 9.283530
_cell_length_b 7.102016
_cell_length_c 14.444849
_cell_angle_alpha 101.846778
_cell_angle_beta 49.370758
_cell_angle_gamma 71.809504
_cell_volume 565.780873
_symmetry_space_group_name_H-M "P -1"
_symmetry_group_IT_number 2
_symmetry_cell_setting 'triclinic'
loop_
_space_group_symop_operation_xyz
x,y,z
-x,-y,-z
loop_
_atom_site_type_symbol
_atom_site_label
_atom_site_fract_x
_atom_site_fract_y
_atom_site_fract_z
Si Si1 0.580987 0.118789 0.567640
Si Si2 0.036933 0.651623 0.571235
Si Si3 0.902341 0.271270 0.777719
Si Si4 0.846592 0.634904 0.984905
Si Si5 0.479188 0.753052 0.592579
Si Si6 0.029541 0.140498 0.187009
Si Si7 0.662181 0.198712 0.732348
O O1 0.469634 0.988323 0.639873
O O2 0.603152 0.250367 0.655109
O O3 0.840896 0.911252 0.396685
O O4 0.450152 0.281968 0.549655
O O5 0.316252 0.467933 0.456591
O O6 0.000000 0.500000 0.500000
O O7 0.949302 0.718543 0.722521
O O8 0.893151 0.919492 0.616063
O O9 0.084482 0.560256 0.142544
O O10 0.835601 0.127495 0.855274
O O11 0.719453 0.360508 0.778367
O O12 0.567657 0.768391 0.128626
O O13 0.892605 0.813277 0.936745
O O14 0.000000 0.500000 0.000000
O O15 0.232199 0.793810 0.707932
#
# Coordination Sequence:
#
# PCOD9015191 Si02
#       7
#     2   2   2   2   2   2   2
#     4  10  21  41  80 108 144 188 250 307 364 439
#     4  11  22  40  70 110 146 182 236 309 376 419
#     4  10  24  48  75 106 149 192 243 314 372 427
#     4  12  29  49  74 106 151 204 248 299 370 444
#     4  10  21  41  72 108 150 185 240 303 374 420
#     4  10  25  47  73 105 149 194 250 295 364 455
#     4  11  25  46  72 111 145 196 249 299 375 442
#
# _framework density 24.744562999999999
#
# number of rings (size 3 to 8) (size 9 to 14) (size 15 to 20)
#    0.000    1.429    1.429    2.143    8.000    2.857 
#    2.571    2.857    0.000    0.000    0.000    0.000 
#    0.000    0.000    0.000    0.000    0.000    0.000 
#
# Total GULP energy -78250.504162 kJ/mol
# GULP energy per Si atom -5589.321726 kJ/mol
# Density = 2.468824 g / cm^3
# Si number density = 24.744563 Si / 1000 Ang^3
#
#
#
# Elastic Constant Matrix: (Units=GPa)
#
#
# Indices 1 2 3 4 5 6 
#
# 1 162.8453 26.3542 30.9924 -6.8425 7.5450 -12.5189
# 2 26.3542 62.2257 25.3392 -18.2997 -1.4670 -1.3681
# 3 30.9924 25.3392 80.8452 -19.6733 -14.0654 4.7547
# 4 -6.8425 -18.2997 -19.6733 37.3408 -1.0654 0.6065
# 5 7.5450 -1.4670 -14.0654 -1.0654 37.0023 -1.7003
# 6 -12.5189 -1.3681 4.7547 0.6065 -1.7003 35.2727
#
#
#
# Elastic Compliance Matrix: (Units=1/GPa)
#
#
# Indices 1 2 3 4 5 6 
#
# 1 0.007388 -0.002315 -0.003121 -0.001548 -0.002698 0.002850
# 2 -0.002315 0.020895 -0.003757 0.007834 0.000115 0.000366
# 3 -0.003121 -0.003757 0.018020 0.007348 0.007390 -0.003452
# 4 -0.001548 0.007834 0.007348 0.034357 0.004334 -0.001618
# 5 -0.002698 0.000115 0.007390 0.004334 0.030488 -0.000554
# 6 0.002850 0.000366 -0.003452 -0.001618 -0.000554 0.029843
#
#
# Mechanical properties :
#
#
# Convention : Reuss Voigt Hill
#
# Bulk Modulus (GPa) = 35.81770 52.36531 44.09150
# Shear Modulus (GPa) = 29.64141 36.80519 33.22330
#
# Velocity S-wave (km/s) = 3.46482 3.86087 3.66819
# Velocity P-wave (km/s) = 5.52386 6.40963 5.98316
#
# Compressibility (1/GPa) = 0.02791916
#
# Stress axis : x y z
#
# Youngs Moduli (GPa) = 135.34882 47.85745 55.49379
#
# Poissons Ratio (x) = 0.11077 0.17317
# Poissons Ratio (y) = 0.31327 0.20850
# Poissons Ratio (z) = 0.42236 0.17981
#
# Static dielectric constant tensor:
#      x y z
#    x 2.002800 0.056320 0.004490 
#    y 0.056320 2.033240 0.006120 
#    z 0.004490 0.006120 1.994230 
# 
# From -- ./inp_files/490981.got.cif
#   From: 2010.05.17/outbox.cif.g08.bks.cpg/sg2_246_cif.got.tgz:490981.got - 2010.06.03 11:33:40.
