data_PCOD9015300
_publ_section_title
;
Structure prediction by ZEFSAII (Michael W. Deem and Ramdas Pophale) SiO2 
 PCOD9015300
Probable space group: P -1
;
_chemical_formula_sum "Si O2"
_cell_formula_units_Z 12
_cell_length_a 11.137849
_cell_length_b 8.901633
_cell_length_c 6.143174
_cell_angle_alpha 77.191589
_cell_angle_beta 58.449593
_cell_angle_gamma 75.268124
_cell_volume 499.059743
_symmetry_space_group_name_H-M "P -1"
_symmetry_group_IT_number 2
_symmetry_cell_setting 'triclinic'
loop_
_space_group_symop_operation_xyz
x,y,z
-x,-y,-z
loop_
_atom_site_type_symbol
_atom_site_label
_atom_site_fract_x
_atom_site_fract_y
_atom_site_fract_z
Si Si1 0.230341 0.000339 0.782987
Si Si2 0.409085 0.382612 0.496110
Si Si3 0.637447 0.289018 0.962145
Si Si4 0.132010 0.553311 0.483987
Si Si5 0.994765 0.126972 0.268947
Si Si6 0.550940 0.102894 0.728976
O O1 0.311690 0.865142 0.899178
O O2 0.115058 0.923724 0.781763
O O3 0.344722 0.017733 0.481774
O O4 0.141384 0.119963 0.996731
O O5 0.500000 0.500000 0.500000
O O6 0.490435 0.360931 0.193067
O O7 0.243008 0.443861 0.575145
O O8 0.436926 0.218998 0.655878
O O9 0.760041 0.394291 0.814640
O O10 0.627689 0.228488 0.745133
O O11 0.060723 0.704693 0.636434
O O12 0.000000 0.500000 0.500000
O O13 0.000000 0.000000 0.500000
O O14 0.500000 0.000000 0.000000
#
# Coordination Sequence:
#
# PCOD9015300 Si02
#       6
#     2   2   2   2   2   2
#     4  10  21  41  77 107 144 203 261 318 390 450
#     4  11  24  48  82 105 153 212 255 318 395 468
#     4  11  22  48  75 107 153 200 257 325 392 459
#     4  12  25  47  75 117 159 203 255 320 399 473
#     4  11  21  45  74 105 155 207 249 319 394 464
#     4  11  24  46  77 115 145 197 274 329 380 458
#
# _framework density 24.045217999999998
#
# number of rings (size 3 to 8) (size 9 to 14) (size 15 to 20)
#    0.000    1.000    5.000    1.500    0.000    2.667 
#    9.000    6.667    0.000    1.000    0.000    0.000 
#    0.000    0.000    0.000    0.000    0.000    0.000 
#
# Total GULP energy -67059.390758 kJ/mol
# GULP energy per Si atom -5588.282563 kJ/mol
# Density = 2.399049 g / cm^3
# Si number density = 24.045218 Si / 1000 Ang^3
#
#
#
# Elastic Constant Matrix: (Units=GPa)
#
#
# Indices 1 2 3 4 5 6 
#
# 1 174.7407 65.7819 64.3014 18.8747 -6.5289 -4.0481
# 2 65.7819 112.5688 85.3724 21.9564 -16.9992 -22.6480
# 3 64.3014 85.3724 180.7019 9.3883 -17.9153 -23.6717
# 4 18.8747 21.9564 9.3883 46.8206 2.9747 -2.9010
# 5 -6.5289 -16.9992 -17.9153 2.9747 39.7317 3.8067
# 6 -4.0481 -22.6480 -23.6717 -2.9010 3.8067 42.6043
#
#
#
# Elastic Compliance Matrix: (Units=1/GPa)
#
#
# Indices 1 2 3 4 5 6 
#
# 1 0.007660 -0.003876 -0.001162 -0.001120 -0.000649 -0.001997
# 2 -0.003876 0.018574 -0.005929 -0.005914 0.004562 0.005401
# 3 -0.001162 -0.005929 0.009005 0.001485 0.001054 0.001748
# 4 -0.001120 -0.005914 0.001485 0.024504 -0.003840 -0.000414
# 5 -0.000649 0.004562 0.001054 -0.003840 0.027757 0.000208
# 6 -0.001997 0.005401 0.001748 -0.000414 0.000208 0.027078
#
#
# Mechanical properties :
#
#
# Convention : Reuss Voigt Hill
#
# Bulk Modulus (GPa) = 75.16179 99.88031 87.52105
# Shear Modulus (GPa) = 35.47425 42.66836 39.07130
#
# Velocity S-wave (km/s) = 3.84515 4.21706 4.03539
# Velocity P-wave (km/s) = 7.14422 8.08332 7.62824
#
# Compressibility (1/GPa) = 0.01330463
#
# Stress axis : x y z
#
# Youngs Moduli (GPa) = 130.54664 53.83796 111.04889
#
# Poissons Ratio (x) = 0.20869 0.12906
# Poissons Ratio (y) = 0.50603 0.65841
# Poissons Ratio (z) = 0.15172 0.31921
#
# Static dielectric constant tensor:
#      x y z
#    x 2.357610 0.063150 -0.113790 
#    y 0.063150 1.985900 -0.010230 
#    z -0.113790 -0.010230 1.966010 
# 
# From -- ./inp_files/60267.got.cif
#   From: 2010.05.17/outbox.cif.g08.bks.cpg/sg2_31_cif.got.tgz:60267.got - 2010.06.03 11:33:40.
