data_PCOD9015513
_publ_section_title
;
Structure prediction by ZEFSAII (Michael W. Deem and Ramdas Pophale) SiO2 
 PCOD9015513
Probable space group: P -1
;
_chemical_formula_sum "Si O2"
_cell_formula_units_Z 16
_cell_length_a 8.131566
_cell_length_b 14.561835
_cell_length_c 9.176793
_cell_angle_alpha 96.340578
_cell_angle_beta 131.825826
_cell_angle_gamma 98.377316
_cell_volume 768.673175
_symmetry_space_group_name_H-M "P -1"
_symmetry_group_IT_number 2
_symmetry_cell_setting 'triclinic'
loop_
_space_group_symop_operation_xyz
x,y,z
-x,-y,-z
loop_
_atom_site_type_symbol
_atom_site_label
_atom_site_fract_x
_atom_site_fract_y
_atom_site_fract_z
Si Si1 0.484596 0.762431 0.661855
Si Si2 0.671888 0.086866 0.531437
Si Si3 0.117837 0.063354 0.940026
Si Si4 0.247846 0.423400 0.850230
Si Si5 0.621571 0.582178 0.756260
Si Si6 0.015362 0.719936 0.556250
Si Si7 0.148757 0.943209 0.666792
Si Si8 0.871422 0.538344 0.631530
O O1 0.402585 0.815909 0.488926
O O2 0.577438 0.673317 0.664520
O O3 0.261645 0.726060 0.628248
O O4 0.686666 0.843402 0.874463
O O5 0.668886 0.061496 0.352537
O O6 0.921978 0.097754 0.746295
O O7 0.500000 0.000000 0.500000
O O8 0.209221 0.999850 0.864488
O O9 0.000000 0.000000 0.000000
O O10 0.181671 0.333159 0.685520
O O11 0.054550 0.478529 0.720035
O O12 0.500000 0.500000 0.000000
O O13 0.250935 0.387408 0.011143
O O14 0.774745 0.536436 0.736895
O O15 0.362083 0.509780 0.607419
O O16 0.020773 0.830351 0.606349
O O17 0.980310 0.647440 0.658562
O O18 0.000000 0.000000 0.500000
#
# Coordination Sequence:
#
# PCOD9015513 Si02
#       8
#     2   2   2   2   2   2   2   2
#     4  11  24  41  68  96 131 180 225 275 340 404
#     4  10  21  42  63  92 130 174 222 280 335 396
#     4  11  23  42  68  92 132 180 228 280 341 401
#     4  12  23  43  71  98 132 178 225 276 337 411
#     4  11  25  41  71  97 137 171 225 283 341 405
#     4  11  23  43  67  95 136 176 224 271 342 402
#     4   9  23  41  64  95 132 173 223 276 331 401
#     4  11  24  46  65 101 136 173 221 287 341 403
#
# _framework density 20.815090000000001
#
# number of rings (size 3 to 8) (size 9 to 14) (size 15 to 20)
#    0.000    1.250    3.750    1.500    7.000    2.000 
#    0.000    0.000    2.750    0.000    0.000    0.000 
#    0.000    0.000    0.000    0.000    0.000    0.000 
#
# Total GULP energy -89329.904492 kJ/mol
# GULP energy per Si atom -5583.119031 kJ/mol
# Density = 2.076771 g / cm^3
# Si number density = 20.815090 Si / 1000 Ang^3
#
#
#
# Elastic Constant Matrix: (Units=GPa)
#
#
# Indices 1 2 3 4 5 6 
#
# 1 59.7002 18.6780 15.0741 3.9061 9.6111 10.5043
# 2 18.6780 123.2704 11.7692 0.5393 7.0368 3.8388
# 3 15.0741 11.7692 86.1344 4.8116 8.6219 5.2340
# 4 3.9061 0.5393 4.8116 40.0385 6.1179 1.1854
# 5 9.6111 7.0368 8.6219 6.1179 30.6980 4.0687
# 6 10.5043 3.8388 5.2340 1.1854 4.0687 31.4699
#
#
#
# Elastic Compliance Matrix: (Units=1/GPa)
#
#
# Indices 1 2 3 4 5 6 
#
# 1 0.019738 -0.002362 -0.002350 -0.000826 -0.004105 -0.005348
# 2 -0.002362 0.008597 -0.000669 0.000366 -0.001114 -0.000019
# 3 -0.002350 -0.000669 0.012446 -0.000878 -0.002316 -0.000872
# 4 -0.000826 0.000366 -0.000878 0.025881 -0.004739 0.000015
# 5 -0.004105 -0.001114 -0.002316 -0.004739 0.036054 -0.002592
# 6 -0.005348 -0.000019 -0.000872 0.000015 -0.002592 0.034043
#
#
# Mechanical properties :
#
#
# Convention : Reuss Voigt Hill
#
# Bulk Modulus (GPa) = 33.31121 40.01639 36.66380
# Shear Modulus (GPa) = 31.74052 35.34688 33.54370
#
# Velocity S-wave (km/s) = 3.90921 4.12532 4.01872
# Velocity P-wave (km/s) = 6.03440 6.47745 6.25985
#
# Compressibility (1/GPa) = 0.03001993
#
# Stress axis : x y z
#
# Youngs Moduli (GPa) = 50.66254 116.32561 80.34557
#
# Poissons Ratio (x) = 0.27476 0.18878
# Poissons Ratio (y) = 0.11966 0.05376
# Poissons Ratio (z) = 0.11904 0.07783
#
# Static dielectric constant tensor:
#      x y z
#    x 1.779250 0.000430 -0.011290 
#    y 0.000430 1.759190 -0.011630 
#    z -0.011290 -0.011630 1.738500 
# 
# From -- ./inp_files/202715.got.cif
#   From: 2010.05.17/outbox.cif.g08.bks.cpg/sg2_102_cif.got.tgz:202715.got - 2010.06.03 11:33:40.
