data_PCOD9015380
_publ_section_title
;
Structure prediction by ZEFSAII (Michael W. Deem and Ramdas Pophale) SiO2 
 PCOD9015380
Probable space group: P -1
;
_chemical_formula_sum "Si O2"
_cell_formula_units_Z 16
_cell_length_a 14.133310
_cell_length_b 8.337948
_cell_length_c 14.260123
_cell_angle_alpha 98.364203
_cell_angle_beta 148.796836
_cell_angle_gamma 65.284983
_cell_volume 705.932932
_symmetry_space_group_name_H-M "P -1"
_symmetry_group_IT_number 2
_symmetry_cell_setting 'triclinic'
loop_
_space_group_symop_operation_xyz
x,y,z
-x,-y,-z
loop_
_atom_site_type_symbol
_atom_site_label
_atom_site_fract_x
_atom_site_fract_y
_atom_site_fract_z
Si Si1 0.158291 0.350614 0.908790
Si Si2 0.353415 0.038702 0.726752
Si Si3 0.444500 0.967875 0.348157
Si Si4 0.569579 0.664675 0.291390
Si Si5 0.688858 0.434722 0.832045
Si Si6 0.030553 0.823929 0.126508
Si Si7 0.698997 0.131135 0.496803
Si Si8 0.989277 0.630665 0.416350
O O1 0.037025 0.268980 0.856670
O O2 0.059823 0.428783 0.729233
O O3 0.157334 0.504503 0.989111
O O4 0.414739 0.173309 0.086750
O O5 0.424869 0.180634 0.758456
O O6 0.202013 0.146374 0.698681
O O7 0.205535 0.005507 0.526197
O O8 0.509777 0.095205 0.357651
O O9 0.500000 0.000000 0.500000
O O10 0.595715 0.741548 0.421507
O O11 0.193125 0.047623 0.115115
O O12 0.348745 0.675952 0.126181
O O13 0.755901 0.448299 0.391742
O O14 0.442934 0.634667 0.621682
O O15 0.786363 0.325114 0.806908
O O16 0.133553 0.921047 0.280600
O O17 0.000000 0.500000 0.500000
#
# Coordination Sequence:
#
# PCOD9015380 Si02
#       8
#     2   2   2   2   2   2   2   2
#     4  11  22  42  66  97 131 172 222 271 324 404
#     4   9  20  45  64  93 130 170 220 283 326 387
#     4  11  24  41  61  93 137 177 221 270 317 396
#     4  10  21  42  61  94 135 162 223 270 320 385
#     4  11  23  39  65 100 136 170 220 269 326 397
#     4  12  23  41  68  96 134 184 217 258 338 384
#     4  10  22  41  64  92 134 168 225 270 319 397
#     4  10  22  41  70  93 125 175 216 280 343 375
#
# _framework density 22.665044000000002
#
# number of rings (size 3 to 8) (size 9 to 14) (size 15 to 20)
#    0.000    1.500    3.750    2.625    1.750    2.000 
#    4.500    9.375    0.000    0.000    0.000    0.000 
#    0.000    0.000    0.000    0.000    0.000    0.000 
#
# Total GULP energy -89173.036519 kJ/mol
# GULP energy per Si atom -5573.314782 kJ/mol
# Density = 2.261346 g / cm^3
# Si number density = 22.665044 Si / 1000 Ang^3
#
#
#
# Elastic Constant Matrix: (Units=GPa)
#
#
# Indices 1 2 3 4 5 6 
#
# 1 87.5464 25.7326 21.9499 -8.5075 3.3716 -22.4649
# 2 25.7326 60.2840 14.8327 4.7021 17.0586 -10.2254
# 3 21.9499 14.8327 89.8399 9.2204 -3.1844 -6.2217
# 4 -8.5075 4.7021 9.2204 25.3148 -4.3222 -1.2684
# 5 3.3716 17.0586 -3.1844 -4.3222 37.9061 0.5694
# 6 -22.4649 -10.2254 -6.2217 -1.2684 0.5694 22.8844
#
#
#
# Elastic Compliance Matrix: (Units=1/GPa)
#
#
# Indices 1 2 3 4 5 6 
#
# 1 0.018854 -0.005727 -0.003533 0.009715 0.001479 0.015490
# 2 -0.005727 0.024066 -0.001906 -0.007422 -0.011394 0.004485
# 3 -0.003533 -0.001906 0.012829 -0.005280 0.001665 -0.001166
# 4 0.009715 -0.007422 -0.005280 0.047689 0.007361 0.007246
# 5 0.001479 -0.011394 0.001665 0.007361 0.032410 -0.003585
# 6 0.015490 0.004485 -0.001166 0.007246 -0.003585 0.061082
#
#
# Mechanical properties :
#
#
# Convention : Reuss Voigt Hill
#
# Bulk Modulus (GPa) = 29.92498 40.30005 35.11252
# Shear Modulus (GPa) = 21.70142 28.89807 25.29975
#
# Velocity S-wave (km/s) = 3.09768 3.57460 3.34465
# Velocity P-wave (km/s) = 5.10157 5.90392 5.51735
#
# Compressibility (1/GPa) = 0.03341690
#
# Stress axis : x y z
#
# Youngs Moduli (GPa) = 53.04000 41.55295 77.94939
#
# Poissons Ratio (x) = 0.23799 0.27537
# Poissons Ratio (y) = 0.30378 0.14854
# Poissons Ratio (z) = 0.18737 0.07918
#
# Static dielectric constant tensor:
#      x y z
#    x 1.934540 0.026010 -0.063460 
#    y 0.026010 1.942390 -0.062580 
#    z -0.063460 -0.062580 1.906910 
# 
# From -- ./inp_files/222691.got.cif
#   From: 2010.05.17/outbox.cif.g08.bks.cpg/sg2_112_cif.got.tgz:222691.got - 2010.06.03 11:33:40.
