data_PCOD9015148
_publ_section_title
;
Structure prediction by ZEFSAII (Michael W. Deem and Ramdas Pophale) SiO2 
 PCOD9015148
Probable space group: P -1
;
_chemical_formula_sum "Si O2"
_cell_formula_units_Z 16
_cell_length_a 12.217437
_cell_length_b 16.869368
_cell_length_c 8.868869
_cell_angle_alpha 98.006737
_cell_angle_beta 48.774013
_cell_angle_gamma 139.230810
_cell_volume 611.032017
_symmetry_space_group_name_H-M "P -1"
_symmetry_group_IT_number 2
_symmetry_cell_setting 'triclinic'
loop_
_space_group_symop_operation_xyz
x,y,z
-x,-y,-z
loop_
_atom_site_type_symbol
_atom_site_label
_atom_site_fract_x
_atom_site_fract_y
_atom_site_fract_z
Si Si1 0.281182 0.741206 0.185336
Si Si2 0.705887 0.040554 0.508939
Si Si3 0.205137 0.392839 0.582101
Si Si4 0.173300 0.914856 0.942001
Si Si5 0.983629 0.062401 0.656045
Si Si6 0.054714 0.620685 0.977724
Si Si7 0.928029 0.539603 0.742147
Si Si8 0.644617 0.645514 0.793702
O O1 0.084316 0.717863 0.292291
O O2 0.181000 0.605650 0.169828
O O3 0.220970 0.687413 0.399311
O O4 0.652664 0.943571 0.878537
O O5 0.825727 0.084455 0.239659
O O6 0.030766 0.199477 0.359600
O O7 0.507564 0.027161 0.700079
O O8 0.417285 0.832113 0.746099
O O9 0.440391 0.473864 0.261683
O O10 0.083591 0.268845 0.784265
O O11 0.232114 0.483039 0.687153
O O12 0.073768 0.953287 0.116145
O O13 0.290274 0.261512 0.377796
O O14 0.000000 0.000000 0.500000
O O15 0.017499 0.625726 0.838538
O O16 0.000000 0.500000 0.000000
O O17 0.652247 0.456059 0.886223
#
# Coordination Sequence:
#
# PCOD9015148 Si02
#       8
#     2   2   2   2   2   2   2   2
#     4  11  22  42  66  94 135 187 221 269 338 429
#     4  10  21  41  71  99 138 179 236 282 343 404
#     4  10  22  41  71  97 134 177 236 276 341 411
#     4   9  20  39  67 102 130 182 228 290 339 400
#     4  11  20  37  66  97 134 174 227 284 335 399
#     4  11  22  41  66 101 139 192 221 273 347 428
#     4  11  25  42  67  97 142 178 224 274 351 404
#     4  11  24  42  69 109 130 176 231 298 332 396
#
# _framework density 26.185205
#
# number of rings (size 3 to 8) (size 9 to 14) (size 15 to 20)
#    0.000    1.500    2.500    3.000    0.000    6.500 
#    0.000    3.125    5.500    0.000    0.000    0.000 
#    0.000    0.000    0.000    0.000    0.000    0.000 
#
# Total GULP energy -89081.024880 kJ/mol
# GULP energy per Si atom -5567.564055 kJ/mol
# Density = 2.612561 g / cm^3
# Si number density = 26.185205 Si / 1000 Ang^3
#
#
#
# Elastic Constant Matrix: (Units=GPa)
#
#
# Indices 1 2 3 4 5 6 
#
# 1 63.9506 31.0403 24.8975 5.3529 8.2948 4.8826
# 2 31.0403 128.1207 36.0077 29.8785 -0.0146 -5.6254
# 3 24.8975 36.0077 79.8879 4.5380 -2.2160 -10.0226
# 4 5.3529 29.8785 4.5380 51.2029 -7.6208 -0.9282
# 5 8.2948 -0.0146 -2.2160 -7.6208 34.3446 -1.9106
# 6 4.8826 -5.6254 -10.0226 -0.9282 -1.9106 49.1812
#
#
#
# Elastic Compliance Matrix: (Units=1/GPa)
#
#
# Indices 1 2 3 4 5 6 
#
# 1 0.020500 -0.003486 -0.005416 -0.000535 -0.005630 -0.003767
# 2 -0.003486 0.011020 -0.003471 -0.005839 -0.000630 0.000765
# 3 -0.005416 -0.003471 0.016207 0.001655 0.002919 0.003588
# 4 -0.000535 -0.005839 0.001655 0.023673 0.005508 0.000383
# 5 -0.005630 -0.000630 0.002919 0.005508 0.032022 0.002430
# 6 -0.003767 0.000765 0.003588 0.000383 0.002430 0.021627
#
#
# Mechanical properties :
#
#
# Convention : Reuss Voigt Hill
#
# Bulk Modulus (GPa) = 43.51168 50.65000 47.08084
# Shear Modulus (GPa) = 31.75497 38.94664 35.35081
#
# Velocity S-wave (km/s) = 3.48617 3.86081 3.67826
# Velocity P-wave (km/s) = 5.73215 6.26573 6.00487
#
# Compressibility (1/GPa) = 0.02298234
#
# Stress axis : x y z
#
# Youngs Moduli (GPa) = 48.77973 90.74319 61.70165
#
# Poissons Ratio (x) = 0.31630 0.33419
# Poissons Ratio (y) = 0.17003 0.21415
# Poissons Ratio (z) = 0.26420 0.31494
#
# Static dielectric constant tensor:
#      x y z
#    x 2.138460 0.041270 -0.050150 
#    y 0.041270 2.278270 0.027000 
#    z -0.050150 0.027000 2.083250 
# 
# From -- ./inp_files/279494.got.cif
#   From: 2010.05.17/outbox.cif.g08.bks.cpg/sg2_140_cif.got.tgz:279494.got - 2010.06.03 11:33:40.
