data_PCOD9015528
_publ_section_title
;
Structure prediction by ZEFSAII (Michael W. Deem and Ramdas Pophale) SiO2 
 PCOD9015528
Probable space group: P -1
;
_chemical_formula_sum "Si O2"
_cell_formula_units_Z 16
_cell_length_a 12.374394
_cell_length_b 13.088854
_cell_length_c 22.158240
_cell_angle_alpha 26.526864
_cell_angle_beta 30.156998
_cell_angle_gamma 35.323212
_cell_volume 790.807794
_symmetry_space_group_name_H-M "P -1"
_symmetry_group_IT_number 2
_symmetry_cell_setting 'triclinic'
loop_
_space_group_symop_operation_xyz
x,y,z
-x,-y,-z
loop_
_atom_site_type_symbol
_atom_site_label
_atom_site_fract_x
_atom_site_fract_y
_atom_site_fract_z
Si Si1 0.234448 0.011821 0.356004
Si Si2 0.532244 0.176910 0.537279
Si Si3 0.456178 0.403142 0.007076
Si Si4 0.390778 0.725094 0.316048
Si Si5 0.783486 0.149797 0.178627
Si Si6 0.749904 0.042379 0.971746
Si Si7 0.214680 0.618861 0.336026
Si Si8 0.630914 0.197529 0.352752
O O1 0.392916 0.951565 0.368993
O O2 0.289905 0.830197 0.371380
O O3 0.262009 0.259317 0.185387
O O4 0.000000 0.000000 0.500000
O O5 0.478680 0.451781 0.428498
O O6 0.701544 0.144373 0.415989
O O7 0.325906 0.073213 0.666476
O O8 0.384378 0.622917 0.882447
O O9 0.653477 0.216479 0.980767
O O10 0.500000 0.500000 0.000000
O O11 0.226216 0.739537 0.331526
O O12 0.578748 0.872811 0.131945
O O13 0.806166 0.187349 0.219946
O O14 0.011217 0.114565 0.051918
O O15 0.782064 0.203091 0.814221
O O16 0.444547 0.432080 0.319308
O O17 0.000000 0.500000 0.500000
O O18 0.500000 0.000000 0.500000
#
# Coordination Sequence:
#
# PCOD9015528 Si02
#       8
#     2   2   2   2   2   2   2   2
#     4  11  25  41  64  90 132 178 211 269 332 383
#     4  10  21  42  63  93 128 171 221 265 320 388
#     4  11  24  45  64  97 133 169 224 274 310 392
#     4  10  24  42  61  94 135 164 218 270 321 399
#     4  11  22  42  69  96 131 168 222 272 323 381
#     4  11  24  41  67  97 133 174 209 273 333 377
#     4  11  21  40  68  96 129 171 217 267 329 383
#     4   9  19  36  63  95 127 156 212 278 309 375
#
# _framework density 20.232478
#
# number of rings (size 3 to 8) (size 9 to 14) (size 15 to 20)
#    0.000    1.500    2.500    3.000    1.750    5.500 
#    0.000    2.500    0.000    0.000    0.000    0.000 
#    0.000    0.000    0.000    0.000    0.000    0.000 
#
# Total GULP energy -89286.571743 kJ/mol
# GULP energy per Si atom -5580.410734 kJ/mol
# Density = 2.018643 g / cm^3
# Si number density = 20.232478 Si / 1000 Ang^3
#
#
#
# Elastic Constant Matrix: (Units=GPa)
#
#
# Indices 1 2 3 4 5 6 
#
# 1 76.6218 24.8185 16.9983 8.5228 -2.8257 34.6555
# 2 24.8185 93.4240 42.2485 4.2682 -12.6123 24.2819
# 3 16.9983 42.2485 104.2956 5.5694 -4.5549 17.0249
# 4 8.5228 4.2682 5.5694 40.3862 -2.7589 0.9923
# 5 -2.8257 -12.6123 -4.5549 -2.7589 29.0924 -1.4797
# 6 34.6555 24.2819 17.0249 0.9923 -1.4797 30.9004
#
#
#
# Elastic Compliance Matrix: (Units=1/GPa)
#
#
# Indices 1 2 3 4 5 6 
#
# 1 0.027638 0.001082 0.000599 -0.005167 0.001132 -0.031957
# 2 0.001082 0.016210 -0.004645 -0.000633 0.005781 -0.011095
# 3 0.000599 -0.004645 0.012012 -0.001229 -0.000376 -0.003618
# 4 -0.005167 -0.000633 -0.001229 0.026059 0.001819 0.006220
# 5 0.001132 0.005781 -0.000376 0.001819 0.036905 -0.003896
# 6 -0.031957 -0.011095 -0.003618 0.006220 -0.003896 0.078528
#
#
# Mechanical properties :
#
#
# Convention : Reuss Voigt Hill
#
# Bulk Modulus (GPa) = 20.02755 49.16357 34.59556
# Shear Modulus (GPa) = 22.73496 32.76088 27.74792
#
# Velocity S-wave (km/s) = 3.35578 4.02832 3.70733
# Velocity P-wave (km/s) = 4.99352 6.78149 5.95499
#
# Compressibility (1/GPa) = 0.04993121
#
# Stress axis : x y z
#
# Youngs Moduli (GPa) = 36.18188 61.68909 83.24907
#
# Poissons Ratio (x) = -0.06672 -0.04989
# Poissons Ratio (y) = -0.03913 0.38673
# Poissons Ratio (z) = -0.02168 0.28658
#
# Static dielectric constant tensor:
#      x y z
#    x 1.776490 -0.019610 -0.009110 
#    y -0.019610 1.757510 0.021460 
#    z -0.009110 0.021460 1.748120 
# 
# From -- ./inp_files/257498.got.cif
#   From: 2010.05.17/outbox.cif.g08.bks.cpg/sg2_129_cif.got.tgz:257498.got - 2010.06.03 11:33:40.
