data_PCOD9015033
_publ_section_title
;
Structure prediction by ZEFSAII (Michael W. Deem and Ramdas Pophale) SiO2 
 PCOD9015033
Probable space group: P -1
;
_chemical_formula_sum "Si O2"
_cell_formula_units_Z 16
_cell_length_a 6.740240
_cell_length_b 15.169685
_cell_length_c 8.315128
_cell_angle_alpha 81.554790
_cell_angle_beta 88.949794
_cell_angle_gamma 131.231010
_cell_volume 624.846647
_symmetry_space_group_name_H-M "P -1"
_symmetry_group_IT_number 2
_symmetry_cell_setting 'triclinic'
loop_
_space_group_symop_operation_xyz
x,y,z
-x,-y,-z
loop_
_atom_site_type_symbol
_atom_site_label
_atom_site_fract_x
_atom_site_fract_y
_atom_site_fract_z
Si Si1 0.562406 0.177994 0.430712
Si Si2 0.458623 0.991558 0.276355
Si Si3 0.678654 0.659868 0.951398
Si Si4 0.865295 0.873059 0.368426
Si Si5 0.870251 0.538877 0.095390
Si Si6 0.523137 0.629272 0.318707
Si Si7 0.944011 0.057177 0.119812
Si Si8 0.934399 0.603946 0.436376
O O1 0.569346 0.124453 0.279658
O O2 0.829291 0.300474 0.469290
O O3 0.318764 0.174462 0.456699
O O4 0.503011 0.074877 0.573999
O O5 0.647468 0.009854 0.128351
O O6 0.137500 0.903275 0.313124
O O7 0.444366 0.581788 0.844697
O O8 0.848706 0.800285 0.911133
O O9 0.866347 0.629613 0.969570
O O10 0.520518 0.605877 0.138119
O O11 0.637473 0.763113 0.287843
O O12 0.949172 0.997555 0.292372
O O13 0.999398 0.595654 0.253029
O O14 0.000000 0.500000 0.000000
O O15 0.253836 0.526044 0.442764
O O16 0.746581 0.634831 0.402334
O O17 0.000000 0.000000 0.000000
#
# Coordination Sequence:
#
# PCOD9015033 Si02
#       8
#     2   2   2   2   2   2   2   2
#     4  10  22  41  67  97 141 177 234 291 360 419
#     4  10  23  42  64 101 137 183 231 300 348 420
#     4  10  23  47  65  99 145 180 231 296 342 417
#     4  11  22  42  67  99 137 186 233 289 354 419
#     4  10  24  44  72 101 141 183 229 288 356 420
#     4  10  21  41  70  97 138 178 233 290 345 414
#     4  11  24  42  71 102 136 192 241 286 355 428
#     4  10  22  42  70 104 131 187 232 290 353 416
#
# _framework density 25.606285
#
# number of rings (size 3 to 8) (size 9 to 14) (size 15 to 20)
#    0.000    1.750    2.500    0.375    1.750    6.000 
#    6.750    0.000    0.000    0.000    0.000    0.000 
#    0.000    0.000    0.000    0.000    0.000    0.000 
#
# Total GULP energy -89279.088034 kJ/mol
# GULP energy per Si atom -5579.943002 kJ/mol
# Density = 2.554800 g / cm^3
# Si number density = 25.606285 Si / 1000 Ang^3
#
#
#
# Elastic Constant Matrix: (Units=GPa)
#
#
# Indices 1 2 3 4 5 6 
#
# 1 112.8497 39.7969 37.3721 1.5179 -44.0515 10.2827
# 2 39.7969 173.8421 51.3783 18.0808 -22.4793 -13.1850
# 3 37.3721 51.3783 43.0475 8.3655 -20.6502 15.3539
# 4 1.5179 18.0808 8.3655 38.3504 -2.7395 3.2957
# 5 -44.0515 -22.4793 -20.6502 -2.7395 44.7521 -2.8659
# 6 10.2827 -13.1850 15.3539 3.2957 -2.8659 42.3524
#
#
#
# Elastic Compliance Matrix: (Units=1/GPa)
#
#
# Indices 1 2 3 4 5 6 
#
# 1 0.016625 0.000368 -0.009416 0.002090 0.012343 0.000165
# 2 0.000368 0.012095 -0.018863 -0.002638 -0.001749 0.010601
# 3 -0.009416 -0.018863 0.069990 -0.002770 0.011592 -0.027960
# 4 0.002090 -0.002638 -0.002770 0.028124 0.001019 -0.002444
# 5 0.012343 -0.001749 0.011592 0.001019 0.038695 -0.005204
# 6 0.000165 0.010601 -0.027960 -0.002444 -0.005204 0.036846
#
#
# Mechanical properties :
#
#
# Convention : Reuss Voigt Hill
#
# Bulk Modulus (GPa) = 23.31666 65.20379 44.26022
# Shear Modulus (GPa) = 18.34906 38.50377 28.42641
#
# Velocity S-wave (km/s) = 2.67981 3.88194 3.33548
# Velocity P-wave (km/s) = 4.32444 6.75366 5.67066
#
# Compressibility (1/GPa) = 0.04288780
#
# Stress axis : x y z
#
# Youngs Moduli (GPa) = 60.15055 82.67666 14.28771
#
# Poissons Ratio (x) = -0.03045 0.13454
# Poissons Ratio (y) = -0.02215 0.26951
# Poissons Ratio (z) = 0.56641 1.55954
#
# Static dielectric constant tensor:
#      x y z
#    x 2.144210 0.022140 -0.046320 
#    y 0.022140 1.995960 0.028540 
#    z -0.046320 0.028540 2.142120 
# 
# From -- ./inp_files/369009.got.cif
#   From: 2010.05.17/outbox.cif.g08.bks.cpg/sg2_185_cif.got.tgz:369009.got - 2010.06.03 11:33:40.
