data_PCOD9015042
_publ_section_title
;
Structure prediction by ZEFSAII (Michael W. Deem and Ramdas Pophale) SiO2 
 PCOD9015042
Probable space group: P -1
;
_chemical_formula_sum "Si O2"
_cell_formula_units_Z 16
_cell_length_a 9.285930
_cell_length_b 13.910565
_cell_length_c 21.241223
_cell_angle_alpha 22.090393
_cell_angle_beta 44.862866
_cell_angle_gamma 44.782684
_cell_volume 713.196104
_symmetry_space_group_name_H-M "P -1"
_symmetry_group_IT_number 2
_symmetry_cell_setting 'triclinic'
loop_
_space_group_symop_operation_xyz
x,y,z
-x,-y,-z
loop_
_atom_site_type_symbol
_atom_site_label
_atom_site_fract_x
_atom_site_fract_y
_atom_site_fract_z
Si Si1 0.712218 0.236954 0.914531
Si Si2 0.058962 0.886953 0.765642
Si Si3 0.547693 0.288877 0.805647
Si Si4 0.848024 0.449172 0.521023
Si Si5 0.048813 0.266221 0.349789
Si Si6 0.108144 0.516035 0.856140
Si Si7 0.834795 0.682730 0.252063
Si Si8 0.516325 0.792416 0.678516
O O1 0.721668 0.279036 0.811682
O O2 0.542946 0.485587 0.838211
O O3 0.929875 0.266879 0.858464
O O4 0.684049 0.944383 0.114850
O O5 0.073256 0.746407 0.778617
O O6 0.290330 0.860666 0.738567
O O7 0.964435 0.188694 0.608001
O O8 0.921583 0.740281 0.941622
O O9 0.641710 0.384848 0.655923
O O10 0.336982 0.477727 0.778663
O O11 0.500000 0.000000 0.000000
O O12 0.795600 0.650347 0.357736
O O13 0.000000 0.500000 0.500000
O O14 0.274171 0.200739 0.352540
O O15 0.046486 0.438706 0.182684
O O16 0.866911 0.422296 0.357522
O O17 0.000000 0.000000 0.500000
O O18 0.500000 0.000000 0.500000
#
# Coordination Sequence:
#
# PCOD9015042 Si02
#       8
#     2   2   2   2   2   2   2   2
#     4  10  21  41  70  98 139 185 237 281 364 425
#     4  11  24  44  73 101 142 186 242 288 360 433
#     4  12  23  43  70 102 143 192 236 289 363 430
#     4  12  25  41  71 109 141 179 245 300 352 433
#     4  11  24  42  69 104 145 182 234 294 364 422
#     4  11  24  45  70 101 139 192 236 293 353 434
#     4  10  22  42  68 103 144 187 228 308 355 421
#     4  11  23  42  74  98 135 188 236 292 355 429
#
# _framework density 22.434222999999999
#
# number of rings (size 3 to 8) (size 9 to 14) (size 15 to 20)
#    0.000    1.000    3.750    3.750    0.000    1.500 
#    0.000    3.750    0.000    0.000    0.000    0.000 
#    0.000    0.000    0.000    0.000    0.000    0.000 
#
# Total GULP energy -89368.438040 kJ/mol
# GULP energy per Si atom -5585.527377 kJ/mol
# Density = 2.238316 g / cm^3
# Si number density = 22.434223 Si / 1000 Ang^3
#
#
#
# Elastic Constant Matrix: (Units=GPa)
#
#
# Indices 1 2 3 4 5 6 
#
# 1 107.4229 26.2898 27.0823 -0.0497 19.4684 5.0074
# 2 26.2898 94.0293 47.3333 -0.2496 8.6162 -5.1254
# 3 27.0823 47.3333 91.6273 3.8038 20.6750 -1.7750
# 4 -0.0497 -0.2496 3.8038 36.9598 1.1588 -1.3674
# 5 19.4684 8.6162 20.6750 1.1588 40.8754 1.5403
# 6 5.0074 -5.1254 -1.7750 -1.3674 1.5403 32.3632
#
#
#
# Elastic Compliance Matrix: (Units=1/GPa)
#
#
# Indices 1 2 3 4 5 6 
#
# 1 0.010983 -0.002172 -0.001250 0.000186 -0.004075 -0.001910
# 2 -0.002172 0.014967 -0.007428 0.000899 0.001526 0.002264
# 3 -0.001250 -0.007428 0.016584 -0.001559 -0.006189 0.000155
# 4 0.000186 0.000899 -0.001559 0.027277 -0.000308 0.001195
# 5 -0.004075 0.001526 -0.006189 -0.000308 0.029256 -0.000873
# 6 -0.001910 0.002264 0.000155 0.001195 -0.000873 0.031654
#
#
# Mechanical properties :
#
#
# Convention : Reuss Voigt Hill
#
# Bulk Modulus (GPa) = 47.99286 54.94337 51.46811
# Shear Modulus (GPa) = 31.37443 34.86461 33.11952
#
# Velocity S-wave (km/s) = 3.74372 3.94646 3.84643
# Velocity P-wave (km/s) = 6.33454 6.73128 6.53592
#
# Compressibility (1/GPa) = 0.02083643
#
# Stress axis : x y z
#
# Youngs Moduli (GPa) = 91.04844 66.81268 60.29783
#
# Poissons Ratio (x) = 0.14512 0.07535
# Poissons Ratio (y) = 0.19776 0.44786
# Poissons Ratio (z) = 0.11377 0.49625
#
# Static dielectric constant tensor:
#      x y z
#    x 1.869900 0.024880 -0.004460 
#    y 0.024880 1.839830 -0.043160 
#    z -0.004460 -0.043160 1.874140 
# 
# From -- ./inp_files/559506.got.cif
#   From: 2010.05.17/outbox.cif.g08.bks.cpg/sg2_280_cif.got.tgz:559506.got - 2010.06.03 11:33:40.
