data_PCOD9015622
_publ_section_title
;
Structure prediction by ZEFSAII (Michael W. Deem and Ramdas Pophale) SiO2 
 PCOD9015622
Probable space group: P -1
;
_chemical_formula_sum "Si O2"
_cell_formula_units_Z 16
_cell_length_a 19.945840
_cell_length_b 9.652502
_cell_length_c 5.649157
_cell_angle_alpha 132.234012
_cell_angle_beta 116.255139
_cell_angle_gamma 71.362323
_cell_volume 721.794445
_symmetry_space_group_name_H-M "P -1"
_symmetry_group_IT_number 2
_symmetry_cell_setting 'triclinic'
loop_
_space_group_symop_operation_xyz
x,y,z
-x,-y,-z
loop_
_atom_site_type_symbol
_atom_site_label
_atom_site_fract_x
_atom_site_fract_y
_atom_site_fract_z
Si Si1 0.421178 0.429124 0.383275
Si Si2 0.157016 0.422614 0.363776
Si Si3 0.337880 0.775501 0.906735
Si Si4 0.805812 0.297636 0.632144
Si Si5 0.943785 0.914582 0.124145
Si Si6 0.917533 0.233874 0.097851
Si Si7 0.305408 0.513963 0.946056
Si Si8 0.456802 0.051505 0.244285
O O1 0.500000 0.500000 0.500000
O O2 0.376977 0.599400 0.632704
O O3 0.435868 0.267301 0.410855
O O4 0.368734 0.383684 0.022548
O O5 0.152145 0.540196 0.250312
O O6 0.110446 0.559177 0.629745
O O7 0.245577 0.416687 0.567354
O O8 0.118652 0.226178 0.053433
O O9 0.249863 0.800650 0.746514
O O10 0.342673 0.694698 0.088876
O O11 0.380899 0.945432 0.057478
O O12 0.863905 0.175288 0.732409
O O13 0.749468 0.398659 0.842986
O O14 0.908075 0.091038 0.132821
O O15 0.000000 0.000000 0.500000
O O16 0.997939 0.794780 0.891273
O O17 0.500000 0.000000 0.500000
O O18 0.500000 0.000000 0.000000
#
# Coordination Sequence:
#
# PCOD9015622 Si02
#       8
#     2   2   2   2   2   2   2   2
#     4  11  22  40  67  93 129 169 211 270 329 391
#     4  10  21  42  64  89 126 168 214 267 326 394
#     4  10  22  42  65  92 130 165 216 271 326 397
#     4   9  20  40  65  90 122 167 212 265 326 383
#     4  11  24  38  61  95 128 163 214 265 327 392
#     4  10  22  40  62  91 125 167 209 265 328 388
#     4   9  21  40  64  92 124 170 216 266 330 390
#     4  12  27  42  65 100 131 174 221 272 336 402
#
# _framework density 22.166978
#
# number of rings (size 3 to 8) (size 9 to 14) (size 15 to 20)
#    0.000    1.750    1.250    1.875    3.500    8.000 
#    0.000   13.750    0.000    0.000    0.000    0.000 
#    0.000    0.000    0.000    0.000    0.000    0.000 
#
# Total GULP energy -89230.315798 kJ/mol
# GULP energy per Si atom -5576.894737 kJ/mol
# Density = 2.211652 g / cm^3
# Si number density = 22.166978 Si / 1000 Ang^3
#
#
#
# Elastic Constant Matrix: (Units=GPa)
#
#
# Indices 1 2 3 4 5 6 
#
# 1 96.2439 39.1348 27.2979 6.1462 14.2604 16.4836
# 2 39.1348 165.2738 58.1607 -16.7252 37.0039 12.3571
# 3 27.2979 58.1607 52.6614 -1.9917 15.4853 8.8344
# 4 6.1462 -16.7252 -1.9917 38.0764 6.6578 6.9212
# 5 14.2604 37.0039 15.4853 6.6578 34.2702 1.7589
# 6 16.4836 12.3571 8.8344 6.9212 1.7589 46.3111
#
#
#
# Elastic Compliance Matrix: (Units=1/GPa)
#
#
# Indices 1 2 3 4 5 6 
#
# 1 0.013043 -0.001033 -0.004683 -0.001947 -0.001657 -0.003119
# 2 -0.001033 0.013211 -0.010344 0.007621 -0.010543 -0.001923
# 3 -0.004683 -0.010344 0.033567 -0.001428 -0.001685 -0.001699
# 4 -0.001947 0.007621 -0.001428 0.033115 -0.012923 -0.005526
# 5 -0.001657 -0.010543 -0.001685 -0.012923 0.044321 0.003972
# 6 -0.003119 -0.001923 -0.001699 -0.005526 0.003972 0.024216
#
#
# Mechanical properties :
#
#
# Convention : Reuss Voigt Hill
#
# Bulk Modulus (GPa) = 36.09976 62.59622 49.34799
# Shear Modulus (GPa) = 24.65174 36.37059 30.51116
#
# Velocity S-wave (km/s) = 3.33842 4.05502 3.71404
# Velocity P-wave (km/s) = 5.58398 7.08689 6.37985
#
# Compressibility (1/GPa) = 0.02770102
#
# Stress axis : x y z
#
# Youngs Moduli (GPa) = 76.67069 75.69627 29.79096
#
# Poissons Ratio (x) = 0.07821 0.13951
# Poissons Ratio (y) = 0.07922 0.30815
# Poissons Ratio (z) = 0.35904 0.78299
#
# Static dielectric constant tensor:
#      x y z
#    x 1.887600 0.032600 -0.069020 
#    y 0.032600 1.857060 -0.114190 
#    z -0.069020 -0.114190 1.975550 
# 
# From -- ./inp_files/48449.got.cif
#   From: 2010.05.17/outbox.cif.g08.bks.cpg/sg2_25_cif.got.tgz:48449.got - 2010.06.03 11:33:40.
