data_PCOD9015034
_publ_section_title
;
Structure prediction by ZEFSAII (Michael W. Deem and Ramdas Pophale) SiO2 
 PCOD9015034
Probable space group: P -1
;
_chemical_formula_sum "Si O2"
_cell_formula_units_Z 14
_cell_length_a 14.673368
_cell_length_b 10.197408
_cell_length_c 12.202256
_cell_angle_alpha 144.459355
_cell_angle_beta 148.510845
_cell_angle_gamma 35.630752
_cell_volume 510.081981
_symmetry_space_group_name_H-M "P -1"
_symmetry_group_IT_number 2
_symmetry_cell_setting 'triclinic'
loop_
_space_group_symop_operation_xyz
x,y,z
-x,-y,-z
loop_
_atom_site_type_symbol
_atom_site_label
_atom_site_fract_x
_atom_site_fract_y
_atom_site_fract_z
Si Si1 0.054546 0.636532 0.350511
Si Si2 0.238938 0.714093 0.141500
Si Si3 0.706375 0.490206 0.165262
Si Si4 0.587670 0.336842 0.345634
Si Si5 0.280089 0.163166 0.408956
Si Si6 0.944155 0.009752 0.213718
Si Si7 0.689717 0.846352 0.976343
O O1 0.207581 0.652878 0.430143
O O2 0.162667 0.385792 0.359040
O O3 0.014432 0.864156 0.548428
O O4 0.140623 0.319245 0.881299
O O5 0.451675 0.585954 0.318016
O O6 0.198580 0.957223 0.194869
O O7 0.243846 0.523105 0.920808
O O8 0.111321 0.810736 0.182879
O O9 0.728550 0.718235 0.400243
O O10 0.848750 0.246009 0.201463
O O11 0.500000 0.500000 0.000000
O O12 0.468845 0.267974 0.271582
O O13 0.608713 0.116037 0.131710
O O14 0.500000 0.000000 0.500000
O O15 0.792570 0.890074 0.004800
#
# Coordination Sequence:
#
# PCOD9015034 Si02
#       7
#     2   2   2   2   2   2   2
#     4  10  21  44  73  99 144 187 232 298 352 420
#     4  12  24  42  69 104 139 185 235 292 362 421
#     4  11  22  41  69  98 136 187 230 291 359 421
#     4  10  21  41  70  97 139 184 239 289 346 422
#     4  11  22  43  70 104 139 178 235 293 355 425
#     4  10  23  40  62 102 142 179 238 292 344 430
#     4  10  22  43  70  99 139 192 237 291 354 411
#
# _framework density 27.446567000000002
#
# number of rings (size 3 to 8) (size 9 to 14) (size 15 to 20)
#    0.000    1.429    2.857    3.857    0.000    6.286 
#    0.000    4.286    3.143    0.000    0.000    0.000 
#    0.000    0.000    0.000    0.000    0.000    0.000 
#
# Total GULP energy -78466.884630 kJ/mol
# GULP energy per Si atom -5604.777474 kJ/mol
# Density = 2.738410 g / cm^3
# Si number density = 27.446567 Si / 1000 Ang^3
#
#
#
# Elastic Constant Matrix: (Units=GPa)
#
#
# Indices 1 2 3 4 5 6 
#
# 1 140.4010 48.4694 28.5491 5.0184 -13.3261 -30.3973
# 2 48.4694 185.6836 32.4761 20.6988 -2.0995 -20.0091
# 3 28.5491 32.4761 109.7962 9.8042 -10.2746 -12.6538
# 4 5.0184 20.6988 9.8042 42.2491 -2.5849 6.6015
# 5 -13.3261 -2.0995 -10.2746 -2.5849 58.2487 6.1638
# 6 -30.3973 -20.0091 -12.6538 6.6015 6.1638 40.4934
#
#
#
# Elastic Compliance Matrix: (Units=1/GPa)
#
#
# Indices 1 2 3 4 5 6 
#
# 1 0.009274 -0.001475 -0.001100 -0.000965 0.001211 0.005862
# 2 -0.001475 0.006569 -0.001055 -0.003222 -0.000688 0.002439
# 3 -0.001100 -0.001055 0.010223 -0.001960 0.001217 0.001982
# 4 -0.000965 -0.003222 -0.001960 0.027076 0.001317 -0.007544
# 5 0.001211 -0.000688 0.001217 0.001317 0.017904 -0.001990
# 6 0.005862 0.002439 0.001982 -0.007544 -0.001990 0.032453
#
#
# Mechanical properties :
#
#
# Convention : Reuss Voigt Hill
#
# Bulk Modulus (GPa) = 53.17550 72.76333 62.96941
# Shear Modulus (GPa) = 42.72442 49.95732 46.34087
#
# Velocity S-wave (km/s) = 3.94971 4.27097 4.11348
# Velocity P-wave (km/s) = 6.34165 7.13372 6.74932
#
# Compressibility (1/GPa) = 0.01880565
#
# Stress axis : x y z
#
# Youngs Moduli (GPa) = 107.82719 152.22273 97.81705
#
# Poissons Ratio (x) = 0.22460 0.10759
# Poissons Ratio (y) = 0.15910 0.10321
# Poissons Ratio (z) = 0.11860 0.16061
#
# Static dielectric constant tensor:
#      x y z
#    x 2.189820 -0.050530 0.026730 
#    y -0.050530 2.118990 0.277520 
#    z 0.026730 0.277520 3.293570 
# 
# From -- ./inp_files/532183.got.cif
#   From: 2010.05.17/outbox.cif.g08.bks.cpg/sg2_267_cif.got.tgz:532183.got - 2010.06.03 11:33:40.
