data_PCOD9015162
_publ_section_title
;
Structure prediction by ZEFSAII (Michael W. Deem and Ramdas Pophale) SiO2 
 PCOD9015162
Probable space group: P -1
;
_chemical_formula_sum "Si O2"
_cell_formula_units_Z 8
_cell_length_a 7.720370
_cell_length_b 7.555338
_cell_length_c 9.790849
_cell_angle_alpha 69.491624
_cell_angle_beta 88.186881
_cell_angle_gamma 40.788129
_cell_volume 322.960380
_symmetry_space_group_name_H-M "P -1"
_symmetry_group_IT_number 2
_symmetry_cell_setting 'triclinic'
loop_
_space_group_symop_operation_xyz
x,y,z
-x,-y,-z
loop_
_atom_site_type_symbol
_atom_site_label
_atom_site_fract_x
_atom_site_fract_y
_atom_site_fract_z
Si Si1 0.835873 0.746298 0.061882
Si Si2 0.377566 0.714688 0.811545
Si Si3 0.242393 0.861394 0.223421
Si Si4 0.647593 0.862350 0.678577
O O1 0.023819 0.500140 0.245785
O O2 0.000000 0.500000 0.000000
O O3 0.500000 0.000000 0.000000
O O4 0.863131 0.939238 0.966617
O O5 0.512728 0.492809 0.736255
O O6 0.485388 0.836023 0.772255
O O7 0.500000 0.500000 0.000000
O O8 0.035498 0.994019 0.744627
O O9 0.348532 0.939100 0.298361
O O10 0.500000 0.000000 0.500000
#
# Coordination Sequence:
#
# PCOD9015162 Si02
#       4
#     2   2   2   2
#     4  10  21  41  72 101 135 190 241 289 350 430
#     4  12  26  45  78 109 140 197 256 296 364 446
#     4  11  25  46  75 106 147 189 255 304 350 446
#     4  11  27  48  75 113 154 194 240 311 383 430
#
# _framework density 24.770838999999999
#
# number of rings (size 3 to 8) (size 9 to 14) (size 15 to 20)
#    0.000    1.000    2.500    3.750    3.500    4.000 
#    0.000   17.500    0.000    0.000    0.000    0.000 
#    0.000    0.000    0.000    0.000    0.000    0.000 
#
# Total GULP energy -44798.560854 kJ/mol
# GULP energy per Si atom -5599.820107 kJ/mol
# Density = 2.471446 g / cm^3
# Si number density = 24.770839 Si / 1000 Ang^3
#
#
#
# Elastic Constant Matrix: (Units=GPa)
#
#
# Indices 1 2 3 4 5 6 
#
# 1 221.1890 100.4545 45.3729 20.1137 16.3983 -9.0262
# 2 100.4545 217.2690 32.4866 6.9071 26.3329 -14.3791
# 3 45.3729 32.4866 126.6774 -9.9733 30.5006 -6.0333
# 4 20.1137 6.9071 -9.9733 21.6714 -2.0650 10.3493
# 5 16.3983 26.3329 30.5006 -2.0650 33.5993 9.0506
# 6 -9.0262 -14.3791 -6.0333 10.3493 9.0506 60.7423
#
#
#
# Elastic Compliance Matrix: (Units=1/GPa)
#
#
# Indices 1 2 3 4 5 6 
#
# 1 0.006856 -0.002474 -0.002285 -0.007355 -0.000186 0.001487
# 2 -0.002474 0.006443 0.000421 -0.001028 -0.004853 0.002098
# 3 -0.002285 0.000421 0.011430 0.005682 -0.009607 0.001359
# 4 -0.007355 -0.001028 0.005682 0.062426 0.006404 -0.012362
# 5 -0.000186 -0.004853 -0.009607 0.006404 0.045464 -0.009996
# 6 0.001487 0.002098 0.001359 -0.012362 -0.009996 0.020911
#
#
# Mechanical properties :
#
#
# Convention : Reuss Voigt Hill
#
# Bulk Modulus (GPa) = 62.28844 102.41816 82.35330
# Shear Modulus (GPa) = 29.84062 48.99069 39.41566
#
# Velocity S-wave (km/s) = 3.47460 4.45202 3.99333
# Velocity P-wave (km/s) = 6.42632 8.23792 7.38786
#
# Compressibility (1/GPa) = 0.01605434
#
# Stress axis : x y z
#
# Youngs Moduli (GPa) = 145.84904 155.20765 87.49129
#
# Poissons Ratio (x) = 0.38393 0.19990
# Poissons Ratio (y) = 0.36078 -0.03684
# Poissons Ratio (z) = 0.33324 -0.06536
#
# Static dielectric constant tensor:
#      x y z
#    x 1.996500 -0.002270 0.025220 
#    y -0.002270 2.071940 0.046680 
#    z 0.025220 0.046680 2.061060 
# 
# From -- ./inp_files/15425.got.cif
#   From: 2010.05.17/outbox.cif.g08.bks.cpg/sg2_8_cif.got.tgz:15425.got - 2010.06.03 11:33:40.
