data_PCOD9015405
_publ_section_title
;
Structure prediction by ZEFSAII (Michael W. Deem and Ramdas Pophale) SiO2 
 PCOD9015405
Probable space group: P -1
;
_chemical_formula_sum "Si O2"
_cell_formula_units_Z 14
_cell_length_a 14.757990
_cell_length_b 7.086359
_cell_length_c 11.994149
_cell_angle_alpha 134.527550
_cell_angle_beta 141.973138
_cell_angle_gamma 52.316707
_cell_volume 545.905000
_symmetry_space_group_name_H-M "P -1"
_symmetry_group_IT_number 2
_symmetry_cell_setting 'triclinic'
loop_
_space_group_symop_operation_xyz
x,y,z
-x,-y,-z
loop_
_atom_site_type_symbol
_atom_site_label
_atom_site_fract_x
_atom_site_fract_y
_atom_site_fract_z
Si Si1 0.226722 0.643353 0.736186
Si Si2 0.852908 0.881274 0.774738
Si Si3 0.001711 0.680662 0.360712
Si Si4 0.416563 0.670216 0.709409
Si Si5 0.274959 0.227587 0.019475
Si Si6 0.690988 0.926576 0.404644
Si Si7 0.608661 0.818585 0.666654
O O1 0.063584 0.619936 0.520148
O O2 0.342069 0.633739 0.739745
O O3 0.282516 0.373654 0.743200
O O4 0.232555 0.942752 0.905040
O O5 0.887721 0.558644 0.690560
O O6 0.802436 0.940513 0.622614
O O7 0.718076 0.974315 0.765587
O O8 0.000000 0.000000 0.000000
O O9 0.851233 0.651732 0.137280
O O10 0.000000 0.000000 0.500000
O O11 0.447226 0.387867 0.559191
O O12 0.303971 0.868790 0.606233
O O13 0.571543 0.788933 0.905561
O O14 0.306385 0.355208 0.221953
O O15 0.527935 0.000077 0.332085
#
# Coordination Sequence:
#
# PCOD9015405 Si02
#       7
#     2   2   2   2   2   2   2
#     4  10  21  42  62  89 127 166 204 257 310 364
#     4  11  24  38  63  95 122 166 212 258 316 371
#     4   9  20  40  60  84 125 167 199 255 312 363
#     4  11  22  38  64  92 119 168 205 250 316 364
#     4  10  22  37  64  92 122 164 214 246 307 386
#     4  10  22  40  62  88 131 156 204 264 306 367
#     4  11  23  40  61  91 128 163 200 262 317 357
#
# _framework density 25.645489000000001
#
# number of rings (size 3 to 8) (size 9 to 14) (size 15 to 20)
#    0.000    1.714    2.857    2.571    4.000    4.000 
#    0.000    2.857    0.000   10.286    0.000    0.000 
#    0.000    0.000    0.000    0.000    0.000    0.000 
#
# Total GULP energy -78168.756163 kJ/mol
# GULP energy per Si atom -5583.482583 kJ/mol
# Density = 2.558712 g / cm^3
# Si number density = 25.645489 Si / 1000 Ang^3
#
#
#
# Elastic Constant Matrix: (Units=GPa)
#
#
# Indices 1 2 3 4 5 6 
#
# 1 45.8823 12.8376 0.0707 -2.8242 -4.7068 9.5703
# 2 12.8376 118.9038 9.5684 -12.0487 10.3769 5.0194
# 3 0.0707 9.5684 96.3022 -28.3897 11.2217 -1.2249
# 4 -2.8242 -12.0487 -28.3897 33.7497 1.9470 -6.0440
# 5 -4.7068 10.3769 11.2217 1.9470 22.3674 6.4526
# 6 9.5703 5.0194 -1.2249 -6.0440 6.4526 26.4506
#
#
#
# Elastic Compliance Matrix: (Units=1/GPa)
#
#
# Indices 1 2 3 4 5 6 
#
# 1 0.026615 -0.003666 -0.002599 -0.004364 0.012785 -0.013170
# 2 -0.003666 0.009745 0.001457 0.005262 -0.007204 0.002504
# 3 -0.002599 0.001457 0.016916 0.016868 -0.013669 0.008636
# 4 -0.004364 0.005262 0.016868 0.049775 -0.021330 0.017939
# 5 0.012785 -0.007204 -0.013669 -0.021330 0.066676 -0.025031
# 6 -0.013170 0.002504 0.008636 0.017939 -0.025031 0.052702
#
#
# Mechanical properties :
#
#
# Convention : Reuss Voigt Hill
#
# Bulk Modulus (GPa) = 22.90484 34.00465 28.45474
# Shear Modulus (GPa) = 20.27587 32.42098 26.34843
#
# Velocity S-wave (km/s) = 2.81485 3.55941 3.20880
# Velocity P-wave (km/s) = 4.41760 5.49371 4.98478
#
# Compressibility (1/GPa) = 0.04365890
#
# Stress axis : x y z
#
# Youngs Moduli (GPa) = 37.57316 102.61767 59.11448
#
# Poissons Ratio (x) = 0.37623 0.15365
# Poissons Ratio (y) = 0.13776 -0.08612
# Poissons Ratio (z) = 0.09766 -0.14950
#
# Static dielectric constant tensor:
#      x y z
#    x 1.993100 -0.012280 0.016150 
#    y -0.012280 2.052870 0.027380 
#    z 0.016150 0.027380 2.068650 
# 
# From -- ./inp_files/537690.got.cif
#   From: 2010.05.17/outbox.cif.g08.bks.cpg/sg2_269_cif.got.tgz:537690.got - 2010.06.03 11:33:40.
