data_PCOD9015481
_publ_section_title
;
Structure prediction by ZEFSAII (Michael W. Deem and Ramdas Pophale) SiO2 
 PCOD9015481
Probable space group: P -1
;
_chemical_formula_sum "Si O2"
_cell_formula_units_Z 16
_cell_length_a 20.474508
_cell_length_b 8.071466
_cell_length_c 20.280776
_cell_angle_alpha 138.361076
_cell_angle_beta 20.994330
_cell_angle_gamma 128.624218
_cell_volume 758.837321
_symmetry_space_group_name_H-M "P -1"
_symmetry_group_IT_number 2
_symmetry_cell_setting 'triclinic'
loop_
_space_group_symop_operation_xyz
x,y,z
-x,-y,-z
loop_
_atom_site_type_symbol
_atom_site_label
_atom_site_fract_x
_atom_site_fract_y
_atom_site_fract_z
Si Si1 0.554787 0.184888 0.180851
Si Si2 0.850192 0.280224 0.476018
Si Si3 0.670544 0.887418 0.856457
Si Si4 0.070232 0.864085 0.248787
Si Si5 0.136397 0.099451 0.033414
Si Si6 0.187764 0.514615 0.791152
Si Si7 0.532025 0.021391 0.656938
Si Si8 0.850025 0.459056 0.322993
O O1 0.521563 0.069988 0.247952
O O2 0.369925 0.433286 0.414814
O O3 0.751604 0.253409 0.004972
O O4 0.578211 0.956167 0.036667
O O5 0.770794 0.584205 0.658274
O O6 0.022583 0.216861 0.241830
O O7 0.682322 0.179441 0.573530
O O8 0.930593 0.111606 0.415319
O O9 0.829760 0.040550 0.755550
O O10 0.500000 0.000000 0.000000
O O11 0.954552 0.664288 0.311840
O O12 0.978680 0.187164 0.150760
O O13 0.216100 0.785027 0.866984
O O14 0.327791 0.181146 0.866210
O O15 0.357909 0.247394 0.564666
O O16 0.153591 0.528814 0.748879
O O17 0.000000 0.500000 0.000000
#
# Coordination Sequence:
#
# PCOD9015481 Si02
#       8
#     2   2   2   2   2   2   2   2
#     4   9  21  41  62  89 127 167 205 257 302 376
#     4  12  22  43  66  91 130 168 216 251 309 376
#     4  10  23  39  62  95 133 162 204 269 311 362
#     4  10  21  42  63  88 128 167 210 251 311 370
#     4  12  24  40  65  98 125 164 210 262 318 363
#     4  11  22  45  66  89 129 166 207 262 311 375
#     4  11  23  40  69  91 121 170 212 256 307 384
#     4  11  23  42  66  94 128 165 206 261 319 368
#
# _framework density 21.084889
#
# number of rings (size 3 to 8) (size 9 to 14) (size 15 to 20)
#    0.750    0.500    5.000    1.875    1.750    0.500 
#    2.250    1.875    0.000    0.000    0.000    0.000 
#    0.000    0.000    0.000    0.000    0.000    0.000 
#
# Total GULP energy -89330.368345 kJ/mol
# GULP energy per Si atom -5583.148022 kJ/mol
# Density = 2.103690 g / cm^3
# Si number density = 21.084889 Si / 1000 Ang^3
#
#
#
# Elastic Constant Matrix: (Units=GPa)
#
#
# Indices 1 2 3 4 5 6 
#
# 1 50.6044 2.2004 18.5883 10.3125 -6.2341 15.0151
# 2 2.2004 41.2668 16.5104 1.1456 2.4358 20.9035
# 3 18.5883 16.5104 96.9811 1.6795 -12.8934 26.3555
# 4 10.3125 1.1456 1.6795 27.9229 10.0683 3.1461
# 5 -6.2341 2.4358 -12.8934 10.0683 28.1477 -0.7234
# 6 15.0151 20.9035 26.3555 3.1461 -0.7234 19.1098
#
#
#
# Elastic Compliance Matrix: (Units=1/GPa)
#
#
# Indices 1 2 3 4 5 6 
#
# 1 0.045682 0.038816 0.011780 -0.014206 0.014879 -0.091698
# 2 0.038816 0.097681 0.022501 -0.003486 0.007392 -0.167528
# 3 0.011780 0.022501 0.023472 -0.003260 0.010901 -0.065291
# 4 -0.014206 -0.003486 -0.003260 0.047812 -0.021162 0.010798
# 5 0.014879 0.007392 0.010901 -0.021162 0.049989 -0.029435
# 6 -0.091698 -0.167528 -0.065291 0.010798 -0.029435 0.394786
#
#
# Mechanical properties :
#
#
# Convention : Reuss Voigt Hill
#
# Bulk Modulus (GPa) = 3.19458 29.27226 16.23342
# Shear Modulus (GPa) = 8.09622 25.13963 16.61792
#
# Velocity S-wave (km/s) = 1.96167 3.45672 2.81044
# Velocity P-wave (km/s) = 2.57862 5.46307 4.27167
#
# Compressibility (1/GPa) = 0.31303005
#
# Stress axis : x y z
#
# Youngs Moduli (GPa) = 21.89032 10.23738 42.60376
#
# Poissons Ratio (x) = -0.39738 -0.50186
# Poissons Ratio (y) = -0.84970 -0.95862
# Poissons Ratio (z) = -0.25786 -0.23035
#
# Static dielectric constant tensor:
#      x y z
#    x 1.792780 0.012520 -0.037190 
#    y 0.012520 1.783490 -0.011240 
#    z -0.037190 -0.011240 1.766840 
# 
# From -- ./inp_files/206691.got.cif
#   From: 2010.05.17/outbox.cif.g08.bks.cpg/sg2_104_cif.got.tgz:206691.got - 2010.06.03 11:33:40.
