data_PCOD9015903
_publ_section_title
;
Structure prediction by ZEFSAII (Michael W. Deem and Ramdas Pophale) SiO2 
 PCOD9015903
Probable space group: P -1
;
_chemical_formula_sum "Si O2"
_cell_formula_units_Z 16
_cell_length_a 18.401712
_cell_length_b 9.202510
_cell_length_c 6.850560
_cell_angle_alpha 101.259433
_cell_angle_beta 42.969642
_cell_angle_gamma 118.473824
_cell_volume 671.849552
_symmetry_space_group_name_H-M "P -1"
_symmetry_group_IT_number 2
_symmetry_cell_setting 'triclinic'
loop_
_space_group_symop_operation_xyz
x,y,z
-x,-y,-z
loop_
_atom_site_type_symbol
_atom_site_label
_atom_site_fract_x
_atom_site_fract_y
_atom_site_fract_z
Si Si1 0.382808 0.639478 0.351770
Si Si2 0.769782 0.526213 0.775477
Si Si3 0.205874 0.055924 0.638255
Si Si4 0.287215 0.783792 0.894531
Si Si5 0.365421 0.380458 0.643553
Si Si6 0.022473 0.684634 0.438128
Si Si7 0.979179 0.011419 0.315139
Si Si8 0.406656 0.029497 0.058259
O O1 0.308954 0.560882 0.280764
O O2 0.335502 0.751179 0.590142
O O3 0.360258 0.490920 0.503899
O O4 0.525339 0.766659 0.055060
O O5 0.914673 0.635824 0.481092
O O6 0.742967 0.375175 0.943127
O O7 0.726124 0.639679 0.007821
O O8 0.314477 0.196671 0.598475
O O9 0.272176 0.955086 0.399800
O O10 0.082647 0.989826 0.991899
O O11 0.154127 0.102777 0.555375
O O12 0.161539 0.788022 0.117440
O O13 0.384743 0.944736 0.867373
O O14 0.500000 0.500000 0.500000
O O15 0.000000 0.500000 0.500000
O O16 0.003007 0.794865 0.674417
O O17 0.000000 0.000000 0.500000
O O18 0.500000 0.000000 0.000000
#
# Coordination Sequence:
#
# PCOD9015903 Si02
#       8
#     2   2   2   2   2   2   2   2
#     4  11  25  41  69  98 132 184 231 281 347 416
#     4  10  21  42  65  96 134 171 230 288 339 416
#     4  11  26  46  72  98 144 186 225 293 357 413
#     4  10  22  43  64  99 136 175 228 286 349 410
#     4  11  25  43  67  96 136 182 233 282 344 414
#     4  10  21  43  73  96 137 178 226 295 344 412
#     4  11  25  47  72 107 140 183 234 289 357 429
#     4  12  24  44  70  99 142 182 231 289 348 420
#
# _framework density 23.814854
#
# number of rings (size 3 to 8) (size 9 to 14) (size 15 to 20)
#    0.000    1.250    3.750    1.125    3.500    4.500 
#    0.000    0.000    0.000    0.000    0.000    0.000 
#    0.000    0.000    0.000    0.000    0.000    0.000 
#
# Total GULP energy -89370.819829 kJ/mol
# GULP energy per Si atom -5585.676239 kJ/mol
# Density = 2.376065 g / cm^3
# Si number density = 23.814854 Si / 1000 Ang^3
#
#
#
# Elastic Constant Matrix: (Units=GPa)
#
#
# Indices 1 2 3 4 5 6 
#
# 1 82.3915 0.1270 34.1706 3.6691 6.0538 22.5373
# 2 0.1270 72.3574 3.9488 12.5384 8.7123 22.7848
# 3 34.1706 3.9488 114.1669 18.4154 -3.8310 1.3265
# 4 3.6691 12.5384 18.4154 36.1232 8.1736 -2.5469
# 5 6.0538 8.7123 -3.8310 8.1736 37.5756 3.6909
# 6 22.5373 22.7848 1.3265 -2.5469 3.6909 39.8895
#
#
#
# Elastic Compliance Matrix: (Units=1/GPa)
#
#
# Indices 1 2 3 4 5 6 
#
# 1 0.018046 0.004727 -0.005379 -0.000904 -0.003129 -0.012485
# 2 0.004727 0.019936 -0.000821 -0.007434 -0.002448 -0.014279
# 3 -0.005379 -0.000821 0.011362 -0.005503 0.003168 0.002486
# 4 -0.000904 -0.007434 -0.005503 0.035332 -0.007149 0.007857
# 5 -0.003129 -0.002448 0.003168 -0.007149 0.029576 -0.000132
# 6 -0.012485 -0.014279 0.002486 0.007857 -0.000132 0.040711
#
#
# Mechanical properties :
#
#
# Convention : Reuss Voigt Hill
#
# Bulk Modulus (GPa) = 21.55288 38.37872 29.96580
# Shear Modulus (GPa) = 28.83904 38.09561 33.46733
#
# Velocity S-wave (km/s) = 3.48367 4.00391 3.75282
# Velocity P-wave (km/s) = 5.02505 6.12581 5.60253
#
# Compressibility (1/GPa) = 0.04639751
#
# Stress axis : x y z
#
# Youngs Moduli (GPa) = 55.41395 50.16024 88.00911
#
# Poissons Ratio (x) = -0.23709 0.47339
# Poissons Ratio (y) = -0.26192 0.07229
# Poissons Ratio (z) = 0.29806 0.04120
#
# Static dielectric constant tensor:
#      x y z
#    x 1.934580 -0.054870 -0.035050 
#    y -0.054870 2.114280 -0.088570 
#    z -0.035050 -0.088570 1.934030 
# 
# From -- ./inp_files/109815.got.cif
#   From: 2010.05.17/outbox.cif.g08.bks.cpg/sg2_55_cif.got.tgz:109815.got - 2010.06.03 11:33:40.
