data_PCOD9015199
_publ_section_title
;
Structure prediction by ZEFSAII (Michael W. Deem and Ramdas Pophale) SiO2 
 PCOD9015199
Probable space group: P -1
;
_chemical_formula_sum "Si O2"
_cell_formula_units_Z 12
_cell_length_a 11.509781
_cell_length_b 10.572648
_cell_length_c 9.063419
_cell_angle_alpha 93.358583
_cell_angle_beta 138.104006
_cell_angle_gamma 116.147601
_cell_volume 505.252172
_symmetry_space_group_name_H-M "P -1"
_symmetry_group_IT_number 2
_symmetry_cell_setting 'triclinic'
loop_
_space_group_symop_operation_xyz
x,y,z
-x,-y,-z
loop_
_atom_site_type_symbol
_atom_site_label
_atom_site_fract_x
_atom_site_fract_y
_atom_site_fract_z
Si Si1 0.071317 0.587339 0.883643
Si Si2 0.773498 0.763072 0.682962
Si Si3 0.230346 0.386488 0.050263
Si Si4 0.470163 0.947468 0.138299
Si Si5 0.419724 0.767010 0.510733
Si Si6 0.048516 0.977142 0.381994
O O1 0.769870 0.433644 0.603940
O O2 0.117888 0.461044 0.898495
O O3 0.196184 0.739805 0.889288
O O4 0.241423 0.709540 0.198215
O O5 0.524608 0.567873 0.364817
O O6 0.878401 0.723634 0.903281
O O7 0.658560 0.821590 0.670407
O O8 0.942709 0.905800 0.721294
O O9 0.163518 0.238946 0.868043
O O10 0.514762 0.086108 0.305175
O O11 0.683434 0.954095 0.373177
O O12 0.500000 0.000000 0.000000
O O13 0.000000 0.000000 0.500000
#
# Coordination Sequence:
#
# PCOD9015199 Si02
#       6
#     2   2   2   2   2   2
#     4  10  21  43  69  95 123 166 218 270 319 366
#     4  10  23  43  70 100 122 163 222 267 318 373
#     4  10  21  44  68  95 127 162 219 266 313 376
#     4  12  26  44  62  97 136 171 211 258 323 387
#     4  10  21  41  72  94 123 163 218 273 316 365
#     4  12  26  45  61  95 137 176 206 258 323 387
#
# _framework density 23.750516999999999
#
# number of rings (size 3 to 8) (size 9 to 14) (size 15 to 20)
#    0.000    1.333    5.000    1.000    2.333    1.333 
#   12.000    0.000    0.000    0.000    0.000    0.000 
#    0.000    0.000    0.000    0.000    0.000    0.000 
#
# Total GULP energy -67175.889336 kJ/mol
# GULP energy per Si atom -5597.990778 kJ/mol
# Density = 2.369646 g / cm^3
# Si number density = 23.750517 Si / 1000 Ang^3
#
#
#
# Elastic Constant Matrix: (Units=GPa)
#
#
# Indices 1 2 3 4 5 6 
#
# 1 121.8300 65.8784 42.4771 19.1313 -32.9372 3.3180
# 2 65.8784 149.3590 50.7637 26.7607 -23.1403 25.2095
# 3 42.4771 50.7637 92.5024 24.3047 -38.7662 9.5136
# 4 19.1313 26.7607 24.3047 29.4687 -11.0217 9.3146
# 5 -32.9372 -23.1403 -38.7662 -11.0217 44.9949 0.1645
# 6 3.3180 25.2095 9.5136 9.3146 0.1645 49.1233
#
#
#
# Elastic Compliance Matrix: (Units=1/GPa)
#
#
# Indices 1 2 3 4 5 6 
#
# 1 0.012700 -0.004431 -0.000490 -0.002150 0.006062 0.001898
# 2 -0.004431 0.010820 -0.003027 -0.003630 -0.001162 -0.003975
# 3 -0.000490 -0.003027 0.020935 -0.008690 0.013995 -0.000867
# 4 -0.002150 -0.003630 -0.008690 0.047791 0.000798 -0.005373
# 5 0.006062 -0.001162 0.013995 0.000798 0.038328 -0.002803
# 6 0.001898 -0.003975 -0.000867 -0.005373 -0.002803 0.023465
#
#
# Mechanical properties :
#
#
# Convention : Reuss Voigt Hill
#
# Bulk Modulus (GPa) = 35.01724 75.76999 55.39361
# Shear Modulus (GPa) = 27.86213 38.35551 33.10882
#
# Velocity S-wave (km/s) = 3.42880 4.02298 3.73772
# Velocity P-wave (km/s) = 5.51827 7.31785 6.48083
#
# Compressibility (1/GPa) = 0.02855736
#
# Stress axis : x y z
#
# Youngs Moduli (GPa) = 78.74128 92.42175 47.76756
#
# Poissons Ratio (x) = 0.40953 0.02341
# Poissons Ratio (y) = 0.34891 0.14461
# Poissons Ratio (z) = 0.03858 0.27980
#
# Static dielectric constant tensor:
#      x y z
#    x 1.961710 -0.023930 0.038840 
#    y -0.023930 1.938610 0.000180 
#    z 0.038840 0.000180 1.908310 
# 
# From -- ./inp_files/62036.got.cif
#   From: 2010.05.17/outbox.cif.g08.bks.cpg/sg2_32_cif.got.tgz:62036.got - 2010.06.03 11:33:40.
