data_PCOD9015071
_publ_section_title
;
Structure prediction by ZEFSAII (Michael W. Deem and Ramdas Pophale) SiO2 
 PCOD9015071
Probable space group: P -1
;
_chemical_formula_sum "Si O2"
_cell_formula_units_Z 16
_cell_length_a 16.578459
_cell_length_b 9.662893
_cell_length_c 8.949617
_cell_angle_alpha 66.825398
_cell_angle_beta 105.607497
_cell_angle_gamma 143.354624
_cell_volume 783.811331
_symmetry_space_group_name_H-M "P -1"
_symmetry_group_IT_number 2
_symmetry_cell_setting 'triclinic'
loop_
_space_group_symop_operation_xyz
x,y,z
-x,-y,-z
loop_
_atom_site_type_symbol
_atom_site_label
_atom_site_fract_x
_atom_site_fract_y
_atom_site_fract_z
Si Si1 0.868663 0.900165 0.538058
Si Si2 0.920350 0.217256 0.194238
Si Si3 0.526548 0.303727 0.211725
Si Si4 0.949698 0.064016 0.842740
Si Si5 0.109804 0.491570 0.908173
Si Si6 0.573731 0.061570 0.163808
Si Si7 0.291493 0.151838 0.998700
Si Si8 0.551718 0.401283 0.532170
O O1 0.716098 0.629434 0.539137
O O2 0.888345 0.085722 0.385214
O O3 0.895143 0.941673 0.708680
O O4 0.000000 0.000000 0.500000
O O5 0.955284 0.436089 0.159674
O O6 0.039035 0.324520 0.095448
O O7 0.782123 0.011561 0.116521
O O8 0.556086 0.177040 0.221941
O O9 0.396479 0.184107 0.108499
O O10 0.513988 0.303321 0.384467
O O11 0.640850 0.589737 0.106366
O O12 0.075456 0.354318 0.797846
O O13 0.828597 0.984867 0.889945
O O14 0.000000 0.000000 0.000000
O O15 0.269461 0.729540 0.891471
O O16 0.516044 0.822916 0.302249
O O17 0.500000 0.000000 0.000000
O O18 0.500000 0.500000 0.500000
#
# Coordination Sequence:
#
# PCOD9015071 Si02
#       8
#     2   2   2   2   2   2   2   2
#     4  12  26  42  71 101 134 180 233 290 344 409
#     4  10  21  44  68 102 135 179 230 286 346 418
#     4  11  24  43  71 100 145 185 233 292 354 422
#     4  11  24  42  66  98 135 180 231 286 346 419
#     4  10  23  42  69  96 140 178 226 285 347 417
#     4  12  28  43  71 108 142 185 238 292 357 423
#     4  10  21  41  71 100 138 183 230 280 356 426
#     4  12  28  49  73 103 147 190 238 295 359 430
#
# _framework density 20.413074999999999
#
# number of rings (size 3 to 8) (size 9 to 14) (size 15 to 20)
#    0.000    1.000    1.250    4.875   10.500    0.500 
#    0.000    0.000    0.000    0.000    0.000    0.000 
#    0.000    0.000    0.000    0.000    0.000    0.000 
#
# Total GULP energy -89283.529907 kJ/mol
# GULP energy per Si atom -5580.220619 kJ/mol
# Density = 2.036661 g / cm^3
# Si number density = 20.413075 Si / 1000 Ang^3
#
#
#
# Elastic Constant Matrix: (Units=GPa)
#
#
# Indices 1 2 3 4 5 6 
#
# 1 93.0502 48.1470 24.0761 3.2580 2.1274 -12.5139
# 2 48.1470 95.4464 48.6228 -9.4834 13.4559 3.3501
# 3 24.0761 48.6228 112.4563 10.9304 18.2759 -6.9829
# 4 3.2580 -9.4834 10.9304 35.0501 -5.2593 -10.6560
# 5 2.1274 13.4559 18.2759 -5.2593 20.5353 -1.3577
# 6 -12.5139 3.3501 -6.9829 -10.6560 -1.3577 42.4395
#
#
#
# Elastic Compliance Matrix: (Units=1/GPa)
#
#
# Indices 1 2 3 4 5 6 
#
# 1 0.016109 -0.009280 0.000456 -0.002001 0.003836 0.005178
# 2 -0.009280 0.020076 -0.006801 0.006501 -0.004737 -0.003959
# 3 0.000456 -0.006801 0.014158 -0.007574 -0.010079 0.000777
# 4 -0.002001 0.006501 -0.007574 0.036965 0.012640 0.007336
# 5 0.003836 -0.004737 -0.010079 0.012640 0.063946 0.005066
# 6 0.005178 -0.003959 0.000777 0.007336 0.005066 0.027534
#
#
# Mechanical properties :
#
#
# Convention : Reuss Voigt Hill
#
# Bulk Modulus (GPa) = 52.37597 60.29383 56.33490
# Shear Modulus (GPa) = 23.10522 31.61213 27.35868
#
# Velocity S-wave (km/s) = 3.36800 3.93952 3.66492
# Velocity P-wave (km/s) = 6.39048 7.09183 6.75027
#
# Compressibility (1/GPa) = 0.01909273
#
# Stress axis : x y z
#
# Youngs Moduli (GPa) = 62.07625 49.81181 70.63254
#
# Poissons Ratio (x) = 0.46224 -0.03221
# Poissons Ratio (y) = 0.57605 0.48039
# Poissons Ratio (z) = -0.02831 0.33878
#
# Static dielectric constant tensor:
#      x y z
#    x 2.043070 0.095760 -0.193710 
#    y 0.095760 1.821860 -0.068130 
#    z -0.193710 -0.068130 1.903530 
# 
# From -- ./inp_files/297942.got.cif
#   From: 2010.05.17/outbox.cif.g08.bks.cpg/sg2_149_cif.got.tgz:297942.got - 2010.06.03 11:33:40.
