data_PCOD9015625
_publ_section_title
;
Structure prediction by ZEFSAII (Michael W. Deem and Ramdas Pophale) SiO2 
 PCOD9015625
Probable space group: P -1
;
_chemical_formula_sum "Si O2"
_cell_formula_units_Z 12
_cell_length_a 10.201056
_cell_length_b 7.091817
_cell_length_c 9.292871
_cell_angle_alpha 106.370412
_cell_angle_beta 42.541419
_cell_angle_gamma 113.691506
_cell_volume 416.128708
_symmetry_space_group_name_H-M "P -1"
_symmetry_group_IT_number 2
_symmetry_cell_setting 'triclinic'
loop_
_space_group_symop_operation_xyz
x,y,z
-x,-y,-z
loop_
_atom_site_type_symbol
_atom_site_label
_atom_site_fract_x
_atom_site_fract_y
_atom_site_fract_z
Si Si1 0.005462 0.808009 0.625724
Si Si2 0.933978 0.838904 0.149033
Si Si3 0.628289 0.123186 0.207714
Si Si4 0.571730 0.705042 0.834657
Si Si5 0.879432 0.413918 0.729932
Si Si6 0.487244 0.313068 0.638166
O O1 0.768243 0.788034 0.790146
O O2 0.991672 0.645760 0.744727
O O3 0.090418 0.801629 0.389862
O O4 0.119194 0.026078 0.651478
O O5 0.729446 0.666797 0.235360
O O6 0.136385 0.781465 0.014313
O O7 0.000000 0.000000 0.000000
O O8 0.489472 0.143054 0.192476
O O9 0.592648 0.250244 0.401461
O O10 0.566714 0.886420 0.257723
O O11 0.604186 0.518781 0.670809
O O12 0.357764 0.618095 0.072616
O O13 0.000000 0.500000 0.500000
#
# Coordination Sequence:
#
# PCOD9015625 Si02
#       6
#     2   2   2   2   2   2
#     4   9  22  39  65  97 129 171 218 266 329 381
#     4  10  21  42  64  89 133 172 214 266 325 385
#     4  10  24  40  67 100 126 174 219 266 330 387
#     4  12  22  42  70  95 131 170 220 271 323 389
#     4   8  21  37  62  95 128 171 212 261 327 383
#     4  10  24  43  66  94 135 169 218 272 322 386
#
# _framework density 28.837230999999999
#
# number of rings (size 3 to 8) (size 9 to 14) (size 15 to 20)
#    1.000    1.000    0.000    3.000    0.000   13.333 
#    0.000    1.667    0.000    0.000    0.000    0.000 
#    0.000    0.000    0.000    0.000    0.000    0.000 
#
# Total GULP energy -66933.080825 kJ/mol
# GULP energy per Si atom -5577.756735 kJ/mol
# Density = 2.877160 g / cm^3
# Si number density = 28.837231 Si / 1000 Ang^3
#
#
#
# Elastic Constant Matrix: (Units=GPa)
#
#
# Indices 1 2 3 4 5 6 
#
# 1 110.3137 29.8564 3.9056 -6.2578 -18.0398 3.5737
# 2 29.8564 98.8311 1.8297 -2.6956 7.2285 -5.8686
# 3 3.9056 1.8297 130.2349 10.2286 -6.3287 5.6692
# 4 -6.2578 -2.6956 10.2286 34.0768 10.7783 -0.7083
# 5 -18.0398 7.2285 -6.3287 10.7783 40.4754 6.9910
# 6 3.5737 -5.8686 5.6692 -0.7083 6.9910 41.5475
#
#
#
# Elastic Compliance Matrix: (Units=1/GPa)
#
#
# Indices 1 2 3 4 5 6 
#
# 1 0.011245 -0.004027 0.000168 -0.000353 0.006305 -0.002626
# 2 -0.004027 0.011952 -0.000586 0.002053 -0.005087 0.003006
# 3 0.000168 -0.000586 0.008146 -0.003330 0.002635 -0.001709
# 4 -0.000353 0.002053 -0.003330 0.033862 -0.010603 0.003136
# 5 0.006305 -0.005087 0.002635 -0.010603 0.032928 -0.007342
# 6 -0.002626 0.003006 -0.001709 0.003136 -0.007342 0.026241
#
#
# Mechanical properties :
#
#
# Convention : Reuss Voigt Hill
#
# Bulk Modulus (GPa) = 44.54024 45.61810 45.07917
# Shear Modulus (GPa) = 35.52420 43.47247 39.49833
#
# Velocity S-wave (km/s) = 3.51363 3.88688 3.70496
# Velocity P-wave (km/s) = 5.65153 5.99978 5.82825
#
# Compressibility (1/GPa) = 0.02245161
#
# Stress axis : x y z
#
# Youngs Moduli (GPa) = 88.92787 83.66691 122.76605
#
# Poissons Ratio (x) = 0.33691 -0.02059
# Poissons Ratio (y) = 0.35810 0.07200
# Poissons Ratio (z) = -0.01491 0.04907
#
# Static dielectric constant tensor:
#      x y z
#    x 2.602630 -0.056460 -0.057080 
#    y -0.056460 1.785500 -0.312360 
#    z -0.057080 -0.312360 2.103910 
# 
# From -- ./inp_files/417988.got.cif
#   From: 2010.05.17/outbox.cif.g08.bks.cpg/sg2_209_cif.got.tgz:417988.got - 2010.06.03 11:33:40.
