data_PCOD9015448
_publ_section_title
;
Structure prediction by ZEFSAII (Michael W. Deem and Ramdas Pophale) SiO2 
 PCOD9015448
Probable space group: P -1
;
_chemical_formula_sum "Si O2"
_cell_formula_units_Z 14
_cell_length_a 5.437895
_cell_length_b 15.688438
_cell_length_c 12.141009
_cell_angle_alpha 141.379066
_cell_angle_beta 65.096268
_cell_angle_gamma 96.274850
_cell_volume 540.425135
_symmetry_space_group_name_H-M "P -1"
_symmetry_group_IT_number 2
_symmetry_cell_setting 'triclinic'
loop_
_space_group_symop_operation_xyz
x,y,z
-x,-y,-z
loop_
_atom_site_type_symbol
_atom_site_label
_atom_site_fract_x
_atom_site_fract_y
_atom_site_fract_z
Si Si1 0.714875 0.885484 0.164771
Si Si2 0.000027 0.101232 0.326816
Si Si3 0.129004 0.120303 0.565867
Si Si4 0.267508 0.553221 0.498149
Si Si5 0.151364 0.117348 0.093930
Si Si6 0.444635 0.389276 0.702886
Si Si7 0.841314 0.626940 0.040233
O O1 0.736188 0.731804 0.059058
O O2 0.988922 0.937975 0.171826
O O3 0.472382 0.020685 0.410213
O O4 0.633212 0.897575 0.063208
O O5 0.223491 0.117137 0.209077
O O6 0.672397 0.219565 0.472180
O O7 0.055500 0.156365 0.489327
O O8 0.037497 0.266279 0.803542
O O9 0.000000 0.000000 0.500000
O O10 0.500000 0.500000 0.500000
O O11 0.107531 0.726891 0.723660
O O12 0.407260 0.527705 0.322645
O O13 0.000000 0.500000 0.500000
O O14 0.000000 0.000000 0.000000
O O15 0.389327 0.395744 0.853064
O O16 0.104057 0.470004 0.809106
#
# Coordination Sequence:
#
# PCOD9015448 Si02
#       7
#     2   2   2   2   2   2   2
#     4  11  21  42  64  91 134 172 226 274 346 413
#     4  10  21  42  62  95 129 169 226 283 344 410
#     4  12  23  35  64  94 129 175 220 281 344 414
#     4  11  25  49  75 103 146 193 242 301 368 437
#     4   9  22  44  70 102 132 181 234 298 351 419
#     4  10  23  42  67  98 137 177 232 287 351 423
#     4  11  22  40  67  97 137 180 226 285 348 428
#
# _framework density 25.905529999999999
#
# number of rings (size 3 to 8) (size 9 to 14) (size 15 to 20)
#    0.000    1.429    2.857    2.143    0.000    4.571 
#    5.143    1.429    0.000    0.000    0.000    0.000 
#    0.000    0.000    0.000    0.000    0.000    0.000 
#
# Total GULP energy -78094.234840 kJ/mol
# GULP energy per Si atom -5578.159631 kJ/mol
# Density = 2.584657 g / cm^3
# Si number density = 25.905530 Si / 1000 Ang^3
#
#
#
# Elastic Constant Matrix: (Units=GPa)
#
#
# Indices 1 2 3 4 5 6 
#
# 1 81.4037 67.9397 25.6366 -10.0967 6.8031 4.6610
# 2 67.9397 230.6328 48.0403 -24.6266 -0.0067 -1.9347
# 3 25.6366 48.0403 86.0071 0.1951 -9.1922 8.8973
# 4 -10.0967 -24.6266 0.1951 60.3925 4.0178 -4.3766
# 5 6.8031 -0.0067 -9.1922 4.0178 36.3793 -6.5979
# 6 4.6610 -1.9347 8.8973 -4.3766 -6.5979 42.8686
#
#
#
# Elastic Compliance Matrix: (Units=1/GPa)
#
#
# Indices 1 2 3 4 5 6 
#
# 1 0.017604 -0.004428 -0.003054 0.001304 -0.004581 -0.002052
# 2 -0.004428 0.006352 -0.002357 0.001947 0.000291 0.001501
# 3 -0.003054 -0.002357 0.014534 -0.001958 0.004030 -0.002371
# 4 0.001304 0.001947 -0.001958 0.017866 -0.002383 0.001810
# 5 -0.004581 0.000291 0.004030 -0.002383 0.030371 0.004106
# 6 -0.002052 0.001501 -0.002371 0.001810 0.004106 0.024927
#
#
# Mechanical properties :
#
#
# Convention : Reuss Voigt Hill
#
# Bulk Modulus (GPa) = 53.15727 75.69745 64.42736
# Shear Modulus (GPa) = 36.33707 45.02319 40.68013
#
# Velocity S-wave (km/s) = 3.74929 4.17343 3.96703
# Velocity P-wave (km/s) = 6.26954 7.24619 6.77549
#
# Compressibility (1/GPa) = 0.01881210
#
# Stress axis : x y z
#
# Youngs Moduli (GPa) = 56.80639 157.44289 68.80426
#
# Poissons Ratio (x) = 0.69710 0.21015
# Poissons Ratio (y) = 0.25152 0.16214
# Poissons Ratio (z) = 0.17351 0.37102
#
# Static dielectric constant tensor:
#      x y z
#    x 1.996070 -0.034820 -0.005290 
#    y -0.034820 2.104600 -0.096230 
#    z -0.005290 -0.096230 2.062710 
# 
# From -- ./inp_files/368022.got.cif
#   From: 2010.05.17/outbox.cif.g08.bks.cpg/sg2_185_cif.got.tgz:368022.got - 2010.06.03 11:33:40.
