data_PCOD9015212
_publ_section_title
;
Structure prediction by ZEFSAII (Michael W. Deem and Ramdas Pophale) SiO2 
 PCOD9015212
Probable space group: P -1
;
_chemical_formula_sum "Si O2"
_cell_formula_units_Z 12
_cell_length_a 9.648315
_cell_length_b 9.390421
_cell_length_c 7.493301
_cell_angle_alpha 111.001469
_cell_angle_beta 103.096115
_cell_angle_gamma 122.093419
_cell_volume 456.254850
_symmetry_space_group_name_H-M "P -1"
_symmetry_group_IT_number 2
_symmetry_cell_setting 'triclinic'
loop_
_space_group_symop_operation_xyz
x,y,z
-x,-y,-z
loop_
_atom_site_type_symbol
_atom_site_label
_atom_site_fract_x
_atom_site_fract_y
_atom_site_fract_z
Si Si1 0.060767 0.378030 0.814857
Si Si2 0.426515 0.244827 0.364587
Si Si3 0.694039 0.938310 0.389141
Si Si4 0.324959 0.325693 0.005098
Si Si5 0.328059 0.837432 0.070317
Si Si6 0.790947 0.423173 0.390931
O O1 0.161918 0.337392 0.962661
O O2 0.176799 0.426337 0.682580
O O3 0.132346 0.604687 0.962825
O O4 0.846692 0.173961 0.607816
O O5 0.349717 0.206918 0.524275
O O6 0.657287 0.380374 0.491411
O O7 0.323512 0.011834 0.174832
O O8 0.386344 0.328450 0.226052
O O9 0.757191 0.885490 0.212882
O O10 0.497809 0.881903 0.251893
O O11 0.500000 0.500000 0.000000
O O12 0.336180 0.795294 0.846615
O O13 0.000000 0.500000 0.500000
#
# Coordination Sequence:
#
# PCOD9015212 Si02
#       6
#     2   2   2   2   2   2
#     4  10  24  44  72  97 140 185 219 281 343 401
#     4  12  25  42  76 102 134 185 224 282 345 400
#     4  12  25  45  72 103 139 175 233 281 339 402
#     4  12  23  50  68  96 145 182 224 284 337 402
#     4  10  23  45  70  97 142 172 223 288 334 399
#     4  10  21  41  72  98 131 183 226 266 346 403
#
# _framework density 26.301091
#
# number of rings (size 3 to 8) (size 9 to 14) (size 15 to 20)
#    1.000    0.000    5.000    2.500    2.333    2.000 
#    3.000    0.000    0.000    0.000    0.000    0.000 
#    0.000    0.000    0.000    0.000    0.000    0.000 
#
# Total GULP energy -67072.226653 kJ/mol
# GULP energy per Si atom -5589.352221 kJ/mol
# Density = 2.624123 g / cm^3
# Si number density = 26.301091 Si / 1000 Ang^3
#
#
#
# Elastic Constant Matrix: (Units=GPa)
#
#
# Indices 1 2 3 4 5 6 
#
# 1 41.2133 17.9442 36.5082 1.1217 9.1334 -10.9194
# 2 17.9442 115.3232 43.9437 2.7468 9.1484 -8.1317
# 3 36.5082 43.9437 158.0112 8.4817 19.6664 -10.1856
# 4 1.1217 2.7468 8.4817 60.5449 -0.0576 1.9728
# 5 9.1334 9.1484 19.6664 -0.0576 48.6534 -2.6813
# 6 -10.9194 -8.1317 -10.1856 1.9728 -2.6813 44.5173
#
#
#
# Elastic Compliance Matrix: (Units=1/GPa)
#
#
# Indices 1 2 3 4 5 6 
#
# 1 0.033007 -0.002077 -0.006301 0.000164 -0.002923 0.006092
# 2 -0.002077 0.009917 -0.002150 -0.000136 -0.000563 0.000782
# 3 -0.006301 -0.002150 0.008674 -0.001002 -0.001922 -0.000025
# 4 0.000164 -0.000136 -0.001002 0.016691 0.000368 -0.000931
# 5 -0.002923 -0.000563 -0.001922 0.000368 0.021988 0.000049
# 6 0.006092 0.000782 -0.000025 -0.000931 0.000049 0.024139
#
#
# Mechanical properties :
#
#
# Convention : Reuss Voigt Hill
#
# Bulk Modulus (GPa) = 32.74299 56.81555 44.77927
# Shear Modulus (GPa) = 34.32821 45.15322 39.74072
#
# Velocity S-wave (km/s) = 3.61668 4.14790 3.89136
# Velocity P-wave (km/s) = 5.46962 6.67750 6.10351
#
# Compressibility (1/GPa) = 0.03054089
#
# Stress axis : x y z
#
# Youngs Moduli (GPa) = 30.29628 100.83817 115.29015
#
# Poissons Ratio (x) = 0.20949 0.72643
# Poissons Ratio (y) = 0.06294 0.24789
# Poissons Ratio (z) = 0.19089 0.21682
#
# Static dielectric constant tensor:
#      x y z
#    x 2.112680 0.062590 -0.076220 
#    y 0.062590 2.185910 -0.027510 
#    z -0.076220 -0.027510 2.118570 
# 
# From -- ./inp_files/239350.got.cif
#   From: 2010.05.17/outbox.cif.g08.bks.cpg/sg2_120_cif.got.tgz:239350.got - 2010.06.03 11:33:40.
