data_PCOD9015826
_publ_section_title
;
Structure prediction by ZEFSAII (Michael W. Deem and Ramdas Pophale) SiO2 
 PCOD9015826
Probable space group: P -1
;
_chemical_formula_sum "Si O2"
_cell_formula_units_Z 14
_cell_length_a 9.023261
_cell_length_b 11.475036
_cell_length_c 8.176079
_cell_angle_alpha 72.896552
_cell_angle_beta 120.224180
_cell_angle_gamma 69.439208
_cell_volume 556.925408
_symmetry_space_group_name_H-M "P -1"
_symmetry_group_IT_number 2
_symmetry_cell_setting 'triclinic'
loop_
_space_group_symop_operation_xyz
x,y,z
-x,-y,-z
loop_
_atom_site_type_symbol
_atom_site_label
_atom_site_fract_x
_atom_site_fract_y
_atom_site_fract_z
Si Si1 0.241588 0.843942 0.096917
Si Si2 0.048787 0.382541 0.383355
Si Si3 0.504431 0.127140 0.252284
Si Si4 0.673860 0.550907 0.340259
Si Si5 0.193133 0.087466 0.764567
Si Si6 0.861961 0.826724 0.784281
Si Si7 0.284777 0.751209 0.531557
O O1 0.443061 0.709109 0.161994
O O2 0.278934 0.811742 0.323015
O O3 0.046670 0.839838 0.936512
O O4 0.215246 0.998423 0.978101
O O5 0.188224 0.445295 0.439142
O O6 0.159652 0.244273 0.639300
O O7 0.055099 0.306359 0.249722
O O8 0.815036 0.511242 0.272630
O O9 0.264121 0.191701 0.136391
O O10 0.549151 0.248195 0.265435
O O11 0.599618 0.043516 0.168240
O O12 0.675788 0.984389 0.525342
O O13 0.658091 0.413059 0.400425
O O14 0.951453 0.143345 0.557205
#
# Coordination Sequence:
#
# PCOD9015826 Si02
#       7
#     2   2   2   2   2   2   2
#     4  12  24  39  64 105 125 158 218 269 310 364
#     4   9  21  45  65  90 126 176 207 253 323 384
#     4  10  21  42  65  92 127 173 206 254 328 377
#     4  10  23  42  65  90 131 174 209 250 322 383
#     4  10  22  40  69  95 124 160 217 267 309 368
#     4  10  22  39  65  93 131 162 214 263 313 373
#     4  11  22  42  67  90 130 172 207 256 319 386
#
# _framework density 25.138017999999999
#
# number of rings (size 3 to 8) (size 9 to 14) (size 15 to 20)
#    0.000    1.714    1.429    2.143    4.000    1.143 
#    7.714    1.429    0.000    0.000    0.000    0.000 
#    0.000    0.000    0.000    0.000    0.000    0.000 
#
# Total GULP energy -78333.972868 kJ/mol
# GULP energy per Si atom -5595.283776 kJ/mol
# Density = 2.508080 g / cm^3
# Si number density = 25.138018 Si / 1000 Ang^3
#
#
#
# Elastic Constant Matrix: (Units=GPa)
#
#
# Indices 1 2 3 4 5 6 
#
# 1 131.9588 71.4417 33.1068 -2.7252 23.3746 -17.1557
# 2 71.4417 179.6503 28.5000 15.3083 14.2837 -6.8046
# 3 33.1068 28.5000 56.9661 4.0965 12.8695 -14.1549
# 4 -2.7252 15.3083 4.0965 22.7285 -0.1123 14.1331
# 5 23.3746 14.2837 12.8695 -0.1123 29.5599 -10.5408
# 6 -17.1557 -6.8046 -14.1549 14.1331 -10.5408 43.3515
#
#
#
# Elastic Compliance Matrix: (Units=1/GPa)
#
#
# Indices 1 2 3 4 5 6 
#
# 1 0.011871 -0.004068 -0.003995 0.005034 -0.005765 -0.000288
# 2 -0.004068 0.007917 -0.000774 -0.006693 0.000285 0.001631
# 3 -0.003995 -0.000774 0.023866 -0.009363 -0.003978 0.008176
# 4 0.005034 -0.006693 -0.009363 0.066344 -0.005349 -0.025045
# 5 -0.005765 0.000285 -0.003978 -0.005349 0.043057 0.008677
# 6 -0.000288 0.001631 0.008176 -0.025045 0.008677 0.036153
#
#
# Mechanical properties :
#
#
# Convention : Reuss Voigt Hill
#
# Bulk Modulus (GPa) = 38.49133 70.51914 54.50524
# Shear Modulus (GPa) = 23.19737 34.82977 29.01357
#
# Velocity S-wave (km/s) = 3.04106 3.72632 3.40099
# Velocity P-wave (km/s) = 5.26079 6.82845 6.09523
#
# Compressibility (1/GPa) = 0.02597988
#
# Stress axis : x y z
#
# Youngs Moduli (GPa) = 84.24119 126.31829 41.89974
#
# Poissons Ratio (x) = 0.51392 0.16737
# Poissons Ratio (y) = 0.34273 0.03243
# Poissons Ratio (z) = 0.33651 0.09776
#
# Static dielectric constant tensor:
#      x y z
#    x 1.988720 0.014030 -0.028930 
#    y 0.014030 1.946900 -0.006210 
#    z -0.028930 -0.006210 2.002590 
# 
# From -- ./inp_files/186122.got.cif
#   From: 2010.05.17/outbox.cif.g08.bks.cpg/sg2_94_cif.got.tgz:186122.got - 2010.06.03 11:33:40.
