data_PCOD9015324
_publ_section_title
;
Structure prediction by ZEFSAII (Michael W. Deem and Ramdas Pophale) SiO2 
 PCOD9015324
Probable space group: P -1
;
_chemical_formula_sum "Si O2"
_cell_formula_units_Z 14
_cell_length_a 20.772697
_cell_length_b 9.411900
_cell_length_c 7.015818
_cell_angle_alpha 49.271288
_cell_angle_beta 115.313587
_cell_angle_gamma 138.330383
_cell_volume 686.179038
_symmetry_space_group_name_H-M "P -1"
_symmetry_group_IT_number 2
_symmetry_cell_setting 'triclinic'
loop_
_space_group_symop_operation_xyz
x,y,z
-x,-y,-z
loop_
_atom_site_type_symbol
_atom_site_label
_atom_site_fract_x
_atom_site_fract_y
_atom_site_fract_z
Si Si1 0.954803 0.954194 0.277179
Si Si2 0.243996 0.411830 0.455066
Si Si3 0.050688 0.395883 0.716356
Si Si4 0.454690 0.362535 0.259074
Si Si5 0.734271 0.281179 0.141671
Si Si6 0.357718 0.287423 0.544134
Si Si7 0.611039 0.153695 0.442235
O O1 0.842536 0.775521 0.343072
O O2 0.966909 0.791271 0.305729
O O3 0.000000 0.000000 0.500000
O O4 0.999722 0.212252 0.998435
O O5 0.272904 0.266610 0.526892
O O6 0.328311 0.647875 0.486187
O O7 0.230430 0.532062 0.157471
O O8 0.167496 0.611463 0.718256
O O9 0.000000 0.500000 0.500000
O O10 0.388589 0.381683 0.282443
O O11 0.547021 0.492839 0.400774
O O12 0.388337 0.069084 0.375066
O O13 0.500000 0.500000 0.000000
O O14 0.664014 0.280578 0.192070
O O15 0.673317 0.987963 0.249885
O O16 0.500000 0.000000 0.500000
#
# Coordination Sequence:
#
# PCOD9015324 Si02
#       7
#     2   2   2   2   2   2   2
#     4  11  25  47  71 102 134 174 231 287 340 418
#     4  12  24  43  71  97 136 181 224 280 343 399
#     4  11  26  47  72 100 139 177 225 290 353 408
#     4  10  21  42  60  89 133 173 223 274 318 393
#     4  11  25  44  65 100 138 172 230 280 335 419
#     4  10  24  39  62  97 128 172 225 268 330 393
#     4  11  23  42  64  97 136 178 224 273 336 397
#
# _framework density 20.402840000000001
#
# number of rings (size 3 to 8) (size 9 to 14) (size 15 to 20)
#    0.000    1.143    4.286    0.857    4.000    2.286 
#    5.143    0.000    0.000    0.000    0.000    0.000 
#    0.000    0.000    0.000    0.000    0.000    0.000 
#
# Total GULP energy -78030.197807 kJ/mol
# GULP energy per Si atom -5573.585558 kJ/mol
# Density = 2.035640 g / cm^3
# Si number density = 20.402840 Si / 1000 Ang^3
#
#
#
# Elastic Constant Matrix: (Units=GPa)
#
#
# Indices 1 2 3 4 5 6 
#
# 1 131.6272 29.6675 62.1495 -1.2122 -10.4969 -2.8346
# 2 29.6675 81.0517 21.7013 6.8682 -3.0927 5.0854
# 3 62.1495 21.7013 99.2599 -10.5435 -32.0275 -11.2779
# 4 -1.2122 6.8682 -10.5435 26.3809 -3.1619 -8.0148
# 5 -10.4969 -3.0927 -32.0275 -3.1619 31.4369 -5.4061
# 6 -2.8346 5.0854 -11.2779 -8.0148 -5.4061 39.1465
#
#
#
# Elastic Compliance Matrix: (Units=1/GPa)
#
#
# Indices 1 2 3 4 5 6 
#
# 1 0.012600 -0.000779 -0.012293 -0.006952 -0.010010 -0.005334
# 2 -0.000779 0.015859 -0.008090 -0.010954 -0.009418 -0.007991
# 3 -0.012293 -0.008090 0.038434 0.028748 0.041066 0.022790
# 4 -0.006952 -0.010954 0.028748 0.064763 0.037148 0.027591
# 5 -0.010010 -0.009418 0.041066 0.037148 0.078405 0.030763
# 6 -0.005334 -0.007991 0.022790 0.027591 0.030763 0.042660
#
#
# Mechanical properties :
#
#
# Convention : Reuss Voigt Hill
#
# Bulk Modulus (GPa) = 40.70112 59.88616 50.29364
# Shear Modulus (GPa) = 16.48885 32.62090 24.55488
#
# Velocity S-wave (km/s) = 2.84591 4.00289 3.47292
# Velocity P-wave (km/s) = 5.54896 7.12599 6.38634
#
# Compressibility (1/GPa) = 0.02456935
#
# Stress axis : x y z
#
# Youngs Moduli (GPa) = 79.36489 63.05509 26.01857
#
# Poissons Ratio (x) = 0.04910 0.31986
# Poissons Ratio (y) = 0.06180 0.21049
# Poissons Ratio (z) = 0.97566 0.51011
#
# Static dielectric constant tensor:
#      x y z
#    x 1.827480 0.114010 0.004660 
#    y 0.114010 1.776740 0.097620 
#    z 0.004660 0.097620 1.742300 
# 
# From -- ./inp_files/38334.got.cif
#   From: 2010.05.17/outbox.cif.g08.bks.cpg/sg2_20_cif.got.tgz:38334.got - 2010.06.03 11:33:40.
