data_PCOD9015875
_publ_section_title
;
Structure prediction by ZEFSAII (Michael W. Deem and Ramdas Pophale) SiO2 
 PCOD9015875
Probable space group: P -1
;
_chemical_formula_sum "Si O2"
_cell_formula_units_Z 14
_cell_length_a 7.484395
_cell_length_b 10.664848
_cell_length_c 11.938738
_cell_angle_alpha 88.125103
_cell_angle_beta 58.391048
_cell_angle_gamma 120.113757
_cell_volume 643.011876
_symmetry_space_group_name_H-M "P -1"
_symmetry_group_IT_number 2
_symmetry_cell_setting 'triclinic'
loop_
_space_group_symop_operation_xyz
x,y,z
-x,-y,-z
loop_
_atom_site_type_symbol
_atom_site_label
_atom_site_fract_x
_atom_site_fract_y
_atom_site_fract_z
Si Si1 0.671509 0.235309 0.783543
Si Si2 0.828188 0.103139 0.313815
Si Si3 0.816324 0.554605 0.082468
Si Si4 0.740230 0.519128 0.361404
Si Si5 0.334723 0.867118 0.867980
Si Si6 0.650338 0.236720 0.529607
Si Si7 0.559700 0.711698 0.933709
O O1 0.683455 0.278674 0.648222
O O2 0.971179 0.315368 0.719686
O O3 0.481851 0.045128 0.855686
O O4 0.554357 0.293414 0.907118
O O5 0.683206 0.130195 0.261453
O O6 0.805684 0.171114 0.434862
O O7 0.127742 0.191143 0.177330
O O8 0.656717 0.913609 0.383408
O O9 0.691326 0.496585 0.246389
O O10 0.595301 0.462487 0.063834
O O11 0.000000 0.500000 0.000000
O O12 0.026012 0.743850 0.007533
O O13 0.500000 0.500000 0.500000
O O14 0.749124 0.385560 0.417056
O O15 0.483508 0.802683 0.875061
#
# Coordination Sequence:
#
# PCOD9015875 Si02
#       7
#     2   2   2   2   2   2   2
#     4  11  24  43  66  98 131 176 216 277 328 384
#     4  10  24  43  72  96 130 180 214 277 331 380
#     4  10  21  42  65  95 130 167 217 274 320 381
#     4  12  26  41  67  96 136 178 213 271 337 391
#     4  10  22  43  68  96 136 162 228 278 315 394
#     4  10  24  47  60  98 142 164 223 272 321 411
#     4  11  23  41  72 100 126 176 224 268 336 382
#
# _framework density 21.772537
#
# number of rings (size 3 to 8) (size 9 to 14) (size 15 to 20)
#    0.000    1.429    2.857    2.571    4.000    4.000 
#    0.000    2.857    0.000    0.000    0.000    0.000 
#    0.000    0.000    0.000    0.000    0.000    0.000 
#
# Total GULP energy -78248.162705 kJ/mol
# GULP energy per Si atom -5589.154479 kJ/mol
# Density = 2.172298 g / cm^3
# Si number density = 21.772537 Si / 1000 Ang^3
#
#
#
# Elastic Constant Matrix: (Units=GPa)
#
#
# Indices 1 2 3 4 5 6 
#
# 1 75.9052 39.2885 43.5866 8.3398 4.9014 20.5497
# 2 39.2885 121.3163 61.8793 1.9697 2.4632 27.1298
# 3 43.5866 61.8793 167.9367 23.5957 -2.0590 25.4992
# 4 8.3398 1.9697 23.5957 34.3414 1.9815 7.2194
# 5 4.9014 2.4632 -2.0590 1.9815 47.3859 -7.0509
# 6 20.5497 27.1298 25.4992 7.2194 -7.0509 23.8577
#
#
#
# Elastic Compliance Matrix: (Units=1/GPa)
#
#
# Indices 1 2 3 4 5 6 
#
# 1 0.019362 -0.002111 -0.002326 -0.000037 -0.003918 -0.012938
# 2 -0.002111 0.013196 -0.003179 0.004599 -0.002575 -0.011944
# 3 -0.002326 -0.003179 0.008731 -0.004863 0.000685 -0.002039
# 4 -0.000037 0.004599 -0.004863 0.034859 -0.003634 -0.011624
# 5 -0.003918 -0.002575 0.000685 -0.003634 0.023866 0.013724
# 6 -0.012938 -0.011944 -0.002039 -0.011624 0.013724 0.076394
#
#
# Mechanical properties :
#
#
# Convention : Reuss Voigt Hill
#
# Bulk Modulus (GPa) = 38.37522 72.74077 55.55799
# Shear Modulus (GPa) = 24.95932 35.81057 30.38494
#
# Velocity S-wave (km/s) = 3.38948 4.05996 3.73978
# Velocity P-wave (km/s) = 5.74298 7.44712 6.64987
#
# Compressibility (1/GPa) = 0.02605848
#
# Stress axis : x y z
#
# Youngs Moduli (GPa) = 51.64716 75.77770 114.53559
#
# Poissons Ratio (x) = 0.15994 0.26640
# Poissons Ratio (y) = 0.10901 0.36411
# Poissons Ratio (z) = 0.12013 0.24090
#
# Static dielectric constant tensor:
#      x y z
#    x 1.826180 -0.016890 0.024130 
#    y -0.016890 1.833140 -0.014200 
#    z 0.024130 -0.014200 1.770180 
# 
# From -- ./inp_files/390358.got.cif
#   From: 2010.05.17/outbox.cif.g08.bks.cpg/sg2_196_cif.got.tgz:390358.got - 2010.06.03 11:33:40.
