data_PCOD9015591
_publ_section_title
;
Structure prediction by ZEFSAII (Michael W. Deem and Ramdas Pophale) SiO2 
 PCOD9015591
Probable space group: P -1
;
_chemical_formula_sum "Si O2"
_cell_formula_units_Z 14
_cell_length_a 14.867485
_cell_length_b 24.513628
_cell_length_c 5.637589
_cell_angle_alpha 117.107287
_cell_angle_beta 60.286223
_cell_angle_gamma 160.789135
_cell_volume 586.625652
_symmetry_space_group_name_H-M "P -1"
_symmetry_group_IT_number 2
_symmetry_cell_setting 'triclinic'
loop_
_space_group_symop_operation_xyz
x,y,z
-x,-y,-z
loop_
_atom_site_type_symbol
_atom_site_label
_atom_site_fract_x
_atom_site_fract_y
_atom_site_fract_z
Si Si1 0.718314 0.581770 0.220378
Si Si2 0.329843 0.273702 0.016486
Si Si3 0.060578 0.879619 0.428499
Si Si4 0.105231 0.689323 0.087107
Si Si5 0.817429 0.954870 0.743480
Si Si6 0.327114 0.650601 0.117467
Si Si7 0.616058 0.177810 0.512154
O O1 0.500000 0.500000 0.500000
O O2 0.536493 0.441675 0.996112
O O3 0.946354 0.757678 0.199021
O O4 0.871413 0.613977 0.239450
O O5 0.204897 0.226655 0.341599
O O6 0.500159 0.303864 0.858421
O O7 0.042574 0.108762 0.928556
O O8 0.244288 0.027153 0.328570
O O9 0.281389 0.982482 0.546409
O O10 0.273497 0.784651 0.302473
O O11 0.258576 0.781590 0.814116
O O12 0.947810 0.536923 0.975254
O O13 0.000000 0.000000 0.500000
O O14 0.537677 0.777600 0.876299
O O15 0.299129 0.702888 0.365245
#
# Coordination Sequence:
#
# PCOD9015591 Si02
#       7
#     2   2   2   2   2   2   2
#     4   9  23  49  71  98 134 179 237 295 351 412
#     4  10  21  42  64 100 136 177 232 295 347 409
#     4  11  23  42  66 100 135 182 238 282 351 408
#     4  11  27  48  69 104 140 188 237 286 348 423
#     4  12  22  36  68 103 141 178 226 295 355 414
#     4  11  22  43  67 102 143 180 236 290 355 414
#     4  12  25  44  71 101 146 189 231 285 351 423
#
# _framework density 23.865302
#
# number of rings (size 3 to 8) (size 9 to 14) (size 15 to 20)
#    0.000    1.143    2.857    3.000    0.000    5.143 
#    5.143    0.000    0.000    0.000    0.000    0.000 
#    0.000    0.000    0.000    0.000    0.000    0.000 
#
# Total GULP energy -78185.927110 kJ/mol
# GULP energy per Si atom -5584.709079 kJ/mol
# Density = 2.381098 g / cm^3
# Si number density = 23.865302 Si / 1000 Ang^3
#
#
#
# Elastic Constant Matrix: (Units=GPa)
#
#
# Indices 1 2 3 4 5 6 
#
# 1 165.3280 66.4864 79.5852 103.3897 6.1390 77.4633
# 2 66.4864 108.0728 45.2860 62.4408 16.7737 36.6436
# 3 79.5852 45.2860 102.8076 24.6223 4.2683 25.8960
# 4 103.3897 62.4408 24.6223 134.2013 21.6904 61.7224
# 5 6.1390 16.7737 4.2683 21.6904 37.7204 18.2529
# 6 77.4633 36.6436 25.8960 61.7224 18.2529 80.2556
#
#
#
# Elastic Compliance Matrix: (Units=1/GPa)
#
#
# Indices 1 2 3 4 5 6 
#
# 1 0.030016 0.000485 -0.016522 -0.015596 0.012900 -0.014801
# 2 0.000485 0.015142 -0.005405 -0.005703 -0.002602 -0.000659
# 3 -0.016522 -0.005405 0.021469 0.009800 -0.005488 0.005198
# 4 -0.015596 -0.005703 0.009800 0.021872 -0.008412 -0.000412
# 5 0.012900 -0.002602 -0.005488 -0.008412 0.036507 -0.011325
# 6 -0.014801 -0.000659 0.005198 -0.000412 -0.011325 0.028263
#
#
# Mechanical properties :
#
#
# Convention : Reuss Voigt Hill
#
# Bulk Modulus (GPa) = 42.11751 84.32484 63.22117
# Shear Modulus (GPa) = 24.50163 62.75885 43.63024
#
# Velocity S-wave (km/s) = 3.20763 5.13363 4.28037
# Velocity P-wave (km/s) = 5.60401 8.39936 7.13982
#
# Compressibility (1/GPa) = 0.02374310
#
# Stress axis : x y z
#
# Youngs Moduli (GPa) = 33.31535 66.03952 46.57936
#
# Poissons Ratio (x) = -0.03200 0.76956
# Poissons Ratio (y) = -0.01614 0.25177
# Poissons Ratio (z) = 0.55042 0.35696
#
# Static dielectric constant tensor:
#      x y z
#    x 2.136410 -0.004650 0.224910 
#    y -0.004650 1.957690 0.025260 
#    z 0.224910 0.025260 2.174880 
# 
# From -- ./inp_files/80627.got.cif
#   From: 2010.05.17/outbox.cif.g08.bks.cpg/sg2_41_cif.got.tgz:80627.got - 2010.06.03 11:33:40.
