data_PCOD9015993
_publ_section_title
;
Structure prediction by ZEFSAII (Michael W. Deem and Ramdas Pophale) SiO2 
 PCOD9015993
Probable space group: P -1
;
_chemical_formula_sum "Si O2"
_cell_formula_units_Z 16
_cell_length_a 15.995342
_cell_length_b 25.206042
_cell_length_c 9.465710
_cell_angle_alpha 27.876675
_cell_angle_beta 44.175021
_cell_angle_gamma 26.463227
_cell_volume 743.165406
_symmetry_space_group_name_H-M "P -1"
_symmetry_group_IT_number 2
_symmetry_cell_setting 'triclinic'
loop_
_space_group_symop_operation_xyz
x,y,z
-x,-y,-z
loop_
_atom_site_type_symbol
_atom_site_label
_atom_site_fract_x
_atom_site_fract_y
_atom_site_fract_z
Si Si1 0.125137 0.957295 0.668169
Si Si2 0.093507 0.669900 0.854944
Si Si3 0.794986 0.062480 0.673584
Si Si4 0.033103 0.480358 0.232077
Si Si5 0.282575 0.699449 0.345210
Si Si6 0.852031 0.380338 0.778743
Si Si7 0.513774 0.290472 0.721229
Si Si8 0.674734 0.783537 0.742898
O O1 0.272752 0.847615 0.612428
O O2 0.170298 0.839245 0.019469
O O3 0.101784 0.103063 0.411247
O O4 0.918194 0.070832 0.579243
O O5 0.187343 0.664297 0.621371
O O6 0.069152 0.557405 0.111486
O O7 0.205685 0.592189 0.052551
O O8 0.622011 0.156059 0.769063
O O9 0.959702 0.840012 0.973367
O O10 0.233517 0.287540 0.359188
O O11 0.926334 0.453052 0.495576
O O12 0.872186 0.650746 0.912664
O O13 0.500000 0.500000 0.500000
O O14 0.322708 0.765168 0.258234
O O15 0.666434 0.498106 0.622430
O O16 0.413076 0.274037 0.981665
O O17 0.500000 0.000000 0.500000
#
# Coordination Sequence:
#
# PCOD9015993 Si02
#       8
#     2   2   2   2   2   2   2   2
#     4  10  23  41  61  94 126 173 209 252 324 377
#     4  11  23  41  64  89 128 171 204 266 323 372
#     4  10  21  42  66  88 131 169 211 259 308 381
#     4  10  22  42  63  91 127 163 216 263 309 383
#     4  12  25  38  60  97 129 163 208 267 319 376
#     4  10  23  42  65  93 122 170 218 258 318 372
#     4  11  23  39  64  93 126 165 210 261 313 380
#     4  10  22  39  63  93 122 170 211 258 320 367
#
# _framework density 21.529527999999999
#
# number of rings (size 3 to 8) (size 9 to 14) (size 15 to 20)
#    0.000    1.500    1.250    3.000    3.500    2.500 
#    0.000    0.000    0.000    6.000    0.000    0.000 
#    0.000    0.000    0.000    0.000    0.000    0.000 
#
# Total GULP energy -89305.962398 kJ/mol
# GULP energy per Si atom -5581.622650 kJ/mol
# Density = 2.148053 g / cm^3
# Si number density = 21.529528 Si / 1000 Ang^3
#
#
#
# Elastic Constant Matrix: (Units=GPa)
#
#
# Indices 1 2 3 4 5 6 
#
# 1 76.0170 14.8904 32.0441 5.6079 -8.3867 15.2042
# 2 14.8904 96.5557 19.6021 -3.9054 15.2229 22.7016
# 3 32.0441 19.6021 90.8693 3.1108 11.4664 13.2990
# 4 5.6079 -3.9054 3.1108 30.8407 12.2931 -0.5281
# 5 -8.3867 15.2229 11.4664 12.2931 25.6070 2.8648
# 6 15.2042 22.7016 13.2990 -0.5281 2.8648 27.4135
#
#
#
# Elastic Compliance Matrix: (Units=1/GPa)
#
#
# Indices 1 2 3 4 5 6 
#
# 1 0.021447 -0.003361 -0.007708 -0.011111 0.018651 -0.007536
# 2 -0.003361 0.015384 0.000678 0.007541 -0.013086 -0.009692
# 3 -0.007708 0.000678 0.015241 0.004565 -0.011679 -0.002372
# 4 -0.011111 0.007541 0.004565 0.048383 -0.033633 0.002150
# 5 0.018651 -0.013086 -0.011679 -0.033633 0.074571 -0.002283
# 6 -0.007536 -0.009692 -0.002372 0.002150 -0.002283 0.050115
#
#
# Mechanical properties :
#
#
# Convention : Reuss Voigt Hill
#
# Bulk Modulus (GPa) = 31.95856 44.05724 38.00790
# Shear Modulus (GPa) = 19.50430 29.89927 24.70179
#
# Velocity S-wave (km/s) = 3.01314 3.73065 3.39092
# Velocity P-wave (km/s) = 5.19438 6.25020 5.74659
#
# Compressibility (1/GPa) = 0.03129052
#
# Stress axis : x y z
#
# Youngs Moduli (GPa) = 46.62588 65.00169 65.61090
#
# Poissons Ratio (x) = 0.21846 0.50576
# Poissons Ratio (y) = 0.15670 -0.04449
# Poissons Ratio (z) = 0.35941 -0.04408
#
# Static dielectric constant tensor:
#      x y z
#    x 1.797110 0.034750 0.001480 
#    y 0.034750 1.816700 0.005350 
#    z 0.001480 0.005350 1.819220 
# 
# From -- ./inp_files/320251.got.cif
#   From: 2010.05.17/outbox.cif.g08.bks.cpg/sg2_161_cif.got.tgz:320251.got - 2010.06.03 11:33:40.
