data_PCOD9015983
_publ_section_title
;
Structure prediction by ZEFSAII (Michael W. Deem and Ramdas Pophale) SiO2 
 PCOD9015983
Probable space group: P -1
;
_chemical_formula_sum "Si O2"
_cell_formula_units_Z 14
_cell_length_a 24.310070
_cell_length_b 14.809480
_cell_length_c 5.218818
_cell_angle_alpha 52.787612
_cell_angle_beta 127.339154
_cell_angle_gamma 158.732843
_cell_volume 536.714879
_symmetry_space_group_name_H-M "P -1"
_symmetry_group_IT_number 2
_symmetry_cell_setting 'triclinic'
loop_
_space_group_symop_operation_xyz
x,y,z
-x,-y,-z
loop_
_atom_site_type_symbol
_atom_site_label
_atom_site_fract_x
_atom_site_fract_y
_atom_site_fract_z
Si Si1 0.581623 0.349353 0.051141
Si Si2 0.973867 0.148253 0.352861
Si Si3 0.920878 0.458698 0.059516
Si Si4 0.702838 0.987140 0.520358
Si Si5 0.660542 0.681543 0.037530
Si Si6 0.651720 0.105415 0.546906
Si Si7 0.172611 0.424262 0.951397
O O1 0.437135 0.178687 0.769570
O O2 0.635941 0.534224 0.055436
O O3 0.708133 0.491150 0.968351
O O4 0.522197 0.156226 0.390884
O O5 0.042601 0.239481 0.676078
O O6 0.975030 0.281934 0.047027
O O7 0.089761 0.270830 0.248246
O O8 0.796896 0.854290 0.326902
O O9 0.857254 0.277738 0.390627
O O10 0.766446 0.286031 0.797187
O O11 0.000000 0.500000 0.000000
O O12 0.716925 0.874405 0.711549
O O13 0.666218 0.997028 0.667351
O O14 0.500000 0.500000 0.000000
O O15 0.724264 0.307025 0.216118
#
# Coordination Sequence:
#
# PCOD9015983 Si02
#       7
#     2   2   2   2   2   2   2
#     4  11  26  44  69 102 142 192 234 287 350 429
#     4  11  27  46  73 106 140 187 238 296 359 416
#     4  10  22  39  69 105 141 178 233 299 362 416
#     4  11  23  42  73 100 142 183 235 294 359 419
#     4  12  27  46  69 102 143 189 240 290 355 431
#     4  10  21  42  66 106 135 181 233 294 357 414
#     4  11  26  48  74 106 141 185 243 295 353 420
#
# _framework density 26.084612
#
# number of rings (size 3 to 8) (size 9 to 14) (size 15 to 20)
#    0.000    1.143    2.857    1.714    8.000    4.000 
#    0.000    0.000    0.000    0.000    0.000    0.000 
#    0.000    0.000    0.000    0.000    0.000    0.000 
#
# Total GULP energy -78277.612490 kJ/mol
# GULP energy per Si atom -5591.258035 kJ/mol
# Density = 2.602524 g / cm^3
# Si number density = 26.084612 Si / 1000 Ang^3
#
#
#
# Elastic Constant Matrix: (Units=GPa)
#
#
# Indices 1 2 3 4 5 6 
#
# 1 146.6878 56.4970 6.1522 -10.2879 -1.8489 -6.8655
# 2 56.4970 147.0820 13.8913 8.9226 8.3857 -18.6078
# 3 6.1522 13.8913 50.9857 -0.4705 1.9932 -8.2962
# 4 -10.2879 8.9226 -0.4705 28.3362 -1.3323 -7.7274
# 5 -1.8489 8.3857 1.9932 -1.3323 37.3055 -7.6231
# 6 -6.8655 -18.6078 -8.2962 -7.7274 -7.6231 45.8172
#
#
#
# Elastic Compliance Matrix: (Units=1/GPa)
#
#
# Indices 1 2 3 4 5 6 
#
# 1 0.008560 -0.003547 0.000057 0.004538 0.001560 0.000878
# 2 -0.003547 0.008880 -0.001653 -0.003694 -0.001838 0.001847
# 3 0.000057 -0.001653 0.020623 0.001807 0.000028 0.003381
# 4 0.004538 -0.003694 0.001807 0.040198 0.003808 0.006920
# 5 0.001560 -0.001838 0.000028 0.003808 0.028425 0.004864
# 6 0.000878 0.001847 0.003381 0.006920 0.004864 0.025296
#
#
# Mechanical properties :
#
#
# Convention : Reuss Voigt Hill
#
# Bulk Modulus (GPa) = 36.00104 55.31516 45.65810
# Shear Modulus (GPa) = 32.99796 40.17280 36.58538
#
# Velocity S-wave (km/s) = 3.56059 3.92866 3.74915
# Velocity P-wave (km/s) = 5.54395 6.46771 6.02356
#
# Compressibility (1/GPa) = 0.02777698
#
# Stress axis : x y z
#
# Youngs Moduli (GPa) = 116.82542 112.61385 48.49058
#
# Poissons Ratio (x) = 0.39939 -0.00277
# Poissons Ratio (y) = 0.41433 0.08016
# Poissons Ratio (z) = -0.00667 0.18617
#
# Static dielectric constant tensor:
#      x y z
#    x 2.019040 -0.000820 0.043630 
#    y -0.000820 2.086110 -0.001760 
#    z 0.043630 -0.001760 2.079500 
# 
# From -- ./inp_files/65928.got.cif
#   From: 2010.05.17/outbox.cif.g08.bks.cpg/sg2_33_cif.got.tgz:65928.got - 2010.06.03 11:33:40.
