data_PCOD9015840
_publ_section_title
;
Structure prediction by ZEFSAII (Michael W. Deem and Ramdas Pophale) SiO2 
 PCOD9015840
Probable space group: P -1
;
_chemical_formula_sum "Si O2"
_cell_formula_units_Z 15
_cell_length_a 23.341639
_cell_length_b 13.195660
_cell_length_c 6.669164
_cell_angle_alpha 145.092370
_cell_angle_beta 130.262811
_cell_angle_gamma 31.956723
_cell_volume 613.804156
_symmetry_space_group_name_H-M "P -1"
_symmetry_group_IT_number 2
_symmetry_cell_setting 'triclinic'
loop_
_space_group_symop_operation_xyz
x,y,z
-x,-y,-z
loop_
_atom_site_type_symbol
_atom_site_label
_atom_site_fract_x
_atom_site_fract_y
_atom_site_fract_z
Si Si1 0.922993 0.149425 0.259922
Si Si2 0.080991 0.108320 0.832819
Si Si3 0.359690 0.586320 0.938365
Si Si4 0.607648 0.220958 0.021044
Si Si5 0.000000 0.500000 0.000000
Si Si6 0.767486 0.731607 0.869761
Si Si7 0.702013 0.364058 0.690634
Si Si8 0.630157 0.759096 0.896857
O O1 0.823212 0.450905 0.470515
O O2 0.988336 0.155192 0.580722
O O3 0.905323 0.993826 0.080645
O O4 0.000000 0.000000 0.000000
O O5 0.190266 0.874120 0.575191
O O6 0.044570 0.368160 0.116421
O O7 0.347509 0.783674 0.097996
O O8 0.344952 0.446955 0.531095
O O9 0.486001 0.361663 0.934608
O O10 0.287321 0.694658 0.147870
O O11 0.606857 0.398756 0.446363
O O12 0.686519 0.951778 0.878343
O O13 0.128724 0.320951 0.939463
O O14 0.695112 0.809986 0.029655
O O15 0.672595 0.615315 0.973218
O O16 0.500000 0.000000 0.000000
#
# Coordination Sequence:
#
# PCOD9015840 Si02
#       8
#     2   2   2   2   1   2   2   2
#     4  10  23  42  65  93 132 170 222 279 329 396
#     4  10  21  42  65  93 125 173 219 270 340 392
#     4  10  24  43  65  99 135 174 230 271 340 404
#     4  10  22  42  64  98 135 174 221 282 333 401
#     4  10  22  44  66  94 134 172 224 278 326 406
#     4  11  22  42  69  97 134 175 226 275 337 402
#     4  11  21  41  70  90 133 178 214 282 335 398
#     4  11  25  43  68 100 136 176 223 280 337 407
#
# _framework density 24.437764000000001
#
# number of rings (size 3 to 8) (size 9 to 14) (size 15 to 20)
#    0.000    1.600    2.667    1.200    1.867    4.267 
#    2.400    1.333    0.000    0.000    0.000    0.000 
#    0.000    0.000    0.000    0.000    0.000    0.000 
#
# Total GULP energy -83580.929947 kJ/mol
# GULP energy per Si atom -5572.061996 kJ/mol
# Density = 2.438214 g / cm^3
# Si number density = 24.437764 Si / 1000 Ang^3
#
#
#
# Elastic Constant Matrix: (Units=GPa)
#
#
# Indices 1 2 3 4 5 6 
#
# 1 160.1658 72.9142 28.9870 10.4833 -40.8001 19.9452
# 2 72.9142 173.4043 13.1961 14.2320 -10.1580 38.9998
# 3 28.9870 13.1961 48.7723 -0.0641 -19.4571 22.3484
# 4 10.4833 14.2320 -0.0641 35.3032 -6.2286 0.9980
# 5 -40.8001 -10.1580 -19.4571 -6.2286 33.5983 -20.9127
# 6 19.9452 38.9998 22.3484 0.9980 -20.9127 50.6580
#
#
#
# Elastic Compliance Matrix: (Units=1/GPa)
#
#
# Indices 1 2 3 4 5 6 
#
# 1 0.012870 -0.006107 -0.002688 0.001494 0.017488 0.008010
# 2 -0.006107 0.010280 0.001342 -0.003934 -0.010779 -0.010474
# 3 -0.002688 0.001342 0.029569 0.002128 0.008787 -0.009434
# 4 0.001494 -0.003934 0.002128 0.031266 0.011042 0.005444
# 5 0.017488 -0.010779 0.008787 0.011042 0.071608 0.026880
# 6 0.008010 -0.010474 -0.009434 0.005444 0.026880 0.039801
#
#
# Mechanical properties :
#
#
# Convention : Reuss Voigt Hill
#
# Bulk Modulus (GPa) = 26.44627 68.05964 47.25296
# Shear Modulus (GPa) = 22.43114 41.72826 32.07970
#
# Velocity S-wave (km/s) = 3.03295 4.13671 3.62706
# Velocity P-wave (km/s) = 4.80733 7.12230 6.07609
#
# Compressibility (1/GPa) = 0.03781252
#
# Stress axis : x y z
#
# Youngs Moduli (GPa) = 77.70269 97.28003 33.81873
#
# Poissons Ratio (x) = 0.59405 0.09092
# Poissons Ratio (y) = 0.47450 -0.04539
# Poissons Ratio (z) = 0.20890 -0.13056
#
# Static dielectric constant tensor:
#      x y z
#    x 2.186900 -0.021530 0.196140 
#    y -0.021530 1.983970 -0.041390 
#    z 0.196140 -0.041390 2.092010 
# 
# From -- ./inp_files/118422.got.cif
#   From: 2010.05.17/outbox.cif.g08.bks.cpg/sg2_60_cif.got.tgz:118422.got - 2010.06.03 11:33:40.
