data_PCOD9015971
_publ_section_title
;
Structure prediction by ZEFSAII (Michael W. Deem and Ramdas Pophale) SiO2 
 PCOD9015971
Probable space group: P -1
;
_chemical_formula_sum "Si O2"
_cell_formula_units_Z 14
_cell_length_a 6.601977
_cell_length_b 23.784293
_cell_length_c 9.849053
_cell_angle_alpha 31.570325
_cell_angle_beta 130.907053
_cell_angle_gamma 129.893546
_cell_volume 598.170126
_symmetry_space_group_name_H-M "P -1"
_symmetry_group_IT_number 2
_symmetry_cell_setting 'triclinic'
loop_
_space_group_symop_operation_xyz
x,y,z
-x,-y,-z
loop_
_atom_site_type_symbol
_atom_site_label
_atom_site_fract_x
_atom_site_fract_y
_atom_site_fract_z
Si Si1 0.816337 0.619787 0.644433
Si Si2 0.634714 0.566602 0.147739
Si Si3 0.265189 0.892510 0.653066
Si Si4 0.370840 0.756477 0.728017
Si Si5 0.399707 0.758319 0.235641
Si Si6 0.025808 0.461315 0.405429
Si Si7 0.628082 0.897995 0.310408
O O1 0.633600 0.515693 0.855450
O O2 0.633446 0.710600 0.358857
O O3 0.086474 0.681208 0.710777
O O4 0.889678 0.567010 0.646352
O O5 0.869462 0.560389 0.155728
O O6 0.722459 0.512231 0.435005
O O7 0.587889 0.681667 0.941526
O O8 0.330761 0.799848 0.769898
O O9 0.957483 0.913150 0.446701
O O10 0.500000 0.000000 0.500000
O O11 0.293162 0.845796 0.913399
O O12 0.470642 0.857742 0.463106
O O13 0.166875 0.651857 0.390580
O O14 0.533058 0.809719 0.329679
O O15 0.500000 0.000000 0.000000
#
# Coordination Sequence:
#
# PCOD9015971 Si02
#       7
#     2   2   2   2   2   2   2
#     4  11  22  41  70 102 143 192 227 286 347 423
#     4  10  23  38  65 107 141 186 235 281 343 427
#     4  12  29  48  75 106 138 187 246 300 360 427
#     4  12  25  45  71 104 145 185 238 292 357 419
#     4  11  24  46  72 100 143 184 236 288 359 417
#     4  10  21  42  66 101 145 187 229 287 344 419
#     4  12  28  48  74 104 139 185 242 301 364 419
#
# _framework density 23.404713999999998
#
# number of rings (size 3 to 8) (size 9 to 14) (size 15 to 20)
#    0.000    0.857    2.857    3.429    2.000    8.571 
#    0.000    0.000    0.000    0.000    0.000    0.000 
#    0.000    0.000    0.000    0.000    0.000    0.000 
#
# Total GULP energy -78334.248929 kJ/mol
# GULP energy per Si atom -5595.303495 kJ/mol
# Density = 2.335144 g / cm^3
# Si number density = 23.404714 Si / 1000 Ang^3
#
#
#
# Elastic Constant Matrix: (Units=GPa)
#
#
# Indices 1 2 3 4 5 6 
#
# 1 75.9168 17.7806 28.5089 6.7959 6.2930 5.0365
# 2 17.7806 91.0890 -14.2224 12.6064 7.2015 10.8879
# 3 28.5089 -14.2224 71.2670 2.7485 17.0921 13.0669
# 4 6.7959 12.6064 2.7485 37.9198 -3.2393 -2.7495
# 5 6.2930 7.2015 17.0921 -3.2393 38.9307 -2.8619
# 6 5.0365 10.8879 13.0669 -2.7495 -2.8619 40.2482
#
#
#
# Elastic Compliance Matrix: (Units=1/GPa)
#
#
# Indices 1 2 3 4 5 6 
#
# 1 0.017449 -0.005189 -0.008940 -0.000403 0.002196 0.002251
# 2 -0.005189 0.015483 0.008300 -0.005906 -0.006684 -0.007113
# 3 -0.008940 0.008300 0.024133 -0.004650 -0.011817 -0.010120
# 4 -0.000403 -0.005906 -0.004650 0.029671 0.006081 0.005617
# 5 0.002196 -0.006684 -0.011817 0.006081 0.032859 0.008122
# 6 0.002251 -0.007113 -0.010120 0.005617 0.008122 0.030735
#
#
# Mechanical properties :
#
#
# Convention : Reuss Voigt Hill
#
# Bulk Modulus (GPa) = 22.02178 33.60080 27.81129
# Shear Modulus (GPa) = 28.22902 37.16679 32.69790
#
# Velocity S-wave (km/s) = 3.47670 3.98930 3.74179
# Velocity P-wave (km/s) = 5.05432 5.96716 5.52961
#
# Compressibility (1/GPa) = 0.04540959
#
# Stress axis : x y z
#
# Youngs Moduli (GPa) = 57.30854 64.58678 41.43693
#
# Poissons Ratio (x) = 0.33513 0.37043
# Poissons Ratio (y) = 0.29736 -0.34394
# Poissons Ratio (z) = 0.51231 -0.53610
#
# Static dielectric constant tensor:
#      x y z
#    x 1.882060 0.020290 0.031920 
#    y 0.020290 1.866430 0.001030 
#    z 0.031920 0.001030 1.959070 
# 
# From -- ./inp_files/141077.got.cif
#   From: 2010.05.17/outbox.cif.g08.bks.cpg/sg2_71_cif.got.tgz:141077.got - 2010.06.03 11:33:40.
