data_PCOD9015297
_publ_section_title
;
Structure prediction by ZEFSAII (Michael W. Deem and Ramdas Pophale) SiO2 
 PCOD9015297
Probable space group: P -1
;
_chemical_formula_sum "Si O2"
_cell_formula_units_Z 12
_cell_length_a 5.033867
_cell_length_b 11.594524
_cell_length_c 10.606942
_cell_angle_alpha 46.153130
_cell_angle_beta 112.692073
_cell_angle_gamma 104.730980
_cell_volume 411.835576
_symmetry_space_group_name_H-M "P -1"
_symmetry_group_IT_number 2
_symmetry_cell_setting 'triclinic'
loop_
_space_group_symop_operation_xyz
x,y,z
-x,-y,-z
loop_
_atom_site_type_symbol
_atom_site_label
_atom_site_fract_x
_atom_site_fract_y
_atom_site_fract_z
Si Si1 0.287548 0.413371 0.860663
Si Si2 0.780796 0.184214 0.715148
Si Si3 0.623326 0.731158 0.749603
Si Si4 0.237160 0.389804 0.493689
Si Si5 0.330388 0.860345 0.000230
Si Si6 0.640011 0.993018 0.362102
O O1 0.495217 0.568059 0.793343
O O2 0.465822 0.288817 0.896704
O O3 0.985808 0.498684 0.705347
O O4 0.229438 0.332491 0.047101
O O5 0.500000 0.500000 0.500000
O O6 0.986477 0.701410 0.388416
O O7 0.861420 0.176183 0.883844
O O8 0.695903 0.033395 0.728194
O O9 0.758936 0.846283 0.581825
O O10 0.380235 0.853845 0.664612
O O11 0.451011 0.250398 0.592895
O O12 0.500000 0.000000 0.000000
O O13 0.221342 0.940269 0.791153
#
# Coordination Sequence:
#
# PCOD9015297 Si02
#       6
#     2   2   2   2   2   2
#     4  10  21  41  76 123 163 214 278 329 404 482
#     4  11  25  46  77 117 163 212 264 330 412 484
#     4   9  18  39  82 116 162 210 277 334 397 479
#     4  12  28  47  76 121 167 212 265 335 408 483
#     4   9  21  41  73 118 169 208 262 334 409 487
#     4   9  18  42  76 118 160 215 264 336 407 478
#
# _framework density 29.137844999999999
#
# number of rings (size 3 to 8) (size 9 to 14) (size 15 to 20)
#    0.000    2.000    1.667    0.500    4.667    0.000 
#    0.000    9.167    0.000    0.000    0.000   11.667 
#    0.000    0.000    0.000    0.000    0.000    0.000 
#
# Total GULP energy -67000.480422 kJ/mol
# GULP energy per Si atom -5583.373368 kJ/mol
# Density = 2.907153 g / cm^3
# Si number density = 29.137845 Si / 1000 Ang^3
#
#
#
# Elastic Constant Matrix: (Units=GPa)
#
#
# Indices 1 2 3 4 5 6 
#
# 1 218.1820 64.2447 112.0796 0.1250 -4.3040 -25.5543
# 2 64.2447 162.3409 99.8830 -1.7056 -0.4704 -7.2104
# 3 112.0796 99.8830 194.2703 -19.2648 1.6155 -3.9383
# 4 0.1250 -1.7056 -19.2648 46.4776 9.3243 -9.3317
# 5 -4.3040 -0.4704 1.6155 9.3243 48.5789 -2.9020
# 6 -25.5543 -7.2104 -3.9383 -9.3317 -2.9020 27.5206
#
#
#
# Elastic Compliance Matrix: (Units=1/GPa)
#
#
# Indices 1 2 3 4 5 6 
#
# 1 0.007572 -0.000083 -0.004291 -0.000814 0.001343 0.006261
# 2 -0.000083 0.009191 -0.004812 -0.001541 0.000608 0.001184
# 3 -0.004291 -0.004812 0.010455 0.003991 -0.001694 -0.002574
# 4 -0.000814 -0.001541 0.003991 0.025578 -0.004676 0.007591
# 5 0.001343 0.000608 -0.001694 -0.004676 0.021776 0.001875
# 6 0.006261 0.001184 -0.002574 0.007591 0.001875 0.044863
#
#
# Mechanical properties :
#
#
# Convention : Reuss Voigt Hill
#
# Bulk Modulus (GPa) = 113.03403 125.24532 119.13967
# Shear Modulus (GPa) = 35.52253 44.42117 39.97185
#
# Velocity S-wave (km/s) = 3.49538 3.90874 3.70783
# Velocity P-wave (km/s) = 7.42747 7.96543 7.70115
#
# Compressibility (1/GPa) = 0.00884689
#
# Stress axis : x y z
#
# Youngs Moduli (GPa) = 132.05997 108.79789 95.65211
#
# Poissons Ratio (x) = 0.00905 0.41043
# Poissons Ratio (y) = 0.01099 0.46024
# Poissons Ratio (z) = 0.56665 0.52349
#
# Static dielectric constant tensor:
#      x y z
#    x 2.370670 0.015940 -0.113510 
#    y 0.015940 3.793810 -0.568410 
#    z -0.113510 -0.568410 2.573350 
# 
# From -- ./inp_files/384171.got.cif
#   From: 2010.05.17/outbox.cif.g08.bks.cpg/sg2_193_cif.got.tgz:384171.got - 2010.06.03 11:33:40.
