data_PCOD9015698
_publ_section_title
;
Structure prediction by ZEFSAII (Michael W. Deem and Ramdas Pophale) SiO2 
 PCOD9015698
Probable space group: P -1
;
_chemical_formula_sum "Si O2"
_cell_formula_units_Z 16
_cell_length_a 9.946954
_cell_length_b 12.301762
_cell_length_c 11.079308
_cell_angle_alpha 97.726754
_cell_angle_beta 54.502377
_cell_angle_gamma 138.445654
_cell_volume 608.713748
_symmetry_space_group_name_H-M "P -1"
_symmetry_group_IT_number 2
_symmetry_cell_setting 'triclinic'
loop_
_space_group_symop_operation_xyz
x,y,z
-x,-y,-z
loop_
_atom_site_type_symbol
_atom_site_label
_atom_site_fract_x
_atom_site_fract_y
_atom_site_fract_z
Si Si1 0.299703 0.707161 0.940055
Si Si2 0.148605 0.867114 0.067305
Si Si3 0.325297 0.087791 0.628508
Si Si4 0.868324 0.098734 0.551571
Si Si5 0.713300 0.252127 0.674055
Si Si6 0.282826 0.281760 0.550230
Si Si7 0.739048 0.471327 0.847489
Si Si8 0.161072 0.267217 0.027810
O O1 0.567177 0.883595 0.736280
O O2 0.214773 0.778221 0.051943
O O3 0.373917 0.660835 0.997979
O O4 0.000000 0.500000 0.000000
O O5 0.031252 0.866813 0.242705
O O6 0.886239 0.730807 0.085805
O O7 0.426433 0.068125 0.880496
O O8 0.578890 0.184456 0.598914
O O9 0.415834 0.249025 0.539182
O O10 0.195219 0.948191 0.563483
O O11 0.051115 0.945785 0.843326
O O12 0.905701 0.248602 0.582686
O O13 0.169072 0.208485 0.461186
O O14 0.835380 0.432919 0.693431
O O15 0.500000 0.500000 0.500000
O O16 0.931264 0.672115 0.843241
O O17 0.487258 0.404445 0.904247
#
# Coordination Sequence:
#
# PCOD9015698 Si02
#       8
#     2   2   2   2   2   2   2   2
#     4  11  22  39  70  96 127 172 218 273 318 388
#     4  10  21  42  64  95 129 164 224 266 329 379
#     4  11  24  44  65  93 135 176 215 265 337 391
#     4  11  25  45  66  96 135 179 216 268 334 389
#     4  10  22  43  69  96 127 175 219 279 320 384
#     4  12  27  43  68 100 135 173 216 274 327 396
#     4  11  21  37  64  99 126 163 229 266 325 378
#     4  10  22  38  65  93 129 172 212 271 319 395
#
# _framework density 26.284935000000001
#
# number of rings (size 3 to 8) (size 9 to 14) (size 15 to 20)
#    0.000    1.250    1.250    4.500    1.750    7.000 
#    0.000    1.250    0.000    0.000    0.000    0.000 
#    0.000    0.000    0.000    0.000    0.000    0.000 
#
# Total GULP energy -89584.926466 kJ/mol
# GULP energy per Si atom -5599.057904 kJ/mol
# Density = 2.622511 g / cm^3
# Si number density = 26.284935 Si / 1000 Ang^3
#
#
#
# Elastic Constant Matrix: (Units=GPa)
#
#
# Indices 1 2 3 4 5 6 
#
# 1 133.9543 38.0333 28.9975 7.0047 27.7223 -4.6890
# 2 38.0333 117.3368 14.8597 4.6561 15.4658 0.5823
# 3 28.9975 14.8597 39.7699 5.3781 22.0241 11.7465
# 4 7.0047 4.6561 5.3781 43.7016 2.4222 1.0000
# 5 27.7223 15.4658 22.0241 2.4222 29.2862 4.1350
# 6 -4.6890 0.5823 11.7465 1.0000 4.1350 46.0670
#
#
#
# Elastic Compliance Matrix: (Units=1/GPa)
#
#
# Indices 1 2 3 4 5 6 
#
# 1 0.010286 -0.002019 -0.004231 -0.000652 -0.005814 0.002687
# 2 -0.002019 0.009626 -0.000584 -0.000482 -0.002703 0.000075
# 3 -0.004231 -0.000584 0.048914 -0.003343 -0.030774 -0.010061
# 4 -0.000652 -0.000482 -0.003343 0.023367 0.001431 0.000157
# 5 -0.005814 -0.002703 -0.030774 0.001431 0.063886 0.001524
# 6 0.002687 0.000075 -0.010061 0.000157 0.001524 0.024405
#
#
# Mechanical properties :
#
#
# Convention : Reuss Voigt Hill
#
# Bulk Modulus (GPa) = 18.13037 50.53800 34.33419
# Shear Modulus (GPa) = 23.52512 37.75568 30.64040
#
# Velocity S-wave (km/s) = 2.99491 3.79410 3.41794
# Velocity P-wave (km/s) = 4.34418 6.20180 5.35417
#
# Compressibility (1/GPa) = 0.05515606
#
# Stress axis : x y z
#
# Youngs Moduli (GPa) = 97.22090 103.88450 20.44411
#
# Poissons Ratio (x) = 0.20978 0.08650
# Poissons Ratio (y) = 0.19632 0.01194
# Poissons Ratio (z) = 0.41137 0.06069
#
# Static dielectric constant tensor:
#      x y z
#    x 1.974190 -0.003350 0.026520 
#    y -0.003350 2.103480 0.022760 
#    z 0.026520 0.022760 2.097720 
# 
# From -- ./inp_files/392599.got.cif
#   From: 2010.05.17/outbox.cif.g08.bks.cpg/sg2_197_cif.got.tgz:392599.got - 2010.06.03 11:33:40.
