data_PCOD9015639
_publ_section_title
;
Structure prediction by ZEFSAII (Michael W. Deem and Ramdas Pophale) SiO2 
 PCOD9015639
Probable space group: P -1
;
_chemical_formula_sum "Si O2"
_cell_formula_units_Z 14
_cell_length_a 10.799413
_cell_length_b 10.200173
_cell_length_c 7.135750
_cell_angle_alpha 83.136351
_cell_angle_beta 133.352536
_cell_angle_gamma 92.518540
_cell_volume 566.680561
_symmetry_space_group_name_H-M "P -1"
_symmetry_group_IT_number 2
_symmetry_cell_setting 'triclinic'
loop_
_space_group_symop_operation_xyz
x,y,z
-x,-y,-z
loop_
_atom_site_type_symbol
_atom_site_label
_atom_site_fract_x
_atom_site_fract_y
_atom_site_fract_z
Si Si1 0.350744 0.571365 0.452503
Si Si2 0.739266 0.197151 0.439805
Si Si3 0.770451 0.652285 0.367330
Si Si4 0.526556 0.133869 0.893958
Si Si5 0.041695 0.715481 0.903813
Si Si6 0.247447 0.960631 0.174745
Si Si7 0.128168 0.257621 0.916945
O O1 0.500000 0.500000 0.500000
O O2 0.384979 0.703302 0.584757
O O3 0.283860 0.476987 0.561401
O O4 0.203605 0.622700 0.146441
O O5 0.738272 0.061505 0.583521
O O6 0.931008 0.242736 0.653026
O O7 0.677726 0.193111 0.164885
O O8 0.637600 0.769108 0.274933
O O9 0.779642 0.654189 0.152089
O O10 0.957382 0.686228 0.626409
O O11 0.590191 0.101672 0.757819
O O12 0.500000 0.000000 0.000000
O O13 0.096134 0.865984 0.968111
O O14 0.893049 0.687990 0.905222
O O15 0.212817 0.109696 0.045898
#
# Coordination Sequence:
#
# PCOD9015639 Si02
#       7
#     2   2   2   2   2   2   2
#     4  10  23  47  70  92 126 175 219 260 325 382
#     4  10  24  43  65  91 129 175 215 262 320 385
#     4  12  24  40  65  97 132 166 213 272 310 380
#     4  12  26  39  61 102 131 168 218 260 325 379
#     4  10  23  41  68  95 126 170 213 265 321 379
#     4  10  21  42  64  90 135 172 211 260 323 383
#     4  10  22  38  65  98 125 171 213 260 328 376
#
# _framework density 24.705273999999999
#
# number of rings (size 3 to 8) (size 9 to 14) (size 15 to 20)
#    0.000    1.714    1.429    4.714    4.000    6.857 
#    0.000    4.286    0.000    0.000    0.000    0.000 
#    0.000    0.000    0.000    0.000    0.000    0.000 
#
# Total GULP energy -78382.193541 kJ/mol
# GULP energy per Si atom -5598.728110 kJ/mol
# Density = 2.464904 g / cm^3
# Si number density = 24.705274 Si / 1000 Ang^3
#
#
#
# Elastic Constant Matrix: (Units=GPa)
#
#
# Indices 1 2 3 4 5 6 
#
# 1 111.7163 -2.4486 21.3600 -8.9812 -10.9558 -3.6268
# 2 -2.4486 66.8351 23.8412 -21.4940 -1.1860 7.3412
# 3 21.3600 23.8412 78.0718 -24.6573 -5.5153 2.0484
# 4 -8.9812 -21.4940 -24.6573 27.8533 0.2960 6.2081
# 5 -10.9558 -1.1860 -5.5153 0.2960 30.8775 -12.0455
# 6 -3.6268 7.3412 2.0484 6.2081 -12.0455 42.1142
#
#
#
# Elastic Compliance Matrix: (Units=1/GPa)
#
#
# Indices 1 2 3 4 5 6 
#
# 1 0.010035 0.001834 -0.002390 0.002182 0.003732 0.001407
# 2 0.001834 0.021967 -0.001571 0.017648 -0.001545 -0.006638
# 3 -0.002390 -0.001571 0.018972 0.015416 0.001253 -0.002769
# 4 0.002182 0.017648 0.015416 0.067029 -0.001925 -0.014070
# 5 0.003732 -0.001545 0.001253 -0.001925 0.038507 0.011827
# 6 0.001407 -0.006638 -0.002769 -0.014070 0.011827 0.030615
#
#
# Mechanical properties :
#
#
# Convention : Reuss Voigt Hill
#
# Bulk Modulus (GPa) = 21.40373 38.01426 29.70899
# Shear Modulus (GPa) = 24.16005 34.42705 29.29355
#
# Velocity S-wave (km/s) = 3.13058 3.73702 3.44716
# Velocity P-wave (km/s) = 4.66367 5.83446 5.28161
#
# Compressibility (1/GPa) = 0.04672084
#
# Stress axis : x y z
#
# Youngs Moduli (GPa) = 99.64695 45.52253 52.70840
#
# Poissons Ratio (x) = -0.08347 0.12595
# Poissons Ratio (y) = -0.18272 0.08281
# Poissons Ratio (z) = 0.23812 0.07152
#
# Static dielectric constant tensor:
#      x y z
#    x 1.972370 0.033770 0.019950 
#    y 0.033770 1.987260 0.039250 
#    z 0.019950 0.039250 1.941030 
# 
# From -- ./inp_files/253298.got.cif
#   From: 2010.05.17/outbox.cif.g08.bks.cpg/sg2_127_cif.got.tgz:253298.got - 2010.06.03 11:33:40.
