data_PCOD9015302
_publ_section_title
;
Structure prediction by ZEFSAII (Michael W. Deem and Ramdas Pophale) SiO2 
 PCOD9015302
Probable space group: P -1
;
_chemical_formula_sum "Si O2"
_cell_formula_units_Z 14
_cell_length_a 8.859581
_cell_length_b 11.704479
_cell_length_c 20.636935
_cell_angle_alpha 24.501126
_cell_angle_beta 36.933008
_cell_angle_gamma 39.474089
_cell_volume 524.674951
_symmetry_space_group_name_H-M "P -1"
_symmetry_group_IT_number 2
_symmetry_cell_setting 'triclinic'
loop_
_space_group_symop_operation_xyz
x,y,z
-x,-y,-z
loop_
_atom_site_type_symbol
_atom_site_label
_atom_site_fract_x
_atom_site_fract_y
_atom_site_fract_z
Si Si1 0.920218 0.252401 0.065764
Si Si2 0.255529 0.533168 0.236647
Si Si3 0.597056 0.257741 0.367633
Si Si4 0.149754 0.136469 0.186979
Si Si5 0.289620 0.153423 0.874708
Si Si6 0.786831 0.389476 0.439417
Si Si7 0.448142 0.003313 0.352960
O O1 0.030242 0.132535 0.158389
O O2 0.716723 0.073226 0.199412
O O3 0.776188 0.563217 0.974409
O O4 0.161289 0.256162 0.934551
O O5 0.452771 0.507921 0.242482
O O6 0.986392 0.448849 0.394331
O O7 0.337105 0.284645 0.284979
O O8 0.229227 0.839295 0.056958
O O9 0.517511 0.242843 0.477423
O O10 0.899822 0.165693 0.302649
O O11 0.500000 0.000000 0.500000
O O12 0.406922 0.908925 0.212857
O O13 0.164204 0.398101 0.743708
O O14 0.500000 0.500000 0.500000
O O15 0.754758 0.082817 0.583148
#
# Coordination Sequence:
#
# PCOD9015302 Si02
#       7
#     2   2   2   2   2   2   2
#     4  11  22  42  71 108 147 185 239 300 356 434
#     4  11  23  49  73 103 146 194 238 293 357 437
#     4  10  21  41  78 106 140 181 244 296 354 422
#     4  11  21  43  72 107 146 188 242 291 368 421
#     4  12  26  45  72 107 144 192 245 294 360 433
#     4  12  29  47  68 106 150 190 245 300 361 431
#     4  11  23  47  75 110 140 194 241 297 364 422
#
# _framework density 26.683187
#
# number of rings (size 3 to 8) (size 9 to 14) (size 15 to 20)
#    0.000    0.857    4.286    3.857    4.000    1.143 
#    2.571    3.571    0.000    0.000    0.000    0.000 
#    0.000    0.000    0.000    0.000    0.000    0.000 
#
# Total GULP energy -78218.351842 kJ/mol
# GULP energy per Si atom -5587.025132 kJ/mol
# Density = 2.662246 g / cm^3
# Si number density = 26.683187 Si / 1000 Ang^3
#
#
#
# Elastic Constant Matrix: (Units=GPa)
#
#
# Indices 1 2 3 4 5 6 
#
# 1 114.8469 42.3453 59.0564 4.5073 -10.8234 -20.3630
# 2 42.3453 122.5039 20.0549 6.0577 -12.9280 -13.8378
# 3 59.0564 20.0549 104.3933 5.7105 -0.8193 -19.0856
# 4 4.5073 6.0577 5.7105 55.6466 -10.9164 -10.4693
# 5 -10.8234 -12.9280 -0.8193 -10.9164 30.7878 6.7430
# 6 -20.3630 -13.8378 -19.0856 -10.4693 6.7430 33.5718
#
#
#
# Elastic Compliance Matrix: (Units=1/GPa)
#
#
# Indices 1 2 3 4 5 6 
#
# 1 0.014236 -0.003154 -0.006915 0.001114 0.003211 0.003106
# 2 -0.003154 0.009677 0.000257 0.000004 0.002590 0.001702
# 3 -0.006915 0.000257 0.014267 -0.000719 -0.003170 0.004435
# 4 0.001114 0.000004 -0.000719 0.020200 0.006379 0.005286
# 5 0.003211 0.002590 -0.003170 0.006379 0.037837 -0.004398
# 6 0.003106 0.001702 0.004435 0.005286 -0.004398 0.037425
#
#
# Mechanical properties :
#
#
# Convention : Reuss Voigt Hill
#
# Bulk Modulus (GPa) = 53.89655 64.96192 59.42924
# Shear Modulus (GPa) = 31.35745 38.68708 35.02227
#
# Velocity S-wave (km/s) = 3.43180 3.81184 3.62680
# Velocity P-wave (km/s) = 5.99546 6.61604 6.31338
#
# Compressibility (1/GPa) = 0.01855406
#
# Stress axis : x y z
#
# Youngs Moduli (GPa) = 70.24581 103.34141 70.09116
#
# Poissons Ratio (x) = 0.32595 0.48470
# Poissons Ratio (y) = 0.22156 -0.01799
# Poissons Ratio (z) = 0.48577 -0.02653
#
# Static dielectric constant tensor:
#      x y z
#    x 2.360590 0.097460 -0.096420 
#    y 0.097460 2.187280 -0.047700 
#    z -0.096420 -0.047700 2.215390 
# 
# From -- ./inp_files/618519.got.cif
#   From: 2010.05.17/outbox.cif.g08.bks.cpg/sg2_310_cif.got.tgz:618519.got - 2010.06.03 11:33:40.
