data_PCOD9015679
_publ_section_title
;
Structure prediction by ZEFSAII (Michael W. Deem and Ramdas Pophale) SiO2 
 PCOD9015679
Probable space group: P -1
;
_chemical_formula_sum "Si O2"
_cell_formula_units_Z 15
_cell_length_a 16.139155
_cell_length_b 7.834142
_cell_length_c 11.852894
_cell_angle_alpha 126.188262
_cell_angle_beta 48.088642
_cell_angle_gamma 146.890845
_cell_volume 607.427345
_symmetry_space_group_name_H-M "P -1"
_symmetry_group_IT_number 2
_symmetry_cell_setting 'triclinic'
loop_
_space_group_symop_operation_xyz
x,y,z
-x,-y,-z
loop_
_atom_site_type_symbol
_atom_site_label
_atom_site_fract_x
_atom_site_fract_y
_atom_site_fract_z
Si Si1 0.508236 0.350977 0.829622
Si Si2 0.500000 0.000000 0.000000
Si Si3 0.187526 0.695986 0.184988
Si Si4 0.821078 0.683416 0.795845
Si Si5 0.100028 0.005201 0.502387
Si Si6 0.979999 0.691182 0.027099
Si Si7 0.613447 0.276336 0.239697
Si Si8 0.539729 0.297793 0.542338
O O1 0.700707 0.555562 0.751485
O O2 0.471421 0.338984 0.725987
O O3 0.408731 0.997825 0.808045
O O4 0.500000 0.500000 0.000000
O O5 0.546528 0.212310 0.150832
O O6 0.357191 0.977418 0.076937
O O7 0.260070 0.600344 0.156101
O O8 0.130531 0.814422 0.352339
O O9 0.048200 0.409250 0.117246
O O10 0.988258 0.829071 0.646985
O O11 0.868505 0.951244 0.932480
O O12 0.268525 0.368269 0.507079
O O13 0.000000 0.000000 0.500000
O O14 0.811708 0.577115 0.169980
O O15 0.000000 0.500000 0.000000
O O16 0.504588 0.252565 0.422097
O O17 0.500000 0.000000 0.500000
#
# Coordination Sequence:
#
# PCOD9015679 Si02
#       8
#     2   1   2   2   2   2   2   2
#     4  11  23  39  69 101 135 182 237 284 352 419
#     4  10  22  44  72  92 138 184 230 280 354 426
#     4  11  26  43  71 102 143 189 235 290 367 419
#     4  12  23  44  67 101 149 179 238 294 358 426
#     4  12  24  44  72 101 138 187 238 292 354 427
#     4  11  23  40  70 103 136 184 238 295 348 422
#     4  10  21  42  64  93 138 175 226 286 344 421
#     4  10  23  42  68  98 135 178 234 296 341 413
#
# _framework density 24.694312
#
# number of rings (size 3 to 8) (size 9 to 14) (size 15 to 20)
#    0.000    1.067    4.000    2.400    3.733    0.000 
#    0.000    0.667    8.800    0.000    0.000    0.000 
#    0.000    0.000    0.000    0.000    0.000    0.000 
#
# Total GULP energy -83503.737623 kJ/mol
# GULP energy per Si atom -5566.915842 kJ/mol
# Density = 2.463811 g / cm^3
# Si number density = 24.694312 Si / 1000 Ang^3
#
#
#
# Elastic Constant Matrix: (Units=GPa)
#
#
# Indices 1 2 3 4 5 6 
#
# 1 52.8483 -7.4167 22.3144 11.8637 11.6873 -4.8306
# 2 -7.4167 63.3542 -3.7311 15.6761 -4.9414 1.1195
# 3 22.3144 -3.7311 164.8169 13.0503 29.0181 -11.5826
# 4 11.8637 15.6761 13.0503 38.0611 -3.4541 1.5516
# 5 11.6873 -4.9414 29.0181 -3.4541 40.7106 7.3367
# 6 -4.8306 1.1195 -11.5826 1.5516 7.3367 29.5948
#
#
#
# Elastic Compliance Matrix: (Units=1/GPa)
#
#
# Indices 1 2 3 4 5 6 
#
# 1 0.024469 0.004654 -0.000537 -0.010342 -0.008062 0.006149
# 2 0.004654 0.018653 0.000707 -0.009465 -0.000553 0.000964
# 3 -0.000537 0.000707 0.007946 -0.003644 -0.006602 0.004823
# 4 -0.010342 -0.009465 -0.003644 0.035708 0.008669 -0.006777
# 5 -0.008062 -0.000553 -0.006602 0.008669 0.034578 -0.012906
# 6 0.006149 0.000964 0.004823 -0.006777 -0.012906 0.040199
#
#
# Mechanical properties :
#
#
# Convention : Reuss Voigt Hill
#
# Bulk Modulus (GPa) = 16.47039 33.70586 25.08812
# Shear Modulus (GPa) = 29.04562 39.66349 34.35456
#
# Velocity S-wave (km/s) = 3.43331 4.01206 3.73392
# Velocity P-wave (km/s) = 4.73297 5.92799 5.36386
#
# Compressibility (1/GPa) = 0.06071502
#
# Stress axis : x y z
#
# Youngs Moduli (GPa) = 40.86871 53.61192 125.85065
#
# Poissons Ratio (x) = -0.24953 0.06757
# Poissons Ratio (y) = -0.19022 -0.08892
# Poissons Ratio (z) = 0.02194 -0.03788
#
# Static dielectric constant tensor:
#      x y z
#    x 1.969280 -0.066780 0.029550 
#    y -0.066780 1.427660 0.507310 
#    z 0.029550 0.507310 1.554630 
# 
# From -- ./inp_files/158559.got.cif
#   From: 2010.05.17/outbox.cif.g08.bks.cpg/sg2_80_cif.got.tgz:158559.got - 2010.06.03 11:33:40.
