data_PCOD9015797
_publ_section_title
;
Structure prediction by ZEFSAII (Michael W. Deem and Ramdas Pophale) SiO2 
 PCOD9015797
Probable space group: P -1
;
_chemical_formula_sum "Si O2"
_cell_formula_units_Z 16
_cell_length_a 11.310356
_cell_length_b 8.152001
_cell_length_c 10.825121
_cell_angle_alpha 121.271610
_cell_angle_beta 127.050559
_cell_angle_gamma 59.704176
_cell_volume 653.417728
_symmetry_space_group_name_H-M "P -1"
_symmetry_group_IT_number 2
_symmetry_cell_setting 'triclinic'
loop_
_space_group_symop_operation_xyz
x,y,z
-x,-y,-z
loop_
_atom_site_type_symbol
_atom_site_label
_atom_site_fract_x
_atom_site_fract_y
_atom_site_fract_z
Si Si1 0.709137 0.402795 0.969624
Si Si2 0.352122 0.597534 0.791847
Si Si3 0.649156 0.829088 0.838921
Si Si4 0.863554 0.739993 0.164642
Si Si5 0.856545 0.614009 0.537621
Si Si6 0.297409 0.907190 0.658659
Si Si7 0.846012 0.989106 0.825717
Si Si8 0.199909 0.598409 0.325121
O O1 0.536522 0.536829 0.889082
O O2 0.755471 0.218543 0.833884
O O3 0.709220 0.330566 0.082945
O O4 0.827922 0.533198 0.090595
O O5 0.293333 0.407222 0.640069
O O6 0.294612 0.766764 0.720079
O O7 0.467951 0.934251 0.768837
O O8 0.735605 0.911308 0.818455
O O9 0.686003 0.589493 0.744662
O O10 0.733761 0.846481 0.026103
O O11 0.033013 0.693395 0.196705
O O12 0.833087 0.886033 0.320356
O O13 0.870430 0.832317 0.667972
O O14 0.847981 0.497539 0.615307
O O15 0.000000 0.500000 0.500000
O O16 0.271957 0.773910 0.476825
O O17 0.000000 0.000000 0.000000
#
# Coordination Sequence:
#
# PCOD9015797 Si02
#       8
#     2   2   2   2   2   2   2   2
#     4  11  23  39  64  96 129 164 218 261 312 375
#     4  10  22  40  65  90 130 171 209 264 315 378
#     4  11  23  42  66  91 129 167 213 259 326 378
#     4  12  23  40  67  98 128 168 218 261 314 382
#     4  10  21  42  65  89 126 168 213 258 324 380
#     4  11  23  42  65  95 127 173 212 261 323 377
#     4  11  24  42  66  93 127 169 209 262 324 382
#     4  10  23  41  64  92 130 165 211 269 317 379
#
# _framework density 24.486635
#
# number of rings (size 3 to 8) (size 9 to 14) (size 15 to 20)
#    0.000    1.250    1.250    5.250    3.500    1.500 
#    0.000    3.750    0.000    0.000    0.000    0.000 
#    0.000    0.000    0.000    0.000    0.000    0.000 
#
# Total GULP energy -89652.573955 kJ/mol
# GULP energy per Si atom -5603.285872 kJ/mol
# Density = 2.443090 g / cm^3
# Si number density = 24.486635 Si / 1000 Ang^3
#
#
#
# Elastic Constant Matrix: (Units=GPa)
#
#
# Indices 1 2 3 4 5 6 
#
# 1 92.4858 10.9640 13.8193 -0.4465 -8.7800 -3.6049
# 2 10.9640 65.8865 23.3630 32.8728 -7.6597 -7.6770
# 3 13.8193 23.3630 111.9780 25.7448 -12.6168 -4.2890
# 4 -0.4465 32.8728 25.7448 41.4652 -18.5824 -5.2497
# 5 -8.7800 -7.6597 -12.6168 -18.5824 33.1306 6.2455
# 6 -3.6049 -7.6770 -4.2890 -5.2497 6.2455 26.3092
#
#
#
# Elastic Compliance Matrix: (Units=1/GPa)
#
#
# Indices 1 2 3 4 5 6 
#
# 1 0.012123 -0.004283 -0.001584 0.007007 0.005503 0.000245
# 2 -0.004283 0.028647 -0.000318 -0.026646 -0.010501 0.004897
# 3 -0.001584 -0.000318 0.010661 -0.006383 -0.000045 0.000165
# 4 0.007007 -0.026646 -0.006383 0.061667 0.028280 -0.002264
# 5 0.005503 -0.010501 -0.000045 0.028280 0.046514 -0.007716
# 6 0.000245 0.004897 0.000165 -0.002264 -0.007716 0.040879
#
#
# Mechanical properties :
#
#
# Convention : Reuss Voigt Hill
#
# Bulk Modulus (GPa) = 25.60106 40.73810 33.16958
# Shear Modulus (GPa) = 22.13559 34.99460 28.56510
#
# Velocity S-wave (km/s) = 3.00990 3.78449 3.41920
# Velocity P-wave (km/s) = 4.74944 5.98076 5.40030
#
# Compressibility (1/GPa) = 0.03906088
#
# Stress axis : x y z
#
# Youngs Moduli (GPa) = 82.48976 34.90727 93.79983
#
# Poissons Ratio (x) = 0.14952 0.14857
# Poissons Ratio (y) = 0.35333 0.02981
# Poissons Ratio (z) = 0.13066 0.01110
#
# Static dielectric constant tensor:
#      x y z
#    x 1.916270 0.051360 -0.018020 
#    y 0.051360 1.965310 -0.016380 
#    z -0.018020 -0.016380 1.945190 
# 
# From -- ./inp_files/261684.got.cif
#   From: 2010.05.17/outbox.cif.g08.bks.cpg/sg2_131_cif.got.tgz:261684.got - 2010.06.03 11:33:40.
