data_PCOD9015739
_publ_section_title
;
Structure prediction by ZEFSAII (Michael W. Deem and Ramdas Pophale) SiO2 
 PCOD9015739
Probable space group: P -1
;
_chemical_formula_sum "Si O2"
_cell_formula_units_Z 16
_cell_length_a 9.928222
_cell_length_b 9.739494
_cell_length_c 7.170643
_cell_angle_alpha 91.299883
_cell_angle_beta 112.855890
_cell_angle_gamma 72.239091
_cell_volume 604.841858
_symmetry_space_group_name_H-M "P -1"
_symmetry_group_IT_number 2
_symmetry_cell_setting 'triclinic'
loop_
_space_group_symop_operation_xyz
x,y,z
-x,-y,-z
loop_
_atom_site_type_symbol
_atom_site_label
_atom_site_fract_x
_atom_site_fract_y
_atom_site_fract_z
Si Si1 0.776047 0.169776 0.836092
Si Si2 0.738509 0.872718 0.688784
Si Si3 0.529696 0.620730 0.150458
Si Si4 0.877017 0.745410 0.384745
Si Si5 0.494961 0.867426 0.862051
Si Si6 0.143412 0.963796 0.723657
Si Si7 0.953163 0.355502 0.990478
Si Si8 0.168809 0.554021 0.699176
O O1 0.862202 0.102346 0.076739
O O2 0.871429 0.269834 0.807232
O O3 0.604947 0.274586 0.796856
O O4 0.759888 0.031105 0.714228
O O5 0.752378 0.811523 0.483625
O O6 0.587975 0.872466 0.723788
O O7 0.888384 0.759207 0.858873
O O8 0.677513 0.517721 0.337448
O O9 0.500000 0.500000 0.000000
O O10 0.572736 0.726452 0.027035
O O11 0.888174 0.586124 0.320384
O O12 0.684103 0.125161 0.261206
O O13 0.844908 0.875584 0.229957
O O14 0.500000 0.000000 0.000000
O O15 0.048637 0.700392 0.563385
O O16 0.000000 0.000000 0.500000
O O17 0.820873 0.403313 0.080738
O O18 0.000000 0.500000 0.000000
#
# Coordination Sequence:
#
# PCOD9015739 Si02
#       8
#     2   2   2   2   2   2   2   2
#     4  11  24  43  68 104 136 176 231 291 342 407
#     4  11  23  43  67 101 138 173 238 284 339 408
#     4  11  21  37  71  93 133 174 232 283 334 413
#     4  10  24  41  68  94 138 186 217 288 340 419
#     4  11  22  41  67 101 132 182 229 285 342 413
#     4  11  23  40  67  96 138 181 225 271 353 408
#     4  11  23  39  68 101 135 174 223 287 346 405
#     4  10  21  42  64  98 134 179 232 271 352 406
#
# _framework density 26.453195000000001
#
# number of rings (size 3 to 8) (size 9 to 14) (size 15 to 20)
#    0.000    1.250    3.750    3.375    3.500    0.500 
#    0.000    0.000    0.000    0.750    0.000    0.000 
#    0.000    0.000    0.000    0.000    0.000    0.000 
#
# Total GULP energy -89361.490005 kJ/mol
# GULP energy per Si atom -5585.093125 kJ/mol
# Density = 2.639299 g / cm^3
# Si number density = 26.453195 Si / 1000 Ang^3
#
#
#
# Elastic Constant Matrix: (Units=GPa)
#
#
# Indices 1 2 3 4 5 6 
#
# 1 142.4233 31.9400 33.2635 -3.1106 -6.2115 -29.1344
# 2 31.9400 187.3393 10.1550 -2.9745 -15.9261 4.1167
# 3 33.2635 10.1550 61.6682 8.0705 -11.6439 -16.1443
# 4 -3.1106 -2.9745 8.0705 41.9261 -13.2728 2.9147
# 5 -6.2115 -15.9261 -11.6439 -13.2728 41.9982 1.1681
# 6 -29.1344 4.1167 -16.1443 2.9147 1.1681 60.1907
#
#
#
# Elastic Compliance Matrix: (Units=1/GPa)
#
#
# Indices 1 2 3 4 5 6 
#
# 1 0.008936 -0.001372 -0.003867 0.001070 -0.000025 0.003331
# 2 -0.001372 0.005831 -0.000256 0.001190 0.002348 -0.001235
# 3 -0.003867 -0.000256 0.020478 -0.003281 0.003868 0.003722
# 4 0.001070 0.001190 -0.003281 0.027450 0.008429 -0.001936
# 5 -0.000025 0.002348 0.003868 0.008429 0.028436 -0.000095
# 6 0.003331 -0.001235 0.003722 -0.001936 -0.000095 0.019404
#
#
# Mechanical properties :
#
#
# Convention : Reuss Voigt Hill
#
# Bulk Modulus (GPa) = 41.22816 60.23863 50.73339
# Shear Modulus (GPa) = 38.57718 49.89450 44.23584
#
# Velocity S-wave (km/s) = 3.82294 4.34769 4.09373
# Velocity P-wave (km/s) = 5.92500 6.92996 6.44709
#
# Compressibility (1/GPa) = 0.02425527
#
# Stress axis : x y z
#
# Youngs Moduli (GPa) = 111.90985 171.48638 48.83313
#
# Poissons Ratio (x) = 0.23532 0.18883
# Poissons Ratio (y) = 0.15356 0.01249
# Poissons Ratio (z) = 0.43274 0.04387
#
# Static dielectric constant tensor:
#      x y z
#    x 1.202800 -0.275170 0.357450 
#    y -0.275170 1.881080 0.124060 
#    z 0.357450 0.124060 2.123190 
# 
# From -- ./inp_files/244157.got.cif
#   From: 2010.05.17/outbox.cif.g08.bks.cpg/sg2_123_cif.got.tgz:244157.got - 2010.06.03 11:33:40.
