data_PCOD9015466
_publ_section_title
;
Structure prediction by ZEFSAII (Michael W. Deem and Ramdas Pophale) SiO2 
 PCOD9015466
Probable space group: P -1
;
_chemical_formula_sum "Si O2"
_cell_formula_units_Z 13
_cell_length_a 11.505782
_cell_length_b 5.100297
_cell_length_c 18.960808
_cell_angle_alpha 122.961058
_cell_angle_beta 32.983640
_cell_angle_gamma 126.370870
_cell_volume 484.970688
_symmetry_space_group_name_H-M "P -1"
_symmetry_group_IT_number 2
_symmetry_cell_setting 'triclinic'
loop_
_space_group_symop_operation_xyz
x,y,z
-x,-y,-z
loop_
_atom_site_type_symbol
_atom_site_label
_atom_site_fract_x
_atom_site_fract_y
_atom_site_fract_z
Si Si1 0.354537 0.046182 0.439363
Si Si2 0.089265 0.447392 0.145834
Si Si3 0.716996 0.416959 0.784823
Si Si4 0.224366 0.176990 0.826521
Si Si5 0.000000 0.000000 0.500000
Si Si6 0.307493 0.272483 0.634437
Si Si7 0.580146 0.231400 0.090784
O O1 0.326273 0.994093 0.530044
O O2 0.462385 0.435978 0.435389
O O3 0.128358 0.934358 0.496269
O O4 0.546844 0.915388 0.288586
O O5 0.876664 0.577194 0.283048
O O6 0.998875 0.125076 0.095185
O O7 0.174957 0.394506 0.171626
O O8 0.275095 0.715853 0.046451
O O9 0.881229 0.239383 0.639689
O O10 0.627367 0.638521 0.808804
O O11 0.510219 0.118584 0.877391
O O12 0.230208 0.197231 0.741988
O O13 0.264692 0.519004 0.894734
#
# Coordination Sequence:
#
# PCOD9015466 Si02
#       7
#     2   2   2   2   1   2   2
#     4  10  21  42  63 103 138 184 236 298 352 426
#     4  11  26  45  73 103 141 193 237 289 360 427
#     4  12  28  49  73 108 145 188 241 295 362 419
#     4  11  24  43  71 104 138 189 242 295 355 423
#     4  12  22  46  74 100 144 184 242 292 362 418
#     4  10  22  41  67  99 142 184 236 292 358 422
#     4  12  28  49  73 106 149 187 241 297 350 427
#
# _framework density 26.805741000000001
#
# number of rings (size 3 to 8) (size 9 to 14) (size 15 to 20)
#    0.000    0.923    3.077    2.769    6.462    1.231 
#    5.538    0.000    0.000    0.000    0.000    0.000 
#    0.000    0.000    0.000    0.000    0.000    0.000 
#
# Total GULP energy -72606.628690 kJ/mol
# GULP energy per Si atom -5585.125284 kJ/mol
# Density = 2.674473 g / cm^3
# Si number density = 26.805741 Si / 1000 Ang^3
#
#
#
# Elastic Constant Matrix: (Units=GPa)
#
#
# Indices 1 2 3 4 5 6 
#
# 1 121.7402 31.9203 6.8434 -0.6525 8.2770 10.5904
# 2 31.9203 75.6975 13.7006 0.4585 -3.5599 4.4051
# 3 6.8434 13.7006 72.3700 10.3632 -4.1274 13.6768
# 4 -0.6525 0.4585 10.3632 30.1118 -0.2480 3.5901
# 5 8.2770 -3.5599 -4.1274 -0.2480 43.5089 14.3581
# 6 10.5904 4.4051 13.6768 3.5901 14.3581 33.9042
#
#
#
# Elastic Compliance Matrix: (Units=1/GPa)
#
#
# Indices 1 2 3 4 5 6 
#
# 1 0.009527 -0.003992 0.000061 0.000460 -0.001506 -0.001893
# 2 -0.003992 0.015460 -0.002381 0.000601 0.002043 -0.000730
# 3 0.000061 -0.002381 0.016579 -0.004741 0.003819 -0.007513
# 4 0.000460 0.000601 -0.004741 0.035110 0.000443 -0.002214
# 5 -0.001506 0.002043 0.003819 0.000443 0.028199 -0.013325
# 6 -0.001893 -0.000730 -0.007513 -0.002214 -0.013325 0.039089
#
#
# Mechanical properties :
#
#
# Convention : Reuss Voigt Hill
#
# Bulk Modulus (GPa) = 34.55168 41.63736 38.09452
# Shear Modulus (GPa) = 30.07787 35.99452 33.03620
#
# Velocity S-wave (km/s) = 3.35336 3.66839 3.51441
# Velocity P-wave (km/s) = 5.28309 5.78874 5.54168
#
# Compressibility (1/GPa) = 0.02894215
#
# Stress axis : x y z
#
# Youngs Moduli (GPa) = 104.96534 64.68473 60.31585
#
# Poissons Ratio (x) = 0.25821 -0.00367
# Poissons Ratio (y) = 0.41900 0.14360
# Poissons Ratio (z) = -0.00638 0.15401
#
# Static dielectric constant tensor:
#      x y z
#    x 2.066960 -0.011750 0.020110 
#    y -0.011750 2.111580 -0.049050 
#    z 0.020110 -0.049050 2.106590 
# 
# From -- ./inp_files/592375.got.cif
#   From: 2010.05.17/outbox.cif.g08.bks.cpg/sg2_297_cif.got.tgz:592375.got - 2010.06.03 11:33:40.
