data_PCOD9015244
_publ_section_title
;
Structure prediction by ZEFSAII (Michael W. Deem and Ramdas Pophale) SiO2 
 PCOD9015244
Probable space group: P -1
;
_chemical_formula_sum "Si O2"
_cell_formula_units_Z 15
_cell_length_a 8.173010
_cell_length_b 15.862892
_cell_length_c 12.378152
_cell_angle_alpha 125.256274
_cell_angle_beta 127.322661
_cell_angle_gamma 97.728296
_cell_volume 693.944459
_symmetry_space_group_name_H-M "P -1"
_symmetry_group_IT_number 2
_symmetry_cell_setting 'triclinic'
loop_
_space_group_symop_operation_xyz
x,y,z
-x,-y,-z
loop_
_atom_site_type_symbol
_atom_site_label
_atom_site_fract_x
_atom_site_fract_y
_atom_site_fract_z
Si Si1 0.350687 0.191032 0.057118
Si Si2 0.000000 0.000000 0.000000
Si Si3 0.112611 0.563525 0.413580
Si Si4 0.860946 0.652431 0.237065
Si Si5 0.168876 0.982572 0.633288
Si Si6 0.659342 0.673508 0.578457
Si Si7 0.827942 0.260802 0.035894
Si Si8 0.809041 0.638169 0.955600
O O1 0.267117 0.271651 0.035306
O O2 0.248390 0.066248 0.839879
O O3 0.717868 0.330022 0.334238
O O4 0.175842 0.106506 0.038244
O O5 0.188076 0.160037 0.263710
O O6 0.375245 0.588830 0.483853
O O7 0.041750 0.631638 0.357800
O O8 0.822578 0.377469 0.162027
O O9 0.916635 0.666550 0.141750
O O10 0.972029 0.805674 0.434136
O O11 0.500000 0.500000 0.000000
O O12 0.000000 0.000000 0.500000
O O13 0.501645 0.083418 0.788321
O O14 0.923077 0.706684 0.768232
O O15 0.496437 0.545614 0.325038
O O16 0.933194 0.298392 0.981453
#
# Coordination Sequence:
#
# PCOD9015244 Si02
#       8
#     2   1   2   2   2   2   2   2
#     4  11  23  46  73 103 143 184 238 294 352 423
#     4  10  22  38  70 106 138 168 234 292 340 402
#     4  10  22  44  69 105 141 177 242 289 352 417
#     4  12  29  47  66 104 149 190 240 295 358 425
#     4  12  28  47  67 106 147 189 240 289 367 418
#     4  10  21  41  73 108 134 178 239 293 346 419
#     4  11  22  44  75 104 137 185 241 291 349 436
#     4  11  22  47  76 100 140 198 234 284 363 431
#
# _framework density 21.615563000000002
#
# number of rings (size 3 to 8) (size 9 to 14) (size 15 to 20)
#    0.000    1.067    5.333    1.600    5.600    4.800 
#    4.800    0.000    0.000    0.000    0.000    0.000 
#    0.000    0.000    0.000    0.000    0.000    0.000 
#
# Total GULP energy -83599.506430 kJ/mol
# GULP energy per Si atom -5573.300429 kJ/mol
# Density = 2.156637 g / cm^3
# Si number density = 21.615563 Si / 1000 Ang^3
#
#
#
# Elastic Constant Matrix: (Units=GPa)
#
#
# Indices 1 2 3 4 5 6 
#
# 1 64.6743 34.0905 48.8329 -5.7300 -16.3105 4.9299
# 2 34.0905 67.7554 53.6397 10.6520 3.7279 6.9597
# 3 48.8329 53.6397 133.7846 21.1006 -26.6971 -7.9203
# 4 -5.7300 10.6520 21.1006 61.6670 -3.9289 -5.4593
# 5 -16.3105 3.7279 -26.6971 -3.9289 40.5330 -8.7398
# 6 4.9299 6.9597 -7.9203 -5.4593 -8.7398 23.5648
#
#
#
# Elastic Compliance Matrix: (Units=1/GPa)
#
#
# Indices 1 2 3 4 5 6 
#
# 1 0.028857 -0.013690 -0.003682 0.007305 0.011763 0.002824
# 2 -0.013690 0.040267 -0.017002 -0.006421 -0.026665 -0.026121
# 3 -0.003682 -0.017002 0.020492 -0.001642 0.017469 0.018778
# 4 0.007305 -0.006421 -0.001642 0.019503 0.005732 0.006461
# 5 0.011763 -0.026665 0.017469 0.005732 0.050693 0.031415
# 6 0.002824 -0.026121 0.018778 0.006461 0.031415 0.069020
#
#
# Mechanical properties :
#
#
# Convention : Reuss Voigt Hill
#
# Bulk Modulus (GPa) = 47.92176 59.92674 53.92425
# Shear Modulus (GPa) = 16.41843 33.79637 25.10740
#
# Velocity S-wave (km/s) = 2.75901 3.95843 3.41184
# Velocity P-wave (km/s) = 5.68926 6.97684 6.36569
#
# Compressibility (1/GPa) = 0.02086735
#
# Stress axis : x y z
#
# Youngs Moduli (GPa) = 34.65394 24.83428 48.79880
#
# Poissons Ratio (x) = 0.33998 0.17967
# Poissons Ratio (y) = 0.47441 0.82970
# Poissons Ratio (z) = 0.12759 0.42224
#
# Static dielectric constant tensor:
#      x y z
#    x 1.840610 0.005070 -0.010090 
#    y 0.005070 1.762290 0.026960 
#    z -0.010090 0.026960 1.821550 
# 
# From -- ./inp_files/397687.got.cif
#   From: 2010.05.17/outbox.cif.g08.bks.cpg/sg2_199_cif.got.tgz:397687.got - 2010.06.03 11:33:40.
