data_PCOD9015762
_publ_section_title
;
Structure prediction by ZEFSAII (Michael W. Deem and Ramdas Pophale) SiO2 
 PCOD9015762
Probable space group: P -1
;
_chemical_formula_sum "Si O2"
_cell_formula_units_Z 14
_cell_length_a 7.821351
_cell_length_b 19.099436
_cell_length_c 13.936032
_cell_angle_alpha 20.502564
_cell_angle_beta 63.351791
_cell_angle_gamma 63.092938
_cell_volume 648.190985
_symmetry_space_group_name_H-M "P -1"
_symmetry_group_IT_number 2
_symmetry_cell_setting 'triclinic'
loop_
_space_group_symop_operation_xyz
x,y,z
-x,-y,-z
loop_
_atom_site_type_symbol
_atom_site_label
_atom_site_fract_x
_atom_site_fract_y
_atom_site_fract_z
Si Si1 0.561240 0.114194 0.584676
Si Si2 0.279934 0.892956 0.638584
Si Si3 0.989357 0.819149 0.159749
Si Si4 0.305848 0.812130 0.949393
Si Si5 0.311200 0.571373 0.517497
Si Si6 0.421402 0.334781 0.524007
Si Si7 0.139605 0.200085 0.131814
O O1 0.585920 0.203004 0.357648
O O2 0.486194 0.265423 0.490722
O O3 0.768532 0.988979 0.712834
O O4 0.421365 0.938207 0.833153
O O5 0.088296 0.778335 0.839774
O O6 0.210073 0.114530 0.328518
O O7 0.348186 0.893982 0.728392
O O8 0.086984 0.849459 0.993346
O O9 0.138677 0.649576 0.390309
O O10 0.774922 0.759340 0.281386
O O11 0.000000 0.000000 0.000000
O O12 0.372146 0.575602 0.233139
O O13 0.500000 0.500000 0.500000
O O14 0.399742 0.722920 0.374989
O O15 0.229927 0.396036 0.824566
#
# Coordination Sequence:
#
# PCOD9015762 Si02
#       7
#     2   2   2   2   2   2   2
#     4  10  21  42  65 101 132 174 238 271 344 418
#     4   9  21  39  74  94 138 186 219 296 341 406
#     4  12  27  46  66 109 140 179 242 284 345 422
#     4  12  22  44  67  97 142 180 227 285 347 409
#     4  12  25  45  73  99 140 186 230 288 343 418
#     4  12  25  43  72 101 141 187 227 291 351 404
#     4   9  20  44  65  98 137 176 239 275 348 407
#
# _framework density 21.598571
#
# number of rings (size 3 to 8) (size 9 to 14) (size 15 to 20)
#    0.857    0.286    4.286    1.714    2.000    2.286 
#    0.000    0.714    0.000    0.000    0.000    0.000 
#    0.000    0.000    0.000    0.000    0.000    0.000 
#
# Total GULP energy -78114.697845 kJ/mol
# GULP energy per Si atom -5579.621275 kJ/mol
# Density = 2.154941 g / cm^3
# Si number density = 21.598571 Si / 1000 Ang^3
#
#
#
# Elastic Constant Matrix: (Units=GPa)
#
#
# Indices 1 2 3 4 5 6 
#
# 1 67.2343 22.5341 21.6038 12.7788 -14.7853 1.3659
# 2 22.5341 154.1836 27.7496 10.9756 -19.7518 4.5211
# 3 21.6038 27.7496 68.3737 12.4442 -21.5295 0.0291
# 4 12.7788 10.9756 12.4442 32.9854 -3.5103 -6.6673
# 5 -14.7853 -19.7518 -21.5295 -3.5103 29.2888 9.7692
# 6 1.3659 4.5211 0.0291 -6.6673 9.7692 34.5696
#
#
#
# Elastic Compliance Matrix: (Units=1/GPa)
#
#
# Indices 1 2 3 4 5 6 
#
# 1 0.018835 -0.000788 -0.001896 -0.006288 0.008222 -0.004176
# 2 -0.000788 0.007588 -0.001039 -0.001867 0.004606 -0.002622
# 3 -0.001896 -0.001039 0.021648 -0.006550 0.015266 -0.005385
# 4 -0.006288 -0.001867 -0.006550 0.036987 -0.008127 0.009928
# 5 0.008222 0.004606 0.015266 -0.008127 0.057945 -0.018883
# 6 -0.004176 -0.002622 -0.005385 0.009928 -0.018883 0.036691
#
#
# Mechanical properties :
#
#
# Convention : Reuss Voigt Hill
#
# Bulk Modulus (GPa) = 24.61625 48.17406 36.39515
# Shear Modulus (GPa) = 24.91510 33.89570 29.40540
#
# Velocity S-wave (km/s) = 3.40008 3.96580 3.69379
# Velocity P-wave (km/s) = 5.18035 6.58200 5.92279
#
# Compressibility (1/GPa) = 0.04062358
#
# Stress axis : x y z
#
# Youngs Moduli (GPa) = 53.09315 131.78910 46.19417
#
# Poissons Ratio (x) = 0.10387 0.08759
# Poissons Ratio (y) = 0.04184 0.04800
# Poissons Ratio (z) = 0.10067 0.13695
#
# Static dielectric constant tensor:
#      x y z
#    x 1.861360 0.013760 0.031110 
#    y 0.013760 1.796940 0.027380 
#    z 0.031110 0.027380 1.813390 
# 
# From -- ./inp_files/507594.got.cif
#   From: 2010.05.17/outbox.cif.g08.bks.cpg/sg2_254_cif.got.tgz:507594.got - 2010.06.03 11:33:40.
