data_PCOD9015147
_publ_section_title
;
Structure prediction by ZEFSAII (Michael W. Deem and Ramdas Pophale) SiO2 
 PCOD9015147
Probable space group: P -1
;
_chemical_formula_sum "Si O2"
_cell_formula_units_Z 13
_cell_length_a 9.534949
_cell_length_b 9.565406
_cell_length_c 11.673035
_cell_angle_alpha 44.312515
_cell_angle_beta 124.392495
_cell_angle_gamma 98.208951
_cell_volume 546.994197
_symmetry_space_group_name_H-M "P -1"
_symmetry_group_IT_number 2
_symmetry_cell_setting 'triclinic'
loop_
_space_group_symop_operation_xyz
x,y,z
-x,-y,-z
loop_
_atom_site_type_symbol
_atom_site_label
_atom_site_fract_x
_atom_site_fract_y
_atom_site_fract_z
Si Si1 0.228739 0.722997 0.307719
Si Si2 0.529436 0.678173 0.984827
Si Si3 0.896564 0.129132 0.263145
Si Si4 0.229287 0.384523 0.662916
Si Si5 0.000000 0.500000 0.000000
Si Si6 0.844211 0.989487 0.091747
Si Si7 0.339337 0.068938 0.286207
O O1 0.291862 0.470281 0.528018
O O2 0.312800 0.859311 0.343966
O O3 0.253366 0.771105 0.158083
O O4 0.000785 0.834559 0.162188
O O5 0.682405 0.548218 0.228729
O O6 0.500000 0.500000 0.000000
O O7 0.323359 0.818938 0.862362
O O8 0.593873 0.828452 0.848835
O O9 0.960192 0.987534 0.259063
O O10 0.919955 0.352466 0.125502
O O11 0.000000 0.000000 0.500000
O O12 0.000000 0.500000 0.500000
O O13 0.286724 0.124892 0.865405
O O14 0.851050 0.733794 0.862637
O O15 0.500000 0.000000 0.500000
#
# Coordination Sequence:
#
# PCOD9015147 Si02
#       7
#     2   2   2   2   1   2   2
#     4  10  21  41  71  99 137 191 240 295 362 444
#     4  12  25  44  71 106 148 189 244 309 369 440
#     4  12  28  46  73 110 149 191 251 313 375 447
#     4  10  23  41  71 102 139 193 238 297 372 437
#     4  12  26  46  74 106 150 194 244 308 370 440
#     4  10  22  43  67 100 140 187 248 294 365 445
#     4  12  24  45  75 108 147 192 250 305 377 440
#
# _framework density 23.766248000000001
#
# number of rings (size 3 to 8) (size 9 to 14) (size 15 to 20)
#    0.000    0.923    4.615    1.846    4.308    1.846 
#    0.000    0.769    0.000    0.000    0.000    0.000 
#    0.000    0.000    0.000    0.000    0.000    0.000 
#
# Total GULP energy -72369.328114 kJ/mol
# GULP energy per Si atom -5566.871393 kJ/mol
# Density = 2.371216 g / cm^3
# Si number density = 23.766248 Si / 1000 Ang^3
#
#
#
# Elastic Constant Matrix: (Units=GPa)
#
#
# Indices 1 2 3 4 5 6 
#
# 1 131.2109 16.4244 65.0768 -23.5892 -20.3262 23.0581
# 2 16.4244 81.8972 40.1389 7.9390 -22.1850 21.6146
# 3 65.0768 40.1389 128.9386 22.0100 -41.0628 15.8636
# 4 -23.5892 7.9390 22.0100 40.2907 14.1953 -7.4529
# 5 -20.3262 -22.1850 -41.0628 14.1953 59.3598 -12.3750
# 6 23.0581 21.6146 15.8636 -7.4529 -12.3750 39.2654
#
#
#
# Elastic Compliance Matrix: (Units=1/GPa)
#
#
# Indices 1 2 3 4 5 6 
#
# 1 0.019284 -0.000083 -0.017181 0.024218 -0.011827 -0.003468
# 2 -0.000083 0.017111 -0.001797 -0.005634 0.004758 -0.008214
# 3 -0.017181 -0.001797 0.029877 -0.033906 0.022126 -0.000454
# 4 0.024218 -0.005634 -0.033906 0.071360 -0.033150 0.005675
# 5 -0.011827 0.004758 0.022126 -0.033150 0.038034 0.001082
# 6 -0.003468 -0.008214 -0.000454 0.005675 0.001082 0.033628
#
#
# Mechanical properties :
#
#
# Convention : Reuss Voigt Hill
#
# Bulk Modulus (GPa) = 35.52440 65.03632 50.28036
# Shear Modulus (GPa) = 19.47048 42.47695 30.97372
#
# Velocity S-wave (km/s) = 2.86536 4.23221 3.61399
# Velocity P-wave (km/s) = 5.09185 7.16286 6.21424
#
# Compressibility (1/GPa) = 0.02814967
#
# Stress axis : x y z
#
# Youngs Moduli (GPa) = 51.85564 58.44226 33.47088
#
# Poissons Ratio (x) = 0.00485 0.57507
# Poissons Ratio (y) = 0.00430 0.06015
# Poissons Ratio (z) = 0.89094 0.10502
#
# Static dielectric constant tensor:
#      x y z
#    x 2.107050 -0.029430 0.011640 
#    y -0.029430 1.964390 -0.024390 
#    z 0.011640 -0.024390 1.981340 
# 
# From -- ./inp_files/386590.got.cif
#   From: 2010.05.17/outbox.cif.g08.bks.cpg/sg2_194_cif.got.tgz:386590.got - 2010.06.03 11:33:40.
