data_PCOD9015863
_publ_section_title
;
Structure prediction by ZEFSAII (Michael W. Deem and Ramdas Pophale) SiO2 
 PCOD9015863
Probable space group: P -1
;
_chemical_formula_sum "Si O2"
_cell_formula_units_Z 12
_cell_length_a 15.635060
_cell_length_b 8.178788
_cell_length_c 5.492735
_cell_angle_alpha 121.052503
_cell_angle_beta 68.234348
_cell_angle_gamma 96.925044
_cell_volume 556.622944
_symmetry_space_group_name_H-M "P -1"
_symmetry_group_IT_number 2
_symmetry_cell_setting 'triclinic'
loop_
_space_group_symop_operation_xyz
x,y,z
-x,-y,-z
loop_
_atom_site_type_symbol
_atom_site_label
_atom_site_fract_x
_atom_site_fract_y
_atom_site_fract_z
Si Si1 0.768219 0.563721 0.114095
Si Si2 0.424192 0.554605 0.823560
Si Si3 0.744720 0.804572 0.823967
Si Si4 0.072824 0.032823 0.161603
Si Si5 0.461802 0.179745 0.836980
Si Si6 0.959065 0.335359 0.765413
O O1 0.679729 0.445155 0.160157
O O2 0.774293 0.697343 0.453322
O O3 0.753168 0.678210 0.965085
O O4 0.859426 0.424813 0.860547
O O5 0.500000 0.500000 0.500000
O O6 0.436637 0.376222 0.861907
O O7 0.453079 0.756140 0.045256
O O8 0.816108 0.961202 0.938878
O O9 0.634147 0.863003 0.964102
O O10 0.036444 0.252528 0.432382
O O11 0.056224 0.856155 0.217591
O O12 0.000000 0.000000 0.000000
O O13 0.500000 0.000000 0.500000
O O14 0.000000 0.500000 0.000000
#
# Coordination Sequence:
#
# PCOD9015863 Si02
#       6
#     2   2   2   2   2   2
#     4  11  24  43  71  96 136 182 221 277 335 396
#     4  10  21  42  65  94 133 172 225 270 329 397
#     4  11  24  45  67  99 138 173 228 278 330 401
#     4  11  26  42  68 100 135 173 228 278 330 408
#     4  10  23  42  66  97 133 177 220 278 332 393
#     4  11  24  44  68  97 132 178 222 273 340 395
#
# _framework density 21.558579999999999
#
# number of rings (size 3 to 8) (size 9 to 14) (size 15 to 20)
#    0.000    1.333    3.333    1.000    4.667    4.667 
#    3.000    0.000    0.000    0.000    0.000    0.000 
#    0.000    0.000    0.000    0.000    0.000    0.000 
#
# Total GULP energy -66813.866517 kJ/mol
# GULP energy per Si atom -5567.822210 kJ/mol
# Density = 2.150951 g / cm^3
# Si number density = 21.558580 Si / 1000 Ang^3
#
#
#
# Elastic Constant Matrix: (Units=GPa)
#
#
# Indices 1 2 3 4 5 6 
#
# 1 115.2621 32.8855 -3.5341 16.0822 8.4441 29.6803
# 2 32.8855 52.1881 20.2647 6.3078 3.0595 18.3261
# 3 -3.5341 20.2647 71.7568 26.4025 14.6824 1.6088
# 4 16.0822 6.3078 26.4025 35.1526 4.8441 9.1399
# 5 8.4441 3.0595 14.6824 4.8441 38.6031 2.3683
# 6 29.6803 18.3261 1.6088 9.1399 2.3683 39.4178
#
#
#
# Elastic Compliance Matrix: (Units=1/GPa)
#
#
# Indices 1 2 3 4 5 6 
#
# 1 0.014048 -0.008780 0.007185 -0.008538 -0.003757 -0.004583
# 2 -0.008780 0.032411 -0.014274 0.011148 0.004038 -0.010702
# 3 0.007185 -0.014274 0.028119 -0.022136 -0.008709 0.005735
# 4 -0.008538 0.011148 -0.022136 0.048899 0.003845 -0.009420
# 5 -0.003757 0.004038 -0.008709 0.003845 0.029319 -0.001346
# 6 -0.004583 -0.010702 0.005735 -0.009420 -0.001346 0.035827
#
#
# Mechanical properties :
#
#
# Convention : Reuss Voigt Hill
#
# Bulk Modulus (GPa) = 23.34311 37.60434 30.47372
# Shear Modulus (GPa) = 21.30919 35.27409 28.29164
#
# Velocity S-wave (km/s) = 3.14734 4.04938 3.62652
# Velocity P-wave (km/s) = 4.90499 6.27248 5.63041
#
# Compressibility (1/GPa) = 0.04283919
#
# Stress axis : x y z
#
# Youngs Moduli (GPa) = 71.18443 30.85415 35.56295
#
# Poissons Ratio (x) = 0.27091 -0.25550
# Poissons Ratio (y) = 0.62501 0.50761
# Poissons Ratio (z) = -0.51143 0.44040
#
# Static dielectric constant tensor:
#      x y z
#    x 1.509870 -0.019720 -0.170400 
#    y -0.019720 1.936850 -0.141630 
#    z -0.170400 -0.141630 1.859400 
# 
# From -- ./inp_files/3045.got.cif
#   From: 2010.05.17/outbox.cif.g08.bks.cpg/sg2_2_cif.got.tgz:3045.got - 2010.06.03 11:33:40.
