data_PCOD9015554
_publ_section_title
;
Structure prediction by ZEFSAII (Michael W. Deem and Ramdas Pophale) SiO2 
 PCOD9015554
Probable space group: P -1
;
_chemical_formula_sum "Si O2"
_cell_formula_units_Z 16
_cell_length_a 9.424844
_cell_length_b 17.806632
_cell_length_c 11.514964
_cell_angle_alpha 42.451078
_cell_angle_beta 127.923565
_cell_angle_gamma 96.349226
_cell_volume 787.118015
_symmetry_space_group_name_H-M "P -1"
_symmetry_group_IT_number 2
_symmetry_cell_setting 'triclinic'
loop_
_space_group_symop_operation_xyz
x,y,z
-x,-y,-z
loop_
_atom_site_type_symbol
_atom_site_label
_atom_site_fract_x
_atom_site_fract_y
_atom_site_fract_z
Si Si1 0.917265 0.414951 0.108661
Si Si2 0.141519 0.903252 0.351101
Si Si3 0.068100 0.457938 0.819329
Si Si4 0.100061 0.307543 0.702955
Si Si5 0.609567 0.538319 0.606833
Si Si6 0.196624 0.775712 0.280074
Si Si7 0.227217 0.134759 0.723431
Si Si8 0.569162 0.845740 0.741777
O O1 0.816264 0.496346 0.089064
O O2 0.128732 0.249781 0.437919
O O3 0.741927 0.432295 0.906745
O O4 0.000000 0.500000 0.000000
O O5 0.247165 0.801434 0.405373
O O6 0.344203 0.858222 0.591809
O O7 0.942757 0.904187 0.305651
O O8 0.013200 0.064932 0.055829
O O9 0.022499 0.531991 0.588140
O O10 0.810303 0.528865 0.654711
O O11 0.226879 0.285302 0.089457
O O12 0.186691 0.215006 0.732828
O O13 0.901090 0.309768 0.658756
O O14 0.319407 0.216393 0.004559
O O15 0.500000 0.500000 0.500000
O O16 0.410475 0.691632 0.393807
O O17 0.500000 0.000000 0.000000
O O18 0.500000 0.000000 0.500000
#
# Coordination Sequence:
#
# PCOD9015554 Si02
#       8
#     2   2   2   2   2   2   2   2
#     4   9  21  40  61  93 122 166 215 252 323 381
#     4  10  23  39  67  92 130 172 216 264 325 387
#     4  10  23  41  64  92 127 174 215 265 323 383
#     4  10  22  41  63  94 126 170 214 268 325 381
#     4  11  23  38  65  95 133 163 213 274 322 378
#     4  10  21  42  63  95 127 172 217 258 327 392
#     4  10  23  42  66  94 129 172 217 269 321 389
#     4  12  23  40  63  95 131 167 219 268 323 393
#
# _framework density 20.327318000000002
#
# number of rings (size 3 to 8) (size 9 to 14) (size 15 to 20)
#    0.000    1.750    1.250    1.875    5.250    4.000 
#    0.000    4.375    0.000    0.000    0.000    0.000 
#    0.000    0.000    0.000    0.000    0.000    0.000 
#
# Total GULP energy -89265.635465 kJ/mol
# GULP energy per Si atom -5579.102217 kJ/mol
# Density = 2.028105 g / cm^3
# Si number density = 20.327318 Si / 1000 Ang^3
#
#
#
# Elastic Constant Matrix: (Units=GPa)
#
#
# Indices 1 2 3 4 5 6 
#
# 1 82.2347 33.8996 39.8261 -3.8002 5.0848 6.9432
# 2 33.8996 93.0948 64.8871 24.2618 -0.2217 2.4957
# 3 39.8261 64.8871 134.3849 12.5484 -8.7121 1.2683
# 4 -3.8002 24.2618 12.5484 49.0075 -7.6065 1.7532
# 5 5.0848 -0.2217 -8.7121 -7.6065 40.2083 0.2829
# 6 6.9432 2.4957 1.2683 1.7532 0.2829 21.2915
#
#
#
# Elastic Compliance Matrix: (Units=1/GPa)
#
#
# Indices 1 2 3 4 5 6 
#
# 1 0.016340 -0.004885 -0.002964 0.004328 -0.001882 -0.004911
# 2 -0.004885 0.020097 -0.007606 -0.008798 -0.002587 0.000449
# 3 -0.002964 -0.007606 0.012102 0.000884 0.003115 0.001023
# 4 0.004328 -0.008798 0.000884 0.025657 0.004468 -0.002605
# 5 -0.001882 -0.002587 0.003115 0.004468 0.026614 0.000010
# 6 -0.004911 0.000449 0.001023 -0.002605 0.000010 0.048669
#
#
# Mechanical properties :
#
#
# Convention : Reuss Voigt Hill
#
# Bulk Modulus (GPa) = 56.72495 65.21555 60.97025
# Shear Modulus (GPa) = 26.84323 33.50823 30.17573
#
# Velocity S-wave (km/s) = 3.63788 4.06449 3.85709
# Velocity P-wave (km/s) = 6.75366 7.36065 7.06368
#
# Compressibility (1/GPa) = 0.01762893
#
# Stress axis : x y z
#
# Youngs Moduli (GPa) = 61.19765 49.75860 82.63082
#
# Poissons Ratio (x) = 0.24309 0.24488
# Poissons Ratio (y) = 0.29898 0.62852
# Poissons Ratio (z) = 0.18136 0.37848
#
# Static dielectric constant tensor:
#      x y z
#    x 1.752930 -0.029500 -0.006260 
#    y -0.029500 1.810920 0.006030 
#    z -0.006260 0.006030 1.727660 
# 
# From -- ./inp_files/402883.got.cif
#   From: 2010.05.17/outbox.cif.g08.bks.cpg/sg2_202_cif.got.tgz:402883.got - 2010.06.03 11:33:40.
