data_PCOD9015904
_publ_section_title
;
Structure prediction by ZEFSAII (Michael W. Deem and Ramdas Pophale) SiO2 
 PCOD9015904
Probable space group: P -1
;
_chemical_formula_sum "Si O2"
_cell_formula_units_Z 12
_cell_length_a 5.183108
_cell_length_b 7.142991
_cell_length_c 15.455629
_cell_angle_alpha 52.105445
_cell_angle_beta 106.579014
_cell_angle_gamma 107.172362
_cell_volume 427.303336
_symmetry_space_group_name_H-M "P -1"
_symmetry_group_IT_number 2
_symmetry_cell_setting 'triclinic'
loop_
_space_group_symop_operation_xyz
x,y,z
-x,-y,-z
loop_
_atom_site_type_symbol
_atom_site_label
_atom_site_fract_x
_atom_site_fract_y
_atom_site_fract_z
Si Si1 0.849257 0.932672 0.370184
Si Si2 0.394609 0.762720 0.500468
Si Si3 0.811434 0.437044 0.292758
Si Si4 0.162403 0.915565 0.122542
Si Si5 0.127426 0.780236 0.869985
Si Si6 0.351124 0.601598 0.105574
O O1 0.921745 0.184436 0.360515
O O2 0.751338 0.025098 0.243645
O O3 0.624934 0.758365 0.452092
O O4 0.117300 0.815937 0.415933
O O5 0.315760 0.564278 0.622925
O O6 0.500000 0.000000 0.500000
O O7 0.566856 0.437142 0.200505
O O8 0.023516 0.673209 0.227215
O O9 0.399438 0.814630 0.120228
O O10 0.112144 0.118283 0.128322
O O11 0.000000 0.000000 0.000000
O O12 0.953252 0.548240 0.873723
O O13 0.346130 0.701352 0.979591
#
# Coordination Sequence:
#
# PCOD9015904 Si02
#       6
#     2   2   2   2   2   2
#     4  11  22  41  66 102 130 178 226 275 332 400
#     4  10  22  38  69  99 129 177 232 271 330 399
#     4  11  22  40  68  96 132 176 222 276 332 400
#     4  10  23  42  62  99 133 174 218 274 335 401
#     4  10  21  42  65  96 136 171 222 278 330 400
#     4  10  22  42  66  95 131 180 219 271 342 393
#
# _framework density 28.083093000000002
#
# number of rings (size 3 to 8) (size 9 to 14) (size 15 to 20)
#    0.000    1.667    1.667    4.000    2.333    3.333 
#   12.000    1.667    0.000    0.000    0.000    0.000 
#    0.000    0.000    0.000    0.000    0.000    0.000 
#
# Total GULP energy -67229.049230 kJ/mol
# GULP energy per Si atom -5602.420769 kJ/mol
# Density = 2.801918 g / cm^3
# Si number density = 28.083093 Si / 1000 Ang^3
#
#
#
# Elastic Constant Matrix: (Units=GPa)
#
#
# Indices 1 2 3 4 5 6 
#
# 1 90.5097 1.9532 36.4635 5.0735 -1.2593 -10.5276
# 2 1.9532 112.5213 13.0939 -7.4595 -5.1669 -1.4335
# 3 36.4635 13.0939 185.8852 -5.9948 -14.1628 18.1343
# 4 5.0735 -7.4595 -5.9948 47.9651 2.6098 -10.5128
# 5 -1.2593 -5.1669 -14.1628 2.6098 61.7876 -7.7729
# 6 -10.5276 -1.4335 18.1343 -10.5128 -7.7729 31.9330
#
#
#
# Elastic Compliance Matrix: (Units=1/GPa)
#
#
# Indices 1 2 3 4 5 6 
#
# 1 0.013045 0.000204 -0.003151 -0.000437 0.000339 0.006037
# 2 0.000204 0.009130 -0.000731 0.001619 0.000733 0.001604
# 3 -0.003151 -0.000731 0.006559 -0.000014 0.000799 -0.004606
# 4 -0.000437 0.001619 -0.000014 0.022774 0.000100 0.007458
# 5 0.000339 0.000733 0.000799 0.000100 0.016915 0.003841
# 6 0.006037 0.001604 -0.004606 0.007458 0.003841 0.039384
#
#
# Mechanical properties :
#
#
# Convention : Reuss Voigt Hill
#
# Bulk Modulus (GPa) = 46.77833 54.65970 50.71902
# Shear Modulus (GPa) = 40.88664 50.83085 45.85875
#
# Velocity S-wave (km/s) = 3.81979 4.25904 4.04538
# Velocity P-wave (km/s) = 6.01229 6.60997 6.31820
#
# Compressibility (1/GPa) = 0.02137742
#
# Stress axis : x y z
#
# Youngs Moduli (GPa) = 76.65868 109.52664 152.46178
#
# Poissons Ratio (x) = -0.02231 0.48033
# Poissons Ratio (y) = -0.01561 0.11152
# Poissons Ratio (z) = 0.24151 0.08012
#
# Static dielectric constant tensor:
#      x y z
#    x 2.211900 -0.012890 -0.066080 
#    y -0.012890 2.286240 0.006540 
#    z -0.066080 0.006540 2.146520 
# 
# From -- ./inp_files/480242.got.cif
#   From: 2010.05.17/outbox.cif.g08.bks.cpg/sg2_241_cif.got.tgz:480242.got - 2010.06.03 11:33:40.
