data_PCOD9015593
_publ_section_title
;
Structure prediction by ZEFSAII (Michael W. Deem and Ramdas Pophale) SiO2 
 PCOD9015593
Probable space group: P -1
;
_chemical_formula_sum "Si O2"
_cell_formula_units_Z 16
_cell_length_a 16.743406
_cell_length_b 5.124908
_cell_length_c 9.190492
_cell_angle_alpha 100.619145
_cell_angle_beta 118.519690
_cell_angle_gamma 80.053934
_cell_volume 677.771402
_symmetry_space_group_name_H-M "P -1"
_symmetry_group_IT_number 2
_symmetry_cell_setting 'triclinic'
loop_
_space_group_symop_operation_xyz
x,y,z
-x,-y,-z
loop_
_atom_site_type_symbol
_atom_site_label
_atom_site_fract_x
_atom_site_fract_y
_atom_site_fract_z
Si Si1 0.100022 0.827919 0.290500
Si Si2 0.701631 0.217383 0.475701
Si Si3 0.543865 0.658075 0.341130
Si Si4 0.836155 0.209684 0.987286
Si Si5 0.287412 0.247951 0.071600
Si Si6 0.389211 0.923157 0.365734
Si Si7 0.001378 0.397065 0.325082
Si Si8 0.597544 0.863698 0.126065
O O1 0.195013 0.722931 0.444621
O O2 0.029032 0.629003 0.264986
O O3 0.071495 0.130975 0.345035
O O4 0.110699 0.831043 0.124802
O O5 0.624832 0.463767 0.456775
O O6 0.703338 0.083209 0.622815
O O7 0.660560 0.046392 0.295235
O O8 0.441641 0.657823 0.311640
O O9 0.564735 0.647474 0.188558
O O10 0.555100 0.956238 0.440264
O O11 0.759404 0.456238 0.919540
O O12 0.905448 0.306916 0.177289
O O13 0.789620 0.957766 0.987221
O O14 0.337869 0.234431 0.959205
O O15 0.364698 0.131554 0.239360
O O16 0.000000 0.500000 0.500000
O O17 0.500000 0.000000 0.000000
#
# Coordination Sequence:
#
# PCOD9015593 Si02
#       8
#     2   2   2   2   2   2   2   2
#     4  12  26  49  79 107 146 188 245 299 366 439
#     4  11  25  40  72  99 139 192 247 298 359 429
#     4  10  22  41  66  94 143 190 247 292 366 414
#     4  12  27  49  76 108 146 191 249 297 371 436
#     4  12  26  44  74 106 146 191 248 302 358 428
#     4  10  21  42  64 101 137 186 247 303 351 423
#     4  12  29  49  78 111 148 187 232 305 377 442
#     4  11  26  43  62 101 148 194 238 297 363 426
#
# _framework density 23.606777999999998
#
# number of rings (size 3 to 8) (size 9 to 14) (size 15 to 20)
#    0.000    0.750    2.500    3.750    8.750    1.500 
#    0.000    0.000    0.000    0.000    0.000    0.000 
#    0.000    0.000    0.000    0.000    0.000    0.000 
#
# Total GULP energy -89341.021131 kJ/mol
# GULP energy per Si atom -5583.813821 kJ/mol
# Density = 2.355305 g / cm^3
# Si number density = 23.606778 Si / 1000 Ang^3
#
#
#
# Elastic Constant Matrix: (Units=GPa)
#
#
# Indices 1 2 3 4 5 6 
#
# 1 88.5510 13.6479 47.2258 17.0275 -16.6668 2.0907
# 2 13.6479 69.5216 13.7390 17.8040 -15.4214 -13.8447
# 3 47.2258 13.7390 135.3117 18.9771 -12.0343 -6.9356
# 4 17.0275 17.8040 18.9771 34.1662 -4.4325 0.7691
# 5 -16.6668 -15.4214 -12.0343 -4.4325 60.6071 -0.8368
# 6 2.0907 -13.8447 -6.9356 0.7691 -0.8368 42.6908
#
#
#
# Elastic Compliance Matrix: (Units=1/GPa)
#
#
# Indices 1 2 3 4 5 6 
#
# 1 0.015163 -0.000681 -0.004447 -0.004337 0.002775 -0.001553
# 2 -0.000681 0.019074 0.000319 -0.009388 0.004133 0.006521
# 3 -0.004447 0.000319 0.009506 -0.003204 0.000538 0.001934
# 4 -0.004337 -0.009388 -0.003204 0.037999 -0.001495 -0.004067
# 5 0.002775 0.004133 0.000538 -0.001495 0.018335 0.001678
# 6 -0.001553 0.006521 0.001934 -0.004067 0.001678 0.026036
#
#
# Mechanical properties :
#
#
# Convention : Reuss Voigt Hill
#
# Bulk Modulus (GPa) = 29.30374 49.17886 39.24130
# Shear Modulus (GPa) = 33.98896 42.07758 38.03327
#
# Velocity S-wave (km/s) = 3.79858 4.22647 4.01823
# Velocity P-wave (km/s) = 5.62843 6.68544 6.17958
#
# Compressibility (1/GPa) = 0.03412534
#
# Stress axis : x y z
#
# Youngs Moduli (GPa) = 65.95176 52.42660 105.19125
#
# Poissons Ratio (x) = 0.03570 0.46784
# Poissons Ratio (y) = 0.04491 -0.03360
# Poissons Ratio (z) = 0.29332 -0.01675
#
# Static dielectric constant tensor:
#      x y z
#    x 2.159090 0.035510 0.060980 
#    y 0.035510 1.907950 -0.008890 
#    z 0.060980 -0.008890 1.909550 
# 
# From -- ./inp_files/322925.got.cif
#   From: 2010.05.17/outbox.cif.g08.bks.cpg/sg2_162_cif.got.tgz:322925.got - 2010.06.03 11:33:40.
