data_PCOD9015621
_publ_section_title
;
Structure prediction by ZEFSAII (Michael W. Deem and Ramdas Pophale) SiO2 
 PCOD9015621
Probable space group: P -1
;
_chemical_formula_sum "Si O2"
_cell_formula_units_Z 16
_cell_length_a 7.092323
_cell_length_b 17.995570
_cell_length_c 7.619165
_cell_angle_alpha 109.794280
_cell_angle_beta 125.939411
_cell_angle_gamma 59.683872
_cell_volume 678.407975
_symmetry_space_group_name_H-M "P -1"
_symmetry_group_IT_number 2
_symmetry_cell_setting 'triclinic'
loop_
_space_group_symop_operation_xyz
x,y,z
-x,-y,-z
loop_
_atom_site_type_symbol
_atom_site_label
_atom_site_fract_x
_atom_site_fract_y
_atom_site_fract_z
Si Si1 0.965906 0.203565 0.068576
Si Si2 0.793967 0.387476 0.572808
Si Si3 0.477983 0.365753 0.073397
Si Si4 0.976855 0.668819 0.025424
Si Si5 0.975264 0.046616 0.334047
Si Si6 0.070789 0.503687 0.740985
Si Si7 0.857118 0.807448 0.478251
Si Si8 0.307200 0.921381 0.144554
O O1 0.712235 0.285027 0.057739
O O2 0.169234 0.182792 0.318470
O O3 0.873467 0.127529 0.938295
O O4 0.067240 0.236663 0.984385
O O5 0.586599 0.401909 0.323714
O O6 0.768130 0.366743 0.744214
O O7 0.883638 0.465291 0.697405
O O8 0.015759 0.294691 0.566009
O O9 0.267450 0.335072 0.013976
O O10 0.340563 0.438099 0.910785
O O11 0.022782 0.600501 0.840256
O O12 0.961080 0.143274 0.432737
O O13 0.222942 0.996989 0.304923
O O14 0.000000 0.000000 0.500000
O O15 0.756556 0.053354 0.075898
O O16 0.000000 0.500000 0.500000
O O17 0.594589 0.856691 0.277064
#
# Coordination Sequence:
#
# PCOD9015621 Si02
#       8
#     2   2   2   2   2   2   2   2
#     4  10  23  41  62  94 125 164 211 250 312 375
#     4  10  22  39  63  90 123 160 212 257 308 382
#     4  10  22  42  62  87 127 163 207 268 310 364
#     4  11  24  39  61  94 123 163 216 256 312 377
#     4  10  23  40  63  98 125 161 212 249 315 386
#     4  11  23  39  61  91 124 164 214 259 313 373
#     4  10  21  42  64  89 125 162 203 257 310 371
#     4  10  21  42  65  88 134 165 199 266 309 369
#
# _framework density 23.584627000000001
#
# number of rings (size 3 to 8) (size 9 to 14) (size 15 to 20)
#    0.000    1.750    0.000    4.875    1.750    6.500 
#    6.750    0.000    0.000    0.000    0.000    0.000 
#    0.000    0.000    0.000    0.000    0.000    0.000 
#
# Total GULP energy -89322.816127 kJ/mol
# GULP energy per Si atom -5582.676008 kJ/mol
# Density = 2.353095 g / cm^3
# Si number density = 23.584627 Si / 1000 Ang^3
#
#
#
# Elastic Constant Matrix: (Units=GPa)
#
#
# Indices 1 2 3 4 5 6 
#
# 1 48.1869 16.9245 22.4971 -15.9756 -2.5646 3.4712
# 2 16.9245 84.3989 25.1245 -8.9491 3.0740 -0.0676
# 3 22.4971 25.1245 164.0191 -30.2793 -2.0172 -2.7031
# 4 -15.9756 -8.9491 -30.2793 55.7116 5.1699 -0.8455
# 5 -2.5646 3.0740 -2.0172 5.1699 28.8311 -11.0386
# 6 3.4712 -0.0676 -2.7031 -0.8455 -11.0386 47.1779
#
#
#
# Elastic Compliance Matrix: (Units=1/GPa)
#
#
# Indices 1 2 3 4 5 6 
#
# 1 0.024948 -0.003916 -0.001838 0.005417 0.000910 -0.001636
# 2 -0.003916 0.013177 -0.001437 0.000396 -0.002017 -0.000240
# 3 -0.001838 -0.001437 0.007159 0.003127 0.000175 0.000640
# 4 0.005417 0.000396 0.003127 0.021577 -0.003456 -0.000641
# 5 0.000910 -0.002017 0.000175 -0.003456 0.039066 0.009019
# 6 -0.001636 -0.000240 0.000640 -0.000641 0.009019 0.023452
#
#
# Mechanical properties :
#
#
# Convention : Reuss Voigt Hill
#
# Bulk Modulus (GPa) = 32.35980 47.29968 39.82974
# Shear Modulus (GPa) = 32.45481 41.81470 37.13476
#
# Velocity S-wave (km/s) = 3.71361 4.21523 3.97234
# Velocity P-wave (km/s) = 5.66907 6.61738 6.16149
#
# Compressibility (1/GPa) = 0.03090254
#
# Stress axis : x y z
#
# Youngs Moduli (GPa) = 40.08319 75.89107 139.68565
#
# Poissons Ratio (x) = 0.29718 0.25673
# Poissons Ratio (y) = 0.15696 0.20072
# Poissons Ratio (z) = 0.07367 0.10905
#
# Static dielectric constant tensor:
#      x y z
#    x 1.951170 0.038590 -0.049060 
#    y 0.038590 2.030820 -0.065390 
#    z -0.049060 -0.065390 1.987370 
# 
# From -- ./inp_files/213151.got.cif
#   From: 2010.05.17/outbox.cif.g08.bks.cpg/sg2_107_cif.got.tgz:213151.got - 2010.06.03 11:33:40.
