data_PCOD9015587
_publ_section_title
;
Structure prediction by ZEFSAII (Michael W. Deem and Ramdas Pophale) SiO2 
 PCOD9015587
Probable space group: P -1
;
_chemical_formula_sum "Si O2"
_cell_formula_units_Z 14
_cell_length_a 25.118159
_cell_length_b 5.312931
_cell_length_c 12.271741
_cell_angle_alpha 133.971795
_cell_angle_beta 153.887461
_cell_angle_gamma 46.464799
_cell_volume 507.582271
_symmetry_space_group_name_H-M "P -1"
_symmetry_group_IT_number 2
_symmetry_cell_setting 'triclinic'
loop_
_space_group_symop_operation_xyz
x,y,z
-x,-y,-z
loop_
_atom_site_type_symbol
_atom_site_label
_atom_site_fract_x
_atom_site_fract_y
_atom_site_fract_z
Si Si1 0.416551 0.299423 0.014015
Si Si2 0.270420 0.418636 0.571730
Si Si3 0.190338 0.662701 0.146656
Si Si4 0.933796 0.194626 0.334207
Si Si5 0.326748 0.519480 0.129002
Si Si6 0.602388 0.774227 0.460053
Si Si7 0.971717 0.131764 0.799718
O O1 0.302177 0.424928 0.758851
O O2 0.392939 0.217984 0.074143
O O3 0.493488 0.613494 0.262866
O O4 0.500000 0.000000 0.000000
O O5 0.385258 0.354731 0.681024
O O6 0.173661 0.777568 0.465407
O O7 0.223377 0.051335 0.348049
O O8 0.254565 0.478579 0.097633
O O9 0.264450 0.421382 0.303979
O O10 0.041551 0.791244 0.895951
O O11 0.000000 0.500000 0.500000
O O12 0.788144 0.314032 0.110807
O O13 0.000000 0.000000 0.500000
O O14 0.957000 0.917707 0.196813
O O15 0.404556 0.814735 0.397234
O O16 0.000000 0.500000 0.000000
#
# Coordination Sequence:
#
# PCOD9015587 Si02
#       7
#     2   2   2   2   2   2   2
#     4  12  24  44  67  98 135 183 236 296 351 410
#     4  10  21  42  63  99 137 173 231 289 353 403
#     4   9  20  42  66  98 130 176 235 271 358 425
#     4  11  25  46  71 106 145 187 237 296 369 439
#     4  10  25  44  68  95 137 184 233 291 350 432
#     4  11  23  43  68  95 139 187 231 285 343 434
#     4   9  20  42  69 101 136 181 227 290 356 430
#
# _framework density 27.581731999999999
#
# number of rings (size 3 to 8) (size 9 to 14) (size 15 to 20)
#    0.000    1.714    1.429    2.571    4.000    2.286 
#   10.286    0.000    0.000    0.000    0.000    0.000 
#    0.000    0.000    0.000    0.000    0.000    0.000 
#
# Total GULP energy -78261.543767 kJ/mol
# GULP energy per Si atom -5590.110269 kJ/mol
# Density = 2.751895 g / cm^3
# Si number density = 27.581732 Si / 1000 Ang^3
#
#
#
# Elastic Constant Matrix: (Units=GPa)
#
#
# Indices 1 2 3 4 5 6 
#
# 1 126.4557 38.5404 25.4004 -0.1155 -46.4084 -35.2352
# 2 38.5404 129.4414 38.9654 -17.1536 -8.7815 -8.0128
# 3 25.4004 38.9654 115.8780 -3.8537 -20.8780 2.8146
# 4 -0.1155 -17.1536 -3.8537 39.4230 4.8632 1.9338
# 5 -46.4084 -8.7815 -20.8780 4.8632 45.0716 6.2232
# 6 -35.2352 -8.0128 2.8146 1.9338 6.2232 53.1630
#
#
#
# Elastic Compliance Matrix: (Units=1/GPa)
#
#
# Indices 1 2 3 4 5 6 
#
# 1 0.018043 -0.004258 0.000162 -0.004344 0.016983 0.009478
# 2 -0.004258 0.010207 -0.003084 0.004687 -0.004219 -0.000797
# 3 0.000162 -0.003084 0.010487 -0.000827 0.004711 -0.001434
# 4 -0.004344 0.004687 -0.000827 0.028250 -0.006663 -0.002376
# 5 0.016983 -0.004219 0.004711 -0.006663 0.040949 0.005820
# 6 0.009478 -0.000797 -0.001434 -0.002376 0.005820 0.024453
#
#
# Mechanical properties :
#
#
# Convention : Reuss Voigt Hill
#
# Bulk Modulus (GPa) = 41.02068 64.17638 52.59853
# Shear Modulus (GPa) = 32.28412 45.45613 38.87012
#
# Velocity S-wave (km/s) = 3.42495 4.06402 3.75810
# Velocity P-wave (km/s) = 5.52676 6.73350 6.15975
#
# Compressibility (1/GPa) = 0.02437795
#
# Stress axis : x y z
#
# Youngs Moduli (GPa) = 55.42416 97.97118 95.35217
#
# Poissons Ratio (x) = 0.41712 -0.01545
# Poissons Ratio (y) = 0.23597 0.29407
# Poissons Ratio (z) = -0.00898 0.30214
#
# Static dielectric constant tensor:
#      x y z
#    x 2.151720 -0.002480 0.020580 
#    y -0.002480 2.314560 -0.082290 
#    z 0.020580 -0.082290 2.164210 
# 
# From -- ./inp_files/323812.got.cif
#   From: 2010.05.17/outbox.cif.g08.bks.cpg/sg2_162_cif.got.tgz:323812.got - 2010.06.03 11:33:40.
