data_PCOD9015634
_publ_section_title
;
Structure prediction by ZEFSAII (Michael W. Deem and Ramdas Pophale) SiO2 
 PCOD9015634
Probable space group: P -1
;
_chemical_formula_sum "Si O2"
_cell_formula_units_Z 14
_cell_length_a 12.765770
_cell_length_b 13.346963
_cell_length_c 11.496859
_cell_angle_alpha 35.235964
_cell_angle_beta 38.719577
_cell_angle_gamma 33.384340
_cell_volume 591.376127
_symmetry_space_group_name_H-M "P -1"
_symmetry_group_IT_number 2
_symmetry_cell_setting 'triclinic'
loop_
_space_group_symop_operation_xyz
x,y,z
-x,-y,-z
loop_
_atom_site_type_symbol
_atom_site_label
_atom_site_fract_x
_atom_site_fract_y
_atom_site_fract_z
Si Si1 0.205758 0.168508 0.126947
Si Si2 0.142739 0.527681 0.678706
Si Si3 0.878879 0.120010 0.108662
Si Si4 0.187140 0.863147 0.265203
Si Si5 0.146398 0.460122 0.257904
Si Si6 0.550612 0.796166 0.580098
Si Si7 0.491413 0.080699 0.167580
O O1 0.178568 0.995854 0.256884
O O2 0.396087 0.088245 0.119849
O O3 0.019944 0.308847 0.241465
O O4 0.212295 0.312447 0.885061
O O5 0.451386 0.130502 0.617938
O O6 0.038098 0.538069 0.638112
O O7 0.272931 0.625129 0.447925
O O8 0.641238 0.215710 0.218497
O O9 0.976744 0.966519 0.280483
O O10 0.899369 0.312095 0.932201
O O11 0.000000 0.000000 0.000000
O O12 0.325361 0.892585 0.029509
O O13 0.238641 0.384124 0.378747
O O14 0.326374 0.285178 0.187250
O O15 0.500000 0.000000 0.500000
#
# Coordination Sequence:
#
# PCOD9015634 Si02
#       7
#     2   2   2   2   2   2   2
#     4  10  21  43  65  94 135 169 215 264 321 379
#     4  10  22  41  69  96 128 172 215 265 320 380
#     4  12  24  41  66  98 127 168 222 268 320 384
#     4  12  23  41  66 101 130 167 221 265 317 381
#     4  10  21  45  65  93 131 170 213 263 328 386
#     4  10  21  42  64  90 130 172 207 262 328 382
#     4  10  23  43  63  94 134 170 214 261 323 390
#
# _framework density 23.673597999999998
#
# number of rings (size 3 to 8) (size 9 to 14) (size 15 to 20)
#    0.000    1.429    1.429    5.571    0.000    0.571 
#    5.143    5.714    0.000    0.000    0.000    0.000 
#    0.000    0.000    0.000    0.000    0.000    0.000 
#
# Total GULP energy -78285.196190 kJ/mol
# GULP energy per Si atom -5591.799728 kJ/mol
# Density = 2.361972 g / cm^3
# Si number density = 23.673598 Si / 1000 Ang^3
#
#
#
# Elastic Constant Matrix: (Units=GPa)
#
#
# Indices 1 2 3 4 5 6 
#
# 1 149.3527 27.5562 49.0514 -5.8135 7.5098 8.6478
# 2 27.5562 83.0833 27.3303 0.5664 -3.7700 14.3470
# 3 49.0514 27.3303 127.5382 -26.3003 2.3634 8.2655
# 4 -5.8135 0.5664 -26.3003 40.9274 10.3165 -0.0338
# 5 7.5098 -3.7700 2.3634 10.3165 33.4226 -6.4165
# 6 8.6478 14.3470 8.2655 -0.0338 -6.4165 36.0304
#
#
#
# Elastic Compliance Matrix: (Units=1/GPa)
#
#
# Indices 1 2 3 4 5 6 
#
# 1 0.008032 -0.001720 -0.002622 -0.000017 -0.001999 -0.000997
# 2 -0.001720 0.014373 -0.002756 -0.002783 0.002239 -0.004282
# 3 -0.002622 -0.002756 0.011160 0.007625 -0.003130 -0.001383
# 4 -0.000017 -0.002783 0.007625 0.032215 -0.011295 -0.002618
# 5 -0.001999 0.002239 -0.003130 -0.011295 0.035604 0.006636
# 6 -0.000997 -0.004282 -0.001383 -0.002618 0.006636 0.031196
#
#
# Mechanical properties :
#
#
# Convention : Reuss Voigt Hill
#
# Bulk Modulus (GPa) = 51.63135 63.09445 57.36290
# Shear Modulus (GPa) = 32.63032 39.14517 35.88775
#
# Velocity S-wave (km/s) = 3.71663 4.07078 3.89773
# Velocity P-wave (km/s) = 6.34624 6.98604 6.67381
#
# Compressibility (1/GPa) = 0.01936808
#
# Stress axis : x y z
#
# Youngs Moduli (GPa) = 124.50651 69.57394 89.60476
#
# Poissons Ratio (x) = 0.11964 0.23498
# Poissons Ratio (y) = 0.21410 0.24699
# Poissons Ratio (z) = 0.32651 0.19178
#
# Static dielectric constant tensor:
#      x y z
#    x 1.249960 0.373410 1.046100 
#    y 0.373410 1.687850 -0.493360 
#    z 1.046100 -0.493360 0.553640 
# 
# From -- ./inp_files/530957.got.cif
#   From: 2010.05.17/outbox.cif.g08.bks.cpg/sg2_266_cif.got.tgz:530957.got - 2010.06.03 11:33:40.
