data_PCOD9015745
_publ_section_title
;
Structure prediction by ZEFSAII (Michael W. Deem and Ramdas Pophale) SiO2 
 PCOD9015745
Probable space group: P -1
;
_chemical_formula_sum "Si O2"
_cell_formula_units_Z 16
_cell_length_a 8.846870
_cell_length_b 9.518986
_cell_length_c 25.503444
_cell_angle_alpha 50.646080
_cell_angle_beta 30.237260
_cell_angle_gamma 47.604395
_cell_volume 791.012895
_symmetry_space_group_name_H-M "P -1"
_symmetry_group_IT_number 2
_symmetry_cell_setting 'triclinic'
loop_
_space_group_symop_operation_xyz
x,y,z
-x,-y,-z
loop_
_atom_site_type_symbol
_atom_site_label
_atom_site_fract_x
_atom_site_fract_y
_atom_site_fract_z
Si Si1 0.304495 0.256744 0.256074
Si Si2 0.560799 0.486015 0.422873
Si Si3 0.377558 0.861440 0.196441
Si Si4 0.209474 0.034871 0.882274
Si Si5 0.624198 0.572700 0.094339
Si Si6 0.572806 0.118095 0.998958
Si Si7 0.627707 0.079639 0.604487
Si Si8 0.685951 0.852582 0.433546
O O1 0.462012 0.412634 0.187703
O O2 0.930042 0.359352 0.335229
O O3 0.489451 0.149441 0.175626
O O4 0.402502 0.087365 0.309614
O O5 0.500000 0.500000 0.500000
O O6 0.476329 0.714055 0.382658
O O7 0.352885 0.357588 0.493690
O O8 0.634003 0.812960 0.178279
O O9 0.491229 0.714349 0.149281
O O10 0.041744 0.860583 0.319377
O O11 0.399032 0.056015 0.114982
O O12 0.949796 0.072047 0.905506
O O13 0.000000 0.000000 0.000000
O O14 0.542914 0.667532 0.038854
O O15 0.000000 0.500000 0.000000
O O16 0.500000 0.000000 0.000000
O O17 0.457767 0.097611 0.594414
O O18 0.000000 0.000000 0.500000
O O19 0.500000 0.000000 0.500000
#
# Coordination Sequence:
#
# PCOD9015745 Si02
#       8
#     2   2   2   2   2   2   2   2
#     4  12  23  40  72  95 128 179 228 274 339 387
#     4  10  21  42  64  99 131 169 230 276 327 399
#     4  10  22  40  64  92 135 176 206 277 347 391
#     4  10  22  42  65  94 136 174 218 272 336 401
#     4  11  23  39  64 100 131 167 230 275 323 408
#     4   9  20  39  64  95 127 168 219 269 321 395
#     4  11  24  42  71  95 131 179 232 280 328 400
#     4  11  23  42  67  97 139 169 220 282 340 400
#
# _framework density 20.227229999999999
#
# number of rings (size 3 to 8) (size 9 to 14) (size 15 to 20)
#    0.000    1.500    2.500    4.500    7.000    0.000 
#    0.000    7.500    2.750    0.000    0.000    0.000 
#    0.000    0.000    0.000    0.000    0.000    0.000 
#
# Total GULP energy -89102.061075 kJ/mol
# GULP energy per Si atom -5568.878817 kJ/mol
# Density = 2.018119 g / cm^3
# Si number density = 20.227230 Si / 1000 Ang^3
#
#
#
# Elastic Constant Matrix: (Units=GPa)
#
#
# Indices 1 2 3 4 5 6 
#
# 1 100.1269 48.3206 54.3704 5.8853 -31.6230 10.8126
# 2 48.3206 136.3522 72.1090 3.1421 -14.0849 3.9494
# 3 54.3704 72.1090 170.2253 7.8562 -24.9473 -2.0364
# 4 5.8853 3.1421 7.8562 68.2669 -14.6807 2.6419
# 5 -31.6230 -14.0849 -24.9473 -14.6807 58.3626 2.5347
# 6 10.8126 3.9494 -2.0364 2.6419 2.5347 34.6515
#
#
#
# Elastic Compliance Matrix: (Units=1/GPa)
#
#
# Indices 1 2 3 4 5 6 
#
# 1 0.015804 -0.003301 -0.002719 0.000821 0.007041 -0.005293
# 2 -0.003301 0.010229 -0.003394 0.000055 -0.000744 -0.000285
# 3 -0.002719 -0.003394 0.008383 -0.000399 0.001118 0.001676
# 4 0.000821 0.000055 -0.000399 0.015613 0.004293 -0.001790
# 5 0.007041 -0.000744 0.001118 0.004293 0.022502 -0.004020
# 6 -0.005293 -0.000285 0.001676 -0.001790 -0.004020 0.031072
#
#
# Mechanical properties :
#
#
# Convention : Reuss Voigt Hill
#
# Bulk Modulus (GPa) = 64.15128 84.03383 74.09255
# Shear Modulus (GPa) = 39.17730 47.71648 43.44689
#
# Velocity S-wave (km/s) = 4.40575 4.86225 4.63962
# Velocity P-wave (km/s) = 7.59375 8.55319 8.08771
#
# Compressibility (1/GPa) = 0.01558815
#
# Stress axis : x y z
#
# Youngs Moduli (GPa) = 63.27675 97.76565 119.29174
#
# Poissons Ratio (x) = 0.32273 0.32432
# Poissons Ratio (y) = 0.20888 0.40483
# Poissons Ratio (z) = 0.17203 0.33178
#
# Static dielectric constant tensor:
#      x y z
#    x 1.875950 -0.068690 0.019330 
#    y -0.068690 1.820810 -0.049650 
#    z 0.019330 -0.049650 1.760740 
# 
# From -- ./inp_files/218515.got.cif
#   From: 2010.05.17/outbox.cif.g08.bks.cpg/sg2_110_cif.got.tgz:218515.got - 2010.06.03 11:33:40.
