data_PCOD9015416
_publ_section_title
;
Structure prediction by ZEFSAII (Michael W. Deem and Ramdas Pophale) SiO2 
 PCOD9015416
Probable space group: P -1
;
_chemical_formula_sum "Si O2"
_cell_formula_units_Z 16
_cell_length_a 8.977763
_cell_length_b 7.192746
_cell_length_c 16.251810
_cell_angle_alpha 102.637108
_cell_angle_beta 51.670643
_cell_angle_gamma 128.145129
_cell_volume 624.071202
_symmetry_space_group_name_H-M "P -1"
_symmetry_group_IT_number 2
_symmetry_cell_setting 'triclinic'
loop_
_space_group_symop_operation_xyz
x,y,z
-x,-y,-z
loop_
_atom_site_type_symbol
_atom_site_label
_atom_site_fract_x
_atom_site_fract_y
_atom_site_fract_z
Si Si1 0.772103 0.721737 0.691987
Si Si2 0.149870 0.662736 0.612815
Si Si3 0.483852 0.085601 0.351137
Si Si4 0.037032 0.648454 0.880301
Si Si5 0.260501 0.875203 0.993401
Si Si6 0.746237 0.152867 0.747451
Si Si7 0.642025 0.587554 0.548478
Si Si8 0.722883 0.716359 0.892768
O O1 0.011563 0.740192 0.618968
O O2 0.833663 0.988262 0.694481
O O3 0.599026 0.550448 0.659423
O O4 0.660658 0.633012 0.812151
O O5 0.377916 0.883188 0.609850
O O6 0.217331 0.522230 0.521529
O O7 0.960140 0.435851 0.718239
O O8 0.710697 0.288313 0.231991
O O9 0.346937 0.857122 0.314610
O O10 0.308163 0.152224 0.439387
O O11 0.092619 0.786658 0.961435
O O12 0.956025 0.752420 0.851675
O O13 0.831587 0.366546 0.948614
O O14 0.527903 0.028952 0.875265
O O15 0.760748 0.959728 0.923895
O O16 0.500000 0.500000 0.500000
O O17 0.500000 0.500000 0.000000
#
# Coordination Sequence:
#
# PCOD9015416 Si02
#       8
#     2   2   2   2   2   2   2   2
#     4  11  23  38  64 102 131 167 226 275 331 402
#     4  11  21  42  70  93 133 174 218 285 343 386
#     4   9  20  40  63  93 131 169 220 275 330 396
#     4  10  21  42  62  90 136 177 227 274 323 401
#     4  10  23  40  65  93 131 187 223 266 336 401
#     4  10  23  41  64  97 133 176 223 274 330 408
#     4   9  21  43  70  95 129 177 223 280 340 401
#     4  12  24  37  63 100 138 174 221 278 331 401
#
# _framework density 25.638100000000001
#
# number of rings (size 3 to 8) (size 9 to 14) (size 15 to 20)
#    0.000    1.750    1.250    2.250    1.750    4.000 
#    0.000   10.000    0.000    8.250    0.000    0.000 
#    0.000    0.000    0.000    0.000    0.000    0.000 
#
# Total GULP energy -89267.076620 kJ/mol
# GULP energy per Si atom -5579.192289 kJ/mol
# Density = 2.557975 g / cm^3
# Si number density = 25.638100 Si / 1000 Ang^3
#
#
#
# Elastic Constant Matrix: (Units=GPa)
#
#
# Indices 1 2 3 4 5 6 
#
# 1 121.1067 31.7193 61.9869 18.8622 10.1742 1.4780
# 2 31.7193 79.0156 49.0074 24.3209 7.6099 11.7767
# 3 61.9869 49.0074 131.2786 33.1842 19.2384 -0.7953
# 4 18.8622 24.3209 33.1842 43.2746 -0.9535 8.5969
# 5 10.1742 7.6099 19.2384 -0.9535 57.8546 18.5059
# 6 1.4780 11.7767 -0.7953 8.5969 18.5059 39.2472
#
#
#
# Elastic Compliance Matrix: (Units=1/GPa)
#
#
# Indices 1 2 3 4 5 6 
#
# 1 0.011048 -0.001484 -0.004451 -0.000624 -0.000356 0.000244
# 2 -0.001484 0.018624 -0.005244 -0.004757 0.001115 -0.005123
# 3 -0.004451 -0.005244 0.014415 -0.007528 -0.005444 0.006249
# 4 -0.000624 -0.004757 -0.007528 0.033824 0.006772 -0.009304
# 5 -0.000356 0.001115 -0.005444 0.006772 0.023240 -0.012873
# 6 0.000244 -0.005123 0.006249 -0.009304 -0.012873 0.035242
#
#
# Mechanical properties :
#
#
# Convention : Reuss Voigt Hill
#
# Bulk Modulus (GPa) = 46.02097 68.53647 57.27872
# Shear Modulus (GPa) = 30.12116 40.65442 35.38779
#
# Velocity S-wave (km/s) = 3.43134 3.98641 3.71924
# Velocity P-wave (km/s) = 5.80414 6.92668 6.39011
#
# Compressibility (1/GPa) = 0.02172923
#
# Stress axis : x y z
#
# Youngs Moduli (GPa) = 90.51060 53.69392 69.37029
#
# Poissons Ratio (x) = 0.07969 0.30879
# Poissons Ratio (y) = 0.13434 0.36376
# Poissons Ratio (z) = 0.40289 0.28156
#
# Static dielectric constant tensor:
#      x y z
#    x 2.131780 0.036530 -0.002700 
#    y 0.036530 1.981510 -0.017310 
#    z -0.002700 -0.017310 2.102660 
# 
# From -- ./inp_files/201907.got.cif
#   From: 2010.05.17/outbox.cif.g08.bks.cpg/sg2_101_cif.got.tgz:201907.got - 2010.06.03 11:33:40.
