data_PCOD9015637
_publ_section_title
;
Structure prediction by ZEFSAII (Michael W. Deem and Ramdas Pophale) SiO2 
 PCOD9015637
Probable space group: P -1
;
_chemical_formula_sum "Si O2"
_cell_formula_units_Z 16
_cell_length_a 9.446930
_cell_length_b 9.623926
_cell_length_c 11.709788
_cell_angle_alpha 60.570758
_cell_angle_beta 63.048446
_cell_angle_gamma 66.994014
_cell_volume 806.917695
_symmetry_space_group_name_H-M "P -1"
_symmetry_group_IT_number 2
_symmetry_cell_setting 'triclinic'
loop_
_space_group_symop_operation_xyz
x,y,z
-x,-y,-z
loop_
_atom_site_type_symbol
_atom_site_label
_atom_site_fract_x
_atom_site_fract_y
_atom_site_fract_z
Si Si1 0.102566 0.116563 0.352930
Si Si2 0.996011 0.764334 0.128631
Si Si3 0.417966 0.083035 0.115353
Si Si4 0.778989 0.650352 0.074607
Si Si5 0.005913 0.447790 0.386475
Si Si6 0.339117 0.516140 0.620194
Si Si7 0.252573 0.933540 0.865682
Si Si8 0.824416 0.279197 0.221783
O O1 0.276653 0.031766 0.266687
O O2 0.103828 0.269742 0.377772
O O3 0.990051 0.192217 0.256558
O O4 0.000000 0.000000 0.500000
O O5 0.914727 0.734778 0.048104
O O6 0.057354 0.591711 0.236315
O O7 0.846037 0.883199 0.198678
O O8 0.139512 0.861004 0.026326
O O9 0.570770 0.081007 0.141645
O O10 0.318666 0.255951 0.031886
O O11 0.500000 0.000000 0.000000
O O12 0.661920 0.634874 0.232356
O O13 0.159664 0.540726 0.897709
O O14 0.000000 0.500000 0.500000
O O15 0.820036 0.460822 0.409037
O O16 0.500000 0.500000 0.500000
O O17 0.307575 0.674676 0.647948
O O18 0.243822 0.823710 0.804248
#
# Coordination Sequence:
#
# PCOD9015637 Si02
#       8
#     2   2   2   2   2   2   2   2
#     4  11  26  46  68  94 132 180 221 268 334 395
#     4  10  21  42  64  90 132 169 213 256 335 395
#     4  12  26  42  65 102 135 168 220 284 327 380
#     4   9  20  42  65  90 127 173 213 267 324 393
#     4  10  23  41  65  93 125 174 220 261 322 398
#     4   8  18  37  61  90 123 164 212 258 320 378
#     4  11  24  38  64 100 126 166 211 274 325 386
#     4   9  22  41  66  92 124 173 217 260 325 395
#
# _framework density 19.828541000000001
#
# number of rings (size 3 to 8) (size 9 to 14) (size 15 to 20)
#    0.750    1.250    2.500    0.750    5.250    5.500 
#    0.000    0.625    0.000    0.000    0.000    0.000 
#    0.000    0.000    0.000    0.000    0.000    0.000 
#
# Total GULP energy -89089.006095 kJ/mol
# GULP energy per Si atom -5568.062881 kJ/mol
# Density = 1.978341 g / cm^3
# Si number density = 19.828541 Si / 1000 Ang^3
#
#
#
# Elastic Constant Matrix: (Units=GPa)
#
#
# Indices 1 2 3 4 5 6 
#
# 1 78.7510 33.0268 32.9633 18.2628 0.9860 5.7981
# 2 33.0268 86.4874 39.4300 0.5221 -4.1486 13.3783
# 3 32.9633 39.4300 95.9442 20.5309 -15.0884 -3.8617
# 4 18.2628 0.5221 20.5309 34.7646 -3.6662 3.5147
# 5 0.9860 -4.1486 -15.0884 -3.6662 40.0559 10.8560
# 6 5.7981 13.3783 -3.8617 3.5147 10.8560 31.4683
#
#
#
# Elastic Compliance Matrix: (Units=1/GPa)
#
#
# Indices 1 2 3 4 5 6 
#
# 1 0.018180 -0.006106 -0.002356 -0.008478 -0.002998 0.000938
# 2 -0.006106 0.018878 -0.007465 0.008601 0.002713 -0.009714
# 3 -0.002356 -0.007465 0.016947 -0.008862 0.003362 0.005518
# 4 -0.008478 0.008601 -0.008862 0.039626 0.003806 -0.008921
# 5 -0.002998 0.002713 0.003362 0.003806 0.029896 -0.010927
# 6 0.000938 -0.009714 0.005518 -0.008921 -0.010927 0.041178
#
#
# Mechanical properties :
#
#
# Convention : Reuss Voigt Hill
#
# Bulk Modulus (GPa) = 45.14513 52.44700 48.79606
# Shear Modulus (GPa) = 24.51648 31.64193 28.07921
#
# Velocity S-wave (km/s) = 3.52010 3.99905 3.76719
# Velocity P-wave (km/s) = 6.27205 6.91599 6.60188
#
# Compressibility (1/GPa) = 0.02215079
#
# Stress axis : x y z
#
# Youngs Moduli (GPa) = 55.00630 52.97086 59.00604
#
# Poissons Ratio (x) = 0.32343 0.13902
# Poissons Ratio (y) = 0.33586 0.44050
# Poissons Ratio (z) = 0.12960 0.39545
#
# Static dielectric constant tensor:
#      x y z
#    x 1.651830 0.003070 -0.001670 
#    y 0.003070 1.771120 0.031830 
#    z -0.001670 0.031830 1.808390 
# 
# From -- ./inp_files/389274.got.cif
#   From: 2010.05.17/outbox.cif.g08.bks.cpg/sg2_195_cif.got.tgz:389274.got - 2010.06.03 11:33:40.
