data_PCOD9015868
_publ_section_title
;
Structure prediction by ZEFSAII (Michael W. Deem and Ramdas Pophale) SiO2 
 PCOD9015868
Probable space group: P -1
;
_chemical_formula_sum "Si O2"
_cell_formula_units_Z 16
_cell_length_a 5.677435
_cell_length_b 11.520275
_cell_length_c 11.633081
_cell_angle_alpha 61.576116
_cell_angle_beta 102.722303
_cell_angle_gamma 81.814292
_cell_volume 625.029540
_symmetry_space_group_name_H-M "P -1"
_symmetry_group_IT_number 2
_symmetry_cell_setting 'triclinic'
loop_
_space_group_symop_operation_xyz
x,y,z
-x,-y,-z
loop_
_atom_site_type_symbol
_atom_site_label
_atom_site_fract_x
_atom_site_fract_y
_atom_site_fract_z
Si Si1 0.396435 0.402123 0.614491
Si Si2 0.613624 0.870354 0.705491
Si Si3 0.958160 0.062201 0.146123
Si Si4 0.957246 0.620244 0.600333
Si Si5 0.235207 0.119456 0.922393
Si Si6 0.766247 0.557558 0.860286
Si Si7 0.834365 0.907615 0.481210
Si Si8 0.536594 0.316191 0.898485
O O1 0.500000 0.500000 0.500000
O O2 0.267078 0.329096 0.541900
O O3 0.598540 0.315337 0.767849
O O4 0.177508 0.500870 0.623179
O O5 0.633465 0.713785 0.813525
O O6 0.644018 0.868953 0.571130
O O7 0.855689 0.917013 0.746772
O O8 0.367476 0.984360 0.671355
O O9 0.908036 0.914612 0.189308
O O10 0.715195 0.194420 0.049648
O O11 0.102345 0.085714 0.035696
O O12 0.871339 0.570758 0.735831
O O13 0.034537 0.759980 0.552574
O O14 0.284668 0.265739 0.882251
O O15 0.500000 0.000000 0.000000
O O16 0.582462 0.458202 0.881464
O O17 0.000000 0.500000 0.000000
O O18 0.000000 0.000000 0.500000
#
# Coordination Sequence:
#
# PCOD9015868 Si02
#       8
#     2   2   2   2   2   2   2   2
#     4  11  24  43  69  97 139 179 232 299 343 422
#     4  10  23  42  66  96 134 185 224 283 352 414
#     4  10  21  42  65  94 137 171 229 283 356 424
#     4  10  25  44  67 102 134 185 239 281 362 414
#     4   9  22  40  61  94 129 174 226 283 337 420
#     4  11  22  44  70 103 148 184 227 294 356 429
#     4  10  24  43  66  96 133 180 238 284 334 416
#     4  11  23  38  68 100 133 178 226 282 359 415
#
# _framework density 25.598790000000001
#
# number of rings (size 3 to 8) (size 9 to 14) (size 15 to 20)
#    0.000    1.750    2.500    0.000    3.500    7.000 
#    0.000    1.250    0.000    0.000    0.000    0.000 
#    0.000    0.000    0.000    0.000    0.000    0.000 
#
# Total GULP energy -89289.735465 kJ/mol
# GULP energy per Si atom -5580.608467 kJ/mol
# Density = 2.554053 g / cm^3
# Si number density = 25.598790 Si / 1000 Ang^3
#
#
#
# Elastic Constant Matrix: (Units=GPa)
#
#
# Indices 1 2 3 4 5 6 
#
# 1 55.0543 47.1846 25.0202 -6.3823 -3.3388 15.1846
# 2 47.1846 143.5505 39.8248 -8.7308 -0.6902 32.6894
# 3 25.0202 39.8248 118.1463 -2.3273 7.6345 -1.1980
# 4 -6.3823 -8.7308 -2.3273 38.2084 -0.4112 -6.1452
# 5 -3.3388 -0.6902 7.6345 -0.4112 43.8046 4.8446
# 6 15.1846 32.6894 -1.1980 -6.1452 4.8446 60.2949
#
#
#
# Elastic Compliance Matrix: (Units=1/GPa)
#
#
# Indices 1 2 3 4 5 6 
#
# 1 0.027127 -0.007088 -0.003532 0.002235 0.002932 -0.003067
# 2 -0.007088 0.010895 -0.002235 0.000507 0.000485 -0.004153
# 3 -0.003532 -0.002235 0.010140 -0.000109 -0.002347 0.002480
# 4 0.002235 0.000507 -0.000109 0.026961 0.000242 0.001889
# 5 0.002932 0.000485 -0.002347 0.000242 0.023796 -0.002935
# 6 -0.003067 -0.004153 0.002480 0.001889 -0.002935 0.020087
#
#
# Mechanical properties :
#
#
# Convention : Reuss Voigt Hill
#
# Bulk Modulus (GPa) = 44.54012 60.09006 52.31509
# Shear Modulus (GPa) = 32.85163 42.10969 37.48066
#
# Velocity S-wave (km/s) = 3.58624 4.06024 3.83058
# Velocity P-wave (km/s) = 5.88092 6.74578 6.32814
#
# Compressibility (1/GPa) = 0.02245167
#
# Stress axis : x y z
#
# Youngs Moduli (GPa) = 36.86405 91.78450 98.61896
#
# Poissons Ratio (x) = 0.65059 0.34831
# Poissons Ratio (y) = 0.26130 0.22040
# Poissons Ratio (z) = 0.13020 0.20513
#
# Static dielectric constant tensor:
#      x y z
#    x 2.074300 -0.008370 0.026250 
#    y -0.008370 2.217830 0.100480 
#    z 0.026250 0.100480 2.159540 
# 
# From -- ./inp_files/363925.got.cif
#   From: 2010.05.17/outbox.cif.g08.bks.cpg/sg2_182_cif.got.tgz:363925.got - 2010.06.03 11:33:40.
