data_PCOD9015374
_publ_section_title
;
Structure prediction by ZEFSAII (Michael W. Deem and Ramdas Pophale) SiO2 
 PCOD9015374
Probable space group: P -1
;
_chemical_formula_sum "Si O2"
_cell_formula_units_Z 16
_cell_length_a 8.016242
_cell_length_b 13.052038
_cell_length_c 8.784657
_cell_angle_alpha 84.174215
_cell_angle_beta 52.427564
_cell_angle_gamma 103.255863
_cell_volume 673.487550
_symmetry_space_group_name_H-M "P -1"
_symmetry_group_IT_number 2
_symmetry_cell_setting 'triclinic'
loop_
_space_group_symop_operation_xyz
x,y,z
-x,-y,-z
loop_
_atom_site_type_symbol
_atom_site_label
_atom_site_fract_x
_atom_site_fract_y
_atom_site_fract_z
Si Si1 0.865259 0.380089 0.412536
Si Si2 0.949244 0.155511 0.975456
Si Si3 0.361699 0.093310 0.835472
Si Si4 0.611363 0.517760 0.596844
Si Si5 0.821648 0.208080 0.720753
Si Si6 0.280132 0.240536 0.346915
Si Si7 0.599825 0.182116 0.392281
Si Si8 0.662291 0.613053 0.969794
O O1 0.837820 0.493457 0.448381
O O2 0.841846 0.314697 0.593070
O O3 0.672674 0.299990 0.420815
O O4 0.092569 0.389868 0.198210
O O5 0.820815 0.174282 0.192371
O O6 0.813736 0.029384 0.015296
O O7 0.906943 0.224340 0.845557
O O8 0.201384 0.163896 0.878785
O O9 0.561393 0.130753 0.843948
O O10 0.488107 0.096593 0.602808
O O11 0.500000 0.500000 0.500000
O O12 0.659349 0.638074 0.623850
O O13 0.437966 0.413970 0.803880
O O14 0.014438 0.173253 0.534260
O O15 0.426598 0.180083 0.355286
O O16 0.339805 0.278524 0.133427
O O17 0.500000 0.500000 0.000000
#
# Coordination Sequence:
#
# PCOD9015374 Si02
#       8
#     2   2   2   2   2   2   2   2
#     4  10  23  40  62  91 125 170 216 254 310 373
#     4  11  23  42  70  95 126 169 206 263 326 378
#     4  10  23  45  66  97 130 160 212 261 321 393
#     4  11  22  40  63  88 126 171 210 264 309 360
#     4  10  22  42  68  93 130 165 211 263 314 381
#     4  10  21  42  61  92 131 167 212 260 317 370
#     4  11  22  41  63  95 130 165 210 263 315 379
#     4   9  22  39  56  85 121 161 214 258 308 367
#
# _framework density 23.756933
#
# number of rings (size 3 to 8) (size 9 to 14) (size 15 to 20)
#    0.000    1.750    2.500    0.750    1.750    8.000 
#    6.750    0.625    0.000    0.000    0.000    0.000 
#    0.000    0.000    0.000    0.000    0.000    0.000 
#
# Total GULP energy -89347.980953 kJ/mol
# GULP energy per Si atom -5584.248810 kJ/mol
# Density = 2.370286 g / cm^3
# Si number density = 23.756933 Si / 1000 Ang^3
#
#
#
# Elastic Constant Matrix: (Units=GPa)
#
#
# Indices 1 2 3 4 5 6 
#
# 1 183.0034 -7.2144 2.0029 27.7221 -23.8651 21.0499
# 2 -7.2144 47.4819 17.1908 -1.9784 -3.3613 -2.4086
# 3 2.0029 17.1908 127.6742 -14.1488 25.0121 -17.5499
# 4 27.7221 -1.9784 -14.1488 34.1766 -4.5767 0.2364
# 5 -23.8651 -3.3613 25.0121 -4.5767 50.2117 -14.4021
# 6 21.0499 -2.4086 -17.5499 0.2364 -14.4021 38.1199
#
#
#
# Elastic Compliance Matrix: (Units=1/GPa)
#
#
# Indices 1 2 3 4 5 6 
#
# 1 0.007333 0.001650 -0.002143 -0.006311 0.003011 -0.003755
# 2 0.001650 0.023059 -0.004059 -0.001104 0.004342 0.000325
# 3 -0.002143 -0.004059 0.010481 0.005154 -0.004935 0.003855
# 4 -0.006311 -0.001104 0.005154 0.036302 -0.000826 0.005251
# 5 0.003011 0.004342 -0.004935 -0.000826 0.025764 0.006079
# 6 -0.003755 0.000325 0.003855 0.005251 0.006079 0.032366
#
#
# Mechanical properties :
#
#
# Convention : Reuss Voigt Hill
#
# Bulk Modulus (GPa) = 31.47740 42.45755 36.96748
# Shear Modulus (GPa) = 32.25856 47.58033 39.91945
#
# Velocity S-wave (km/s) = 3.68891 4.48012 4.10363
# Velocity P-wave (km/s) = 5.60559 6.68374 6.16827
#
# Compressibility (1/GPa) = 0.03176882
#
# Stress axis : x y z
#
# Youngs Moduli (GPa) = 136.36226 43.36755 95.41508
#
# Poissons Ratio (x) = -0.07154 0.20443
# Poissons Ratio (y) = -0.22495 0.38729
# Poissons Ratio (z) = 0.29216 0.17603
#
# Static dielectric constant tensor:
#      x y z
#    x 1.965500 -0.010510 0.008480 
#    y -0.010510 1.876920 0.027730 
#    z 0.008480 0.027730 1.932150 
# 
# From -- ./inp_files/206680.got.cif
#   From: 2010.05.17/outbox.cif.g08.bks.cpg/sg2_104_cif.got.tgz:206680.got - 2010.06.03 11:33:40.
