data_PCOD9015488
_publ_section_title
;
Structure prediction by ZEFSAII (Michael W. Deem and Ramdas Pophale) SiO2 
 PCOD9015488
Probable space group: P -1
;
_chemical_formula_sum "Si O2"
_cell_formula_units_Z 14
_cell_length_a 13.952963
_cell_length_b 6.190068
_cell_length_c 8.390406
_cell_angle_alpha 92.347171
_cell_angle_beta 115.009003
_cell_angle_gamma 74.653947
_cell_volume 631.227742
_symmetry_space_group_name_H-M "P -1"
_symmetry_group_IT_number 2
_symmetry_cell_setting 'triclinic'
loop_
_space_group_symop_operation_xyz
x,y,z
-x,-y,-z
loop_
_atom_site_type_symbol
_atom_site_label
_atom_site_fract_x
_atom_site_fract_y
_atom_site_fract_z
Si Si1 0.925918 0.149400 0.088218
Si Si2 0.404249 0.638671 0.555010
Si Si3 0.934480 0.847529 0.360610
Si Si4 0.900999 0.627161 0.621879
Si Si5 0.248394 0.506053 0.230871
Si Si6 0.432408 0.134432 0.164421
Si Si7 0.454558 0.327054 0.859387
O O1 0.010046 0.257817 0.241714
O O2 0.882120 0.989355 0.173545
O O3 0.832044 0.347961 0.951437
O O4 0.000000 0.000000 0.000000
O O5 0.500000 0.500000 0.500000
O O6 0.298407 0.682239 0.370075
O O7 0.454017 0.821352 0.683648
O O8 0.383634 0.475119 0.676002
O O9 0.859732 0.761222 0.432966
O O10 0.028857 0.626449 0.371523
O O11 0.000000 0.000000 0.500000
O O12 0.813343 0.612045 0.690835
O O13 0.339661 0.304715 0.206052
O O14 0.452686 0.866998 0.171435
O O15 0.408237 0.203633 0.963867
O O16 0.500000 0.500000 0.000000
#
# Coordination Sequence:
#
# PCOD9015488 Si02
#       7
#     2   2   2   2   2   2   2
#     4  11  22  41  63  91 131 171 210 267 316 377
#     4   9  20  39  61  90 127 160 203 263 314 380
#     4   9  20  41  65  82 123 176 205 264 325 363
#     4  10  21  42  63  89 128 168 215 267 315 374
#     4  11  22  39  64  99 125 166 222 257 318 382
#     4   9  20  41  67  91 127 168 202 265 319 376
#     4   9  18  41  66  87 128 162 205 262 322 371
#
# _framework density 22.179002000000001
#
# number of rings (size 3 to 8) (size 9 to 14) (size 15 to 20)
#    0.000    2.286    1.429    0.429    0.000    2.286 
#   18.000    0.000   12.571    0.000    0.000    0.000 
#    0.000    0.000    0.000    0.000    0.000    0.000 
#
# Total GULP energy -78090.662528 kJ/mol
# GULP energy per Si atom -5577.904466 kJ/mol
# Density = 2.212852 g / cm^3
# Si number density = 22.179002 Si / 1000 Ang^3
#
#
#
# Elastic Constant Matrix: (Units=GPa)
#
#
# Indices 1 2 3 4 5 6 
#
# 1 82.2350 29.6436 50.8804 -20.2021 -21.7817 4.2108
# 2 29.6436 128.1771 29.4774 12.8214 -8.8551 -8.3800
# 3 50.8804 29.4774 102.8153 -2.0532 -18.8682 3.9618
# 4 -20.2021 12.8214 -2.0532 29.8302 7.3839 -10.7553
# 5 -21.7817 -8.8551 -18.8682 7.3839 31.9453 -2.7026
# 6 4.2108 -8.3800 3.9618 -10.7553 -2.7026 21.3897
#
#
#
# Elastic Compliance Matrix: (Units=1/GPa)
#
#
# Indices 1 2 3 4 5 6 
#
# 1 0.026744 -0.004961 -0.010423 0.019905 0.006573 0.005561
# 2 -0.004961 0.009941 -0.000420 -0.007413 0.000952 0.001342
# 3 -0.010423 -0.000420 0.015677 -0.008413 0.003576 -0.004795
# 4 0.019905 -0.007413 -0.008413 0.059557 -0.005186 0.024027
# 5 0.006573 0.000952 0.003576 -0.005186 0.039427 0.000791
# 6 0.005561 0.001342 -0.004795 0.024027 0.000791 0.059252
#
#
# Mechanical properties :
#
#
# Convention : Reuss Voigt Hill
#
# Bulk Modulus (GPa) = 48.18405 59.24781 53.71593
# Shear Modulus (GPa) = 20.07038 30.18144 25.12591
#
# Velocity S-wave (km/s) = 3.01146 3.69292 3.36946
# Velocity P-wave (km/s) = 5.81929 6.70485 6.27770
#
# Compressibility (1/GPa) = 0.02075375
#
# Stress axis : x y z
#
# Youngs Moduli (GPa) = 37.39199 100.59639 63.78601
#
# Poissons Ratio (x) = 0.49910 0.66483
# Poissons Ratio (y) = 0.18552 0.02678
# Poissons Ratio (z) = 0.38973 0.04223
#
# Static dielectric constant tensor:
#      x y z
#    x 1.846450 0.036810 -0.033000 
#    y 0.036810 1.817530 -0.022620 
#    z -0.033000 -0.022620 1.868720 
# 
# From -- ./inp_files/90427.got.cif
#   From: 2010.05.17/outbox.cif.g08.bks.cpg/sg2_46_cif.got.tgz:90427.got - 2010.06.03 11:33:40.
