data_PCOD9015005
_publ_section_title
;
Structure prediction by ZEFSAII (Michael W. Deem and Ramdas Pophale) SiO2 
 PCOD9015005
Probable space group: P -1
;
_chemical_formula_sum "Si O2"
_cell_formula_units_Z 14
_cell_length_a 19.246631
_cell_length_b 9.108528
_cell_length_c 4.927059
_cell_angle_alpha 122.915155
_cell_angle_beta 57.484570
_cell_angle_gamma 132.901743
_cell_volume 511.041519
_symmetry_space_group_name_H-M "P -1"
_symmetry_group_IT_number 2
_symmetry_cell_setting 'triclinic'
loop_
_space_group_symop_operation_xyz
x,y,z
-x,-y,-z
loop_
_atom_site_type_symbol
_atom_site_label
_atom_site_fract_x
_atom_site_fract_y
_atom_site_fract_z
Si Si1 0.570209 0.882345 0.481596
Si Si2 0.377361 0.259699 0.247615
Si Si3 0.998955 0.805839 0.431517
Si Si4 0.696385 0.533063 0.051265
Si Si5 0.088739 0.616125 0.651608
Si Si6 0.644495 0.266906 0.366857
Si Si7 0.178356 0.016675 0.617314
O O1 0.596406 0.858969 0.706380
O O2 0.465092 0.853489 0.651540
O O3 0.646868 0.094231 0.367194
O O4 0.571543 0.714631 0.116020
O O5 0.386044 0.447081 0.593033
O O6 0.258648 0.116036 0.309911
O O7 0.901229 0.573485 0.460763
O O8 0.067138 0.913991 0.658577
O O9 0.055749 0.722179 0.051195
O O10 0.000000 0.000000 0.500000
O O11 0.714792 0.401784 0.103623
O O12 0.784505 0.775644 0.078458
O O13 0.659436 0.426204 0.733925
O O14 0.000000 0.500000 0.500000
O O15 0.179778 0.823963 0.539932
#
# Coordination Sequence:
#
# PCOD9015005 Si02
#       7
#     2   2   2   2   2   2   2
#     4  11  23  41  63  89 130 171 219 268 324 382
#     4  10  23  39  63  92 122 174 210 265 323 381
#     4  10  21  41  70  96 124 168 215 260 324 389
#     4  10  23  39  63  91 128 167 213 270 321 374
#     4   9  20  41  65  90 130 162 206 264 317 390
#     4  11  23  41  61  93 129 168 220 274 315 384
#     4   9  23  39  61  88 131 161 208 273 316 390
#
# _framework density 27.395033999999999
#
# number of rings (size 3 to 8) (size 9 to 14) (size 15 to 20)
#    0.857    1.143    0.000    2.571    4.000    8.000 
#    2.571    5.714    0.000    0.000    0.000    0.000 
#    0.000    0.000    0.000    0.000    0.000    0.000 
#
# Total GULP energy -78190.969732 kJ/mol
# GULP energy per Si atom -5585.069267 kJ/mol
# Density = 2.733268 g / cm^3
# Si number density = 27.395034 Si / 1000 Ang^3
#
#
#
# Elastic Constant Matrix: (Units=GPa)
#
#
# Indices 1 2 3 4 5 6 
#
# 1 68.9366 38.0294 25.4800 16.0881 18.0629 -25.1318
# 2 38.0294 179.3751 25.2113 39.7174 2.1374 -26.4778
# 3 25.4800 25.2113 131.1515 15.7309 13.9974 -5.8769
# 4 16.0881 39.7174 15.7309 49.3801 -13.0154 -2.7778
# 5 18.0629 2.1374 13.9974 -13.0154 44.7848 4.4659
# 6 -25.1318 -26.4778 -5.8769 -2.7778 4.4659 38.7711
#
#
#
# Elastic Compliance Matrix: (Units=1/GPa)
#
#
# Indices 1 2 3 4 5 6 
#
# 1 0.029973 -0.000179 -0.001539 -0.012545 -0.017256 0.020162
# 2 -0.000179 0.007894 -0.000168 -0.006662 -0.002695 0.005083
# 3 -0.001539 -0.000168 0.008628 -0.002867 -0.002934 0.000328
# 4 -0.012545 -0.006662 -0.002867 0.034529 0.017572 -0.012666
# 5 -0.017256 -0.002695 -0.002934 0.017572 0.037085 -0.016483
# 6 0.020162 0.005083 0.000328 -0.012666 -0.016483 0.043374
#
#
# Mechanical properties :
#
#
# Convention : Reuss Voigt Hill
#
# Bulk Modulus (GPa) = 23.40666 61.87831 42.64248
# Shear Modulus (GPa) = 27.85597 45.97003 36.91300
#
# Velocity S-wave (km/s) = 3.19223 4.10084 3.67472
# Velocity P-wave (km/s) = 4.70636 6.71259 5.79693
#
# Compressibility (1/GPa) = 0.04272288
#
# Stress axis : x y z
#
# Youngs Moduli (GPa) = 33.36325 126.68010 115.90556
#
# Poissons Ratio (x) = 0.02264 0.17837
# Poissons Ratio (y) = 0.00596 0.01951
# Poissons Ratio (z) = 0.05134 0.02132
#
# Static dielectric constant tensor:
#      x y z
#    x 2.158470 -0.064190 -0.088720 
#    y -0.064190 2.359990 0.025300 
#    z -0.088720 0.025300 2.203240 
# 
# From -- ./inp_files/115790.got.cif
#   From: 2010.05.17/outbox.cif.g08.bks.cpg/sg2_58_cif.got.tgz:115790.got - 2010.06.03 11:33:40.
