data_PCOD9015173
_publ_section_title
;
Structure prediction by ZEFSAII (Michael W. Deem and Ramdas Pophale) SiO2 
 PCOD9015173
Probable space group: P -1
;
_chemical_formula_sum "Si O2"
_cell_formula_units_Z 16
_cell_length_a 11.158863
_cell_length_b 20.065933
_cell_length_c 8.136216
_cell_angle_alpha 82.193602
_cell_angle_beta 125.303518
_cell_angle_gamma 141.261171
_cell_volume 732.394842
_symmetry_space_group_name_H-M "P -1"
_symmetry_group_IT_number 2
_symmetry_cell_setting 'triclinic'
loop_
_space_group_symop_operation_xyz
x,y,z
-x,-y,-z
loop_
_atom_site_type_symbol
_atom_site_label
_atom_site_fract_x
_atom_site_fract_y
_atom_site_fract_z
Si Si1 0.760685 0.650905 0.225444
Si Si2 0.860923 0.012936 0.317323
Si Si3 0.705737 0.469713 0.901152
Si Si4 0.365802 0.278616 0.407596
Si Si5 0.923944 0.706690 0.973498
Si Si6 0.196352 0.623636 0.492570
Si Si7 0.319951 0.808855 0.720883
Si Si8 0.529148 0.988614 0.217758
O O1 0.585869 0.640871 0.177991
O O2 0.980749 0.700773 0.510953
O O3 0.500000 0.500000 0.000000
O O4 0.930977 0.730399 0.163412
O O5 0.800831 0.044806 0.401570
O O6 0.538809 0.875365 0.020760
O O7 0.000000 0.000000 0.500000
O O8 0.087341 0.131930 0.321361
O O9 0.618429 0.389827 0.706267
O O10 0.784055 0.577775 0.881543
O O11 0.980193 0.552856 0.193710
O O12 0.264179 0.311669 0.260599
O O13 0.511623 0.297355 0.366071
O O14 0.249776 0.838729 0.113810
O O15 0.283423 0.729443 0.605794
O O16 0.000000 0.500000 0.500000
O O17 0.455289 0.931895 0.712399
O O18 0.500000 0.000000 0.000000
#
# Coordination Sequence:
#
# PCOD9015173 Si02
#       8
#     2   2   2   2   2   2   2   2
#     4  10  21  41  72 104 137 174 241 292 355 414
#     4  11  27  47  72 109 147 192 235 294 364 431
#     4  11  25  46  72 106 143 185 243 304 352 432
#     4  12  26  46  69 107 143 191 244 290 364 427
#     4  11  22  44  71 107 137 185 246 294 352 430
#     4  12  28  47  69 106 149 191 236 298 374 417
#     4  11  23  48  71 101 147 189 239 300 342 434
#     4  10  22  45  71 104 140 185 246 284 350 424
#
# _framework density 21.846139000000001
#
# number of rings (size 3 to 8) (size 9 to 14) (size 15 to 20)
#    0.000    1.000    5.000    2.250    7.000    3.000 
#    2.250    0.000    0.000    0.000    0.000    0.000 
#    0.000    0.000    0.000    0.000    0.000    0.000 
#
# Total GULP energy -89321.353308 kJ/mol
# GULP energy per Si atom -5582.584582 kJ/mol
# Density = 2.179642 g / cm^3
# Si number density = 21.846139 Si / 1000 Ang^3
#
#
#
# Elastic Constant Matrix: (Units=GPa)
#
#
# Indices 1 2 3 4 5 6 
#
# 1 118.6994 44.0216 4.4954 9.0755 18.5112 5.1457
# 2 44.0216 94.5225 32.0586 5.5281 7.6470 13.4566
# 3 4.4954 32.0586 118.9633 -0.7555 14.0978 -11.1500
# 4 9.0755 5.5281 -0.7555 32.6392 -5.2398 7.9305
# 5 18.5112 7.6470 14.0978 -5.2398 40.4940 2.8992
# 6 5.1457 13.4566 -11.1500 7.9305 2.8992 35.3429
#
#
#
# Elastic Compliance Matrix: (Units=1/GPa)
#
#
# Indices 1 2 3 4 5 6 
#
# 1 0.011498 -0.005698 0.001953 -0.003649 -0.005503 0.002382
# 2 -0.005698 0.015689 -0.004899 0.000838 0.001960 -0.007039
# 3 0.001953 -0.004899 0.010680 -0.001526 -0.004287 0.005644
# 4 -0.003649 0.000838 -0.001526 0.034725 0.007153 -0.008648
# 5 -0.005503 0.001960 -0.004287 0.007153 0.029640 -0.005334
# 6 0.002382 -0.007039 0.005644 -0.008648 -0.005334 0.034786
#
#
# Mechanical properties :
#
#
# Convention : Reuss Voigt Hill
#
# Bulk Modulus (GPa) = 48.59351 54.81516 51.70433
# Shear Modulus (GPa) = 31.02407 38.46920 34.74663
#
# Velocity S-wave (km/s) = 3.77253 4.20088 3.99245
# Velocity P-wave (km/s) = 6.42400 6.97680 6.70610
#
# Compressibility (1/GPa) = 0.02057888
#
# Stress axis : x y z
#
# Youngs Moduli (GPa) = 86.97468 63.73847 93.63456
#
# Poissons Ratio (x) = 0.36316 -0.18288
# Poissons Ratio (y) = 0.49555 0.45874
# Poissons Ratio (z) = -0.16987 0.31227
#
# Static dielectric constant tensor:
#      x y z
#    x 1.874130 -0.005500 -0.044590 
#    y -0.005500 1.808140 0.016520 
#    z -0.044590 0.016520 1.855790 
# 
# From -- ./inp_files/281937.got.cif
#   From: 2010.05.17/outbox.cif.g08.bks.cpg/sg2_141_cif.got.tgz:281937.got - 2010.06.03 11:33:40.
