data_PCOD9015208
_publ_section_title
;
Structure prediction by ZEFSAII (Michael W. Deem and Ramdas Pophale) SiO2 
 PCOD9015208
Probable space group: P -1
;
_chemical_formula_sum "Si O2"
_cell_formula_units_Z 16
_cell_length_a 29.217751
_cell_length_b 15.755245
_cell_length_c 9.337905
_cell_angle_alpha 134.574023
_cell_angle_beta 143.096302
_cell_angle_gamma 18.795911
_cell_volume 797.110452
_symmetry_space_group_name_H-M "P -1"
_symmetry_group_IT_number 2
_symmetry_cell_setting 'triclinic'
loop_
_space_group_symop_operation_xyz
x,y,z
-x,-y,-z
loop_
_atom_site_type_symbol
_atom_site_label
_atom_site_fract_x
_atom_site_fract_y
_atom_site_fract_z
Si Si1 0.594612 0.066834 0.825493
Si Si2 0.758509 0.572934 0.671450
Si Si3 0.466496 0.439562 0.454532
Si Si4 0.023929 0.085907 0.570133
Si Si5 0.944920 0.389845 0.204076
Si Si6 0.075318 0.007937 0.271716
Si Si7 0.302649 0.036210 0.715849
Si Si8 0.357710 0.776656 0.061530
O O1 0.397085 0.306750 0.566295
O O2 0.687901 0.806680 0.754038
O O3 0.669410 0.061807 0.900742
O O4 0.625347 0.076241 0.073716
O O5 0.858720 0.397959 0.570476
O O6 0.886412 0.399915 0.926149
O O7 0.500000 0.500000 0.500000
O O8 0.273003 0.732043 0.380081
O O9 0.531652 0.229963 0.284663
O O10 0.581152 0.281746 0.696287
O O11 0.000000 0.000000 0.500000
O O12 0.051365 0.026231 0.401399
O O13 0.191466 0.927015 0.842521
O O14 0.790289 0.703667 0.215946
O O15 0.136588 0.184843 0.432532
O O16 0.969218 0.270128 0.257945
O O17 0.000000 0.000000 0.000000
O O18 0.500000 0.500000 0.000000
#
# Coordination Sequence:
#
# PCOD9015208 Si02
#       8
#     2   2   2   2   2   2   2   2
#     4  10  23  44  69  98 134 171 224 273 329 395
#     4  10  23  43  69  98 134 176 214 276 334 392
#     4  12  25  42  67 100 130 174 220 271 332 393
#     4  12  26  43  67  95 131 178 220 273 334 388
#     4  10  21  43  68  99 132 170 220 270 331 392
#     4  12  27  42  64  99 137 170 218 273 325 403
#     4  10  21  41  72  97 129 174 217 273 327 396
#     4  12  24  42  66  95 130 172 222 275 321 395
#
# _framework density 20.072502
#
# number of rings (size 3 to 8) (size 9 to 14) (size 15 to 20)
#    0.000    1.000    2.500    3.750    5.250    1.500 
#    0.000    0.625    0.000    0.000    0.000    0.000 
#    0.000    0.000    0.000    0.000    0.000    0.000 
#
# Total GULP energy -89278.091066 kJ/mol
# GULP energy per Si atom -5579.880692 kJ/mol
# Density = 2.002682 g / cm^3
# Si number density = 20.072502 Si / 1000 Ang^3
#
#
#
# Elastic Constant Matrix: (Units=GPa)
#
#
# Indices 1 2 3 4 5 6 
#
# 1 159.1966 47.0643 69.9296 -0.0667 -13.1391 -4.4850
# 2 47.0643 70.8460 27.1580 11.5047 -11.9366 -15.5896
# 3 69.9296 27.1580 129.6345 -2.9664 -14.9298 -2.5922
# 4 -0.0667 11.5047 -2.9664 20.3913 -5.6684 -5.8529
# 5 -13.1391 -11.9366 -14.9298 -5.6684 40.9772 4.4189
# 6 -4.4850 -15.5896 -2.5922 -5.8529 4.4189 31.8777
#
#
#
# Elastic Compliance Matrix: (Units=1/GPa)
#
#
# Indices 1 2 3 4 5 6 
#
# 1 0.009648 -0.005455 -0.003975 0.002306 0.000513 -0.001281
# 2 -0.005455 0.021947 -0.001508 -0.009864 0.001892 0.007770
# 3 -0.003975 -0.001508 0.010534 0.003014 0.002567 -0.000242
# 4 0.002306 -0.009864 0.003014 0.058446 0.006447 0.005583
# 5 0.000513 0.001892 0.002567 0.006447 0.027094 -0.001366
# 6 -0.001281 0.007770 -0.000242 0.005583 -0.001366 0.036184
#
#
# Mechanical properties :
#
#
# Convention : Reuss Voigt Hill
#
# Bulk Modulus (GPa) = 49.37524 71.99788 60.68656
# Shear Modulus (GPa) = 25.97665 33.01760 29.49712
#
# Velocity S-wave (km/s) = 3.60132 4.06016 3.83760
# Velocity P-wave (km/s) = 6.47646 7.61095 7.06651
#
# Compressibility (1/GPa) = 0.02025307
#
# Stress axis : x y z
#
# Youngs Moduli (GPa) = 103.65140 45.56340 94.93078
#
# Poissons Ratio (x) = 0.24856 0.37737
# Poissons Ratio (y) = 0.56545 0.14311
# Poissons Ratio (z) = 0.41204 0.06869
#
# Static dielectric constant tensor:
#      x y z
#    x 1.631860 0.022050 -0.017880 
#    y 0.022050 1.724190 -0.004790 
#    z -0.017880 -0.004790 1.681830 
# 
# From -- ./inp_files/182369.got.cif
#   From: 2010.05.17/outbox.cif.g08.bks.cpg/sg2_92_cif.got.tgz:182369.got - 2010.06.03 11:33:40.
