data_PCOD9015923
_publ_section_title
;
Structure prediction by ZEFSAII (Michael W. Deem and Ramdas Pophale) SiO2 
 PCOD9015923
Probable space group: P -1
;
_chemical_formula_sum "Si O2"
_cell_formula_units_Z 14
_cell_length_a 14.125162
_cell_length_b 26.551053
_cell_length_c 15.289944
_cell_angle_alpha 18.205691
_cell_angle_beta 28.886276
_cell_angle_gamma 19.728689
_cell_volume 595.292635
_symmetry_space_group_name_H-M "P -1"
_symmetry_group_IT_number 2
_symmetry_cell_setting 'triclinic'
loop_
_space_group_symop_operation_xyz
x,y,z
-x,-y,-z
loop_
_atom_site_type_symbol
_atom_site_label
_atom_site_fract_x
_atom_site_fract_y
_atom_site_fract_z
Si Si1 0.469214 0.663001 0.933739
Si Si2 0.333388 0.936458 0.848708
Si Si3 0.488723 0.513434 0.351379
Si Si4 0.996603 0.894145 0.809828
Si Si5 0.413026 0.902287 0.028689
Si Si6 0.851253 0.832210 0.566319
Si Si7 0.059480 0.211869 0.155514
O O1 0.439456 0.566734 0.200607
O O2 0.800820 0.483883 0.940634
O O3 0.309548 0.685571 0.942010
O O4 0.315117 0.919452 0.663218
O O5 0.669414 0.786026 0.818431
O O6 0.189933 0.119205 0.584314
O O7 0.317270 0.756098 0.139101
O O8 0.242425 0.031450 0.863665
O O9 0.436974 0.361243 0.671034
O O10 0.823526 0.348525 0.370579
O O11 0.929093 0.820035 0.905294
O O12 0.985342 0.083044 0.470417
O O13 0.785302 0.996092 0.893874
O O14 0.646384 0.898274 0.863405
#
# Coordination Sequence:
#
# PCOD9015923 Si02
#       7
#     2   2   2   2   2   2   2
#     4  11  20  43  69  94 134 173 214 272 325 384
#     4  10  23  38  65  98 131 175 219 263 320 389
#     4  11  22  41  64  96 137 171 215 266 324 388
#     4  11  24  47  69  96 131 170 224 272 328 384
#     4  12  23  44  67  99 135 172 214 274 326 386
#     4  10  21  42  65  98 131 177 217 264 320 392
#     4  11  25  45  71  96 129 174 218 276 328 387
#
# _framework density 23.517845000000001
#
# number of rings (size 3 to 8) (size 9 to 14) (size 15 to 20)
#    0.000    1.143    2.857    3.429    0.000    2.857 
#    7.714    0.714    0.000    0.000    0.000    0.000 
#    0.000    0.000    0.000    0.000    0.000    0.000 
#
# Total GULP energy -78454.969167 kJ/mol
# GULP energy per Si atom -5603.926369 kJ/mol
# Density = 2.346432 g / cm^3
# Si number density = 23.517845 Si / 1000 Ang^3
#
#
#
# Elastic Constant Matrix: (Units=GPa)
#
#
# Indices 1 2 3 4 5 6 
#
# 1 155.5124 30.9184 22.0890 9.6074 26.4770 23.9880
# 2 30.9184 101.1862 15.3774 10.3683 7.4605 11.6968
# 3 22.0890 15.3774 58.4042 7.8253 1.4532 13.8828
# 4 9.6074 10.3683 7.8253 25.8024 -4.2662 9.3743
# 5 26.4770 7.4605 1.4532 -4.2662 37.7066 12.6468
# 6 23.9880 11.6968 13.8828 9.3743 12.6468 37.5078
#
#
#
# Elastic Compliance Matrix: (Units=1/GPa)
#
#
# Indices 1 2 3 4 5 6 
#
# 1 0.008265 -0.001433 -0.001889 -0.002061 -0.005034 -0.001927
# 2 -0.001433 0.011100 -0.001749 -0.003389 -0.001301 -0.000612
# 3 -0.001889 -0.001749 0.019932 -0.001999 0.002702 -0.006036
# 4 -0.002061 -0.003389 -0.001999 0.048189 0.011999 -0.012975
# 5 -0.005034 -0.001301 0.002702 0.011999 0.035733 -0.012422
# 6 -0.001927 -0.000612 -0.006036 -0.012975 -0.012422 0.037750
#
#
# Mechanical properties :
#
#
# Convention : Reuss Voigt Hill
#
# Bulk Modulus (GPa) = 34.29833 50.20805 42.25319
# Shear Modulus (GPa) = 27.65020 36.65122 32.15071
#
# Velocity S-wave (km/s) = 3.43258 3.95199 3.70141
# Velocity P-wave (km/s) = 5.50689 6.49766 6.02268
#
# Compressibility (1/GPa) = 0.02915594
#
# Stress axis : x y z
#
# Youngs Moduli (GPa) = 120.98661 90.08673 50.16999
#
# Poissons Ratio (x) = 0.12912 0.09478
# Poissons Ratio (y) = 0.17341 0.08773
# Poissons Ratio (z) = 0.22856 0.15752
#
# Static dielectric constant tensor:
#      x y z
#    x 1.870990 0.001790 -0.003350 
#    y 0.001790 1.901620 -0.010360 
#    z -0.003350 -0.010360 1.880210 
# 
# From -- ./inp_files/98406.got.cif
#   From: 2010.05.17/outbox.cif.g08.bks.cpg/sg2_50_cif.got.tgz:98406.got - 2010.06.03 11:33:40.
