data_PCOD9015922
_publ_section_title
;
Structure prediction by ZEFSAII (Michael W. Deem and Ramdas Pophale) SiO2 
 PCOD9015922
Probable space group: P -1
;
_chemical_formula_sum "Si O2"
_cell_formula_units_Z 15
_cell_length_a 10.565978
_cell_length_b 11.593756
_cell_length_c 13.585702
_cell_angle_alpha 130.617582
_cell_angle_beta 143.339223
_cell_angle_gamma 38.294170
_cell_volume 614.748593
_symmetry_space_group_name_H-M "P -1"
_symmetry_group_IT_number 2
_symmetry_cell_setting 'triclinic'
loop_
_space_group_symop_operation_xyz
x,y,z
-x,-y,-z
loop_
_atom_site_type_symbol
_atom_site_label
_atom_site_fract_x
_atom_site_fract_y
_atom_site_fract_z
Si Si1 0.737161 0.014241 0.348205
Si Si2 0.439308 0.679010 0.953412
Si Si3 0.284291 0.395320 0.226997
Si Si4 0.000000 0.000000 0.000000
Si Si5 0.574969 0.530627 0.357115
Si Si6 0.842244 0.654435 0.325618
Si Si7 0.537629 0.153884 0.642420
Si Si8 0.240256 0.234510 0.919986
O O1 0.751244 0.858396 0.338728
O O2 0.725242 0.951072 0.194521
O O3 0.486088 0.223646 0.327213
O O4 0.000000 0.000000 0.500000
O O5 0.189869 0.825074 0.941932
O O6 0.691263 0.583279 0.131184
O O7 0.513121 0.783462 0.981992
O O8 0.413171 0.551510 0.790099
O O9 0.444843 0.459912 0.307208
O O10 0.017592 0.588868 0.197375
O O11 0.199062 0.300139 0.042708
O O12 0.246058 0.920671 0.181651
O O13 0.405707 0.751723 0.357096
O O14 0.848802 0.466634 0.538337
O O15 0.731841 0.691364 0.387173
O O16 0.500000 0.000000 0.500000
#
# Coordination Sequence:
#
# PCOD9015922 Si02
#       8
#     2   2   2   1   2   2   2   2
#     4  11  21  39  64  94 137 169 218 270 326 397
#     4   9  21  42  66  94 130 171 219 278 329 392
#     4  10  21  42  65  98 130 178 219 266 333 392
#     4  10  22  44  68  94 130 168 228 270 340 388
#     4  11  22  42  68  93 137 175 222 273 330 401
#     4  10  22  42  63  96 128 173 220 273 333 385
#     4  11  25  43  64  98 129 174 223 277 335 397
#     4   9  21  41  62  96 131 172 224 268 326 393
#
# _framework density 24.400217999999999
#
# number of rings (size 3 to 8) (size 9 to 14) (size 15 to 20)
#    0.000    1.867    1.333    1.600    0.000    4.800 
#   31.200    0.000    0.000    0.000    0.000    0.000 
#    0.000    0.000    0.000    0.000    0.000    0.000 
#
# Total GULP energy -83553.246525 kJ/mol
# GULP energy per Si atom -5570.216435 kJ/mol
# Density = 2.434468 g / cm^3
# Si number density = 24.400218 Si / 1000 Ang^3
#
#
#
# Elastic Constant Matrix: (Units=GPa)
#
#
# Indices 1 2 3 4 5 6 
#
# 1 47.5312 31.4068 6.0827 6.0036 0.2019 -5.3721
# 2 31.4068 121.1024 40.2513 -1.5363 8.6085 1.9852
# 3 6.0827 40.2513 98.3325 -0.4637 -2.4464 7.8435
# 4 6.0036 -1.5363 -0.4637 30.6078 -8.1670 7.7309
# 5 0.2019 8.6085 -2.4464 -8.1670 34.0106 -6.7834
# 6 -5.3721 1.9852 7.8435 7.7309 -6.7834 35.4655
#
#
#
# Elastic Compliance Matrix: (Units=1/GPa)
#
#
# Indices 1 2 3 4 5 6 
#
# 1 0.027634 -0.007787 0.000986 -0.006978 0.001439 0.006200
# 2 -0.007787 0.012011 -0.004359 0.001663 -0.003283 -0.001878
# 3 0.000986 -0.004359 0.012109 0.000769 0.001730 -0.002121
# 4 -0.006978 0.001663 0.000769 0.038139 0.007187 -0.008259
# 5 0.001439 -0.003283 0.001730 0.007187 0.033026 0.004769
# 6 0.006200 -0.001878 -0.002121 -0.008259 0.004769 0.032422
#
#
# Mechanical properties :
#
#
# Convention : Reuss Voigt Hill
#
# Bulk Modulus (GPa) = 33.97333 46.93862 40.45598
# Shear Modulus (GPa) = 26.67070 32.63180 29.65125
#
# Velocity S-wave (km/s) = 3.30972 3.66096 3.48976
# Velocity P-wave (km/s) = 5.34409 6.09499 5.73185
#
# Compressibility (1/GPa) = 0.02943485
#
# Stress axis : x y z
#
# Youngs Moduli (GPa) = 36.18746 83.25736 82.58536
#
# Poissons Ratio (x) = 0.64832 -0.08147
# Poissons Ratio (y) = 0.28179 0.35998
# Poissons Ratio (z) = -0.03570 0.36291
#
# Static dielectric constant tensor:
#      x y z
#    x 2.001600 0.074660 -0.143170 
#    y 0.074660 1.970800 -0.056060 
#    z -0.143170 -0.056060 2.123750 
# 
# From -- ./inp_files/519161.got.cif
#   From: 2010.05.17/outbox.cif.g08.bks.cpg/sg2_260_cif.got.tgz:519161.got - 2010.06.03 11:33:40.
