data_PCOD9015978
_publ_section_title
;
Structure prediction by ZEFSAII (Michael W. Deem and Ramdas Pophale) SiO2 
 PCOD9015978
Probable space group: P -1
;
_chemical_formula_sum "Si O2"
_cell_formula_units_Z 13
_cell_length_a 4.772854
_cell_length_b 10.693118
_cell_length_c 11.105210
_cell_angle_alpha 118.783023
_cell_angle_beta 89.746983
_cell_angle_gamma 90.932020
_cell_volume 496.678505
_symmetry_space_group_name_H-M "P -1"
_symmetry_group_IT_number 2
_symmetry_cell_setting 'triclinic'
loop_
_space_group_symop_operation_xyz
x,y,z
-x,-y,-z
loop_
_atom_site_type_symbol
_atom_site_label
_atom_site_fract_x
_atom_site_fract_y
_atom_site_fract_z
Si Si1 0.371688 0.302584 0.248498
Si Si2 0.000000 0.500000 0.000000
Si Si3 0.174531 0.756138 0.156179
Si Si4 0.886461 0.161796 0.301961
Si Si5 0.524856 0.561295 0.218617
Si Si6 0.358369 0.102484 0.948450
Si Si7 0.349752 0.850083 0.437893
O O1 0.679628 0.253288 0.261803
O O2 0.394303 0.464035 0.279010
O O3 0.182847 0.241612 0.328201
O O4 0.247269 0.217055 0.095307
O O5 0.789090 0.490559 0.124761
O O6 0.905696 0.677288 0.069078
O O7 0.290376 0.593723 0.127717
O O8 0.395084 0.834438 0.107916
O O9 0.143275 0.839850 0.318243
O O10 0.789625 0.165686 0.440859
O O11 0.853750 0.998639 0.175446
O O12 0.555144 0.719165 0.346587
O O13 0.500000 0.000000 0.000000
O O14 0.500000 0.000000 0.500000
#
# Coordination Sequence:
#
# PCOD9015978 Si02
#       7
#     2   1   2   2   2   2   2
#     4  11  25  41  71 104 142 189 239 299 359 423
#     4  12  22  42  70 104 140 172 238 312 358 418
#     4  10  23  42  69  99 137 177 238 293 358 421
#     4  11  24  46  69  99 152 187 238 293 356 437
#     4  10  25  40  69 103 135 186 235 296 357 425
#     4  10  21  42  66 103 138 187 236 297 360 418
#     4  10  23  48  68  98 144 193 240 287 357 438
#
# _framework density 26.173867999999999
#
# number of rings (size 3 to 8) (size 9 to 14) (size 15 to 20)
#    0.923    0.615    3.077    0.923    2.154    2.462 
#   11.077    1.538    0.000    0.000    0.000    0.000 
#    0.000    0.000    0.000    0.000    0.000    0.000 
#
# Total GULP energy -72575.885436 kJ/mol
# GULP energy per Si atom -5582.760418 kJ/mol
# Density = 2.611430 g / cm^3
# Si number density = 26.173868 Si / 1000 Ang^3
#
#
#
# Elastic Constant Matrix: (Units=GPa)
#
#
# Indices 1 2 3 4 5 6 
#
# 1 81.5502 20.7545 17.3304 -1.1023 -5.4995 12.7695
# 2 20.7545 163.9020 57.1835 5.6388 6.7480 44.7579
# 3 17.3304 57.1835 168.6230 4.4912 3.8736 17.1093
# 4 -1.1023 5.6388 4.4912 56.2623 4.1653 2.2025
# 5 -5.4995 6.7480 3.8736 4.1653 24.2716 -9.5289
# 6 12.7695 44.7579 17.1093 2.2025 -9.5289 40.4635
#
#
#
# Elastic Compliance Matrix: (Units=1/GPa)
#
#
# Indices 1 2 3 4 5 6 
#
# 1 0.013195 -0.000835 -0.000902 0.000327 0.002403 -0.002311
# 2 -0.000835 0.010654 -0.002088 0.000143 -0.007737 -0.012468
# 3 -0.000902 -0.002088 0.006805 -0.000271 -0.000847 -0.000468
# 4 0.000327 0.000143 -0.000271 0.018151 -0.003838 -0.002039
# 5 0.002403 -0.007737 -0.000847 -0.003838 0.052862 0.020816
# 6 -0.002311 -0.012468 -0.000468 -0.002039 0.020816 0.044445
#
#
# Mechanical properties :
#
#
# Convention : Reuss Voigt Hill
#
# Bulk Modulus (GPa) = 43.47281 67.17910 55.32595
# Shear Modulus (GPa) = 30.97285 45.45328 38.21307
#
# Velocity S-wave (km/s) = 3.44372 4.17176 3.82510
# Velocity P-wave (km/s) = 5.69715 6.99478 6.37905
#
# Compressibility (1/GPa) = 0.02300289
#
# Stress axis : x y z
#
# Youngs Moduli (GPa) = 75.78652 93.86298 146.94235
#
# Poissons Ratio (x) = 0.07839 0.13259
# Poissons Ratio (y) = 0.06330 0.30683
# Poissons Ratio (z) = 0.06839 0.19600
#
# Static dielectric constant tensor:
#      x y z
#    x 2.215020 -0.075490 0.053790 
#    y -0.075490 2.310610 0.033600 
#    z 0.053790 0.033600 2.007250 
# 
# From -- ./inp_files/362354.got.cif
#   From: 2010.05.17/outbox.cif.g08.bks.cpg/sg2_182_cif.got.tgz:362354.got - 2010.06.03 11:33:40.
