data_PCOD9015221
_publ_section_title
;
Structure prediction by ZEFSAII (Michael W. Deem and Ramdas Pophale) SiO2 
 PCOD9015221
Probable space group: P -1
;
_chemical_formula_sum "Si O2"
_cell_formula_units_Z 16
_cell_length_a 11.986673
_cell_length_b 20.250716
_cell_length_c 16.904491
_cell_angle_alpha 150.080974
_cell_angle_beta 27.850465
_cell_angle_gamma 158.266180
_cell_volume 684.942504
_symmetry_space_group_name_H-M "P -1"
_symmetry_group_IT_number 2
_symmetry_cell_setting 'triclinic'
loop_
_space_group_symop_operation_xyz
x,y,z
-x,-y,-z
loop_
_atom_site_type_symbol
_atom_site_label
_atom_site_fract_x
_atom_site_fract_y
_atom_site_fract_z
Si Si1 0.109028 0.312882 0.829796
Si Si2 0.950747 0.171410 0.086864
Si Si3 0.150584 0.791523 0.505526
Si Si4 0.296108 0.776947 0.153199
Si Si5 0.137531 0.422902 0.375537
Si Si6 0.461104 0.092986 0.190112
Si Si7 0.648898 0.377814 0.892135
Si Si8 0.239793 0.284386 0.461343
O O1 0.475233 0.414314 0.676884
O O2 0.922229 0.331487 0.901453
O O3 0.168210 0.414431 0.981444
O O4 0.880119 0.094021 0.750816
O O5 0.771895 0.196481 0.161765
O O6 0.090189 0.300323 0.208947
O O7 0.647422 0.965395 0.094772
O O8 0.308866 0.249983 0.919956
O O9 0.141382 0.651603 0.315961
O O10 0.053955 0.709387 0.567457
O O11 0.912455 0.801649 0.619366
O O12 0.500000 0.000000 0.500000
O O13 0.396804 0.703240 0.075814
O O14 0.056311 0.782048 0.361891
O O15 0.000000 0.500000 0.500000
O O16 0.407933 0.219059 0.322872
O O17 0.500000 0.000000 0.000000
O O18 0.500000 0.500000 0.500000
#
# Coordination Sequence:
#
# PCOD9015221 Si02
#       8
#     2   2   2   2   2   2   2   2
#     4  10  24  43  68 105 141 189 231 300 358 430
#     4  10  24  44  68 103 139 186 229 298 352 426
#     4  11  26  45  74 105 142 189 242 293 352 427
#     4  10  21  41  72  99 140 185 241 288 351 425
#     4  11  25  42  71 103 141 186 236 292 358 422
#     4  11  28  46  73 103 145 187 240 296 366 425
#     4  10  22  43  70 107 144 183 234 293 357 426
#     4  11  26  45  73 102 139 186 244 295 352 427
#
# _framework density 23.359625000000001
#
# number of rings (size 3 to 8) (size 9 to 14) (size 15 to 20)
#    0.000    1.500    0.000    3.000   12.250    2.000 
#    4.500    2.500    0.000    0.000    0.000    0.000 
#    0.000    0.000    0.000    0.000    0.000    0.000 
#
# Total GULP energy -89341.333865 kJ/mol
# GULP energy per Si atom -5583.833367 kJ/mol
# Density = 2.330646 g / cm^3
# Si number density = 23.359625 Si / 1000 Ang^3
#
#
#
# Elastic Constant Matrix: (Units=GPa)
#
#
# Indices 1 2 3 4 5 6 
#
# 1 155.9902 67.6348 20.9631 -2.8561 -41.2982 6.0633
# 2 67.6348 117.8581 14.3708 -7.9048 -36.0731 13.8175
# 3 20.9631 14.3708 55.5343 -0.5642 -25.2772 -2.9754
# 4 -2.8561 -7.9048 -0.5642 23.8560 0.6585 -4.6526
# 5 -41.2982 -36.0731 -25.2772 0.6585 41.0260 -8.9243
# 6 6.0633 13.8175 -2.9754 -4.6526 -8.9243 45.3284
#
#
#
# Elastic Compliance Matrix: (Units=1/GPa)
#
#
# Indices 1 2 3 4 5 6 
#
# 1 0.009780 -0.003581 0.000666 0.000047 0.007386 0.001286
# 2 -0.003581 0.013488 0.001980 0.003574 0.009127 -0.001339
# 3 0.000666 0.001980 0.026589 0.001821 0.019886 0.005155
# 4 0.000047 0.003574 0.001821 0.043889 0.004571 0.004428
# 5 0.007386 0.009127 0.019886 0.004571 0.053887 0.008614
# 6 0.001286 -0.001339 0.005155 0.004428 0.008614 0.024786
#
#
# Mechanical properties :
#
#
# Convention : Reuss Voigt Hill
#
# Bulk Modulus (GPa) = 20.83857 59.47999 40.15928
# Shear Modulus (GPa) = 26.27648 37.13636 31.70642
#
# Velocity S-wave (km/s) = 3.35754 3.99151 3.68818
# Velocity P-wave (km/s) = 4.89601 6.83820 5.94693
#
# Compressibility (1/GPa) = 0.04798793
#
# Stress axis : x y z
#
# Youngs Moduli (GPa) = 102.25061 74.13814 37.60953
#
# Poissons Ratio (x) = 0.26546 -0.02505
# Poissons Ratio (y) = 0.36612 -0.07447
# Poissons Ratio (z) = -0.06809 -0.14679
#
# Static dielectric constant tensor:
#      x y z
#    x 1.896130 0.001560 0.010750 
#    y 0.001560 1.997080 -0.049780 
#    z 0.010750 -0.049780 1.977660 
# 
# From -- ./inp_files/570750.got.cif
#   From: 2010.05.17/outbox.cif.g08.bks.cpg/sg2_286_cif.got.tgz:570750.got - 2010.06.03 11:33:40.
