data_PCOD9015368
_publ_section_title
;
Structure prediction by ZEFSAII (Michael W. Deem and Ramdas Pophale) SiO2 
 PCOD9015368
Probable space group: P -1
;
_chemical_formula_sum "Si O2"
_cell_formula_units_Z 16
_cell_length_a 23.633908
_cell_length_b 11.116375
_cell_length_c 15.979303
_cell_angle_alpha 33.462487
_cell_angle_beta 25.638915
_cell_angle_gamma 18.924660
_cell_volume 583.968850
_symmetry_space_group_name_H-M "P -1"
_symmetry_group_IT_number 2
_symmetry_cell_setting 'triclinic'
loop_
_space_group_symop_operation_xyz
x,y,z
-x,-y,-z
loop_
_atom_site_type_symbol
_atom_site_label
_atom_site_fract_x
_atom_site_fract_y
_atom_site_fract_z
Si Si1 0.651653 0.208418 0.809449
Si Si2 0.835646 0.535782 0.874989
Si Si3 0.678760 0.941115 0.503332
Si Si4 0.199494 0.131914 0.026666
Si Si5 0.179756 0.445948 0.298599
Si Si6 0.043736 0.125875 0.076774
Si Si7 0.265117 0.401939 0.538966
Si Si8 0.664393 0.325205 0.200023
O O1 0.749959 0.316653 0.607430
O O2 0.473441 0.445020 0.834826
O O3 0.791529 0.806666 0.830361
O O4 0.622232 0.196272 0.953959
O O5 0.719572 0.706171 0.839265
O O6 0.101351 0.198317 0.698217
O O7 0.740751 0.431121 0.089004
O O8 0.657395 0.843964 0.674987
O O9 0.724586 0.703102 0.508159
O O10 0.530233 0.329957 0.431420
O O11 0.208608 0.018023 0.987816
O O12 0.955781 0.383463 0.242372
O O13 0.179700 0.422380 0.878152
O O14 0.000000 0.500000 0.500000
O O15 0.063041 0.841659 0.235730
O O16 0.115989 0.056744 0.923567
O O17 0.500000 0.000000 0.500000
#
# Coordination Sequence:
#
# PCOD9015368 Si02
#       8
#     2   2   2   2   2   2   2   2
#     4  12  23  38  65  95 128 162 213 259 310 371
#     4  10  22  39  63  90 125 168 213 255 307 370
#     4  11  20  41  65  91 122 170 212 248 321 368
#     4  11  23  38  65  93 123 168 207 261 314 368
#     4   9  21  36  61  91 123 166 208 254 308 369
#     4  10  21  42  61  91 128 162 212 255 313 372
#     4  12  23  40  64  94 127 160 206 262 315 375
#     4  11  22  41  63  92 129 168 208 256 307 375
#
# _framework density 27.398719
#
# number of rings (size 3 to 8) (size 9 to 14) (size 15 to 20)
#    0.000    1.250    3.750    1.875    3.500    2.500 
#    0.000    5.625    0.000    0.000    0.000    0.000 
#    0.000    0.000    0.000    0.000    0.000    0.000 
#
# Total GULP energy -89394.584911 kJ/mol
# GULP energy per Si atom -5587.161557 kJ/mol
# Density = 2.733636 g / cm^3
# Si number density = 27.398719 Si / 1000 Ang^3
#
#
#
# Elastic Constant Matrix: (Units=GPa)
#
#
# Indices 1 2 3 4 5 6 
#
# 1 148.4684 36.7357 46.9315 -27.3843 -5.5938 -10.5783
# 2 36.7357 92.8272 38.0593 -30.0131 -10.3082 -1.5792
# 3 46.9315 38.0593 152.0950 -38.5669 -28.6173 7.3582
# 4 -27.3843 -30.0131 -38.5669 49.6305 1.4454 -4.3399
# 5 -5.5938 -10.3082 -28.6173 1.4454 53.7187 -15.2146
# 6 -10.5783 -1.5792 7.3582 -4.3399 -15.2146 44.7512
#
#
#
# Elastic Compliance Matrix: (Units=1/GPa)
#
#
# Indices 1 2 3 4 5 6 
#
# 1 0.008319 -0.001757 -0.001537 0.002543 0.000357 0.002525
# 2 -0.001757 0.014445 -0.000886 0.007161 0.002422 0.001758
# 3 -0.001537 -0.000886 0.009674 0.006014 0.004719 0.000202
# 4 0.002543 0.007161 0.006014 0.030808 0.005335 0.004667
# 5 0.000357 0.002422 0.004719 0.005335 0.023750 0.007986
# 6 0.002525 0.001758 0.000202 0.004667 0.007986 0.026139
#
#
# Mechanical properties :
#
#
# Convention : Reuss Voigt Hill
#
# Bulk Modulus (GPa) = 41.53299 70.76038 56.14669
# Shear Modulus (GPa) = 38.60378 47.73103 43.16740
#
# Velocity S-wave (km/s) = 3.75769 4.17836 3.97360
# Velocity P-wave (km/s) = 5.83255 7.01146 6.44900
#
# Compressibility (1/GPa) = 0.02407724
#
# Stress axis : x y z
#
# Youngs Moduli (GPa) = 120.21351 69.22600 103.37101
#
# Poissons Ratio (x) = 0.12162 0.15892
# Poissons Ratio (y) = 0.21119 0.09160
# Poissons Ratio (z) = 0.18481 0.06135
#
# Static dielectric constant tensor:
#      x y z
#    x 2.112950 -0.131620 0.014190 
#    y -0.131620 2.458460 -0.053790 
#    z 0.014190 -0.053790 2.368660 
# 
# From -- ./inp_files/427901.got.cif
#   From: 2010.05.17/outbox.cif.g08.bks.cpg/sg2_214_cif.got.tgz:427901.got - 2010.06.03 11:33:40.
