data_PCOD9015630
_publ_section_title
;
Structure prediction by ZEFSAII (Michael W. Deem and Ramdas Pophale) SiO2 
 PCOD9015630
Probable space group: P -1
;
_chemical_formula_sum "Si O2"
_cell_formula_units_Z 16
_cell_length_a 10.161112
_cell_length_b 9.347221
_cell_length_c 9.565038
_cell_angle_alpha 99.314651
_cell_angle_beta 81.498334
_cell_angle_gamma 48.721819
_cell_volume 632.773669
_symmetry_space_group_name_H-M "P -1"
_symmetry_group_IT_number 2
_symmetry_cell_setting 'triclinic'
loop_
_space_group_symop_operation_xyz
x,y,z
-x,-y,-z
loop_
_atom_site_type_symbol
_atom_site_label
_atom_site_fract_x
_atom_site_fract_y
_atom_site_fract_z
Si Si1 0.920950 0.153822 0.215298
Si Si2 0.393155 0.205730 0.352041
Si Si3 0.005611 0.376124 0.154836
Si Si4 0.274986 0.688344 0.030369
Si Si5 0.833764 0.871726 0.485646
Si Si6 0.759586 0.802614 0.172974
Si Si7 0.818743 0.460096 0.745771
Si Si8 0.384003 0.735108 0.519379
O O1 0.795674 0.154866 0.336410
O O2 0.957248 0.294388 0.262876
O O3 0.789790 0.270831 0.114775
O O4 0.130302 0.929159 0.133122
O O5 0.236514 0.216429 0.434984
O O6 0.371330 0.353557 0.269116
O O7 0.474948 0.237677 0.471576
O O8 0.541909 0.986691 0.222834
O O9 0.109080 0.433746 0.214376
O O10 0.826130 0.587782 0.146891
O O11 0.133026 0.219197 0.982936
O O12 0.197433 0.617943 0.126153
O O13 0.500000 0.500000 0.000000
O O14 0.803149 0.848521 0.320974
O O15 0.055962 0.713414 0.418490
O O16 0.725223 0.104864 0.570137
O O17 0.500000 0.500000 0.500000
#
# Coordination Sequence:
#
# PCOD9015630 Si02
#       8
#     2   2   2   2   2   2   2   2
#     4  11  24  42  68  98 135 174 218 277 341 394
#     4  11  24  40  67  90 127 175 220 270 327 392
#     4  10  22  38  65  95 127 169 213 267 329 388
#     4  11  24  43  70  97 133 178 218 271 346 405
#     4  10  21  42  64  90 125 173 218 265 326 394
#     4   9  19  37  63  89 123 158 218 262 309 392
#     4  11  23  44  64  93 132 169 218 271 330 400
#     4  11  24  41  66  95 126 170 228 273 326 400
#
# _framework density 25.285504
#
# number of rings (size 3 to 8) (size 9 to 14) (size 15 to 20)
#    0.000    1.500    1.250    4.875   12.250    0.500 
#    2.250    1.875    0.000    0.000    0.000    0.000 
#    0.000    0.000    0.000    0.000    0.000    0.000 
#
# Total GULP energy -89074.181223 kJ/mol
# GULP energy per Si atom -5567.136326 kJ/mol
# Density = 2.522795 g / cm^3
# Si number density = 25.285504 Si / 1000 Ang^3
#
#
#
# Elastic Constant Matrix: (Units=GPa)
#
#
# Indices 1 2 3 4 5 6 
#
# 1 67.8567 37.4250 23.1315 -5.4744 -17.2648 7.5072
# 2 37.4250 106.4506 45.3521 -2.0885 -12.2248 9.9963
# 3 23.1315 45.3521 71.0892 -14.7067 -12.6179 -0.8138
# 4 -5.4744 -2.0885 -14.7067 48.7146 -1.8891 -16.5473
# 5 -17.2648 -12.2248 -12.6179 -1.8891 32.1744 -10.2270
# 6 7.5072 9.9963 -0.8138 -16.5473 -10.2270 37.4945
#
#
#
# Elastic Compliance Matrix: (Units=1/GPa)
#
#
# Indices 1 2 3 4 5 6 
#
# 1 0.020661 -0.005926 -0.000822 0.002498 0.008969 0.000974
# 2 -0.005926 0.015842 -0.009982 -0.005367 -0.003479 -0.006571
# 3 -0.000822 -0.009982 0.024810 0.011026 0.009591 0.010846
# 4 0.002498 -0.005367 0.011026 0.030287 0.010976 0.017530
# 5 0.008969 -0.003479 0.009591 0.010976 0.044133 0.016221
# 6 0.000974 -0.006571 0.010846 0.017530 0.016221 0.040624
#
#
# Mechanical properties :
#
#
# Convention : Reuss Voigt Hill
#
# Bulk Modulus (GPa) = 35.90229 50.80150 43.35190
# Shear Modulus (GPa) = 22.82037 32.97590 27.89814
#
# Velocity S-wave (km/s) = 3.00744 3.61521 3.32524
# Velocity P-wave (km/s) = 5.12730 6.12871 5.65023
#
# Compressibility (1/GPa) = 0.02785337
#
# Stress axis : x y z
#
# Youngs Moduli (GPa) = 48.39920 63.12240 40.30685
#
# Poissons Ratio (x) = 0.37407 0.03315
# Poissons Ratio (y) = 0.28682 0.40232
# Poissons Ratio (z) = 0.03981 0.63006
#
# Static dielectric constant tensor:
#      x y z
#    x 2.172040 -0.159150 0.039400 
#    y -0.159150 2.138250 0.066830 
#    z 0.039400 0.066830 2.015420 
# 
# From -- ./inp_files/417081.got.cif
#   From: 2010.05.17/outbox.cif.g08.bks.cpg/sg2_209_cif.got.tgz:417081.got - 2010.06.03 11:33:40.
