data_PCOD9015970
_publ_section_title
;
Structure prediction by ZEFSAII (Michael W. Deem and Ramdas Pophale) SiO2 
 PCOD9015970
Probable space group: P -1
;
_chemical_formula_sum "Si O2"
_cell_formula_units_Z 12
_cell_length_a 5.464823
_cell_length_b 13.136104
_cell_length_c 8.638084
_cell_angle_alpha 80.833548
_cell_angle_beta 62.637400
_cell_angle_gamma 98.327496
_cell_volume 526.603876
_symmetry_space_group_name_H-M "P -1"
_symmetry_group_IT_number 2
_symmetry_cell_setting 'triclinic'
loop_
_space_group_symop_operation_xyz
x,y,z
-x,-y,-z
loop_
_atom_site_type_symbol
_atom_site_label
_atom_site_fract_x
_atom_site_fract_y
_atom_site_fract_z
Si Si1 0.167260 0.228725 0.589717
Si Si2 0.755127 0.336522 0.353252
Si Si3 0.842600 0.547454 0.348597
Si Si4 0.183005 0.206158 0.222590
Si Si5 0.650294 0.406453 0.034079
Si Si6 0.835164 0.010256 0.887686
O O1 0.497724 0.261436 0.539142
O O2 0.076936 0.337191 0.624165
O O3 0.180216 0.205092 0.409949
O O4 0.981857 0.125361 0.748664
O O5 0.930381 0.435808 0.379390
O O6 0.642057 0.393079 0.225929
O O7 0.933116 0.262627 0.243189
O O8 0.500000 0.500000 0.500000
O O9 0.030009 0.576911 0.127117
O O10 0.463593 0.291210 0.060421
O O11 0.136074 0.088816 0.201540
O O12 0.500000 0.500000 0.000000
O O13 0.500000 0.000000 0.000000
O O14 0.000000 0.000000 0.000000
#
# Coordination Sequence:
#
# PCOD9015970 Si02
#       6
#     2   2   2   2   2   2
#     4  10  25  45  69 102 144 189 239 302 362 443
#     4  10  23  41  69 104 138 193 235 296 369 432
#     4  10  21  42  66 101 145 180 235 288 365 432
#     4  11  25  45  73  99 144 188 244 301 369 437
#     4  11  22  40  68 103 142 189 241 295 361 436
#     4  12  30  50  76 107 142 194 250 309 371 440
#
# _framework density 22.787527999999998
#
# number of rings (size 3 to 8) (size 9 to 14) (size 15 to 20)
#    0.000    1.333    1.667    2.000    9.333    1.333 
#    6.000    0.000    0.000    0.000    0.000    0.000 
#    0.000    0.000    0.000    0.000    0.000    0.000 
#
# Total GULP energy -66844.517471 kJ/mol
# GULP energy per Si atom -5570.376456 kJ/mol
# Density = 2.273566 g / cm^3
# Si number density = 22.787528 Si / 1000 Ang^3
#
#
#
# Elastic Constant Matrix: (Units=GPa)
#
#
# Indices 1 2 3 4 5 6 
#
# 1 75.3685 51.7687 53.5895 -18.3791 -5.0233 -5.4387
# 2 51.7687 248.2775 87.8850 -10.0658 1.3747 13.3989
# 3 53.5895 87.8850 148.2764 -27.8260 -25.2070 6.4341
# 4 -18.3791 -10.0658 -27.8260 59.5099 4.7332 -9.7588
# 5 -5.0233 1.3747 -25.2070 4.7332 32.5136 -5.3659
# 6 -5.4387 13.3989 6.4341 -9.7588 -5.3659 33.6466
#
#
#
# Elastic Compliance Matrix: (Units=1/GPa)
#
#
# Indices 1 2 3 4 5 6 
#
# 1 0.020352 -0.002497 -0.005413 0.004443 -0.000516 0.006525
# 2 -0.002497 0.005845 -0.003313 -0.001564 -0.003487 -0.003107
# 3 -0.005413 -0.003313 0.012717 0.003066 0.008766 0.000300
# 4 0.004443 -0.001564 0.003066 0.020369 0.001298 0.006869
# 5 -0.000516 -0.003487 0.008766 0.001298 0.038444 0.006136
# 6 0.006525 -0.003107 0.000300 0.006869 0.006136 0.034926
#
#
# Mechanical properties :
#
#
# Convention : Reuss Voigt Hill
#
# Bulk Modulus (GPa) = 60.72431 95.37877 78.05154
# Shear Modulus (GPa) = 31.13578 43.71262 37.42420
#
# Velocity S-wave (km/s) = 3.70043 4.38456 4.05694
# Velocity P-wave (km/s) = 6.70548 8.22065 7.50142
#
# Compressibility (1/GPa) = 0.01646787
#
# Stress axis : x y z
#
# Youngs Moduli (GPa) = 49.13598 171.09277 78.63603
#
# Poissons Ratio (x) = 0.42718 0.42563
# Poissons Ratio (y) = 0.12268 0.26055
# Poissons Ratio (z) = 0.26596 0.56688
#
# Static dielectric constant tensor:
#      x y z
#    x 2.201480 0.065750 0.069630 
#    y 0.065750 1.873320 0.058310 
#    z 0.069630 0.058310 1.877310 
# 
# From -- ./inp_files/89431.got.cif
#   From: 2010.05.17/outbox.cif.g08.bks.cpg/sg2_45_cif.got.tgz:89431.got - 2010.06.03 11:33:40.
