data_PCOD9015695
_publ_section_title
;
Structure prediction by ZEFSAII (Michael W. Deem and Ramdas Pophale) SiO2 
 PCOD9015695
Probable space group: P -1
;
_chemical_formula_sum "Si O2"
_cell_formula_units_Z 16
_cell_length_a 17.134464
_cell_length_b 12.438840
_cell_length_c 9.970971
_cell_angle_alpha 46.392994
_cell_angle_beta 74.144851
_cell_angle_gamma 37.488653
_cell_volume 733.383053
_symmetry_space_group_name_H-M "P -1"
_symmetry_group_IT_number 2
_symmetry_cell_setting 'triclinic'
loop_
_space_group_symop_operation_xyz
x,y,z
-x,-y,-z
loop_
_atom_site_type_symbol
_atom_site_label
_atom_site_fract_x
_atom_site_fract_y
_atom_site_fract_z
Si Si1 0.108524 0.681038 0.881666
Si Si2 0.243068 0.131077 0.734762
Si Si3 0.096907 0.834547 0.234459
Si Si4 0.481470 0.673222 0.233571
Si Si5 0.832597 0.088867 0.456094
Si Si6 0.366037 0.089210 0.441310
Si Si7 0.544964 0.625549 0.534478
Si Si8 0.062183 0.220359 0.573047
O O1 0.176886 0.734745 0.762836
O O2 0.242278 0.365063 0.158173
O O3 0.970885 0.928125 0.844992
O O4 0.004833 0.796174 0.703027
O O5 0.275884 0.173633 0.546445
O O6 0.194479 0.045346 0.776291
O O7 0.083469 0.431160 0.637524
O O8 0.399154 0.893342 0.961683
O O9 0.290273 0.540048 0.391554
O O10 0.036095 0.776217 0.372655
O O11 0.000000 0.000000 0.000000
O O12 0.675374 0.340643 0.407865
O O13 0.454342 0.791102 0.290129
O O14 0.412547 0.616354 0.293511
O O15 0.836322 0.953730 0.460970
O O16 0.500000 0.000000 0.500000
O O17 0.448096 0.827381 0.539761
#
# Coordination Sequence:
#
# PCOD9015695 Si02
#       8
#     2   2   2   2   2   2   2   2
#     4  10  22  39  64  93 130 159 217 263 314 384
#     4  11  24  43  64  96 130 170 216 262 323 384
#     4  11  20  39  66  91 125 169 211 266 314 377
#     4  11  24  44  65  95 133 172 214 264 321 391
#     4  10  21  42  64  95 123 172 210 261 322 378
#     4  12  25  43  64 100 131 170 214 268 324 381
#     4  11  25  42  64  99 131 170 216 262 328 380
#     4  10  23  40  64  95 125 167 217 260 321 376
#
# _framework density 21.816703
#
# number of rings (size 3 to 8) (size 9 to 14) (size 15 to 20)
#    0.000    1.250    1.250    4.500    1.750    5.000 
#    0.000    3.125    0.000    0.000    0.000    0.000 
#    0.000    0.000    0.000    0.000    0.000    0.000 
#
# Total GULP energy -89257.022817 kJ/mol
# GULP energy per Si atom -5578.563926 kJ/mol
# Density = 2.176705 g / cm^3
# Si number density = 21.816703 Si / 1000 Ang^3
#
#
#
# Elastic Constant Matrix: (Units=GPa)
#
#
# Indices 1 2 3 4 5 6 
#
# 1 77.5956 15.6084 16.2280 2.3751 14.8346 -2.9754
# 2 15.6084 79.9790 4.2741 12.0190 8.5098 12.7466
# 3 16.2280 4.2741 93.5969 15.6412 19.0512 2.1373
# 4 2.3751 12.0190 15.6412 23.9039 -0.8880 5.7085
# 5 14.8346 8.5098 19.0512 -0.8880 20.2524 7.6463
# 6 -2.9754 12.7466 2.1373 5.7085 7.6463 43.5381
#
#
#
# Elastic Compliance Matrix: (Units=1/GPa)
#
#
# Indices 1 2 3 4 5 6 
#
# 1 0.015912 -0.002131 0.000147 -0.002072 -0.012569 0.004183
# 2 -0.002131 0.015199 0.002568 -0.008790 -0.006724 -0.002388
# 3 0.000147 0.002568 0.016547 -0.013667 -0.018681 0.003519
# 4 -0.002072 -0.008790 -0.013667 0.058383 0.023933 -0.008755
# 5 -0.012569 -0.006724 -0.018681 0.023933 0.086164 -0.016244
# 6 0.004183 -0.002388 0.003519 -0.008755 -0.016244 0.027781
#
#
# Mechanical properties :
#
#
# Convention : Reuss Voigt Hill
#
# Bulk Modulus (GPa) = 20.48092 35.93248 28.20670
# Shear Modulus (GPa) = 21.26816 31.87627 26.57222
#
# Velocity S-wave (km/s) = 3.12566 3.82657 3.49374
# Velocity P-wave (km/s) = 4.73650 6.00246 5.40666
#
# Compressibility (1/GPa) = 0.04882593
#
# Stress axis : x y z
#
# Youngs Moduli (GPa) = 62.84622 65.79381 60.43300
#
# Poissons Ratio (x) = 0.14022 -0.00891
# Poissons Ratio (y) = 0.13394 -0.15517
# Poissons Ratio (z) = -0.00927 -0.16893
#
# Static dielectric constant tensor:
#      x y z
#    x 1.704160 -0.007500 -0.102840 
#    y -0.007500 1.842220 0.015810 
#    z -0.102840 0.015810 1.797630 
# 
# From -- ./inp_files/185250.got.cif
#   From: 2010.05.17/outbox.cif.g08.bks.cpg/sg2_93_cif.got.tgz:185250.got - 2010.06.03 11:33:40.
