data_PCOD9015770
_publ_section_title
;
Structure prediction by ZEFSAII (Michael W. Deem and Ramdas Pophale) SiO2 
 PCOD9015770
Probable space group: P -1
;
_chemical_formula_sum "Si O2"
_cell_formula_units_Z 15
_cell_length_a 8.876284
_cell_length_b 10.214648
_cell_length_c 12.257343
_cell_angle_alpha 77.677176
_cell_angle_beta 69.501648
_cell_angle_gamma 133.119214
_cell_volume 569.356387
_symmetry_space_group_name_H-M "P -1"
_symmetry_group_IT_number 2
_symmetry_cell_setting 'triclinic'
loop_
_space_group_symop_operation_xyz
x,y,z
-x,-y,-z
loop_
_atom_site_type_symbol
_atom_site_label
_atom_site_fract_x
_atom_site_fract_y
_atom_site_fract_z
Si Si1 0.685338 0.845634 0.580704
Si Si2 0.822000 0.096683 0.696193
Si Si3 0.222596 0.137478 0.081325
Si Si4 0.607103 0.977272 0.381348
Si Si5 0.500000 0.000000 0.000000
Si Si6 0.786417 0.698106 0.142293
Si Si7 0.149209 0.504198 0.177018
Si Si8 0.677537 0.410646 0.634826
O O1 0.420209 0.566375 0.729620
O O2 0.663792 0.955801 0.648945
O O3 0.668977 0.885799 0.454163
O O4 0.000000 0.000000 0.500000
O O5 0.120657 0.371624 0.539626
O O6 0.877078 0.987406 0.756296
O O7 0.632036 0.046225 0.838660
O O8 0.162299 0.226952 0.009807
O O9 0.562408 0.369889 0.956377
O O10 0.103734 0.930265 0.072794
O O11 0.892921 0.253286 0.227753
O O12 0.500000 0.000000 0.500000
O O13 0.417260 0.791807 0.363247
O O14 0.215316 0.704146 0.104798
O O15 0.603478 0.695294 0.243912
O O16 0.153181 0.488540 0.311312
#
# Coordination Sequence:
#
# PCOD9015770 Si02
#       8
#     2   2   2   2   1   2   2   2
#     4  12  24  43  72 110 149 185 249 310 360 430
#     4  11  22  41  69 100 138 193 231 305 363 428
#     4   9  21  41  63  95 142 184 229 295 366 421
#     4  12  27  43  72 112 139 187 251 301 355 442
#     4  10  24  42  70  92 138 194 236 282 374 432
#     4  10  21  42  65 105 140 188 247 292 364 439
#     4  10  22  48  65 101 140 189 241 295 365 433
#     4  11  23  43  76  98 146 193 237 309 359 429
#
# _framework density 26.345538999999999
#
# number of rings (size 3 to 8) (size 9 to 14) (size 15 to 20)
#    0.000    1.333    2.667    2.400    3.733    3.733 
#   14.400    0.667    0.000    0.000    0.000    0.000 
#    0.000    0.000    0.000    0.000    0.000    0.000 
#
# Total GULP energy -83628.951380 kJ/mol
# GULP energy per Si atom -5575.263425 kJ/mol
# Density = 2.628558 g / cm^3
# Si number density = 26.345539 Si / 1000 Ang^3
#
#
#
# Elastic Constant Matrix: (Units=GPa)
#
#
# Indices 1 2 3 4 5 6 
#
# 1 31.8600 5.2711 31.3935 11.2883 13.0730 7.8600
# 2 5.2711 141.2823 60.3496 -12.7396 -17.4519 -9.5029
# 3 31.3935 60.3496 177.4595 -25.1111 6.7956 -9.6729
# 4 11.2883 -12.7396 -25.1111 68.1760 -2.9206 -9.8243
# 5 13.0730 -17.4519 6.7956 -2.9206 39.4943 10.5688
# 6 7.8600 -9.5029 -9.6729 -9.8243 10.5688 33.8040
#
#
#
# Elastic Compliance Matrix: (Units=1/GPa)
#
#
# Indices 1 2 3 4 5 6 
#
# 1 0.063624 -0.001371 -0.014060 -0.019520 -0.015315 -0.020087
# 2 -0.001371 0.009096 -0.002810 0.001231 0.004799 0.000929
# 3 -0.014060 -0.002810 0.010423 0.006710 0.000144 0.007367
# 4 -0.019520 0.001231 0.006710 0.022515 0.004304 0.012003
# 5 -0.015315 0.004799 0.000144 0.004304 0.033988 -0.004424
# 6 -0.020087 0.000929 0.007367 0.012003 -0.004424 0.041494
#
#
# Mechanical properties :
#
#
# Convention : Reuss Voigt Hill
#
# Bulk Modulus (GPa) = 21.43067 60.51446 40.97257
# Shear Modulus (GPa) = 21.44324 45.20069 33.32196
#
# Velocity S-wave (km/s) = 2.85603 4.14658 3.56027
# Velocity P-wave (km/s) = 4.36211 6.77826 5.69969
#
# Compressibility (1/GPa) = 0.04666209
#
# Stress axis : x y z
#
# Youngs Moduli (GPa) = 15.71743 109.94333 95.93898
#
# Poissons Ratio (x) = 0.15074 1.34887
# Poissons Ratio (y) = 0.02155 0.26954
# Poissons Ratio (z) = 0.22098 0.30889
#
# Static dielectric constant tensor:
#      x y z
#    x 2.299250 -0.060770 -0.008580 
#    y -0.060770 2.008700 0.022870 
#    z -0.008580 0.022870 2.035130 
# 
# From -- ./inp_files/425774.got.cif
#   From: 2010.05.17/outbox.cif.g08.bks.cpg/sg2_213_cif.got.tgz:425774.got - 2010.06.03 11:33:40.
