data_PCOD9015276
_publ_section_title
;
Structure prediction by ZEFSAII (Michael W. Deem and Ramdas Pophale) SiO2 
 PCOD9015276
Probable space group: P -1
;
_chemical_formula_sum "Si O2"
_cell_formula_units_Z 15
_cell_length_a 9.130955
_cell_length_b 7.689561
_cell_length_c 9.570613
_cell_angle_alpha 75.633202
_cell_angle_beta 101.553870
_cell_angle_gamma 107.014668
_cell_volume 616.532447
_symmetry_space_group_name_H-M "P -1"
_symmetry_group_IT_number 2
_symmetry_cell_setting 'triclinic'
loop_
_space_group_symop_operation_xyz
x,y,z
-x,-y,-z
loop_
_atom_site_type_symbol
_atom_site_label
_atom_site_fract_x
_atom_site_fract_y
_atom_site_fract_z
Si Si1 0.871512 0.251266 0.612821
Si Si2 0.500000 0.000000 0.000000
Si Si3 0.656317 0.690434 0.633274
Si Si4 0.055566 0.184847 0.888658
Si Si5 0.003356 0.323352 0.341167
Si Si6 0.456299 0.762143 0.330474
Si Si7 0.173824 0.703005 0.978764
Si Si8 0.659820 0.616473 0.946779
O O1 0.934895 0.467248 0.627760
O O2 0.700239 0.190450 0.653487
O O3 0.883072 0.226655 0.455886
O O4 0.996398 0.158698 0.726484
O O5 0.509705 0.881487 0.177153
O O6 0.679596 0.120940 0.025938
O O7 0.839502 0.740472 0.631669
O O8 0.573275 0.781372 0.480552
O O9 0.587062 0.463632 0.660039
O O10 0.634217 0.734166 0.784323
O O11 0.235374 0.266572 0.935473
O O12 0.949016 0.299580 0.922755
O O13 0.000000 0.000000 0.000000
O O14 0.913032 0.306950 0.182501
O O15 0.243144 0.527122 0.049745
O O16 0.500000 0.500000 0.000000
#
# Coordination Sequence:
#
# PCOD9015276 Si02
#       8
#     2   1   2   2   2   2   2   2
#     4  10  21  42  69 103 135 181 240 288 360 434
#     4  12  24  42  70 102 136 200 244 296 370 426
#     4  10  21  42  66 102 136 182 237 289 360 434
#     4  12  26  45  71 102 144 187 244 304 360 435
#     4  10  21  41  74  98 135 189 232 294 361 439
#     4  10  22  39  68  97 143 182 228 298 357 427
#     4  12  24  47  72  98 146 196 237 296 371 437
#     4  12  26  42  74 106 139 189 252 298 364 445
#
# _framework density 24.329618
#
# number of rings (size 3 to 8) (size 9 to 14) (size 15 to 20)
#    0.000    1.067    5.333    1.200    3.733    3.200 
#    2.400    2.000    0.000    0.000    0.000    0.000 
#    0.000    0.000    0.000    0.000    0.000    0.000 
#
# Total GULP energy -83668.154182 kJ/mol
# GULP energy per Si atom -5577.876945 kJ/mol
# Density = 2.427424 g / cm^3
# Si number density = 24.329618 Si / 1000 Ang^3
#
#
#
# Elastic Constant Matrix: (Units=GPa)
#
#
# Indices 1 2 3 4 5 6 
#
# 1 104.4052 43.8090 75.5578 2.8615 15.7033 43.3756
# 2 43.8090 54.0126 15.2227 -12.7423 5.1946 20.0182
# 3 75.5578 15.2227 210.0403 -3.4604 26.3104 13.3880
# 4 2.8615 -12.7423 -3.4604 29.2783 13.3095 -1.3608
# 5 15.7033 5.1946 26.3104 13.3095 49.8693 3.7298
# 6 43.3756 20.0182 13.3880 -1.3608 3.7298 38.7030
#
#
#
# Elastic Compliance Matrix: (Units=1/GPa)
#
#
# Indices 1 2 3 4 5 6 
#
# 1 0.039601 -0.022272 -0.011366 -0.017547 0.002759 -0.029814
# 2 -0.022272 0.039628 0.006148 0.023468 -0.006908 0.003829
# 3 -0.011366 0.006148 0.008555 0.006936 -0.003966 0.007225
# 4 -0.017547 0.023468 0.006936 0.054463 -0.015754 0.008561
# 5 0.002759 -0.006908 -0.003966 -0.015754 0.026293 -0.001235
# 6 -0.029814 0.003829 0.007225 0.008561 -0.001235 0.055191
#
#
# Mechanical properties :
#
#
# Convention : Reuss Voigt Hill
#
# Bulk Modulus (GPa) = 30.48473 70.84859 50.66666
# Shear Modulus (GPa) = 17.26247 39.16136 28.21192
#
# Velocity S-wave (km/s) = 2.66658 4.01636 3.40894
# Velocity P-wave (km/s) = 4.69446 7.11981 6.03032
#
# Compressibility (1/GPa) = 0.03280331
#
# Stress axis : x y z
#
# Youngs Moduli (GPa) = 25.25179 25.23468 116.89517
#
# Poissons Ratio (x) = 0.56203 1.32863
# Poissons Ratio (y) = 0.56241 -0.71864
# Poissons Ratio (z) = 0.28701 -0.15514
#
# Static dielectric constant tensor:
#      x y z
#    x 1.922260 -0.102140 0.048250 
#    y -0.102140 2.093600 -0.054260 
#    z 0.048250 -0.054260 1.972280 
# 
# From -- ./inp_files/157546.got.cif
#   From: 2010.05.17/outbox.cif.g08.bks.cpg/sg2_79_cif.got.tgz:157546.got - 2010.06.03 11:33:40.
