data_PCOD9015846
_publ_section_title
;
Structure prediction by ZEFSAII (Michael W. Deem and Ramdas Pophale) SiO2 
 PCOD9015846
Probable space group: P -1
;
_chemical_formula_sum "Si O2"
_cell_formula_units_Z 14
_cell_length_a 5.906231
_cell_length_b 12.059759
_cell_length_c 16.256400
_cell_angle_alpha 135.273648
_cell_angle_beta 60.039097
_cell_angle_gamma 129.344649
_cell_volume 627.599186
_symmetry_space_group_name_H-M "P -1"
_symmetry_group_IT_number 2
_symmetry_cell_setting 'triclinic'
loop_
_space_group_symop_operation_xyz
x,y,z
-x,-y,-z
loop_
_atom_site_type_symbol
_atom_site_label
_atom_site_fract_x
_atom_site_fract_y
_atom_site_fract_z
Si Si1 0.056498 0.841973 0.494504
Si Si2 0.374282 0.453570 0.691720
Si Si3 0.332660 0.286958 0.927080
Si Si4 0.795538 0.589633 0.553802
Si Si5 0.390193 0.208595 0.689796
Si Si6 0.333508 0.057413 0.945474
Si Si7 0.224639 0.739673 0.887398
O O1 0.326818 0.825372 0.393077
O O2 0.766957 0.720781 0.431397
O O3 0.009063 0.755948 0.548636
O O4 0.131844 0.043704 0.602370
O O5 0.654745 0.602723 0.672665
O O6 0.442593 0.390889 0.732271
O O7 0.151580 0.537950 0.779391
O O8 0.306009 0.212891 0.801322
O O9 0.448209 0.175431 0.905151
O O10 0.500000 0.500000 0.000000
O O11 0.038452 0.252045 0.010863
O O12 0.500000 0.500000 0.500000
O O13 0.000000 0.500000 0.500000
O O14 0.333355 0.867292 0.855153
O O15 0.514989 0.180273 0.052169
O O16 0.000000 0.000000 0.000000
#
# Coordination Sequence:
#
# PCOD9015846 Si02
#       7
#     2   2   2   2   2   2   2
#     4  10  23  42  60  93 125 169 222 269 330 390
#     4  11  22  40  67  92 126 168 216 274 329 400
#     4  11  23  40  63  96 130 167 212 263 330 400
#     4  10  21  42  65  93 130 173 228 277 330 397
#     4  11  23  40  63  89 131 169 212 269 331 397
#     4   9  21  42  61  89 128 162 215 265 315 393
#     4  10  22  41  66  93 126 167 214 265 331 388
#
# _framework density 22.307230000000001
#
# number of rings (size 3 to 8) (size 9 to 14) (size 15 to 20)
#    0.000    1.714    1.429    2.143    0.000    8.000 
#    5.143    0.000    0.000    0.000    0.000    0.000 
#    0.000    0.000    0.000    0.000    0.000    0.000 
#
# Total GULP energy -77998.664743 kJ/mol
# GULP energy per Si atom -5571.333196 kJ/mol
# Density = 2.225646 g / cm^3
# Si number density = 22.307230 Si / 1000 Ang^3
#
#
#
# Elastic Constant Matrix: (Units=GPa)
#
#
# Indices 1 2 3 4 5 6 
#
# 1 62.9480 30.9087 14.4264 -3.1991 3.2076 -22.9752
# 2 30.9087 124.6167 47.2161 -13.4877 7.2612 -39.5753
# 3 14.4264 47.2161 90.4292 -7.0714 -8.0858 -20.3331
# 4 -3.1991 -13.4877 -7.0714 37.1032 0.7110 8.2985
# 5 3.2076 7.2612 -8.0858 0.7110 19.3942 -2.4335
# 6 -22.9752 -39.5753 -20.3331 8.2985 -2.4335 54.4863
#
#
#
# Elastic Compliance Matrix: (Units=1/GPa)
#
#
# Indices 1 2 3 4 5 6 
#
# 1 0.019626 -0.002686 -0.000551 -0.000734 -0.001671 0.006156
# 2 -0.002686 0.013248 -0.005559 0.002351 -0.006195 0.005781
# 3 -0.000551 -0.005559 0.015250 0.000275 0.008742 0.001769
# 4 -0.000734 0.002351 0.000275 0.028490 -0.002056 -0.002931
# 5 -0.001671 -0.006195 0.008742 -0.002056 0.057999 0.000962
# 6 0.006156 0.005781 0.001769 -0.002931 0.000962 0.026298
#
#
# Mechanical properties :
#
#
# Convention : Reuss Voigt Hill
#
# Bulk Modulus (GPa) = 32.75263 51.45512 42.10388
# Shear Modulus (GPa) = 26.49977 34.55957 30.52967
#
# Velocity S-wave (km/s) = 3.45040 3.94033 3.70347
# Velocity P-wave (km/s) = 5.53065 6.61953 6.09944
#
# Compressibility (1/GPa) = 0.03053189
#
# Stress axis : x y z
#
# Youngs Moduli (GPa) = 50.95246 75.48096 65.57397
#
# Poissons Ratio (x) = 0.20275 0.03613
# Poissons Ratio (y) = 0.13686 0.36453
# Poissons Ratio (z) = 0.02808 0.41961
#
# Static dielectric constant tensor:
#      x y z
#    x 1.909120 -0.031420 -0.021810 
#    y -0.031420 1.894610 0.040250 
#    z -0.021810 0.040250 1.831710 
# 
# From -- ./inp_files/34069.got.cif
#   From: 2010.05.17/outbox.cif.g08.bks.cpg/sg2_18_cif.got.tgz:34069.got - 2010.06.03 11:33:40.
