data_PCOD9015016
_publ_section_title
;
Structure prediction by ZEFSAII (Michael W. Deem and Ramdas Pophale) SiO2 
 PCOD9015016
Probable space group: P -1
;
_chemical_formula_sum "Si O2"
_cell_formula_units_Z 14
_cell_length_a 11.218212
_cell_length_b 11.460206
_cell_length_c 16.749529
_cell_angle_alpha 140.583230
_cell_angle_beta 148.152152
_cell_angle_gamma 60.767593
_cell_volume 624.358974
_symmetry_space_group_name_H-M "P -1"
_symmetry_group_IT_number 2
_symmetry_cell_setting 'triclinic'
loop_
_space_group_symop_operation_xyz
x,y,z
-x,-y,-z
loop_
_atom_site_type_symbol
_atom_site_label
_atom_site_fract_x
_atom_site_fract_y
_atom_site_fract_z
Si Si1 0.846411 0.743158 0.679728
Si Si2 0.711058 0.816914 0.819273
Si Si3 0.241096 0.867654 0.338714
Si Si4 0.628231 0.968838 0.237657
Si Si5 0.820808 0.429445 0.282158
Si Si6 0.701953 0.493329 0.761381
Si Si7 0.806294 0.817352 0.405533
O O1 0.780009 0.794024 0.756101
O O2 0.579264 0.601921 0.404085
O O3 0.008259 0.620992 0.710103
O O4 0.046934 0.981770 0.891178
O O5 0.657490 0.605387 0.720403
O O6 0.483961 0.875504 0.725636
O O7 0.287337 0.722250 0.352414
O O8 0.500000 0.000000 0.500000
O O9 0.184067 0.031131 0.438288
O O10 0.976886 0.681112 0.049452
O O11 0.624438 0.836458 0.244196
O O12 0.440783 0.795209 0.974850
O O13 0.916323 0.094169 0.433136
O O14 0.745599 0.596216 0.292778
O O15 0.000000 0.500000 0.500000
#
# Coordination Sequence:
#
# PCOD9015016 Si02
#       7
#     2   2   2   2   2   2   2
#     4  10  22  40  66 100 131 171 219 276 327 387
#     4  10  21  41  70  96 133 168 227 277 322 395
#     4  11  27  42  63  95 134 178 219 276 338 393
#     4  10  24  45  68 101 128 179 223 272 335 386
#     4  11  26  40  68 101 136 177 217 270 336 398
#     4  11  23  40  66  96 128 173 225 275 331 392
#     4  11  25  46  67  93 139 176 223 274 329 403
#
# _framework density 22.422996000000001
#
# number of rings (size 3 to 8) (size 9 to 14) (size 15 to 20)
#    0.000    1.429    0.000    3.429    8.000    6.286 
#    0.000    0.000    0.000    0.000    0.000    0.000 
#    0.000    0.000    0.000    0.000    0.000    0.000 
#
# Total GULP energy -78089.433238 kJ/mol
# GULP energy per Si atom -5577.816660 kJ/mol
# Density = 2.237196 g / cm^3
# Si number density = 22.422996 Si / 1000 Ang^3
#
#
#
# Elastic Constant Matrix: (Units=GPa)
#
#
# Indices 1 2 3 4 5 6 
#
# 1 79.1379 47.4248 18.5216 8.9636 -0.3353 -17.4221
# 2 47.4248 169.6161 16.1584 20.0636 -0.6896 -9.9103
# 3 18.5216 16.1584 118.1794 -0.3582 5.5165 5.1835
# 4 8.9636 20.0636 -0.3582 36.8120 -3.8833 -4.3628
# 5 -0.3353 -0.6896 5.5165 -3.8833 27.7095 -3.2991
# 6 -17.4221 -9.9103 5.1835 -4.3628 -3.2991 35.1200
#
#
#
# Elastic Compliance Matrix: (Units=1/GPa)
#
#
# Indices 1 2 3 4 5 6 
#
# 1 0.017559 -0.004073 -0.002614 -0.000986 0.001441 0.007960
# 2 -0.004073 0.007420 -0.000361 -0.003117 -0.000264 -0.000285
# 3 -0.002614 -0.000361 0.009150 0.000350 -0.002160 -0.002909
# 4 -0.000986 -0.003117 0.000350 0.029887 0.004351 0.002701
# 5 0.001441 -0.000264 -0.002160 0.004351 0.037740 0.005045
# 6 0.007960 -0.000285 -0.002909 0.002701 0.005045 0.033581
#
#
# Mechanical properties :
#
#
# Convention : Reuss Voigt Hill
#
# Bulk Modulus (GPa) = 49.91821 59.01588 54.46705
# Shear Modulus (GPa) = 32.02866 38.91687 35.47276
#
# Velocity S-wave (km/s) = 3.78350 4.17055 3.98173
# Velocity P-wave (km/s) = 6.43404 7.04044 6.74406
#
# Compressibility (1/GPa) = 0.02003277
#
# Stress axis : x y z
#
# Youngs Moduli (GPa) = 56.95095 134.77406 109.28680
#
# Poissons Ratio (x) = 0.54892 0.28573
# Poissons Ratio (y) = 0.23196 0.03943
# Poissons Ratio (z) = 0.14890 0.04862
#
# Static dielectric constant tensor:
#      x y z
#    x 1.835600 0.049210 0.020290 
#    y 0.049210 1.890450 -0.013810 
#    z 0.020290 -0.013810 1.935160 
# 
# From -- ./inp_files/568916.got.cif
#   From: 2010.05.17/outbox.cif.g08.bks.cpg/sg2_285_cif.got.tgz:568916.got - 2010.06.03 11:33:40.
