data_PCOD9015372
_publ_section_title
;
Structure prediction by ZEFSAII (Michael W. Deem and Ramdas Pophale) SiO2 
 PCOD9015372
Probable space group: P -1
;
_chemical_formula_sum "Si O2"
_cell_formula_units_Z 16
_cell_length_a 13.645587
_cell_length_b 11.045365
_cell_length_c 13.112515
_cell_angle_alpha 104.415646
_cell_angle_beta 54.351888
_cell_angle_gamma 146.145434
_cell_volume 764.634909
_symmetry_space_group_name_H-M "P -1"
_symmetry_group_IT_number 2
_symmetry_cell_setting 'triclinic'
loop_
_space_group_symop_operation_xyz
x,y,z
-x,-y,-z
loop_
_atom_site_type_symbol
_atom_site_label
_atom_site_fract_x
_atom_site_fract_y
_atom_site_fract_z
Si Si1 0.944769 0.924395 0.637728
Si Si2 0.934357 0.355456 0.411183
Si Si3 0.588929 0.812959 0.556194
Si Si4 0.783470 0.049319 0.808126
Si Si5 0.623749 0.390797 0.751478
Si Si6 0.224931 0.551247 0.549718
Si Si7 0.339014 0.692843 0.875481
Si Si8 0.199124 0.842697 0.959875
O O1 0.848534 0.962820 0.757073
O O2 0.735539 0.630357 0.722215
O O3 0.000000 0.000000 0.500000
O O4 0.206869 0.110509 0.558249
O O5 0.820543 0.341788 0.391482
O O6 0.000000 0.500000 0.500000
O O7 0.186590 0.511377 0.269090
O O8 0.739633 0.076107 0.501414
O O9 0.380101 0.624102 0.557734
O O10 0.460546 0.710694 0.721997
O O11 0.504004 0.825997 0.903068
O O12 0.951501 0.248825 0.654662
O O13 0.860927 0.193581 0.891846
O O14 0.648478 0.359635 0.615589
O O15 0.356923 0.106576 0.889501
O O16 0.343357 0.840844 0.864429
O O17 0.054179 0.401248 0.998036
#
# Coordination Sequence:
#
# PCOD9015372 Si02
#       8
#     2   2   2   2   2   2   2   2
#     4  11  22  42  69  88 124 168 222 267 312 370
#     4   9  18  33  59  89 125 160 202 265 321 365
#     4  11  21  38  64 101 123 164 217 271 316 376
#     4  12  23  43  67  92 125 177 214 257 320 378
#     4  10  21  42  61  92 128 168 211 265 315 376
#     4  11  20  36  65  97 124 163 214 269 321 372
#     4  11  22  42  66  93 134 168 208 261 323 389
#     4  11  25  42  63  96 133 166 209 261 324 391
#
# _framework density 20.925018000000001
#
# number of rings (size 3 to 8) (size 9 to 14) (size 15 to 20)
#    0.000    1.250    3.750    4.500    0.000    1.000 
#    6.750    0.625    0.000    0.000    0.000    0.000 
#    0.000    0.000    0.000    0.000    0.000    0.000 
#
# Total GULP energy -89317.114022 kJ/mol
# GULP energy per Si atom -5582.319626 kJ/mol
# Density = 2.087739 g / cm^3
# Si number density = 20.925018 Si / 1000 Ang^3
#
#
#
# Elastic Constant Matrix: (Units=GPa)
#
#
# Indices 1 2 3 4 5 6 
#
# 1 90.8945 22.9710 17.6322 -13.7346 -19.0279 4.9523
# 2 22.9710 39.9669 15.9657 -13.9305 -18.8358 6.6295
# 3 17.6322 15.9657 52.0783 -16.9484 -6.3153 -2.4107
# 4 -13.7346 -13.9305 -16.9484 29.2438 0.6916 3.2408
# 5 -19.0279 -18.8358 -6.3153 0.6916 27.1386 -4.0862
# 6 4.9523 6.6295 -2.4107 3.2408 -4.0862 31.5882
#
#
#
# Elastic Compliance Matrix: (Units=1/GPa)
#
#
# Indices 1 2 3 4 5 6 
#
# 1 0.014286 -0.001815 -0.001831 0.004756 0.007991 -0.001453
# 2 -0.001815 0.051880 -0.004955 0.021245 0.031676 -0.009064
# 3 -0.001831 -0.004955 0.025207 0.011109 0.001201 0.002266
# 4 0.004756 0.021245 0.011109 0.053387 0.018178 -0.007482
# 5 0.007991 0.031676 0.001201 0.018178 0.064043 -0.001390
# 6 -0.001453 -0.009064 0.002266 -0.007482 -0.001390 0.034548
#
#
# Mechanical properties :
#
#
# Convention : Reuss Voigt Hill
#
# Bulk Modulus (GPa) = 13.48227 32.89750 23.18989
# Shear Modulus (GPa) = 17.52689 26.01882 21.77286
#
# Velocity S-wave (km/s) = 2.89728 3.53006 3.22921
# Velocity P-wave (km/s) = 4.20112 5.68954 5.00101
#
# Compressibility (1/GPa) = 0.07417147
#
# Stress axis : x y z
#
# Youngs Moduli (GPa) = 69.99741 19.27525 39.67211
#
# Poissons Ratio (x) = 0.03498 0.07264
# Poissons Ratio (y) = 0.12704 0.19657
# Poissons Ratio (z) = 0.12816 0.09551
#
# Static dielectric constant tensor:
#      x y z
#    x 1.783360 -0.000170 -0.020960 
#    y -0.000170 1.762610 -0.006310 
#    z -0.020960 -0.006310 1.743350 
# 
# From -- ./inp_files/279567.got.cif
#   From: 2010.05.17/outbox.cif.g08.bks.cpg/sg2_140_cif.got.tgz:279567.got - 2010.06.03 11:33:40.
