data_PCOD9015676
_publ_section_title
;
Structure prediction by ZEFSAII (Michael W. Deem and Ramdas Pophale) SiO2 
 PCOD9015676
Probable space group: P -1
;
_chemical_formula_sum "Si O2"
_cell_formula_units_Z 14
_cell_length_a 8.513751
_cell_length_b 15.801713
_cell_length_c 11.813082
_cell_angle_alpha 46.130444
_cell_angle_beta 131.930093
_cell_angle_gamma 147.302116
_cell_volume 603.992594
_symmetry_space_group_name_H-M "P -1"
_symmetry_group_IT_number 2
_symmetry_cell_setting 'triclinic'
loop_
_space_group_symop_operation_xyz
x,y,z
-x,-y,-z
loop_
_atom_site_type_symbol
_atom_site_label
_atom_site_fract_x
_atom_site_fract_y
_atom_site_fract_z
Si Si1 0.824786 0.551933 0.373681
Si Si2 0.125187 0.602028 0.848122
Si Si3 0.121960 0.233633 0.384423
Si Si4 0.701846 0.091541 0.125988
Si Si5 0.268637 0.314643 0.613749
Si Si6 0.838344 0.597642 0.089847
Si Si7 0.661952 0.841479 0.010508
O O1 0.464487 0.384368 0.363951
O O2 0.926314 0.674939 0.411733
O O3 0.903047 0.646695 0.206163
O O4 0.000000 0.500000 0.500000
O O5 0.063811 0.497371 0.807348
O O6 0.003168 0.685570 0.715169
O O7 0.480626 0.730373 0.916267
O O8 0.000000 0.500000 0.000000
O O9 0.150228 0.193026 0.563132
O O10 0.876927 0.085795 0.315092
O O11 0.499531 0.102077 0.087251
O O12 0.987935 0.261860 0.049531
O O13 0.500000 0.000000 0.000000
O O14 0.500000 0.500000 0.500000
O O15 0.383957 0.268202 0.806774
O O16 0.500000 0.500000 0.000000
O O17 0.000000 0.000000 0.000000
#
# Coordination Sequence:
#
# PCOD9015676 Si02
#       7
#     2   2   2   2   2   2   2
#     4  11  23  35  64 107 133 163 220 294 347 387
#     4  11  19  39  66  94 128 182 230 278 328 406
#     4  10  21  42  64  93 133 176 225 279 341 401
#     4  11  26  43  64  98 141 182 222 284 350 402
#     4  10  22  41  68  96 135 174 230 278 334 409
#     4  12  22  38  68  98 133 172 236 285 335 397
#     4  11  25  42  68  99 135 182 230 277 341 412
#
# _framework density 23.179093000000002
#
# number of rings (size 3 to 8) (size 9 to 14) (size 15 to 20)
#    0.000    1.143    4.286    3.429    8.000    0.000 
#    0.000    3.571    3.143    0.000    0.000    0.000 
#    0.000    0.000    0.000    0.000    0.000    0.000 
#
# Total GULP energy -77964.547707 kJ/mol
# GULP energy per Si atom -5568.896265 kJ/mol
# Density = 2.312634 g / cm^3
# Si number density = 23.179093 Si / 1000 Ang^3
#
#
#
# Elastic Constant Matrix: (Units=GPa)
#
#
# Indices 1 2 3 4 5 6 
#
# 1 118.0251 25.3285 11.9075 15.3808 -13.2675 10.2465
# 2 25.3285 70.4299 7.1513 27.3742 0.1359 17.4432
# 3 11.9075 7.1513 79.5708 24.8746 -10.3133 3.3818
# 4 15.3808 27.3742 24.8746 31.7014 -1.4491 -9.6770
# 5 -13.2675 0.1359 -10.3133 -1.4491 43.7796 13.9334
# 6 10.2465 17.4432 3.3818 -9.6770 13.9334 43.6116
#
#
#
# Elastic Compliance Matrix: (Units=1/GPa)
#
#
# Indices 1 2 3 4 5 6 
#
# 1 0.010638 0.002907 0.003293 -0.012637 0.006358 -0.008753
# 2 0.002907 0.054702 0.024984 -0.082312 0.019461 -0.048981
# 3 0.003293 0.024984 0.030682 -0.055876 0.016062 -0.030676
# 4 -0.012637 -0.082312 -0.055876 0.179096 -0.040363 0.092859
# 5 0.006358 0.019461 0.016062 -0.040363 0.037131 -0.031342
# 6 -0.008753 -0.048981 -0.030676 0.092859 -0.031342 0.077574
#
#
# Mechanical properties :
#
#
# Convention : Reuss Voigt Hill
#
# Bulk Modulus (GPa) = 6.31347 39.64447 22.97897
# Shear Modulus (GPa) = 13.14918 38.72775 25.93847
#
# Velocity S-wave (km/s) = 2.38436 4.09198 3.34884
# Velocity P-wave (km/s) = 3.21091 6.28223 4.98881
#
# Compressibility (1/GPa) = 0.15839156
#
# Stress axis : x y z
#
# Youngs Moduli (GPa) = 94.00191 18.28076 32.59216
#
# Poissons Ratio (x) = -0.05314 -0.10733
# Poissons Ratio (y) = -0.27325 -0.81429
# Poissons Ratio (z) = -0.30957 -0.45673
#
# Static dielectric constant tensor:
#      x y z
#    x 1.855890 -0.117030 -0.046690 
#    y -0.117030 1.783460 -0.188890 
#    z -0.046690 -0.188890 1.624810 
# 
# From -- ./inp_files/159786.got.cif
#   From: 2010.05.17/outbox.cif.g08.bks.cpg/sg2_80_cif.got.tgz:159786.got - 2010.06.03 11:33:40.
