data_PCOD9015937
_publ_section_title
;
Structure prediction by ZEFSAII (Michael W. Deem and Ramdas Pophale) SiO2 
 PCOD9015937
Probable space group: P -1
;
_chemical_formula_sum "Si O2"
_cell_formula_units_Z 14
_cell_length_a 9.970842
_cell_length_b 9.663616
_cell_length_c 10.858056
_cell_angle_alpha 105.024924
_cell_angle_beta 120.898527
_cell_angle_gamma 114.606474
_cell_volume 649.042109
_symmetry_space_group_name_H-M "P -1"
_symmetry_group_IT_number 2
_symmetry_cell_setting 'triclinic'
loop_
_space_group_symop_operation_xyz
x,y,z
-x,-y,-z
loop_
_atom_site_type_symbol
_atom_site_label
_atom_site_fract_x
_atom_site_fract_y
_atom_site_fract_z
Si Si1 0.681509 0.501097 0.548158
Si Si2 0.482323 0.156665 0.541712
Si Si3 0.520124 0.442749 0.198125
Si Si4 0.485477 0.844759 0.035380
Si Si5 0.190308 0.695993 0.074158
Si Si6 0.755767 0.875360 0.373652
Si Si7 0.068393 0.204301 0.059025
O O1 0.500000 0.500000 0.500000
O O2 0.591075 0.298136 0.511251
O O3 0.674833 0.499584 0.398643
O O4 0.874949 0.676833 0.759572
O O5 0.628366 0.266723 0.753825
O O6 0.274683 0.096052 0.489503
O O7 0.500000 0.000000 0.500000
O O8 0.625336 0.648532 0.237997
O O9 0.284678 0.334901 0.112555
O O10 0.505893 0.292642 0.074463
O O11 0.266252 0.717445 0.976741
O O12 0.667615 0.936604 0.246195
O O13 0.500000 0.000000 0.000000
O O14 0.000000 0.500000 0.000000
O O15 0.127514 0.824473 0.093216
O O16 0.000000 0.000000 0.500000
O O17 0.000000 0.000000 0.000000
#
# Coordination Sequence:
#
# PCOD9015937 Si02
#       7
#     2   2   2   2   2   2   2
#     4  10  21  42  65  99 136 170 223 279 335 401
#     4  11  24  41  69  96 138 172 223 285 341 394
#     4  11  24  45  71  95 142 180 223 284 339 409
#     4  11  26  46  68 102 142 179 228 289 348 404
#     4  11  23  44  66  96 137 174 226 281 339 404
#     4  11  25  47  68  97 135 186 231 275 340 417
#     4  11  22  39  71 102 131 177 226 276 338 414
#
# _framework density 21.570250000000001
#
# number of rings (size 3 to 8) (size 9 to 14) (size 15 to 20)
#    0.000    1.143    4.286    2.143    8.000    4.571 
#    0.000    1.429    0.000    0.000    0.000    0.000 
#    0.000    0.000    0.000    0.000    0.000    0.000 
#
# Total GULP energy -78041.592708 kJ/mol
# GULP energy per Si atom -5574.399479 kJ/mol
# Density = 2.152116 g / cm^3
# Si number density = 21.570250 Si / 1000 Ang^3
#
#
#
# Elastic Constant Matrix: (Units=GPa)
#
#
# Indices 1 2 3 4 5 6 
#
# 1 113.8696 25.5811 20.0779 7.5393 3.4733 0.4639
# 2 25.5811 153.0588 16.6083 -2.4728 1.7247 -14.4798
# 3 20.0779 16.6083 25.2216 -0.4753 9.4868 12.7557
# 4 7.5393 -2.4728 -0.4753 35.4036 -2.9971 -2.9478
# 5 3.4733 1.7247 9.4868 -2.9971 34.0408 -0.0246
# 6 0.4639 -14.4798 12.7557 -2.9478 -0.0246 36.8493
#
#
#
# Elastic Compliance Matrix: (Units=1/GPa)
#
#
# Indices 1 2 3 4 5 6 
#
# 1 0.010825 -0.000397 -0.010678 -0.002062 0.001712 0.003240
# 2 -0.000397 0.008217 -0.009250 0.001275 0.002319 0.006539
# 3 -0.010678 -0.009250 0.077106 -0.001563 -0.020090 -0.030330
# 4 -0.002062 0.001275 -0.001563 0.029305 0.003164 0.003414
# 5 0.001712 0.002319 -0.020090 0.003164 0.034968 0.008120
# 6 0.003240 0.006539 -0.030330 0.003414 0.008120 0.040444
#
#
# Mechanical properties :
#
#
# Convention : Reuss Voigt Hill
#
# Bulk Modulus (GPa) = 18.01857 46.29829 32.15843
# Shear Modulus (GPa) = 19.22986 36.58427 27.90707
#
# Velocity S-wave (km/s) = 2.98904 4.12278 3.60081
# Velocity P-wave (km/s) = 4.50378 6.64633 5.67705
#
# Compressibility (1/GPa) = 0.05549829
#
# Stress axis : x y z
#
# Youngs Moduli (GPa) = 92.37983 121.70544 12.96916
#
# Poissons Ratio (x) = 0.04827 0.13848
# Poissons Ratio (y) = 0.03664 0.11997
# Poissons Ratio (z) = 0.98640 1.12581
#
# Static dielectric constant tensor:
#      x y z
#    x 1.901970 0.069650 0.067470 
#    y 0.069650 1.857890 0.025960 
#    z 0.067470 0.025960 1.881510 
# 
# From -- ./inp_files/184549.got.cif
#   From: 2010.05.17/outbox.cif.g08.bks.cpg/sg2_93_cif.got.tgz:184549.got - 2010.06.03 11:33:40.
