data_PCOD9015818
_publ_section_title
;
Structure prediction by ZEFSAII (Michael W. Deem and Ramdas Pophale) SiO2 
 PCOD9015818
Probable space group: P -1
;
_chemical_formula_sum "Si O2"
_cell_formula_units_Z 16
_cell_length_a 7.315094
_cell_length_b 7.199252
_cell_length_c 16.401193
_cell_angle_alpha 114.201314
_cell_angle_beta 101.599559
_cell_angle_gamma 118.019457
_cell_volume 606.703775
_symmetry_space_group_name_H-M "P -1"
_symmetry_group_IT_number 2
_symmetry_cell_setting 'triclinic'
loop_
_space_group_symop_operation_xyz
x,y,z
-x,-y,-z
loop_
_atom_site_type_symbol
_atom_site_label
_atom_site_fract_x
_atom_site_fract_y
_atom_site_fract_z
Si Si1 0.757824 0.452573 0.979875
Si Si2 0.162229 0.363549 0.303590
Si Si3 0.238896 0.260705 0.112382
Si Si4 0.751556 0.506359 0.158406
Si Si5 0.114120 0.245316 0.455470
Si Si6 0.324598 0.900681 0.834586
Si Si7 0.183367 0.859883 0.371040
Si Si8 0.350261 0.808812 0.639300
O O1 0.705683 0.511373 0.899437
O O2 0.541094 0.168908 0.936181
O O3 0.780973 0.608917 0.089116
O O4 0.000000 0.500000 0.000000
O O5 0.256548 0.341999 0.222579
O O6 0.238191 0.330479 0.391647
O O7 0.171717 0.619051 0.360136
O O8 0.888802 0.113816 0.224275
O O9 0.480916 0.300341 0.126359
O O10 0.000000 0.000000 0.000000
O O11 0.816254 0.312094 0.144044
O O12 0.939378 0.732703 0.275971
O O13 0.231631 0.507868 0.562965
O O14 0.844951 0.151308 0.398797
O O15 0.175255 0.059471 0.460982
O O16 0.411999 0.860461 0.750051
O O17 0.415435 0.012426 0.362388
#
# Coordination Sequence:
#
# PCOD9015818 Si02
#       8
#     2   2   2   2   2   2   2   2
#     4  12  23  40  66  92 131 179 216 275 345 401
#     4  10  24  43  65  99 137 177 230 283 339 410
#     4  12  26  41  64  99 137 177 231 281 336 412
#     4  11  25  39  63 100 130 178 227 273 343 404
#     4  10  24  44  73  98 140 181 227 288 348 405
#     4  10  21  42  65  91 136 169 224 279 331 413
#     4  11  24  43  69 101 135 181 230 283 344 412
#     4  10  22  44  71 103 134 179 229 284 347 404
#
# _framework density 26.372015999999999
#
# number of rings (size 3 to 8) (size 9 to 14) (size 15 to 20)
#    0.000    1.250    0.000    5.625    8.750    0.500 
#    0.000   10.000    0.000    0.000    0.000    0.000 
#    0.000    0.000    0.000    0.000    0.000    0.000 
#
# Total GULP energy -89310.068989 kJ/mol
# GULP energy per Si atom -5581.879312 kJ/mol
# Density = 2.631199 g / cm^3
# Si number density = 26.372016 Si / 1000 Ang^3
#
#
#
# Elastic Constant Matrix: (Units=GPa)
#
#
# Indices 1 2 3 4 5 6 
#
# 1 89.7034 35.8381 13.2854 6.4746 -17.8685 3.8718
# 2 35.8381 75.3379 24.8467 7.1561 -15.5125 -2.0203
# 3 13.2854 24.8467 64.3401 -5.5377 -18.3433 -10.3349
# 4 6.4746 7.1561 -5.5377 46.6483 4.3714 -3.3307
# 5 -17.8685 -15.5125 -18.3433 4.3714 40.6630 2.3684
# 6 3.8718 -2.0203 -10.3349 -3.3307 2.3684 42.7018
#
#
#
# Elastic Compliance Matrix: (Units=1/GPa)
#
#
# Indices 1 2 3 4 5 6 
#
# 1 0.014610 -0.005955 0.000105 -0.001662 0.004488 -0.001960
# 2 -0.005955 0.018715 -0.005640 -0.002952 0.002313 -0.000298
# 3 0.000105 -0.005640 0.020569 0.003002 0.006584 0.004571
# 4 -0.001662 -0.002952 0.003002 0.022963 -0.003129 0.002702
# 5 0.004488 0.002313 0.006584 -0.003129 0.030792 -0.000656
# 6 -0.001960 -0.000298 0.004571 0.002702 -0.000656 0.024935
#
#
# Mechanical properties :
#
#
# Convention : Reuss Voigt Hill
#
# Bulk Modulus (GPa) = 32.34909 41.92463 37.13686
# Shear Modulus (GPa) = 30.14419 36.36336 33.25377
#
# Velocity S-wave (km/s) = 3.38455 3.71733 3.55484
# Velocity P-wave (km/s) = 5.25040 5.86145 5.56432
#
# Compressibility (1/GPa) = 0.03091277
#
# Stress axis : x y z
#
# Youngs Moduli (GPa) = 68.44568 53.43250 48.61777
#
# Poissons Ratio (x) = 0.31819 -0.00509
# Poissons Ratio (y) = 0.40759 0.27422
# Poissons Ratio (z) = -0.00716 0.30137
#
# Static dielectric constant tensor:
#      x y z
#    x 3.077200 -0.505300 0.119630 
#    y -0.505300 2.405020 -0.101880 
#    z 0.119630 -0.101880 2.035780 
# 
# From -- ./inp_files/557470.got.cif
#   From: 2010.05.17/outbox.cif.g08.bks.cpg/sg2_279_cif.got.tgz:557470.got - 2010.06.03 11:33:40.
