data_PCOD9015356
_publ_section_title
;
Structure prediction by ZEFSAII (Michael W. Deem and Ramdas Pophale) SiO2 
 PCOD9015356
Probable space group: P -1
;
_chemical_formula_sum "Si O2"
_cell_formula_units_Z 14
_cell_length_a 17.992362
_cell_length_b 9.167542
_cell_length_c 7.968787
_cell_angle_alpha 131.980963
_cell_angle_beta 40.670197
_cell_angle_gamma 135.067158
_cell_volume 579.618902
_symmetry_space_group_name_H-M "P -1"
_symmetry_group_IT_number 2
_symmetry_cell_setting 'triclinic'
loop_
_space_group_symop_operation_xyz
x,y,z
-x,-y,-z
loop_
_atom_site_type_symbol
_atom_site_label
_atom_site_fract_x
_atom_site_fract_y
_atom_site_fract_z
Si Si1 0.453132 0.703709 0.040288
Si Si2 0.488672 0.335068 0.543171
Si Si3 0.314266 0.741255 0.639290
Si Si4 0.147055 0.098373 0.805962
Si Si5 0.172136 0.031460 0.083348
Si Si6 0.880785 0.709970 0.328074
Si Si7 0.664124 0.042495 0.731211
O O1 0.398542 0.740817 0.336183
O O2 0.363694 0.749676 0.090642
O O3 0.453817 0.468633 0.849964
O O4 0.588608 0.889438 0.896216
O O5 0.500000 0.500000 0.500000
O O6 0.606534 0.294382 0.372446
O O7 0.397818 0.112100 0.442359
O O8 0.180291 0.537546 0.706309
O O9 0.278229 0.943037 0.858212
O O10 0.175473 0.273805 0.746023
O O11 0.194423 0.927642 0.510015
O O12 0.191976 0.152589 0.962648
O O13 0.000000 0.000000 0.000000
O O14 0.165929 0.170927 0.359004
O O15 0.031745 0.835103 0.161425
#
# Coordination Sequence:
#
# PCOD9015356 Si02
#       7
#     2   2   2   2   2   2   2
#     4  10  22  37  61  91 126 170 209 258 327 376
#     4  10  23  38  57  90 127 166 210 258 326 381
#     4  12  23  40  64  98 129 167 221 274 320 394
#     4  10  21  43  70  94 127 173 218 266 326 387
#     4  10  23  44  66 100 126 176 222 261 334 389
#     4  10  23  42  69  94 137 168 214 281 322 382
#     4  10  21  42  61  89 133 167 211 270 318 392
#
# _framework density 24.153801999999999
#
# number of rings (size 3 to 8) (size 9 to 14) (size 15 to 20)
#    0.000    1.714    1.429    2.571    2.000    5.143 
#    0.000    0.000    0.000    7.714    0.000    0.000 
#    0.000    0.000    0.000    0.000    0.000    0.000 
#
# Total GULP energy -78182.008832 kJ/mol
# GULP energy per Si atom -5584.429202 kJ/mol
# Density = 2.409883 g / cm^3
# Si number density = 24.153802 Si / 1000 Ang^3
#
#
#
# Elastic Constant Matrix: (Units=GPa)
#
#
# Indices 1 2 3 4 5 6 
#
# 1 113.6052 35.8816 57.7490 -1.1340 6.1937 -25.7295
# 2 35.8816 72.8876 26.6554 6.8317 12.8589 -16.2842
# 3 57.7490 26.6554 149.2125 -2.9219 -1.9573 -21.4199
# 4 -1.1340 6.8317 -2.9219 47.2533 -13.1048 -0.7491
# 5 6.1937 12.8589 -1.9573 -13.1048 42.9576 -1.7607
# 6 -25.7295 -16.2842 -21.4199 -0.7491 -1.7607 28.5659
#
#
#
# Elastic Compliance Matrix: (Units=1/GPa)
#
#
# Indices 1 2 3 4 5 6 
#
# 1 0.013434 -0.003657 -0.003480 0.000611 -0.000512 0.007391
# 2 -0.003657 0.018865 -0.001265 -0.004551 -0.006320 0.006003
# 3 -0.003480 -0.001265 0.008726 0.001169 0.001751 0.002826
# 4 0.000611 -0.004551 0.001169 0.024335 0.008752 0.000011
# 5 -0.000512 -0.006320 0.001751 0.008752 0.027961 -0.000798
# 6 0.007391 0.006003 0.002826 0.000011 -0.000798 0.047156
#
#
# Mechanical properties :
#
#
# Convention : Reuss Voigt Hill
#
# Bulk Modulus (GPa) = 41.28421 64.03079 52.65750
# Shear Modulus (GPa) = 30.23792 38.11665 34.17728
#
# Velocity S-wave (km/s) = 3.54205 3.97682 3.76571
# Velocity P-wave (km/s) = 5.81871 6.90318 6.38402
#
# Compressibility (1/GPa) = 0.02422233
#
# Stress axis : x y z
#
# Youngs Moduli (GPa) = 74.43698 53.00748 114.59687
#
# Poissons Ratio (x) = 0.19383 0.39879
# Poissons Ratio (y) = 0.27219 0.14498
# Poissons Ratio (z) = 0.25903 0.06706
#
# Static dielectric constant tensor:
#      x y z
#    x 2.031630 0.004380 -0.004680 
#    y 0.004380 1.940090 -0.022270 
#    z -0.004680 -0.022270 1.990040 
# 
# From -- ./inp_files/342174.got.cif
#   From: 2010.05.17/outbox.cif.g08.bks.cpg/sg2_172_cif.got.tgz:342174.got - 2010.06.03 11:33:40.
