data_PCOD9015586
_publ_section_title
;
Structure prediction by ZEFSAII (Michael W. Deem and Ramdas Pophale) SiO2 
 PCOD9015586
Probable space group: P -1
;
_chemical_formula_sum "Si O2"
_cell_formula_units_Z 16
_cell_length_a 20.397309
_cell_length_b 19.576794
_cell_length_c 8.516429
_cell_angle_alpha 147.496046
_cell_angle_beta 143.568377
_cell_angle_gamma 22.362227
_cell_volume 690.191368
_symmetry_space_group_name_H-M "P -1"
_symmetry_group_IT_number 2
_symmetry_cell_setting 'triclinic'
loop_
_space_group_symop_operation_xyz
x,y,z
-x,-y,-z
loop_
_atom_site_type_symbol
_atom_site_label
_atom_site_fract_x
_atom_site_fract_y
_atom_site_fract_z
Si Si1 0.253764 0.325036 0.566509
Si Si2 0.167557 0.672912 0.151223
Si Si3 0.861531 0.520802 0.712377
Si Si4 0.660716 0.196734 0.756168
Si Si5 0.790860 0.115900 0.196818
Si Si6 0.493134 0.131245 0.137796
Si Si7 0.613225 0.047785 0.855398
Si Si8 0.264837 0.618792 0.891999
O O1 0.194546 0.382747 0.383718
O O2 0.460279 0.168176 0.668408
O O3 0.242855 0.191195 0.353496
O O4 0.170814 0.517322 0.875043
O O5 0.225542 0.717924 0.486889
O O6 0.282954 0.592996 0.063943
O O7 0.982904 0.893463 0.169928
O O8 0.705128 0.653649 0.793868
O O9 0.882795 0.350159 0.387941
O O10 0.000000 0.500000 0.000000
O O11 0.646989 0.080558 0.407604
O O12 0.454926 0.413371 0.794319
O O13 0.734440 0.125470 0.933986
O O14 0.763778 0.213464 0.894333
O O15 0.678523 0.132998 0.135244
O O16 0.529700 0.094899 0.954551
O O17 0.500000 0.000000 0.000000
#
# Coordination Sequence:
#
# PCOD9015586 Si02
#       8
#     2   2   2   2   2   2   2   2
#     4  10  23  44  65  94 128 172 217 270 320 383
#     4  10  23  43  61  94 135 167 214 266 332 397
#     4  10  21  42  63  99 134 167 209 268 330 398
#     4  10  22  40  69  93 125 166 223 275 315 389
#     4  11  24  41  65  94 131 174 216 270 330 387
#     4  11  22  39  65  94 127 165 217 268 324 381
#     4  11  23  43  68  96 127 171 226 271 316 393
#     4   9  20  41  65  94 123 166 221 265 324 381
#
# _framework density 23.181977
#
# number of rings (size 3 to 8) (size 9 to 14) (size 15 to 20)
#    0.000    1.750    1.250    3.000    1.750    8.000 
#    6.750    0.000    0.000    0.000    0.000    0.000 
#    0.000    0.000    0.000    0.000    0.000    0.000 
#
# Total GULP energy -89271.563588 kJ/mol
# GULP energy per Si atom -5579.472724 kJ/mol
# Density = 2.312921 g / cm^3
# Si number density = 23.181977 Si / 1000 Ang^3
#
#
#
# Elastic Constant Matrix: (Units=GPa)
#
#
# Indices 1 2 3 4 5 6 
#
# 1 45.5210 20.4547 30.0202 -16.4356 9.9729 10.5637
# 2 20.4547 52.7278 65.5386 -2.9845 12.8454 14.2992
# 3 30.0202 65.5386 169.5094 -20.4589 10.9066 6.8528
# 4 -16.4356 -2.9845 -20.4589 31.7987 -3.6265 -3.7877
# 5 9.9729 12.8454 10.9066 -3.6265 29.7415 -0.8536
# 6 10.5637 14.2992 6.8528 -3.7877 -0.8536 21.4649
#
#
#
# Elastic Compliance Matrix: (Units=1/GPa)
#
#
# Indices 1 2 3 4 5 6 
#
# 1 0.034924 -0.008009 -0.000466 0.015152 -0.006500 -0.009288
# 2 -0.008009 0.064007 -0.022951 -0.019410 -0.019931 -0.035589
# 3 -0.000466 -0.022951 0.015105 0.009516 0.006052 0.012616
# 4 0.015152 -0.019410 0.009516 0.045500 0.005668 0.010690
# 5 -0.006500 -0.019931 0.006052 0.005668 0.043378 0.017269
# 6 -0.009288 -0.035589 0.012616 0.010690 0.017269 0.073412
#
#
# Mechanical properties :
#
#
# Convention : Reuss Voigt Hill
#
# Bulk Modulus (GPa) = 19.53712 55.53170 37.53441
# Shear Modulus (GPa) = 14.03556 26.71735 20.37645
#
# Velocity S-wave (km/s) = 2.46326 3.39854 2.96797
# Velocity P-wave (km/s) = 4.06648 6.27748 5.28881
#
# Compressibility (1/GPa) = 0.05118461
#
# Stress axis : x y z
#
# Youngs Moduli (GPa) = 28.63363 15.62327 66.20476
#
# Poissons Ratio (x) = 0.12512 0.03086
# Poissons Ratio (y) = 0.22932 1.51945
# Poissons Ratio (z) = 0.01335 0.35857
#
# Static dielectric constant tensor:
#      x y z
#    x 1.837330 -0.038100 0.021660 
#    y -0.038100 1.955370 0.085940 
#    z 0.021660 0.085940 1.930430 
# 
# From -- ./inp_files/345949.got.cif
#   From: 2010.05.17/outbox.cif.g08.bks.cpg/sg2_173_cif.got.tgz:345949.got - 2010.06.03 11:33:40.
