data_PCOD9015321
_publ_section_title
;
Structure prediction by ZEFSAII (Michael W. Deem and Ramdas Pophale) SiO2 
 PCOD9015321
Probable space group: P -1
;
_chemical_formula_sum "Si O2"
_cell_formula_units_Z 16
_cell_length_a 16.800065
_cell_length_b 11.641830
_cell_length_c 10.838684
_cell_angle_alpha 107.661749
_cell_angle_beta 133.242269
_cell_angle_gamma 38.169534
_cell_volume 813.716995
_symmetry_space_group_name_H-M "P -1"
_symmetry_group_IT_number 2
_symmetry_cell_setting 'triclinic'
loop_
_space_group_symop_operation_xyz
x,y,z
-x,-y,-z
loop_
_atom_site_type_symbol
_atom_site_label
_atom_site_fract_x
_atom_site_fract_y
_atom_site_fract_z
Si Si1 0.965206 0.593762 0.748039
Si Si2 0.725770 0.667494 0.318220
Si Si3 0.021925 0.746876 0.694463
Si Si4 0.645952 0.118064 0.945383
Si Si5 0.414935 0.155498 0.107140
Si Si6 0.670397 0.135129 0.265537
Si Si7 0.391089 0.588248 0.045916
Si Si8 0.321446 0.157378 0.262521
O O1 0.825787 0.649036 0.526318
O O2 0.953303 0.747191 0.749580
O O3 0.876681 0.647609 0.805465
O O4 0.189526 0.342655 0.889612
O O5 0.589701 0.683594 0.225476
O O6 0.892917 0.450805 0.346395
O O7 0.569526 0.904356 0.169322
O O8 0.199875 0.677728 0.873254
O O9 0.852443 0.954300 0.493262
O O10 0.701179 0.947638 0.872326
O O11 0.721511 0.060930 0.150128
O O12 0.678745 0.211615 0.937724
O O13 0.508987 0.185735 0.154942
O O14 0.384691 0.193697 0.235635
O O15 0.560478 0.364957 0.230971
O O16 0.500000 0.500000 0.000000
O O17 0.500000 0.000000 0.500000
#
# Coordination Sequence:
#
# PCOD9015321 Si02
#       8
#     2   2   2   2   2   2   2   2
#     4  12  23  39  62  90 127 163 201 243 310 367
#     4  11  22  37  59  96 121 153 199 257 303 360
#     4  12  23  37  65  94 123 161 201 251 311 356
#     4  10  22  41  63  88 126 161 197 255 302 353
#     4  11  23  39  62  90 129 159 199 250 313 357
#     4  11  22  39  64  93 125 158 203 253 305 359
#     4  10  21  42  60  88 125 159 202 252 300 360
#     4  11  22  42  62  89 126 161 200 251 300 366
#
# _framework density 19.662856000000001
#
# number of rings (size 3 to 8) (size 9 to 14) (size 15 to 20)
#    0.000    1.000    7.500    0.750    3.500    4.500 
#    0.000    0.625    0.000    1.500    0.000    0.000 
#    0.000    0.000    0.000    0.000    0.000    0.000 
#
# Total GULP energy -89200.755420 kJ/mol
# GULP energy per Si atom -5575.047214 kJ/mol
# Density = 1.961810 g / cm^3
# Si number density = 19.662856 Si / 1000 Ang^3
#
#
#
# Elastic Constant Matrix: (Units=GPa)
#
#
# Indices 1 2 3 4 5 6 
#
# 1 94.6506 28.6689 22.6972 -5.4386 -13.6366 9.4620
# 2 28.6689 61.6156 17.1861 -11.0216 -10.2035 6.0160
# 3 22.6972 17.1861 120.9826 -24.2825 -13.7381 4.7698
# 4 -5.4386 -11.0216 -24.2825 31.0297 4.0332 2.6203
# 5 -13.6366 -10.2035 -13.7381 4.0332 22.1856 -7.9690
# 6 9.4620 6.0160 4.7698 2.6203 -7.9690 34.3040
#
#
#
# Elastic Compliance Matrix: (Units=1/GPa)
#
#
# Indices 1 2 3 4 5 6 
#
# 1 0.013164 -0.005025 -0.001387 -0.001042 0.004606 -0.001407
# 2 -0.005025 0.020584 -0.000236 0.005777 0.004623 -0.001559
# 3 -0.001387 -0.000236 0.010533 0.007460 0.003957 -0.000691
# 4 -0.001042 0.005777 0.007460 0.040759 -0.002755 -0.005516
# 5 0.004606 0.004623 0.003957 -0.002755 0.056857 0.010787
# 6 -0.001407 -0.001559 -0.000691 -0.005516 0.010787 0.032836
#
#
# Mechanical properties :
#
#
# Convention : Reuss Voigt Hill
#
# Bulk Modulus (GPa) = 32.27045 46.03925 39.15485
# Shear Modulus (GPa) = 25.20715 31.41697 28.31206
#
# Velocity S-wave (km/s) = 3.58434 4.00156 3.79869
# Velocity P-wave (km/s) = 5.79461 6.69441 6.26070
#
# Compressibility (1/GPa) = 0.03098810
#
# Stress axis : x y z
#
# Youngs Moduli (GPa) = 75.96497 48.58067 94.93774
#
# Poissons Ratio (x) = 0.24410 0.13164
# Poissons Ratio (y) = 0.38169 0.02236
# Poissons Ratio (z) = 0.10533 0.01144
#
# Static dielectric constant tensor:
#      x y z
#    x 1.777210 -0.010690 -0.048770 
#    y -0.010690 1.740000 -0.019790 
#    z -0.048770 -0.019790 1.726370 
# 
# From -- ./inp_files/464637.got.cif
#   From: 2010.05.17/outbox.cif.g08.bks.cpg/sg2_233_cif.got.tgz:464637.got - 2010.06.03 11:33:40.
