data_PCOD9015350
_publ_section_title
;
Structure prediction by ZEFSAII (Michael W. Deem and Ramdas Pophale) SiO2 
 PCOD9015350
Probable space group: P -1
;
_chemical_formula_sum "Si O2"
_cell_formula_units_Z 16
_cell_length_a 17.016077
_cell_length_b 7.844244
_cell_length_c 13.923745
_cell_angle_alpha 104.840606
_cell_angle_beta 158.920167
_cell_angle_gamma 74.976453
_cell_volume 645.057577
_symmetry_space_group_name_H-M "P -1"
_symmetry_group_IT_number 2
_symmetry_cell_setting 'triclinic'
loop_
_space_group_symop_operation_xyz
x,y,z
-x,-y,-z
loop_
_atom_site_type_symbol
_atom_site_label
_atom_site_fract_x
_atom_site_fract_y
_atom_site_fract_z
Si Si1 0.497990 0.761848 0.076948
Si Si2 0.769410 0.413213 0.400089
Si Si3 0.840796 0.729131 0.087774
Si Si4 0.311189 0.289081 0.297992
Si Si5 0.136941 0.023128 0.401244
Si Si6 0.564986 0.438520 0.375040
Si Si7 0.350890 0.980651 0.439993
Si Si8 0.722190 0.228132 0.972238
O O1 0.666754 0.590623 0.260010
O O2 0.651146 0.922616 0.291872
O O3 0.364500 0.737783 0.824634
O O4 0.322951 0.760405 0.963945
O O5 0.719884 0.421833 0.458207
O O6 0.028739 0.376168 0.693335
O O7 0.979105 0.901902 0.262934
O O8 0.827015 0.675165 0.951222
O O9 0.582861 0.729665 0.815726
O O10 0.323976 0.473998 0.394623
O O11 0.550256 0.195883 0.525288
O O12 0.237270 0.131795 0.261989
O O13 0.206481 0.952619 0.365211
O O14 0.970490 0.193066 0.219271
O O15 0.384101 0.595346 0.168665
O O16 0.569035 0.075509 0.737770
#
# Coordination Sequence:
#
# PCOD9015350 Si02
#       8
#     2   2   2   2   2   2   2   2
#     4   9  21  43  70  87 119 160 207 255 302 362
#     4  10  23  44  64  92 120 162 206 252 307 362
#     4  12  25  38  59  96 129 158 202 252 307 364
#     4  10  21  42  61  88 125 168 200 254 297 349
#     4  11  22  38  67  94 121 158 205 256 302 364
#     4  10  23  41  61  86 132 163 200 250 300 363
#     4   9  20  40  61  90 124 158 209 247 296 359
#     4   9  18  40  66  91 116 159 209 250 296 363
#
# _framework density 24.803989999999999
#
# number of rings (size 3 to 8) (size 9 to 14) (size 15 to 20)
#    0.000    2.000    1.250    1.875    1.750    2.500 
#    2.250    5.000    0.000    0.000    0.000    0.000 
#    0.000    0.000    0.000    0.000    0.000    0.000 
#
# Total GULP energy -89329.552796 kJ/mol
# GULP energy per Si atom -5583.097050 kJ/mol
# Density = 2.474753 g / cm^3
# Si number density = 24.803990 Si / 1000 Ang^3
#
#
#
# Elastic Constant Matrix: (Units=GPa)
#
#
# Indices 1 2 3 4 5 6 
#
# 1 -1.7300 12.8544 8.0617 -10.2640 -29.5775 -6.3533
# 2 12.8544 54.6610 17.5991 3.5154 -11.3970 3.8514
# 3 8.0617 17.5991 113.6663 2.3103 -29.4492 -6.2762
# 4 -10.2640 3.5154 2.3103 43.9866 -4.3674 1.1335
# 5 -29.5775 -11.3970 -29.4492 -4.3674 32.1831 6.5178
# 6 -6.3533 3.8514 -6.2762 1.1335 6.5178 33.9251
#
#
#
# Elastic Compliance Matrix: (Units=1/GPa)
#
#
# Indices 1 2 3 4 5 6 
#
# 1 -0.025999 0.002460 -0.006074 -0.008890 -0.029734 -0.000262
# 2 0.002460 0.020263 -0.001150 0.000023 0.009160 -0.003813
# 3 -0.006074 -0.001150 0.010266 -0.001564 0.003122 0.000345
# 4 -0.008890 0.000023 -0.001564 0.020121 -0.006586 -0.001364
# 5 -0.029734 0.009160 0.003122 -0.006586 0.010540 -0.007836
# 6 -0.000262 -0.003813 0.000345 -0.001364 -0.007836 0.031475
#
#
# Mechanical properties :
#
#
# Convention : Reuss Voigt Hill
#
# Bulk Modulus (GPa) = -200.14428 27.06974 -86.53727
# Shear Modulus (GPa) = 67.08750 30.55776 48.82263
#
# Velocity S-wave (km/s) = 5.20632 3.51375 4.44141
# Velocity P-wave (km/s) = 6.68764 5.23441 2.94325
#
# Compressibility (1/GPa) = -0.00499640
#
# Stress axis : x y z
#
# Youngs Moduli (GPa) = -38.46374 49.35027 97.40611
#
# Poissons Ratio (x) = -0.12142 0.59169
# Poissons Ratio (y) = 0.09463 0.11198
# Poissons Ratio (z) = -0.23365 0.05673
#
# Static dielectric constant tensor:
#      x y z
#    x 1.976030 0.042780 0.020090 
#    y 0.042780 2.183670 -0.033230 
#    z 0.020090 -0.033230 1.949140 
# 
# From -- ./inp_files/336772.got.cif
#   From: 2010.05.17/outbox.cif.g08.bks.cpg/sg2_169_cif.got.tgz:336772.got - 2010.06.03 11:33:40.
