data_PCOD9015163
_publ_section_title
;
Structure prediction by ZEFSAII (Michael W. Deem and Ramdas Pophale) SiO2 
 PCOD9015163
Probable space group: P -1
;
_chemical_formula_sum "Si O2"
_cell_formula_units_Z 14
_cell_length_a 7.345072
_cell_length_b 8.532041
_cell_length_c 11.715328
_cell_angle_alpha 70.674885
_cell_angle_beta 121.937588
_cell_angle_gamma 128.442779
_cell_volume 487.984653
_symmetry_space_group_name_H-M "P -1"
_symmetry_group_IT_number 2
_symmetry_cell_setting 'triclinic'
loop_
_space_group_symop_operation_xyz
x,y,z
-x,-y,-z
loop_
_atom_site_type_symbol
_atom_site_label
_atom_site_fract_x
_atom_site_fract_y
_atom_site_fract_z
Si Si1 0.240817 0.917705 0.107069
Si Si2 0.718346 0.470770 0.032227
Si Si3 0.156733 0.592473 0.679882
Si Si4 0.105835 0.918998 0.460658
Si Si5 0.580155 0.521296 0.740643
Si Si6 0.014599 0.960652 0.822001
Si Si7 0.419710 0.745864 0.374918
O O1 0.165682 0.030418 0.143934
O O2 0.444861 0.894764 0.247270
O O3 0.986526 0.689500 0.067769
O O4 0.257830 0.003122 0.966167
O O5 0.749171 0.346829 0.171039
O O6 0.500000 0.500000 0.000000
O O7 0.642448 0.416651 0.888437
O O8 0.117418 0.742616 0.560022
O O9 0.360064 0.555467 0.697715
O O10 0.872978 0.389779 0.646985
O O11 0.951053 0.888943 0.300988
O O12 0.397394 0.114649 0.497286
O O13 0.000000 0.000000 0.500000
O O14 0.519500 0.399791 0.633547
O O15 0.848732 0.739274 0.767902
#
# Coordination Sequence:
#
# PCOD9015163 Si02
#       7
#     2   2   2   2   2   2   2
#     4   9  20  41  71  98 131 181 234 290 342 398
#     4   8  17  36  64  99 133 173 231 286 338 403
#     4  10  23  45  70  98 139 187 230 282 348 413
#     4  12  28  46  68 104 146 185 227 281 350 422
#     4  10  21  41  72 101 136 184 231 287 348 404
#     4  10  22  43  69 101 140 183 232 285 345 414
#     4  11  25  46  71 104 139 178 235 289 341 412
#
# _framework density 28.689427999999999
#
# number of rings (size 3 to 8) (size 9 to 14) (size 15 to 20)
#    0.000    2.000    0.000    1.714    0.000   15.429 
#    0.000   10.000    0.000    0.000    0.000    0.000 
#    0.000    0.000    0.000    0.000    0.000    0.000 
#
# Total GULP energy -78588.495446 kJ/mol
# GULP energy per Si atom -5613.463960 kJ/mol
# Density = 2.862413 g / cm^3
# Si number density = 28.689428 Si / 1000 Ang^3
#
#
#
# Elastic Constant Matrix: (Units=GPa)
#
#
# Indices 1 2 3 4 5 6 
#
# 1 107.6706 30.0391 28.5791 -17.8363 16.8602 -15.3764
# 2 30.0391 92.4267 50.8249 -8.1214 -5.2762 -6.9398
# 3 28.5791 50.8249 291.5758 -21.5378 -14.4402 -4.1961
# 4 -17.8363 -8.1214 -21.5378 45.8369 9.6275 6.6362
# 5 16.8602 -5.2762 -14.4402 9.6275 35.4955 -1.8628
# 6 -15.3764 -6.9398 -4.1961 6.6362 -1.8628 51.8628
#
#
#
# Elastic Compliance Matrix: (Units=1/GPa)
#
#
# Indices 1 2 3 4 5 6 
#
# 1 0.013051 -0.003728 -0.000601 0.005563 -0.008385 0.002309
# 2 -0.003728 0.013206 -0.001821 -0.000751 0.003235 0.000727
# 3 -0.000601 -0.001821 0.003946 0.001047 0.001326 -0.000189
# 4 0.005563 -0.000751 0.001047 0.026680 -0.009676 -0.002128
# 5 -0.008385 0.003235 0.001326 -0.009676 0.035831 0.000579
# 6 0.002309 0.000727 -0.000189 -0.002128 0.000579 0.020341
#
#
# Mechanical properties :
#
#
# Convention : Reuss Voigt Hill
#
# Bulk Modulus (GPa) = 55.85475 78.95105 67.40290
# Shear Modulus (GPa) = 38.07385 52.12106 45.09746
#
# Velocity S-wave (km/s) = 3.64690 4.26694 3.96904
# Velocity P-wave (km/s) = 6.10280 7.20102 6.67453
#
# Compressibility (1/GPa) = 0.01790358
#
# Stress axis : x y z
#
# Youngs Moduli (GPa) = 76.61985 75.72451 253.40459
#
# Poissons Ratio (x) = 0.28230 0.15218
# Poissons Ratio (y) = 0.28564 0.46154
# Poissons Ratio (z) = 0.04601 0.13792
#
# Static dielectric constant tensor:
#      x y z
#    x 2.245900 0.069550 0.009360 
#    y 0.069550 2.238790 0.007500 
#    z 0.009360 0.007500 2.283110 
# 
# From -- ./inp_files/172823.got.cif
#   From: 2010.05.17/outbox.cif.g08.bks.cpg/sg2_87_cif.got.tgz:172823.got - 2010.06.03 11:33:40.
