data_PCOD9015985
_publ_section_title
;
Structure prediction by ZEFSAII (Michael W. Deem and Ramdas Pophale) SiO2 
 PCOD9015985
Probable space group: P -1
;
_chemical_formula_sum "Si O2"
_cell_formula_units_Z 12
_cell_length_a 14.007080
_cell_length_b 12.790983
_cell_length_c 4.949756
_cell_angle_alpha 77.907289
_cell_angle_beta 57.102173
_cell_angle_gamma 41.221232
_cell_volume 457.825119
_symmetry_space_group_name_H-M "P -1"
_symmetry_group_IT_number 2
_symmetry_cell_setting 'triclinic'
loop_
_space_group_symop_operation_xyz
x,y,z
-x,-y,-z
loop_
_atom_site_type_symbol
_atom_site_label
_atom_site_fract_x
_atom_site_fract_y
_atom_site_fract_z
Si Si1 0.616056 0.307679 0.386013
Si Si2 0.959920 0.605736 0.252561
Si Si3 0.938658 0.141345 0.329990
Si Si4 0.501131 0.740395 0.905037
Si Si5 0.876406 0.386140 0.619751
Si Si6 0.771406 0.903608 0.091276
O O1 0.500000 0.500000 0.500000
O O2 0.813559 0.194725 0.251260
O O3 0.579812 0.289854 0.154346
O O4 0.549795 0.261901 0.716136
O O5 0.000000 0.500000 0.500000
O O6 0.102557 0.598897 0.104810
O O7 0.777178 0.804797 0.354103
O O8 0.000000 0.500000 0.000000
O O9 0.834772 0.300252 0.606489
O O10 0.115864 0.075324 0.988901
O O11 0.000000 0.000000 0.500000
O O12 0.717324 0.577485 0.649588
O O13 0.408595 0.918457 0.859400
O O14 0.084534 0.242976 0.275330
#
# Coordination Sequence:
#
# PCOD9015985 Si02
#       6
#     2   2   2   2   2   2
#     4  12  24  40  63 101 147 198 233 267 332 410
#     4  12  25  49  80 100 132 182 234 300 366 416
#     4  10  21  42  66 106 143 194 228 273 334 415
#     4  12  27  42  68 103 148 183 233 288 336 416
#     4  10  25  46  71 104 141 183 229 288 354 406
#     4  10  25  45  71 106 138 186 233 290 345 419
#
# _framework density 26.21088
#
# number of rings (size 3 to 8) (size 9 to 14) (size 15 to 20)
#    1.000    0.000    5.000    0.500    9.333    0.667 
#    0.000    1.667    0.000    0.000    0.000    0.000 
#    0.000    0.000    0.000    0.000    0.000    0.000 
#
# Total GULP energy -67043.562731 kJ/mol
# GULP energy per Si atom -5586.963561 kJ/mol
# Density = 2.615122 g / cm^3
# Si number density = 26.210880 Si / 1000 Ang^3
#
#
#
# Elastic Constant Matrix: (Units=GPa)
#
#
# Indices 1 2 3 4 5 6 
#
# 1 104.8553 34.5601 31.1208 16.2592 17.2096 -17.3660
# 2 34.5601 283.7754 32.1026 -5.3705 -3.4275 -25.4692
# 3 31.1208 32.1026 81.9626 -5.1635 13.6683 -7.6777
# 4 16.2592 -5.3705 -5.1635 47.2994 2.4710 -5.5136
# 5 17.2096 -3.4275 13.6683 2.4710 38.9785 0.7231
# 6 -17.3660 -25.4692 -7.6777 -5.5136 0.7231 48.1845
#
#
#
# Elastic Compliance Matrix: (Units=1/GPa)
#
#
# Indices 1 2 3 4 5 6 
#
# 1 0.012867 -0.000998 -0.003778 -0.004370 -0.004224 0.003071
# 2 -0.000998 0.003949 -0.001152 0.000796 0.001111 0.001619
# 3 -0.003778 -0.001152 0.015012 0.003108 -0.003910 0.000836
# 4 -0.004370 0.000796 0.003108 0.023341 -0.000608 0.002021
# 5 -0.004224 0.001111 -0.003910 -0.000608 0.029066 -0.002064
# 6 0.003071 0.001619 0.000836 0.002021 -0.002064 0.023112
#
#
# Mechanical properties :
#
#
# Convention : Reuss Voigt Hill
#
# Bulk Modulus (GPa) = 50.06450 74.01783 62.04117
# Shear Modulus (GPa) = 39.72693 51.74646 45.73670
#
# Velocity S-wave (km/s) = 3.89738 4.44806 4.18179
# Velocity P-wave (km/s) = 6.27653 7.39466 6.85842
#
# Compressibility (1/GPa) = 0.01997423
#
# Stress axis : x y z
#
# Youngs Moduli (GPa) = 77.72107 253.19744 66.61167
#
# Poissons Ratio (x) = 0.25261 0.25165
# Poissons Ratio (y) = 0.07754 0.07671
# Poissons Ratio (z) = 0.29362 0.29157
#
# Static dielectric constant tensor:
#      x y z
#    x 2.109740 0.084140 -0.053830 
#    y 0.084140 2.076670 -0.000010 
#    z -0.053830 -0.000010 2.213490 
# 
# From -- ./inp_files/92450.got.cif
#   From: 2010.05.17/outbox.cif.g08.bks.cpg/sg2_47_cif.got.tgz:92450.got - 2010.06.03 11:33:40.
