data_PCOD9015109
_publ_section_title
;
Structure prediction by ZEFSAII (Michael W. Deem and Ramdas Pophale) SiO2 
 PCOD9015109
Probable space group: P -1
;
_chemical_formula_sum "Si O2"
_cell_formula_units_Z 16
_cell_length_a 8.898665
_cell_length_b 8.876372
_cell_length_c 19.092671
_cell_angle_alpha 107.952233
_cell_angle_beta 136.978877
_cell_angle_gamma 100.698097
_cell_volume 757.602561
_symmetry_space_group_name_H-M "P -1"
_symmetry_group_IT_number 2
_symmetry_cell_setting 'triclinic'
loop_
_space_group_symop_operation_xyz
x,y,z
-x,-y,-z
loop_
_atom_site_type_symbol
_atom_site_label
_atom_site_fract_x
_atom_site_fract_y
_atom_site_fract_z
Si Si1 0.620341 0.514420 0.262123
Si Si2 0.157768 0.239778 0.162003
Si Si3 0.438045 0.578979 0.422276
Si Si4 0.787041 0.045309 0.795385
Si Si5 0.723725 0.214812 0.509225
Si Si6 0.354473 0.470867 0.018079
Si Si7 0.210665 0.715658 0.060600
Si Si8 0.729814 0.851794 0.437145
O O1 0.442943 0.325609 0.227451
O O2 0.556718 0.658754 0.296971
O O3 0.955924 0.630398 0.389878
O O4 0.497852 0.460207 0.134408
O O5 0.230039 0.387304 0.272606
O O6 0.959432 0.244387 0.042056
O O7 0.046939 0.022068 0.120388
O O8 0.500000 0.500000 0.500000
O O9 0.302433 0.682740 0.418068
O O10 0.708675 0.743410 0.487390
O O11 0.028809 0.261054 0.871712
O O12 0.538578 0.852298 0.638658
O O13 0.641560 0.102684 0.807428
O O14 0.658166 0.996420 0.459425
O O15 0.389710 0.674625 0.071520
O O16 0.500000 0.500000 0.000000
O O17 0.000000 0.500000 0.000000
O O18 0.000000 0.000000 0.500000
#
# Coordination Sequence:
#
# PCOD9015109 Si02
#       8
#     2   2   2   2   2   2   2   2
#     4  10  22  42  65  96 132 168 219 270 328 386
#     4  11  22  43  69  93 134 176 216 269 326 404
#     4  11  23  41  61  98 139 174 214 273 341 387
#     4  11  23  41  68  96 126 172 224 259 327 396
#     4  11  23  40  67 100 130 172 220 272 329 390
#     4  11  25  42  65  95 132 166 218 277 327 381
#     4  10  21  41  71  92 123 170 224 262 325 391
#     4   9  21  40  64  90 127 173 224 265 318 390
#
# _framework density 21.119251999999999
#
# number of rings (size 3 to 8) (size 9 to 14) (size 15 to 20)
#    0.000    1.500    3.750    1.500    7.000    2.500 
#    2.250    3.125    0.000    0.000    0.000    0.000 
#    0.000    0.000    0.000    0.000    0.000    0.000 
#
# Total GULP energy -89100.833662 kJ/mol
# GULP energy per Si atom -5568.802104 kJ/mol
# Density = 2.107118 g / cm^3
# Si number density = 21.119252 Si / 1000 Ang^3
#
#
#
# Elastic Constant Matrix: (Units=GPa)
#
#
# Indices 1 2 3 4 5 6 
#
# 1 136.7108 37.9794 37.6914 9.5484 -32.0740 0.3307
# 2 37.9794 82.8158 6.3580 -2.2800 -11.9900 -1.1841
# 3 37.6914 6.3580 82.3064 4.0785 -12.5967 6.1798
# 4 9.5484 -2.2800 4.0785 26.3125 -5.1895 -10.0396
# 5 -32.0740 -11.9900 -12.5967 -5.1895 38.9940 5.0512
# 6 0.3307 -1.1841 6.1798 -10.0396 5.0512 29.5203
#
#
#
# Elastic Compliance Matrix: (Units=1/GPa)
#
#
# Indices 1 2 3 4 5 6 
#
# 1 0.011181 -0.004013 -0.003500 -0.003237 0.006633 -0.001789
# 2 -0.004013 0.014202 0.000711 0.003404 0.001573 0.001354
# 3 -0.003500 0.000711 0.014445 -0.001996 0.002261 -0.004022
# 4 -0.003237 0.003404 -0.001996 0.046251 0.001821 0.016009
# 5 0.006633 0.001573 0.002261 0.001821 0.033278 -0.005559
# 6 -0.001789 0.001354 -0.004022 0.016009 -0.005559 0.041187
#
#
# Mechanical properties :
#
#
# Convention : Reuss Voigt Hill
#
# Bulk Modulus (GPa) = 38.13502 51.76565 44.95034
# Shear Modulus (GPa) = 27.33894 33.61897 30.47896
#
# Velocity S-wave (km/s) = 3.60182 3.99415 3.80305
# Velocity P-wave (km/s) = 5.94926 6.77017 6.37295
#
# Compressibility (1/GPa) = 0.02622262
#
# Stress axis : x y z
#
# Youngs Moduli (GPa) = 89.43412 70.41391 69.22973
#
# Poissons Ratio (x) = 0.28260 0.24233
# Poissons Ratio (y) = 0.35894 -0.04924
# Poissons Ratio (z) = 0.31306 -0.05008
#
# Static dielectric constant tensor:
#      x y z
#    x 1.815540 -0.019350 -0.013420 
#    y -0.019350 1.825680 -0.016390 
#    z -0.013420 -0.016390 1.811720 
# 
# From -- ./inp_files/557396.got.cif
#   From: 2010.05.17/outbox.cif.g08.bks.cpg/sg2_279_cif.got.tgz:557396.got - 2010.06.03 11:33:40.
