data_PCOD9015151
_publ_section_title
;
Structure prediction by ZEFSAII (Michael W. Deem and Ramdas Pophale) SiO2 
 PCOD9015151
Probable space group: P -1
;
_chemical_formula_sum "Si O2"
_cell_formula_units_Z 16
_cell_length_a 7.610889
_cell_length_b 11.690796
_cell_length_c 16.512957
_cell_angle_alpha 44.177609
_cell_angle_beta 136.747396
_cell_angle_gamma 143.537801
_cell_volume 566.305213
_symmetry_space_group_name_H-M "P -1"
_symmetry_group_IT_number 2
_symmetry_cell_setting 'triclinic'
loop_
_space_group_symop_operation_xyz
x,y,z
-x,-y,-z
loop_
_atom_site_type_symbol
_atom_site_label
_atom_site_fract_x
_atom_site_fract_y
_atom_site_fract_z
Si Si1 0.500773 0.820417 0.968780
Si Si2 0.795777 0.127541 0.295908
Si Si3 0.788888 0.160189 0.665321
Si Si4 0.084346 0.497772 0.316262
Si Si5 0.251498 0.341230 0.604285
Si Si6 0.894381 0.845286 0.932056
Si Si7 0.715730 0.889840 0.596166
Si Si8 0.500235 0.529069 0.829697
O O1 0.225625 0.808998 0.834435
O O2 0.700359 0.816161 0.962790
O O3 0.429710 0.630998 0.092487
O O4 0.736721 0.035080 0.983004
O O5 0.828361 0.283391 0.293763
O O6 0.122912 0.155332 0.397983
O O7 0.471075 0.905020 0.317299
O O8 0.555228 0.105504 0.538590
O O9 0.119171 0.353450 0.640359
O O10 0.881187 0.009353 0.793971
O O11 0.193497 0.461914 0.457047
O O12 0.395954 0.598564 0.313963
O O13 0.874485 0.581509 0.217998
O O14 0.015228 0.106604 0.617194
O O15 0.725145 0.642796 0.926113
O O16 0.583404 0.711652 0.706468
#
# Coordination Sequence:
#
# PCOD9015151 Si02
#       8
#     2   2   2   2   2   2   2   2
#     4  10  24  42  68 102 135 178 241 272 326 408
#     4  11  24  43  65  95 137 177 223 288 329 395
#     4  11  20  42  72  93 136 178 222 278 348 410
#     4  11  23  40  64 100 140 173 220 281 342 404
#     4  11  22  40  65 101 136 171 228 272 340 430
#     4  10  21  41  72 100 128 179 227 282 333 395
#     4  12  23  41  69 101 133 179 223 275 353 404
#     4  12  22  45  73  97 135 189 220 277 347 398
#
# _framework density 28.253316999999999
#
# number of rings (size 3 to 8) (size 9 to 14) (size 15 to 20)
#    0.000    1.000    6.250    1.125    0.000    4.500 
#    2.250    1.875    0.000    2.250    0.000    0.000 
#    0.000    0.000    0.000    0.000    0.000    0.000 
#
# Total GULP energy -89598.754678 kJ/mol
# GULP energy per Si atom -5599.922167 kJ/mol
# Density = 2.818901 g / cm^3
# Si number density = 28.253317 Si / 1000 Ang^3
#
#
#
# Elastic Constant Matrix: (Units=GPa)
#
#
# Indices 1 2 3 4 5 6 
#
# 1 92.2937 21.0370 11.5928 3.7158 7.2373 28.4272
# 2 21.0370 139.8090 45.0175 4.4326 3.9139 19.0879
# 3 11.5928 45.0175 144.7806 -0.7767 3.7739 15.8683
# 4 3.7158 4.4326 -0.7767 38.9784 6.5417 0.6662
# 5 7.2373 3.9139 3.7739 6.5417 33.9504 0.1063
# 6 28.4272 19.0879 15.8683 0.6662 0.1063 41.1950
#
#
#
# Elastic Compliance Matrix: (Units=1/GPa)
#
#
# Indices 1 2 3 4 5 6 
#
# 1 0.014149 -0.000813 0.000226 -0.000621 -0.002798 -0.009457
# 2 -0.000813 0.008373 -0.002266 -0.000815 -0.000375 -0.002432
# 3 0.000226 -0.002266 0.007851 0.000557 -0.000760 -0.002137
# 4 -0.000621 -0.000815 0.000557 0.026649 -0.004971 0.000173
# 5 -0.002798 -0.000375 -0.000760 -0.004971 0.031129 0.002398
# 6 -0.009457 -0.002432 -0.002137 0.000173 0.002398 0.032742
#
#
# Mechanical properties :
#
#
# Convention : Reuss Voigt Hill
#
# Bulk Modulus (GPa) = 40.54106 59.13088 49.83597
# Shear Modulus (GPa) = 37.08601 42.77383 39.92992
#
# Velocity S-wave (km/s) = 3.62695 3.89516 3.76344
# Velocity P-wave (km/s) = 5.64977 6.41903 6.04665
#
# Compressibility (1/GPa) = 0.02466635
#
# Stress axis : x y z
#
# Youngs Moduli (GPa) = 70.67605 119.43101 127.37807
#
# Poissons Ratio (x) = 0.09704 -0.02877
# Poissons Ratio (y) = 0.05743 0.28870
# Poissons Ratio (z) = -0.01596 0.27069
#
# Static dielectric constant tensor:
#      x y z
#    x 2.262730 -0.058450 -0.074370 
#    y -0.058450 2.213770 -0.013440 
#    z -0.074370 -0.013440 2.160190 
# 
# From -- ./inp_files/561370.got.cif
#   From: 2010.05.17/outbox.cif.g08.bks.cpg/sg2_281_cif.got.tgz:561370.got - 2010.06.03 11:33:40.
