data_PCOD9015518
_publ_section_title
;
Structure prediction by ZEFSAII (Michael W. Deem and Ramdas Pophale) SiO2 
 PCOD9015518
Probable space group: P -1
;
_chemical_formula_sum "Si O2"
_cell_formula_units_Z 16
_cell_length_a 19.559061
_cell_length_b 8.226590
_cell_length_c 16.186199
_cell_angle_alpha 57.130130
_cell_angle_beta 155.320501
_cell_angle_gamma 132.576798
_cell_volume 778.479855
_symmetry_space_group_name_H-M "P -1"
_symmetry_group_IT_number 2
_symmetry_cell_setting 'triclinic'
loop_
_space_group_symop_operation_xyz
x,y,z
-x,-y,-z
loop_
_atom_site_type_symbol
_atom_site_label
_atom_site_fract_x
_atom_site_fract_y
_atom_site_fract_z
Si Si1 0.625690 0.439492 0.433085
Si Si2 0.300516 0.289683 0.234856
Si Si3 0.501230 0.231537 0.870291
Si Si4 0.298424 0.783621 0.572074
Si Si5 0.337578 0.740331 0.134834
Si Si6 0.993506 0.670599 0.880636
Si Si7 0.767394 0.308768 0.293064
Si Si8 0.058374 0.960380 0.197752
O O1 0.437534 0.265362 0.327440
O O2 0.576282 0.608279 0.286099
O O3 0.709894 0.349925 0.481486
O O4 0.784610 0.564579 0.642390
O O5 0.381528 0.552555 0.269481
O O6 0.236137 0.132313 0.287201
O O7 0.103275 0.221227 0.989955
O O8 0.639218 0.251574 0.940780
O O9 0.320201 0.966485 0.744027
O O10 0.636602 0.330567 0.072757
O O11 0.295312 0.677695 0.686214
O O12 0.498261 0.017315 0.720681
O O13 0.131565 0.842914 0.372644
O O14 0.140020 0.701663 0.961665
O O15 0.030140 0.901264 0.898139
O O16 0.000000 0.500000 0.000000
O O17 0.000000 0.500000 0.500000
#
# Coordination Sequence:
#
# PCOD9015518 Si02
#       8
#     2   2   2   2   2   2   2   2
#     4  11  25  42  63  95 134 170 218 264 322 387
#     4  10  22  39  63  88 126 174 209 269 307 387
#     4   9  22  46  69  98 133 172 215 272 338 395
#     4  11  25  41  67  95 127 172 217 266 329 389
#     4  10  21  42  63  92 131 170 211 270 318 384
#     4  12  24  38  63  94 130 173 220 261 317 383
#     4  10  22  42  75  98 127 169 218 275 340 396
#     4  11  23  39  62  92 126 171 222 254 329 376
#
# _framework density 20.552876999999999
#
# number of rings (size 3 to 8) (size 9 to 14) (size 15 to 20)
#    0.000    1.500    1.250    3.750    8.750    2.000 
#    2.250    0.625    0.000    0.000    0.000    0.000 
#    0.000    0.000    0.000    0.000    0.000    0.000 
#
# Total GULP energy -89238.719342 kJ/mol
# GULP energy per Si atom -5577.419959 kJ/mol
# Density = 2.050610 g / cm^3
# Si number density = 20.552877 Si / 1000 Ang^3
#
#
#
# Elastic Constant Matrix: (Units=GPa)
#
#
# Indices 1 2 3 4 5 6 
#
# 1 58.6729 27.9804 29.0202 -2.0905 8.1685 -3.2900
# 2 27.9804 52.0901 25.7020 2.2144 6.3276 -3.2080
# 3 29.0202 25.7020 110.4788 3.8587 -7.9350 11.5879
# 4 -2.0905 2.2144 3.8587 41.2878 0.7088 3.9858
# 5 8.1685 6.3276 -7.9350 0.7088 35.3029 -1.4157
# 6 -3.2900 -3.2080 11.5879 3.9858 -1.4157 24.3406
#
#
#
# Elastic Compliance Matrix: (Units=1/GPa)
#
#
# Indices 1 2 3 4 5 6 
#
# 1 0.025551 -0.010422 -0.005132 0.002044 -0.005082 0.003893
# 2 -0.010422 0.027697 -0.004340 -0.001979 -0.003310 0.004439
# 3 -0.005132 -0.004340 0.012472 -0.000610 0.004506 -0.006841
# 4 0.002044 -0.001979 -0.000610 0.024871 -0.000908 -0.003820
# 5 -0.005082 -0.003310 0.004506 -0.000908 0.031074 -0.001313
# 6 0.003893 0.004439 -0.006841 -0.003820 -0.001313 0.046001
#
#
# Mechanical properties :
#
#
# Convention : Reuss Voigt Hill
#
# Bulk Modulus (GPa) = 38.56345 42.96078 40.76212
# Shear Modulus (GPa) = 23.13769 29.42222 26.27995
#
# Velocity S-wave (km/s) = 3.35888 3.78767 3.57970
# Velocity P-wave (km/s) = 5.81778 6.33060 6.07960
#
# Compressibility (1/GPa) = 0.02593129
#
# Stress axis : x y z
#
# Youngs Moduli (GPa) = 39.13767 36.10489 80.18189
#
# Poissons Ratio (x) = 0.37630 0.41146
# Poissons Ratio (y) = 0.40791 0.34799
# Poissons Ratio (z) = 0.20084 0.15670
#
# Static dielectric constant tensor:
#      x y z
#    x 1.678810 0.038580 0.081630 
#    y 0.038580 1.748500 -0.028120 
#    z 0.081630 -0.028120 1.590700 
# 
# From -- ./inp_files/342467.got.cif
#   From: 2010.05.17/outbox.cif.g08.bks.cpg/sg2_172_cif.got.tgz:342467.got - 2010.06.03 11:33:40.
