data_PCOD9015314
_publ_section_title
;
Structure prediction by ZEFSAII (Michael W. Deem and Ramdas Pophale) SiO2 
 PCOD9015314
Probable space group: P -1
;
_chemical_formula_sum "Si O2"
_cell_formula_units_Z 16
_cell_length_a 5.135207
_cell_length_b 24.593699
_cell_length_c 11.343117
_cell_angle_alpha 35.880745
_cell_angle_beta 79.101030
_cell_angle_gamma 61.221082
_cell_volume 677.249577
_symmetry_space_group_name_H-M "P -1"
_symmetry_group_IT_number 2
_symmetry_cell_setting 'triclinic'
loop_
_space_group_symop_operation_xyz
x,y,z
-x,-y,-z
loop_
_atom_site_type_symbol
_atom_site_label
_atom_site_fract_x
_atom_site_fract_y
_atom_site_fract_z
Si Si1 0.341539 0.650258 0.583117
Si Si2 0.337510 0.108455 0.149558
Si Si3 0.685714 0.538094 0.334573
Si Si4 0.448249 0.044692 0.796540
Si Si5 0.957914 0.913231 0.582968
Si Si6 0.969322 0.478978 0.176781
Si Si7 0.612220 0.689685 0.270619
Si Si8 0.752575 0.173845 0.529066
O O1 0.074867 0.624224 0.642668
O O2 0.357751 0.705113 0.363297
O O3 0.314426 0.720434 0.577203
O O4 0.706631 0.540047 0.762935
O O5 0.079407 0.157170 0.190380
O O6 0.281585 0.050166 0.148207
O O7 0.639697 0.001040 0.379698
O O8 0.387161 0.200265 0.933186
O O9 0.500000 0.500000 0.500000
O O10 0.682265 0.555598 0.162638
O O11 0.587720 0.651696 0.209347
O O12 0.047601 0.423908 0.519330
O O13 0.490521 0.146258 0.617869
O O14 0.101739 0.077856 0.723487
O O15 0.500000 0.000000 0.000000
O O16 0.206820 0.831197 0.606341
O O17 0.000000 0.000000 0.500000
O O18 0.000000 0.500000 0.000000
#
# Coordination Sequence:
#
# PCOD9015314 Si02
#       8
#     2   2   2   2   2   2   2   2
#     4  11  23  43  66  97 130 169 219 274 323 401
#     4  10  22  39  63  91 124 174 220 266 330 389
#     4  10  21  43  65  92 132 167 213 279 330 387
#     4  11  22  39  61  91 127 164 209 265 318 388
#     4  10  21  42  59  85 134 168 213 275 318 385
#     4  11  24  44  69  94 136 172 214 273 341 395
#     4  10  22  40  66  94 126 169 222 272 330 391
#     4  11  23  40  64  87 130 169 207 265 329 376
#
# _framework density 23.624970000000001
#
# number of rings (size 3 to 8) (size 9 to 14) (size 15 to 20)
#    0.000    1.500    2.500    2.250    0.000    4.000 
#    4.500    0.000    0.000    0.000    0.000    0.000 
#    0.000    0.000    0.000    0.000    0.000    0.000 
#
# Total GULP energy -89160.031759 kJ/mol
# GULP energy per Si atom -5572.501985 kJ/mol
# Density = 2.357120 g / cm^3
# Si number density = 23.624970 Si / 1000 Ang^3
#
#
#
# Elastic Constant Matrix: (Units=GPa)
#
#
# Indices 1 2 3 4 5 6 
#
# 1 53.1306 20.7035 20.2647 7.0160 -7.4447 5.9044
# 2 20.7035 173.2636 21.3769 29.0844 -12.5676 13.6581
# 3 20.2647 21.3769 60.9432 20.7935 -11.9848 -5.5927
# 4 7.0160 29.0844 20.7935 48.7313 4.3581 -10.3776
# 5 -7.4447 -12.5676 -11.9848 4.3581 34.2492 -1.6797
# 6 5.9044 13.6581 -5.5927 -10.3776 -1.6797 34.3940
#
#
#
# Elastic Compliance Matrix: (Units=1/GPa)
#
#
# Indices 1 2 3 4 5 6 
#
# 1 0.022850 -0.001233 -0.006954 -0.000761 0.001948 -0.004698
# 2 -0.001233 0.007367 -0.000201 -0.005281 0.002831 -0.004202
# 3 -0.006954 -0.000201 0.023740 -0.009136 0.008020 0.002769
# 4 -0.000761 -0.005281 -0.009136 0.030487 -0.008713 0.009515
# 5 0.001948 0.002831 0.008020 -0.008713 0.034521 -0.001097
# 6 -0.004698 -0.004202 0.002769 0.009515 -0.001097 0.034818
#
#
# Mechanical properties :
#
#
# Convention : Reuss Voigt Hill
#
# Bulk Modulus (GPa) = 26.89531 45.78084 36.33807
# Shear Modulus (GPa) = 27.32964 38.47438 32.90201
#
# Velocity S-wave (km/s) = 3.40488 4.03990 3.73591
# Velocity P-wave (km/s) = 5.18330 6.41727 5.83301
#
# Compressibility (1/GPa) = 0.03718121
#
# Stress axis : x y z
#
# Youngs Moduli (GPa) = 43.76393 135.74470 42.12281
#
# Poissons Ratio (x) = 0.16737 0.29292
# Poissons Ratio (y) = 0.05396 0.00846
# Poissons Ratio (z) = 0.30433 0.02727
#
# Static dielectric constant tensor:
#      x y z
#    x 2.056920 0.071850 0.074340 
#    y 0.071850 2.490090 -0.041670 
#    z 0.074340 -0.041670 1.970290 
# 
# From -- ./inp_files/370964.got.cif
#   From: 2010.05.17/outbox.cif.g08.bks.cpg/sg2_186_cif.got.tgz:370964.got - 2010.06.03 11:33:40.
