data_PCOD9015908
_publ_section_title
;
Structure prediction by ZEFSAII (Michael W. Deem and Ramdas Pophale) SiO2 
 PCOD9015908
Probable space group: P -1
;
_chemical_formula_sum "Si O2"
_cell_formula_units_Z 14
_cell_length_a 11.045577
_cell_length_b 12.269908
_cell_length_c 11.519406
_cell_angle_alpha 35.239055
_cell_angle_beta 66.754463
_cell_angle_gamma 91.330042
_cell_volume 627.687873
_symmetry_space_group_name_H-M "P -1"
_symmetry_group_IT_number 2
_symmetry_cell_setting 'triclinic'
loop_
_space_group_symop_operation_xyz
x,y,z
-x,-y,-z
loop_
_atom_site_type_symbol
_atom_site_label
_atom_site_fract_x
_atom_site_fract_y
_atom_site_fract_z
Si Si1 0.644956 0.880807 0.056920
Si Si2 0.261218 0.619475 0.480559
Si Si3 0.162933 0.549654 0.838659
Si Si4 0.366002 0.401347 0.899793
Si Si5 0.065133 0.850969 0.086271
Si Si6 0.645629 0.955204 0.354165
Si Si7 0.451773 0.134879 0.264856
O O1 0.439279 0.669092 0.348384
O O2 0.692371 0.762276 0.051085
O O3 0.669426 0.102426 0.789640
O O4 0.781965 0.030714 0.979484
O O5 0.170518 0.507825 0.736278
O O6 0.110582 0.438344 0.600340
O O7 0.216491 0.400279 0.007527
O O8 0.309092 0.845271 0.539902
O O9 0.000000 0.500000 0.000000
O O10 0.517603 0.694453 0.560098
O O11 0.435390 0.304371 0.045061
O O12 0.164037 0.919269 0.867326
O O13 0.000000 0.000000 0.000000
O O14 0.588675 0.859333 0.590832
O O15 0.621002 0.158399 0.168361
#
# Coordination Sequence:
#
# PCOD9015908 Si02
#       7
#     2   2   2   2   2   2   2
#     4  11  24  44  72 101 133 185 233 278 342 412
#     4  11  24  45  70  98 141 182 227 286 344 402
#     4  11  23  41  64  97 139 180 222 284 347 406
#     4  11  22  41  70  98 130 184 232 276 346 411
#     4  12  25  43  65 104 139 178 230 283 346 409
#     4  10  23  41  67  96 136 175 227 286 336 407
#     4  10  21  42  65  97 130 183 230 275 345 402
#
# _framework density 22.304079000000002
#
# number of rings (size 3 to 8) (size 9 to 14) (size 15 to 20)
#    0.000    1.143    1.429    5.143    2.000    2.286 
#    5.143    0.000    0.000    0.000    0.000    0.000 
#    0.000    0.000    0.000    0.000    0.000    0.000 
#
# Total GULP energy -78113.817894 kJ/mol
# GULP energy per Si atom -5579.558421 kJ/mol
# Density = 2.225331 g / cm^3
# Si number density = 22.304079 Si / 1000 Ang^3
#
#
#
# Elastic Constant Matrix: (Units=GPa)
#
#
# Indices 1 2 3 4 5 6 
#
# 1 100.5249 57.6888 54.3232 8.9314 -0.2587 -30.6315
# 2 57.6888 114.1271 43.8069 -5.8441 -13.3297 -16.5411
# 3 54.3232 43.8069 71.5710 -1.3210 -13.7150 -16.8862
# 4 8.9314 -5.8441 -1.3210 33.7947 -0.3289 -10.3420
# 5 -0.2587 -13.3297 -13.7150 -0.3289 46.7321 -5.0308
# 6 -30.6315 -16.5411 -16.8862 -10.3420 -5.0308 55.0801
#
#
#
# Elastic Compliance Matrix: (Units=1/GPa)
#
#
# Indices 1 2 3 4 5 6 
#
# 1 0.023132 -0.006771 -0.013328 -0.006300 -0.005212 0.005086
# 2 -0.006771 0.013840 -0.002438 0.004353 0.003308 0.000763
# 3 -0.013328 -0.002438 0.027568 0.004835 0.007561 0.001906
# 4 -0.006300 0.004353 0.004835 0.034069 0.003512 0.006004
# 5 -0.005212 0.003308 0.007561 0.003512 0.024917 0.003348
# 6 0.005086 0.000763 0.001906 0.006004 0.003348 0.023230
#
#
# Mechanical properties :
#
#
# Convention : Reuss Voigt Hill
#
# Bulk Modulus (GPa) = 51.36982 66.42899 58.89941
# Shear Modulus (GPa) = 25.21182 35.81501 30.51341
#
# Velocity S-wave (km/s) = 3.36574 4.01154 3.70275
# Velocity P-wave (km/s) = 6.17947 7.16272 6.68919
#
# Compressibility (1/GPa) = 0.01946668
#
# Stress axis : x y z
#
# Youngs Moduli (GPa) = 43.23019 72.25269 36.27351
#
# Poissons Ratio (x) = 0.48922 0.48346
# Poissons Ratio (y) = 0.29271 0.08843
# Poissons Ratio (z) = 0.57618 0.17615
#
# Static dielectric constant tensor:
#      x y z
#    x 1.036920 -0.431470 -0.893100 
#    y -0.431470 1.638670 -0.442310 
#    z -0.893100 -0.442310 0.986930 
# 
# From -- ./inp_files/424855.got.cif
#   From: 2010.05.17/outbox.cif.g08.bks.cpg/sg2_213_cif.got.tgz:424855.got - 2010.06.03 11:33:40.
