data_PCOD9015239
_publ_section_title
;
Structure prediction by ZEFSAII (Michael W. Deem and Ramdas Pophale) SiO2 
 PCOD9015239
Probable space group: P -1
;
_chemical_formula_sum "Si O2"
_cell_formula_units_Z 12
_cell_length_a 13.880521
_cell_length_b 9.778662
_cell_length_c 8.687917
_cell_angle_alpha 121.040749
_cell_angle_beta 145.549878
_cell_angle_gamma 42.141157
_cell_volume 433.091621
_symmetry_space_group_name_H-M "P -1"
_symmetry_group_IT_number 2
_symmetry_cell_setting 'triclinic'
loop_
_space_group_symop_operation_xyz
x,y,z
-x,-y,-z
loop_
_atom_site_type_symbol
_atom_site_label
_atom_site_fract_x
_atom_site_fract_y
_atom_site_fract_z
Si Si1 0.740349 0.213690 0.910719
Si Si2 0.029541 0.299381 0.477334
Si Si3 0.655144 0.967288 0.821784
Si Si4 0.254310 0.624810 0.556570
Si Si5 0.365624 0.356185 0.275471
Si Si6 0.583465 0.142429 0.140746
O O1 0.804024 0.014770 0.971219
O O2 0.515169 0.420421 0.815208
O O3 0.597949 0.670088 0.873514
O O4 0.927882 0.233734 0.182554
O O5 0.893789 0.354247 0.489859
O O6 0.000000 0.500000 0.500000
O O7 0.278804 0.082595 0.723405
O O8 0.500000 0.000000 0.500000
O O9 0.736604 0.751591 0.874761
O O10 0.519346 0.130247 0.877481
O O11 0.226504 0.565668 0.315015
O O12 0.241723 0.821246 0.639724
O O13 0.622069 0.231679 0.605291
#
# Coordination Sequence:
#
# PCOD9015239 Si02
#       6
#     2   2   2   2   2   2
#     4   9  22  42  73  93 147 192 238 280 361 421
#     4  12  27  43  70 110 151 189 237 301 367 420
#     4  10  21  41  73 106 141 186 245 290 356 422
#     4  10  23  46  73 100 142 200 237 289 354 435
#     4   9  23  41  74 104 138 188 249 282 349 437
#     4  12  24  42  74 108 148 183 242 302 365 413
#
# _framework density 27.707761000000001
#
# number of rings (size 3 to 8) (size 9 to 14) (size 15 to 20)
#    1.000    0.667    1.667    2.000    2.333    2.000 
#    0.000    0.833    0.000    0.000    0.000    0.000 
#    0.000    0.000    0.000    0.000    0.000    0.000 
#
# Total GULP energy -67119.767452 kJ/mol
# GULP energy per Si atom -5593.313954 kJ/mol
# Density = 2.764470 g / cm^3
# Si number density = 27.707761 Si / 1000 Ang^3
#
#
#
# Elastic Constant Matrix: (Units=GPa)
#
#
# Indices 1 2 3 4 5 6 
#
# 1 147.8301 56.7888 45.7521 19.3289 -21.5021 10.0736
# 2 56.7888 126.7574 46.4302 18.7524 6.5167 26.3067
# 3 45.7521 46.4302 165.2034 15.6859 -26.1552 2.7294
# 4 19.3289 18.7524 15.6859 59.9844 -9.8229 18.1241
# 5 -21.5021 6.5167 -26.1552 -9.8229 52.4304 16.9877
# 6 10.0736 26.3067 2.7294 18.1241 16.9877 55.1924
#
#
#
# Elastic Compliance Matrix: (Units=1/GPa)
#
#
# Indices 1 2 3 4 5 6 
#
# 1 0.009173 -0.003755 -0.000775 -0.000666 0.003995 -0.000857
# 2 -0.003755 0.011553 -0.002579 -0.001336 -0.003481 -0.003184
# 3 -0.000775 -0.002579 0.007619 -0.000298 0.003770 -0.000068
# 4 -0.000666 -0.001336 -0.000298 0.020812 0.006228 -0.007978
# 5 0.003995 -0.003481 0.003770 0.006228 0.027339 -0.009716
# 6 -0.000857 -0.003184 -0.000068 -0.007978 -0.009716 0.025406
#
#
# Mechanical properties :
#
#
# Convention : Reuss Voigt Hill
#
# Bulk Modulus (GPa) = 70.78328 81.97034 76.37681
# Shear Modulus (GPa) = 41.38051 52.90942 47.14496
#
# Velocity S-wave (km/s) = 3.86873 4.37458 4.12941
# Velocity P-wave (km/s) = 6.74966 7.42725 7.09655
#
# Compressibility (1/GPa) = 0.01412763
#
# Stress axis : x y z
#
# Youngs Moduli (GPa) = 109.01029 86.55645 131.25235
#
# Poissons Ratio (x) = 0.32500 0.10177
# Poissons Ratio (y) = 0.40930 0.33848
# Poissons Ratio (z) = 0.08452 0.22322
#
# Static dielectric constant tensor:
#      x y z
#    x 2.114640 0.024420 0.024770 
#    y 0.024420 2.142890 -0.017080 
#    z 0.024770 -0.017080 2.238300 
# 
# From -- ./inp_files/240796.got.cif
#   From: 2010.05.17/outbox.cif.g08.bks.cpg/sg2_121_cif.got.tgz:240796.got - 2010.06.03 11:33:40.
