data_PCOD9015164
_publ_section_title
;
Structure prediction by ZEFSAII (Michael W. Deem and Ramdas Pophale) SiO2 
 PCOD9015164
Probable space group: P -1
;
_chemical_formula_sum "Si O2"
_cell_formula_units_Z 15
_cell_length_a 9.112953
_cell_length_b 9.304866
_cell_length_c 8.455096
_cell_angle_alpha 84.155269
_cell_angle_beta 104.467471
_cell_angle_gamma 113.273111
_cell_volume 637.722783
_symmetry_space_group_name_H-M "P -1"
_symmetry_group_IT_number 2
_symmetry_cell_setting 'triclinic'
loop_
_space_group_symop_operation_xyz
x,y,z
-x,-y,-z
loop_
_atom_site_type_symbol
_atom_site_label
_atom_site_fract_x
_atom_site_fract_y
_atom_site_fract_z
Si Si1 0.340170 0.817312 0.149897
Si Si2 0.364353 0.498135 0.839760
Si Si3 0.549785 0.659384 0.400968
Si Si4 0.165325 0.129072 0.347824
Si Si5 0.977944 0.703630 0.189986
Si Si6 0.582223 0.164316 0.205674
Si Si7 0.915322 0.197734 0.464256
Si Si8 0.000000 0.000000 0.000000
O O1 0.411239 0.710370 0.281884
O O2 0.144284 0.753636 0.125422
O O3 0.432484 0.998190 0.212486
O O4 0.386436 0.822156 0.977291
O O5 0.349310 0.368778 0.717399
O O6 0.429139 0.672716 0.769265
O O7 0.183440 0.448727 0.872236
O O8 0.500000 0.500000 0.000000
O O9 0.500000 0.500000 0.500000
O O10 0.657629 0.787287 0.538293
O O11 0.134000 0.104449 0.157371
O O12 0.056146 0.223890 0.370291
O O13 0.107388 0.962265 0.435603
O O14 0.030835 0.684868 0.386245
O O15 0.930803 0.853088 0.124993
O O16 0.745457 0.170425 0.337002
#
# Coordination Sequence:
#
# PCOD9015164 Si02
#       8
#     2   2   2   2   2   2   2   1
#     4  11  26  48  73 112 145 196 249 303 370 438
#     4  12  28  49  71 107 150 197 245 305 379 440
#     4  12  27  47  73 106 151 195 242 310 373 442
#     4  10  21  43  68 106 142 188 248 295 366 436
#     4  11  26  43  72 109 146 188 252 302 372 441
#     4  11  25  45  77 103 154 192 246 306 367 441
#     4  10  21  41  72 101 139 191 239 299 360 436
#     4  10  24  40  74 106 142 192 244 308 358 438
#
# _framework density 23.521191999999999
#
# number of rings (size 3 to 8) (size 9 to 14) (size 15 to 20)
#    0.000    1.067    4.000    0.800    5.600    3.733 
#    0.000    0.000    0.000    0.000    0.000    0.000 
#    0.000    0.000    0.000    0.000    0.000    0.000 
#
# Total GULP energy -83570.888077 kJ/mol
# GULP energy per Si atom -5571.392538 kJ/mol
# Density = 2.346766 g / cm^3
# Si number density = 23.521192 Si / 1000 Ang^3
#
#
#
# Elastic Constant Matrix: (Units=GPa)
#
#
# Indices 1 2 3 4 5 6 
#
# 1 90.7235 23.2595 32.9705 -3.4534 7.2117 23.8340
# 2 23.2595 79.7934 31.1507 -7.3284 5.3043 8.4842
# 3 32.9705 31.1507 168.4658 5.1826 24.9295 8.6773
# 4 -3.4534 -7.3284 5.1826 37.3220 4.7299 2.3887
# 5 7.2117 5.3043 24.9295 4.7299 18.9404 4.5972
# 6 23.8340 8.4842 8.6773 2.3887 4.5972 23.1191
#
#
#
# Elastic Compliance Matrix: (Units=1/GPa)
#
#
# Indices 1 2 3 4 5 6 
#
# 1 0.016565 -0.002108 -0.002167 0.002384 0.000378 -0.015812
# 2 -0.002108 0.014602 -0.002162 0.003216 -0.000617 -0.002584
# 3 -0.002167 -0.002162 0.008089 -0.000666 -0.009524 0.001954
# 4 0.002384 0.003216 -0.000666 0.028938 -0.006945 -0.004997
# 5 0.000378 -0.000617 -0.009524 -0.006945 0.069446 -0.009680
# 6 -0.015812 -0.002584 0.001954 -0.004997 -0.009680 0.062211
#
#
# Mechanical properties :
#
#
# Convention : Reuss Voigt Hill
#
# Bulk Modulus (GPa) = 37.90378 57.08268 47.49323
# Shear Modulus (GPa) = 22.57143 32.64977 27.61060
#
# Velocity S-wave (km/s) = 3.10114 3.72976 3.42988
# Velocity P-wave (km/s) = 5.38261 6.54748 5.99341
#
# Compressibility (1/GPa) = 0.02638260
#
# Stress axis : x y z
#
# Youngs Moduli (GPa) = 60.36799 68.48429 123.62393
#
# Poissons Ratio (x) = 0.14434 0.26790
# Poissons Ratio (y) = 0.12723 0.26728
# Poissons Ratio (z) = 0.13082 0.14807
#
# Static dielectric constant tensor:
#      x y z
#    x 2.021750 -0.032160 -0.053570 
#    y -0.032160 1.951780 0.030810 
#    z -0.053570 0.030810 1.859930 
# 
# From -- ./inp_files/158227.got.cif
#   From: 2010.05.17/outbox.cif.g08.bks.cpg/sg2_80_cif.got.tgz:158227.got - 2010.06.03 11:33:40.
