data_PCOD9015357
_publ_section_title
;
Structure prediction by ZEFSAII (Michael W. Deem and Ramdas Pophale) SiO2 
 PCOD9015357
Probable space group: P -1
;
_chemical_formula_sum "Si O2"
_cell_formula_units_Z 16
_cell_length_a 8.559358
_cell_length_b 9.007001
_cell_length_c 10.036476
_cell_angle_alpha 89.930506
_cell_angle_beta 95.932990
_cell_angle_gamma 116.733188
_cell_volume 686.452483
_symmetry_space_group_name_H-M "P -1"
_symmetry_group_IT_number 2
_symmetry_cell_setting 'triclinic'
loop_
_space_group_symop_operation_xyz
x,y,z
-x,-y,-z
loop_
_atom_site_type_symbol
_atom_site_label
_atom_site_fract_x
_atom_site_fract_y
_atom_site_fract_z
Si Si1 0.448251 0.097462 0.826996
Si Si2 0.633501 0.478275 0.331502
Si Si3 0.006290 0.588820 0.861535
Si Si4 0.140106 0.990710 0.409451
Si Si5 0.492236 0.268597 0.560006
Si Si6 0.970912 0.060346 0.140836
Si Si7 0.968381 0.378894 0.621136
Si Si8 0.422158 0.756102 0.890961
O O1 0.507938 0.164706 0.684887
O O2 0.236377 0.023965 0.832498
O O3 0.502145 0.949079 0.856365
O O4 0.537261 0.236535 0.949154
O O5 0.630259 0.361291 0.455411
O O6 0.544323 0.589713 0.372761
O O7 0.837472 0.600059 0.319826
O O8 0.531461 0.361331 0.198740
O O9 0.956984 0.740130 0.859902
O O10 0.906940 0.452952 0.739561
O O11 0.214060 0.681442 0.845466
O O12 0.000000 0.500000 0.000000
O O13 0.141727 0.813799 0.421932
O O14 0.323377 0.141213 0.463885
O O15 0.000000 0.000000 0.500000
O O16 0.076941 0.012171 0.258608
O O17 0.000000 0.000000 0.000000
O O18 0.000000 0.500000 0.500000
#
# Coordination Sequence:
#
# PCOD9015357 Si02
#       8
#     2   2   2   2   2   2   2   2
#     4  10  21  42  61  90 118 163 204 251 302 364
#     4  10  23  42  59  93 126 158 205 256 302 363
#     4  10  22  41  61  91 124 158 204 255 306 363
#     4  12  22  41  64  93 124 166 208 252 311 368
#     4  11  24  40  64  91 128 160 207 251 305 369
#     4  11  23  39  65  92 123 161 206 255 305 369
#     4  11  23  40  65  91 125 163 204 257 310 364
#     4   9  22  41  63  84 125 160 204 250 305 362
#
# _framework density 23.308240000000001
#
# number of rings (size 3 to 8) (size 9 to 14) (size 15 to 20)
#    0.000    1.500    2.500    1.500    5.250    3.000 
#    4.500    0.000    0.000    0.000    0.000    0.000 
#    0.000    0.000    0.000    0.000    0.000    0.000 
#
# Total GULP energy -89516.031763 kJ/mol
# GULP energy per Si atom -5594.751985 kJ/mol
# Density = 2.325519 g / cm^3
# Si number density = 23.308240 Si / 1000 Ang^3
#
#
#
# Elastic Constant Matrix: (Units=GPa)
#
#
# Indices 1 2 3 4 5 6 
#
# 1 49.1705 22.4444 1.0528 12.3259 -3.3379 9.2664
# 2 22.4444 122.8559 44.0015 17.6495 -12.9628 -16.2147
# 3 1.0528 44.0015 135.7102 12.8702 -0.4897 -9.6578
# 4 12.3259 17.6495 12.8702 50.7940 -5.4503 1.5236
# 5 -3.3379 -12.9628 -0.4897 -5.4503 27.8349 -0.4811
# 6 9.2664 -16.2147 -9.6578 1.5236 -0.4811 29.9069
#
#
#
# Elastic Compliance Matrix: (Units=1/GPa)
#
#
# Indices 1 2 3 4 5 6 
#
# 1 0.026199 -0.006184 0.001442 -0.004330 -0.000747 -0.010796
# 2 -0.006184 0.012142 -0.003173 -0.001642 0.004667 0.007633
# 3 0.001442 -0.003173 0.008580 -0.001597 -0.001455 0.000662
# 4 -0.004330 -0.001642 -0.001597 0.022069 0.002989 -0.001141
# 5 -0.000747 0.004667 -0.001455 0.002989 0.038618 0.002761
# 6 -0.010796 0.007633 0.000662 -0.001141 0.002761 0.041237
#
#
# Mechanical properties :
#
#
# Convention : Reuss Voigt Hill
#
# Bulk Modulus (GPa) = 32.16601 49.19267 40.67934
# Shear Modulus (GPa) = 28.56542 37.72301 33.14422
#
# Velocity S-wave (km/s) = 3.50458 4.02735 3.77503
# Velocity P-wave (km/s) = 5.49603 6.54042 6.04084
#
# Compressibility (1/GPa) = 0.03108872
#
# Stress axis : x y z
#
# Youngs Moduli (GPa) = 38.16983 82.36133 116.55663
#
# Poissons Ratio (x) = 0.50934 -0.16802
# Poissons Ratio (y) = 0.23605 0.36982
# Poissons Ratio (z) = -0.05502 0.26133
#
# Static dielectric constant tensor:
#      x y z
#    x 1.939020 0.018310 -0.013910 
#    y 0.018310 1.875840 -0.016780 
#    z -0.013910 -0.016780 1.871240 
# 
# From -- ./inp_files/199604.got.cif
#   From: 2010.05.17/outbox.cif.g08.bks.cpg/sg2_100_cif.got.tgz:199604.got - 2010.06.03 11:33:40.
