data_PCOD9015510
_publ_section_title
;
Structure prediction by ZEFSAII (Michael W. Deem and Ramdas Pophale) SiO2 
 PCOD9015510
Probable space group: P -1
;
_chemical_formula_sum "Si O2"
_cell_formula_units_Z 16
_cell_length_a 14.817661
_cell_length_b 8.594596
_cell_length_c 8.467880
_cell_angle_alpha 52.409193
_cell_angle_beta 73.703475
_cell_angle_gamma 71.247861
_cell_volume 804.003689
_symmetry_space_group_name_H-M "P -1"
_symmetry_group_IT_number 2
_symmetry_cell_setting 'triclinic'
loop_
_space_group_symop_operation_xyz
x,y,z
-x,-y,-z
loop_
_atom_site_type_symbol
_atom_site_label
_atom_site_fract_x
_atom_site_fract_y
_atom_site_fract_z
Si Si1 0.725046 0.620676 0.170004
Si Si2 0.079065 0.968720 0.123008
Si Si3 0.566959 0.918351 0.873402
Si Si4 0.416428 0.652764 0.536734
Si Si5 0.948153 0.707356 0.479534
Si Si6 0.769202 0.931429 0.215982
Si Si7 0.440688 0.849721 0.706313
Si Si8 0.907756 0.652353 0.899174
O O1 0.654247 0.762512 0.997830
O O2 0.819666 0.556848 0.060073
O O3 0.678176 0.440266 0.366147
O O4 0.743133 0.759020 0.222319
O O5 0.091598 0.154123 0.111845
O O6 0.180229 0.920969 0.008891
O O7 0.034830 0.827479 0.349541
O O8 0.000000 0.000000 0.000000
O O9 0.501500 0.811060 0.859292
O O10 0.595710 0.118548 0.660889
O O11 0.500000 0.000000 0.000000
O O12 0.500000 0.500000 0.500000
O O13 0.443139 0.668503 0.697662
O O14 0.853684 0.821468 0.359897
O O15 0.914511 0.686342 0.688222
O O16 0.000000 0.500000 0.500000
O O17 0.669970 0.044711 0.272239
O O18 0.500000 0.000000 0.500000
O O19 0.000000 0.500000 0.000000
#
# Coordination Sequence:
#
# PCOD9015510 Si02
#       8
#     2   2   2   2   2   2   2   2
#     4  11  23  43  64  95 130 168 214 269 315 387
#     4   9  20  40  67  89 125 162 211 259 323 378
#     4  11  21  43  67  90 131 168 213 262 326 374
#     4  11  23  41  64  94 129 173 215 263 319 378
#     4  11  23  41  65  94 127 168 211 265 323 386
#     4  10  21  42  63  92 129 166 212 263 321 383
#     4  10  22  38  65  90 129 169 208 262 314 381
#     4  11  24  43  64  93 131 164 213 269 320 385
#
# _framework density 19.900404999999999
#
# number of rings (size 3 to 8) (size 9 to 14) (size 15 to 20)
#    0.000    1.500    2.500    3.375    3.500    3.500 
#    9.000    0.000    0.000    0.000    0.000    0.000 
#    0.000    0.000    0.000    0.000    0.000    0.000 
#
# Total GULP energy -89191.201869 kJ/mol
# GULP energy per Si atom -5574.450117 kJ/mol
# Density = 1.985511 g / cm^3
# Si number density = 19.900405 Si / 1000 Ang^3
#
#
#
# Elastic Constant Matrix: (Units=GPa)
#
#
# Indices 1 2 3 4 5 6 
#
# 1 130.2777 47.4624 53.5488 13.4217 -16.4644 -15.4406
# 2 47.4624 88.4472 35.2134 29.0678 -8.9639 -4.6002
# 3 53.5488 35.2134 95.2212 16.3506 -20.3444 -5.4634
# 4 13.4217 29.0678 16.3506 38.7316 1.0543 -0.7376
# 5 -16.4644 -8.9639 -20.3444 1.0543 53.1997 3.8001
# 6 -15.4406 -4.6002 -5.4634 -0.7376 3.8001 46.5100
#
#
#
# Elastic Compliance Matrix: (Units=1/GPa)
#
#
# Indices 1 2 3 4 5 6 
#
# 1 0.011570 -0.004578 -0.004740 0.001460 0.000768 0.002792
# 2 -0.004578 0.018438 -0.002050 -0.011421 0.001147 -0.000212
# 3 -0.004740 -0.002050 0.015384 -0.003434 0.004165 -0.000364
# 4 0.001460 -0.011421 -0.003434 0.035424 -0.003473 -0.000203
# 5 0.000768 0.001147 0.004165 -0.003473 0.020955 -0.000909
# 6 0.002792 -0.000212 -0.000364 -0.000203 -0.000909 0.022435
#
#
# Mechanical properties :
#
#
# Convention : Reuss Voigt Hill
#
# Bulk Modulus (GPa) = 44.13803 65.15503 54.64653
# Shear Modulus (GPa) = 32.36418 39.53637 35.95028
#
# Velocity S-wave (km/s) = 4.03713 4.46209 4.25492
# Velocity P-wave (km/s) = 6.63014 7.70446 7.18740
#
# Compressibility (1/GPa) = 0.02265620
#
# Stress axis : x y z
#
# Youngs Moduli (GPa) = 86.43404 54.23706 65.00337
#
# Poissons Ratio (x) = 0.24830 0.30809
# Poissons Ratio (y) = 0.39570 0.13324
# Poissons Ratio (z) = 0.40966 0.11117
#
# Static dielectric constant tensor:
#      x y z
#    x 1.683860 0.019860 -0.031870 
#    y 0.019860 1.651610 -0.002320 
#    z -0.031870 -0.002320 1.693990 
# 
# From -- ./inp_files/201118.got.cif
#   From: 2010.05.17/outbox.cif.g08.bks.cpg/sg2_101_cif.got.tgz:201118.got - 2010.06.03 11:33:40.
