data_PCOD9015725
_publ_section_title
;
Structure prediction by ZEFSAII (Michael W. Deem and Ramdas Pophale) SiO2 
 PCOD9015725
Probable space group: P -1
;
_chemical_formula_sum "Si O2"
_cell_formula_units_Z 16
_cell_length_a 22.382320
_cell_length_b 24.985639
_cell_length_c 9.408400
_cell_angle_alpha 30.720879
_cell_angle_beta 30.904850
_cell_angle_gamma 16.319247
_cell_volume 735.048118
_symmetry_space_group_name_H-M "P -1"
_symmetry_group_IT_number 2
_symmetry_cell_setting 'triclinic'
loop_
_space_group_symop_operation_xyz
x,y,z
-x,-y,-z
loop_
_atom_site_type_symbol
_atom_site_label
_atom_site_fract_x
_atom_site_fract_y
_atom_site_fract_z
Si Si1 0.083315 0.002985 0.189113
Si Si2 0.989226 0.596522 0.013749
Si Si3 0.598649 0.100545 0.038472
Si Si4 0.332046 0.172487 0.612635
Si Si5 0.562705 0.399540 0.751493
Si Si6 0.783115 0.409073 0.786293
Si Si7 0.630646 0.548869 0.462450
Si Si8 0.200357 0.235105 0.278501
O O1 0.214313 0.831150 0.205341
O O2 0.250422 0.958834 0.017995
O O3 0.000000 0.000000 0.500000
O O4 0.891384 0.211991 0.027600
O O5 0.860034 0.657055 0.276229
O O6 0.151818 0.387634 0.089220
O O7 0.814086 0.752609 0.890288
O O8 0.133714 0.589379 0.757902
O O9 0.379534 0.224557 0.279727
O O10 0.705356 0.913281 0.186025
O O11 0.540560 0.232823 0.739221
O O12 0.566734 0.981535 0.648382
O O13 0.500000 0.500000 0.500000
O O14 0.583125 0.475535 0.651737
O O15 0.377456 0.461942 0.045738
O O16 0.652289 0.523913 0.644744
O O17 0.988734 0.330688 0.543261
#
# Coordination Sequence:
#
# PCOD9015725 Si02
#       8
#     2   2   2   2   2   2   2   2
#     4  12  25  45  69  97 132 172 224 277 323 391
#     4  10  23  39  67  95 130 173 210 270 332 388
#     4  11  24  43  64  99 134 170 220 273 329 386
#     4  11  23  41  66  94 135 171 216 269 324 396
#     4  12  25  43  72  98 129 177 220 271 337 385
#     4  11  25  45  70  95 135 174 216 278 327 394
#     4  11  24  47  65  99 137 169 223 274 329 391
#     4  10  21  42  64  97 130 166 219 267 327 394
#
# _framework density 21.767282000000002
#
# number of rings (size 3 to 8) (size 9 to 14) (size 15 to 20)
#    0.000    1.000    5.000    0.750    3.500    1.000 
#    4.500    0.000    0.000    0.000    0.000    0.000 
#    0.000    0.000    0.000    0.000    0.000    0.000 
#
# Total GULP energy -89493.938584 kJ/mol
# GULP energy per Si atom -5593.371161 kJ/mol
# Density = 2.171774 g / cm^3
# Si number density = 21.767282 Si / 1000 Ang^3
#
#
#
# Elastic Constant Matrix: (Units=GPa)
#
#
# Indices 1 2 3 4 5 6 
#
# 1 64.5201 3.4195 20.3559 1.7251 -5.9939 -15.1584
# 2 3.4195 64.5706 15.6424 -0.4363 7.3300 4.7020
# 3 20.3559 15.6424 93.8192 0.3244 9.7529 4.3670
# 4 1.7251 -0.4363 0.3244 38.1873 -4.3199 12.4912
# 5 -5.9939 7.3300 9.7529 -4.3199 44.8508 -2.5895
# 6 -15.1584 4.7020 4.3670 12.4912 -2.5895 29.2266
#
#
#
# Elastic Compliance Matrix: (Units=1/GPa)
#
#
# Indices 1 2 3 4 5 6 
#
# 1 0.021377 -0.001427 -0.005554 -0.005251 0.004647 0.014803
# 2 -0.001427 0.016635 -0.002020 0.001249 -0.002574 -0.003876
# 3 -0.005554 -0.002020 0.012797 0.001509 -0.003362 -0.005410
# 4 -0.005251 0.001249 0.001509 0.032004 0.000882 -0.016750
# 5 0.004647 -0.002574 -0.003362 0.000882 0.024449 0.005116
# 6 0.014803 -0.003876 -0.005410 -0.016750 0.005116 0.050937
#
#
# Mechanical properties :
#
#
# Convention : Reuss Voigt Hill
#
# Bulk Modulus (GPa) = 30.48304 33.52726 32.00515
# Shear Modulus (GPa) = 26.71844 34.68573 30.70209
#
# Velocity S-wave (km/s) = 3.50731 3.99617 3.75970
# Velocity P-wave (km/s) = 5.51689 6.06041 5.79503
#
# Compressibility (1/GPa) = 0.03280512
#
# Stress axis : x y z
#
# Youngs Moduli (GPa) = 46.77970 60.11497 78.14484
#
# Poissons Ratio (x) = 0.08581 0.43402
# Poissons Ratio (y) = 0.06678 0.15786
# Poissons Ratio (z) = 0.25981 0.12144
#
# Static dielectric constant tensor:
#      x y z
#    x 1.791950 -0.041530 0.002420 
#    y -0.041530 1.799620 0.003650 
#    z 0.002420 0.003650 1.822260 
# 
# From -- ./inp_files/349948.got.cif
#   From: 2010.05.17/outbox.cif.g08.bks.cpg/sg2_175_cif.got.tgz:349948.got - 2010.06.03 11:33:40.
