data_PCOD9015577
_publ_section_title
;
Structure prediction by ZEFSAII (Michael W. Deem and Ramdas Pophale) SiO2 
 PCOD9015577
Probable space group: P -1
;
_chemical_formula_sum "Si O2"
_cell_formula_units_Z 16
_cell_length_a 12.669226
_cell_length_b 21.314130
_cell_length_c 18.734537
_cell_angle_alpha 20.063183
_cell_angle_beta 28.274827
_cell_angle_gamma 27.608097
_cell_volume 766.216713
_symmetry_space_group_name_H-M "P -1"
_symmetry_group_IT_number 2
_symmetry_cell_setting 'triclinic'
loop_
_space_group_symop_operation_xyz
x,y,z
-x,-y,-z
loop_
_atom_site_type_symbol
_atom_site_label
_atom_site_fract_x
_atom_site_fract_y
_atom_site_fract_z
Si Si1 0.794589 0.892466 0.519277
Si Si2 0.342379 0.005697 0.255583
Si Si3 0.098599 0.910021 0.880997
Si Si4 0.826626 0.187423 0.305174
Si Si5 0.299688 0.780323 0.140282
Si Si6 0.247044 0.559412 0.549562
Si Si7 0.686677 0.843254 0.108103
Si Si8 0.511803 0.361253 0.976236
O O1 0.050808 0.717418 0.545424
O O2 0.757556 0.981548 0.365960
O O3 0.805076 0.063928 0.381388
O O4 0.619400 0.792078 0.763564
O O5 0.274735 0.903818 0.471934
O O6 0.513499 0.836848 0.282856
O O7 0.103426 0.135464 0.217128
O O8 0.493131 0.137769 0.048288
O O9 0.271798 0.700325 0.029774
O O10 0.954666 0.038240 0.896602
O O11 0.890915 0.904716 0.956651
O O12 0.673358 0.417349 0.143562
O O13 0.270477 0.644188 0.367210
O O14 0.374407 0.679674 0.126953
O O15 0.500000 0.500000 0.500000
O O16 0.192271 0.363344 0.780909
O O17 0.500000 0.000000 0.000000
#
# Coordination Sequence:
#
# PCOD9015577 Si02
#       8
#     2   2   2   2   2   2   2   2
#     4  11  25  43  63  97 135 174 215 274 328 392
#     4  10  21  42  63  97 133 168 211 282 325 383
#     4  10  24  45  67  94 132 174 221 276 324 391
#     4  11  24  41  65  98 137 168 216 271 335 390
#     4  10  22  44  67  94 129 175 221 275 326 387
#     4  11  23  40  68  98 130 171 225 270 333 390
#     4  11  22  42  70  94 129 169 224 274 328 387
#     4  12  25  43  68  95 133 179 221 265 337 396
#
# _framework density 20.881820000000001
#
# number of rings (size 3 to 8) (size 9 to 14) (size 15 to 20)
#    0.000    1.250    1.250    5.250    5.250    2.000 
#    4.500    3.125    0.000    0.000    0.000    0.000 
#    0.000    0.000    0.000    0.000    0.000    0.000 
#
# Total GULP energy -89388.844737 kJ/mol
# GULP energy per Si atom -5586.802796 kJ/mol
# Density = 2.083429 g / cm^3
# Si number density = 20.881820 Si / 1000 Ang^3
#
#
#
# Elastic Constant Matrix: (Units=GPa)
#
#
# Indices 1 2 3 4 5 6 
#
# 1 70.5636 49.5095 28.5165 -4.4490 7.2248 0.3865
# 2 49.5095 126.5278 38.1084 -10.2305 10.9923 8.8959
# 3 28.5165 38.1084 75.7219 -0.3664 14.5726 5.0561
# 4 -4.4490 -10.2305 -0.3664 47.5385 6.0093 4.6444
# 5 7.2248 10.9923 14.5726 6.0093 23.8444 -3.7361
# 6 0.3865 8.8959 5.0561 4.6444 -3.7361 41.7846
#
#
#
# Elastic Compliance Matrix: (Units=1/GPa)
#
#
# Indices 1 2 3 4 5 6 
#
# 1 0.020839 -0.006896 -0.004454 0.000286 -0.000209 0.001764
# 2 -0.006896 0.012072 -0.002731 0.002561 -0.002878 -0.002718
# 3 -0.004454 -0.002731 0.018154 0.000511 -0.008997 -0.002435
# 4 0.000286 0.002561 0.000511 0.023006 -0.007986 -0.003881
# 5 -0.000209 -0.002878 -0.008997 -0.007986 0.051974 0.007238
# 6 0.001764 -0.002718 -0.002435 -0.003881 0.007238 0.025868
#
#
# Mechanical properties :
#
#
# Convention : Reuss Voigt Hill
#
# Bulk Modulus (GPa) = 43.65767 56.12024 49.88896
# Shear Modulus (GPa) = 26.63679 33.07875 29.85777
#
# Velocity S-wave (km/s) = 3.57542 3.98438 3.78543
# Velocity P-wave (km/s) = 6.16419 6.93546 6.56117
#
# Compressibility (1/GPa) = 0.02290548
#
# Stress axis : x y z
#
# Youngs Moduli (GPa) = 47.98585 82.83387 55.08283
#
# Poissons Ratio (x) = 0.57119 0.24533
# Poissons Ratio (y) = 0.33089 0.15043
# Poissons Ratio (z) = 0.21372 0.22622
#
# Static dielectric constant tensor:
#      x y z
#    x 1.767340 0.016980 -0.013760 
#    y 0.016980 1.766730 0.001290 
#    z -0.013760 0.001290 1.786460 
# 
# From -- ./inp_files/427653.got.cif
#   From: 2010.05.17/outbox.cif.g08.bks.cpg/sg2_214_cif.got.tgz:427653.got - 2010.06.03 11:33:40.
