data_PCOD9015455
_publ_section_title
;
Structure prediction by ZEFSAII (Michael W. Deem and Ramdas Pophale) SiO2 
 PCOD9015455
Probable space group: P -1
;
_chemical_formula_sum "Si O2"
_cell_formula_units_Z 12
_cell_length_a 5.264534
_cell_length_b 19.166029
_cell_length_c 8.752392
_cell_angle_alpha 35.457789
_cell_angle_beta 82.604274
_cell_angle_gamma 81.692213
_cell_volume 506.829992
_symmetry_space_group_name_H-M "P -1"
_symmetry_group_IT_number 2
_symmetry_cell_setting 'triclinic'
loop_
_space_group_symop_operation_xyz
x,y,z
-x,-y,-z
loop_
_atom_site_type_symbol
_atom_site_label
_atom_site_fract_x
_atom_site_fract_y
_atom_site_fract_z
Si Si1 0.904250 0.776084 0.457809
Si Si2 0.403102 0.625978 0.708307
Si Si3 0.230000 0.850576 0.783335
Si Si4 0.808110 0.831720 0.049188
Si Si5 0.550026 0.371369 0.648448
Si Si6 0.437283 0.035756 0.678469
O O1 0.643731 0.707935 0.569209
O O2 0.993528 0.812572 0.215134
O O3 0.803196 0.890843 0.359096
O O4 0.134268 0.693385 0.664010
O O5 0.345797 0.604561 0.571736
O O6 0.500000 0.500000 0.000000
O O7 0.368245 0.872882 0.574184
O O8 0.343814 0.945865 0.718575
O O9 0.294533 0.717281 0.086277
O O10 0.929632 0.872720 0.806683
O O11 0.689405 0.707488 0.234707
O O12 0.607255 0.937235 0.938541
O O13 0.500000 0.500000 0.500000
#
# Coordination Sequence:
#
# PCOD9015455 Si02
#       6
#     2   2   2   2   2   2
#     4  11  24  44  70  99 136 180 227 280 347 403
#     4  11  25  47  67 100 137 178 234 285 332 412
#     4  10  21  42  62  97 140 168 233 275 337 406
#     4  10  21  42  66 100 136 178 225 284 332 415
#     4  10  23  43  66  95 134 181 229 281 342 399
#     4  10  23  38  66 101 135 179 219 282 340 408
#
# _framework density 23.676577999999999
#
# number of rings (size 3 to 8) (size 9 to 14) (size 15 to 20)
#    0.000    1.667    1.667    1.500    4.667    1.333 
#    0.000    0.000    0.000    0.000    0.000    0.000 
#    0.000    0.000    0.000    0.000    0.000    0.000 
#
# Total GULP energy -66954.786620 kJ/mol
# GULP energy per Si atom -5579.565552 kJ/mol
# Density = 2.362269 g / cm^3
# Si number density = 23.676578 Si / 1000 Ang^3
#
#
#
# Elastic Constant Matrix: (Units=GPa)
#
#
# Indices 1 2 3 4 5 6 
#
# 1 102.4378 37.4327 39.3086 -17.1416 23.4561 -24.1196
# 2 37.4327 101.9412 49.5173 -28.8033 13.9614 -29.0224
# 3 39.3086 49.5173 136.8606 -23.0889 27.0722 -19.4288
# 4 -17.1416 -28.8033 -23.0889 27.3232 -10.5861 8.7812
# 5 23.4561 13.9614 27.0722 -10.5861 43.1297 3.1421
# 6 -24.1196 -29.0224 -19.4288 8.7812 3.1421 22.8989
#
#
#
# Elastic Compliance Matrix: (Units=1/GPa)
#
#
# Indices 1 2 3 4 5 6 
#
# 1 0.016724 0.001597 -0.000133 0.001338 -0.010693 0.020481
# 2 0.001597 0.020490 -0.001655 0.012035 -0.005136 0.022337
# 3 -0.000133 -0.001655 0.010443 0.002726 -0.005742 0.006365
# 4 0.001338 0.012035 0.002726 0.056715 0.007866 -0.003852
# 5 -0.010693 -0.005136 -0.005742 0.007866 0.038452 -0.030936
# 6 0.020481 0.022337 0.006365 -0.003852 -0.030936 0.104676
#
#
# Mechanical properties :
#
#
# Convention : Reuss Voigt Hill
#
# Bulk Modulus (GPa) = 21.15271 65.97301 43.56286
# Shear Modulus (GPa) = 18.96521 33.00241 25.98381
#
# Velocity S-wave (km/s) = 2.83329 3.73753 3.31637
# Velocity P-wave (km/s) = 4.43359 6.82277 5.75356
#
# Compressibility (1/GPa) = 0.04727526
#
# Stress axis : x y z
#
# Youngs Moduli (GPa) = 59.79375 48.80379 95.75848
#
# Poissons Ratio (x) = -0.07793 0.01272
# Poissons Ratio (y) = -0.09548 0.15848
# Poissons Ratio (z) = 0.00794 0.08077
#
# Static dielectric constant tensor:
#      x y z
#    x 2.088140 -0.037570 0.014570 
#    y -0.037570 1.866480 0.047520 
#    z 0.014570 0.047520 1.950720 
# 
# From -- ./inp_files/140430.got.cif
#   From: 2010.05.17/outbox.cif.g08.bks.cpg/sg2_71_cif.got.tgz:140430.got - 2010.06.03 11:33:40.
