data_PCOD9015223
_publ_section_title
;
Structure prediction by ZEFSAII (Michael W. Deem and Ramdas Pophale) SiO2 
 PCOD9015223
Probable space group: P -1
;
_chemical_formula_sum "Si O2"
_cell_formula_units_Z 16
_cell_length_a 12.150705
_cell_length_b 8.297160
_cell_length_c 19.461062
_cell_angle_alpha 147.149835
_cell_angle_beta 137.849562
_cell_angle_gamma 52.709733
_cell_volume 713.433397
_symmetry_space_group_name_H-M "P -1"
_symmetry_group_IT_number 2
_symmetry_cell_setting 'triclinic'
loop_
_space_group_symop_operation_xyz
x,y,z
-x,-y,-z
loop_
_atom_site_type_symbol
_atom_site_label
_atom_site_fract_x
_atom_site_fract_y
_atom_site_fract_z
Si Si1 0.386095 0.213742 0.716999
Si Si2 0.694878 0.638187 0.057075
Si Si3 0.448731 0.305846 0.618836
Si Si4 0.031190 0.454929 0.643092
Si Si5 0.012075 0.335078 0.152899
Si Si6 0.705003 0.191507 0.356542
Si Si7 0.068421 0.090228 0.850769
Si Si8 0.803109 0.523326 0.838125
O O1 0.392938 0.228939 0.642875
O O2 0.209747 0.339610 0.698441
O O3 0.382674 0.900539 0.644693
O O4 0.537121 0.426186 0.890627
O O5 0.836858 0.465038 0.098984
O O6 0.788522 0.760728 0.076413
O O7 0.653211 0.922553 0.185030
O O8 0.333187 0.496129 0.584979
O O9 0.616896 0.505747 0.767583
O O10 0.500000 0.000000 0.500000
O O11 0.901721 0.211266 0.466082
O O12 0.956447 0.585584 0.725255
O O13 0.054830 0.741387 0.707841
O O14 0.157512 0.481440 0.225633
O O15 0.000000 0.000000 0.000000
O O16 0.899699 0.246873 0.813594
O O17 0.115447 0.183160 0.983291
#
# Coordination Sequence:
#
# PCOD9015223 Si02
#       8
#     2   2   2   2   2   2   2   2
#     4  12  28  48  78 106 150 191 249 303 362 442
#     4  11  25  46  72 110 144 191 247 300 363 437
#     4  12  29  48  74 108 148 193 244 304 375 426
#     4  12  26  46  72 108 144 196 247 292 374 435
#     4  11  24  40  74 103 144 186 236 299 360 428
#     4  12  29  48  73 108 152 196 243 303 366 437
#     4  10  21  41  72  99 144 186 240 298 357 439
#     4  10  22  42  64 104 141 181 238 298 361 426
#
# _framework density 22.426760999999999
#
# number of rings (size 3 to 8) (size 9 to 14) (size 15 to 20)
#    0.000    0.750    3.750    2.250    5.250    5.500 
#    0.000    0.000    0.000    0.000    0.000    0.000 
#    0.000    0.000    0.000    0.000    0.000    0.000 
#
# Total GULP energy -89434.117818 kJ/mol
# GULP energy per Si atom -5589.632364 kJ/mol
# Density = 2.237572 g / cm^3
# Si number density = 22.426761 Si / 1000 Ang^3
#
#
#
# Elastic Constant Matrix: (Units=GPa)
#
#
# Indices 1 2 3 4 5 6 
#
# 1 99.4299 36.8080 11.6662 -14.6859 -7.6027 7.7656
# 2 36.8080 66.5396 28.9994 13.1295 5.4044 10.5980
# 3 11.6662 28.9994 64.1142 5.0857 9.6932 10.2384
# 4 -14.6859 13.1295 5.0857 27.3639 -10.0482 -4.8803
# 5 -7.6027 5.4044 9.6932 -10.0482 31.8805 -3.2220
# 6 7.7656 10.5980 10.2384 -4.8803 -3.2220 19.7324
#
#
#
# Elastic Compliance Matrix: (Units=1/GPa)
#
#
# Indices 1 2 3 4 5 6 
#
# 1 0.027572 -0.027825 -0.003402 0.042784 0.027934 0.021002
# 2 -0.027825 0.052070 -0.002240 -0.059759 -0.037328 -0.036728
# 3 -0.003402 -0.002240 0.022283 -0.011935 -0.012383 -0.013994
# 4 0.042784 -0.059759 -0.011935 0.127934 0.070819 0.064656
# 5 0.027934 -0.037328 -0.012383 0.070819 0.075015 0.045244
# 6 0.021002 -0.036728 -0.013994 0.064656 0.045244 0.092779
#
#
# Mechanical properties :
#
#
# Convention : Reuss Voigt Hill
#
# Bulk Modulus (GPa) = 28.57887 42.78120 35.68003
# Shear Modulus (GPa) = 10.49869 25.96937 18.23403
#
# Velocity S-wave (km/s) = 2.16598 3.40658 2.85449
# Velocity P-wave (km/s) = 4.36190 5.88136 5.17767
#
# Compressibility (1/GPa) = 0.03499089
#
# Stress axis : x y z
#
# Youngs Moduli (GPa) = 36.26878 19.20490 44.87766
#
# Poissons Ratio (x) = 0.53438 0.15268
# Poissons Ratio (y) = 1.00918 0.10051
# Poissons Ratio (z) = 0.12339 0.04301
#
# Static dielectric constant tensor:
#      x y z
#    x 1.855700 0.053350 0.064500 
#    y 0.053350 1.892000 -0.039470 
#    z 0.064500 -0.039470 2.160850 
# 
# From -- ./inp_files/405566.got.cif
#   From: 2010.05.17/outbox.cif.g08.bks.cpg/sg2_203_cif.got.tgz:405566.got - 2010.06.03 11:33:40.
