data_PCOD9015532
_publ_section_title
;
Structure prediction by ZEFSAII (Michael W. Deem and Ramdas Pophale) SiO2 
 PCOD9015532
Probable space group: P -1
;
_chemical_formula_sum "Si O2"
_cell_formula_units_Z 14
_cell_length_a 7.888512
_cell_length_b 18.145248
_cell_length_c 6.969476
_cell_angle_alpha 105.697381
_cell_angle_beta 77.049542
_cell_angle_gamma 141.975414
_cell_volume 591.502958
_symmetry_space_group_name_H-M "P -1"
_symmetry_group_IT_number 2
_symmetry_cell_setting 'triclinic'
loop_
_space_group_symop_operation_xyz
x,y,z
-x,-y,-z
loop_
_atom_site_type_symbol
_atom_site_label
_atom_site_fract_x
_atom_site_fract_y
_atom_site_fract_z
Si Si1 0.414643 0.192839 0.592916
Si Si2 0.299947 0.618506 0.677014
Si Si3 0.896223 0.766931 0.774451
Si Si4 0.181389 0.413485 0.537867
Si Si5 0.167390 0.945409 0.498531
Si Si6 0.191997 0.682148 0.081380
Si Si7 0.725990 0.123449 0.911302
O O1 0.594877 0.284754 0.435844
O O2 0.575242 0.269378 0.798730
O O3 0.114120 0.125399 0.588087
O O4 0.367878 0.085875 0.534964
O O5 0.581788 0.683523 0.754919
O O6 0.169814 0.497711 0.533124
O O7 0.124635 0.598631 0.874603
O O8 0.955780 0.702795 0.625001
O O9 0.078068 0.889429 0.693525
O O10 0.990098 0.795436 0.989478
O O11 0.500000 0.500000 0.500000
O O12 0.057515 0.375975 0.758069
O O13 0.272469 0.909805 0.325399
O O14 0.313054 0.799282 0.032989
O O15 0.500000 0.000000 0.000000
#
# Coordination Sequence:
#
# PCOD9015532 Si02
#       7
#     2   2   2   2   2   2   2
#     4  10  23  40  67  93 128 171 210 260 320 376
#     4  10  23  44  65  92 127 165 218 263 310 375
#     4  10  22  44  65  90 130 172 208 258 317 379
#     4  10  23  45  66  90 127 170 217 263 314 372
#     4  10  21  42  63  93 131 170 210 257 318 382
#     4  12  24  40  66  97 129 162 217 262 318 372
#     4  12  25  37  65  99 133 164 211 259 319 384
#
# _framework density 23.668521999999999
#
# number of rings (size 3 to 8) (size 9 to 14) (size 15 to 20)
#    0.000    1.429    1.429    3.000    4.000    1.714 
#    2.571    7.143    0.000    0.000    0.000    0.000 
#    0.000    0.000    0.000    0.000    0.000    0.000 
#
# Total GULP energy -78334.024071 kJ/mol
# GULP energy per Si atom -5595.287434 kJ/mol
# Density = 2.361465 g / cm^3
# Si number density = 23.668522 Si / 1000 Ang^3
#
#
#
# Elastic Constant Matrix: (Units=GPa)
#
#
# Indices 1 2 3 4 5 6 
#
# 1 84.1515 23.8623 19.6635 0.4080 2.0155 -6.8505
# 2 23.8623 117.6869 26.3463 -7.8860 -11.6394 -19.0966
# 3 19.6635 26.3463 102.1847 6.5305 -5.7201 -17.4761
# 4 0.4080 -7.8860 6.5305 30.7174 -2.8048 0.2055
# 5 2.0155 -11.6394 -5.7201 -2.8048 47.4910 4.4286
# 6 -6.8505 -19.0966 -17.4761 0.2055 4.4286 48.0736
#
#
#
# Elastic Compliance Matrix: (Units=1/GPa)
#
#
# Indices 1 2 3 4 5 6 
#
# 1 0.013055 -0.002336 -0.001893 -0.000503 -0.001419 0.000377
# 2 -0.002336 0.010285 -0.001788 0.003245 0.002328 0.002875
# 3 -0.001893 -0.001788 0.011354 -0.002818 0.000553 0.003109
# 4 -0.000503 0.003245 -0.002818 0.034225 0.002516 -0.000185
# 5 -0.001419 0.002328 0.000553 0.002516 0.022007 -0.001114
# 6 0.000377 0.002875 0.003109 -0.000185 -0.001114 0.023231
#
#
# Mechanical properties :
#
#
# Convention : Reuss Voigt Hill
#
# Bulk Modulus (GPa) = 44.12831 49.30747 46.71789
# Shear Modulus (GPa) = 37.38505 40.86646 39.12576
#
# Velocity S-wave (km/s) = 3.97864 4.15977 4.07021
# Velocity P-wave (km/s) = 6.30800 6.62942 6.47071
#
# Compressibility (1/GPa) = 0.02266119
#
# Stress axis : x y z
#
# Youngs Moduli (GPa) = 76.59782 97.22743 88.07405
#
# Poissons Ratio (x) = 0.22715 0.16670
# Poissons Ratio (y) = 0.17895 0.15745
# Poissons Ratio (z) = 0.14497 0.17381
#
# Static dielectric constant tensor:
#      x y z
#    x 1.933410 0.032450 0.028900 
#    y 0.032450 1.885860 0.024870 
#    z 0.028900 0.024870 1.858790 
# 
# From -- ./inp_files/27180.got.cif
#   From: 2010.05.17/outbox.cif.g08.bks.cpg/sg2_14_cif.got.tgz:27180.got - 2010.06.03 11:33:40.
