data_PCOD9015359
_publ_section_title
;
Structure prediction by ZEFSAII (Michael W. Deem and Ramdas Pophale) SiO2 
 PCOD9015359
Probable space group: P -1
;
_chemical_formula_sum "Si O2"
_cell_formula_units_Z 14
_cell_length_a 8.448702
_cell_length_b 6.788981
_cell_length_c 15.123825
_cell_angle_alpha 108.061328
_cell_angle_beta 100.913376
_cell_angle_gamma 51.804183
_cell_volume 648.152857
_symmetry_space_group_name_H-M "P -1"
_symmetry_group_IT_number 2
_symmetry_cell_setting 'triclinic'
loop_
_space_group_symop_operation_xyz
x,y,z
-x,-y,-z
loop_
_atom_site_type_symbol
_atom_site_label
_atom_site_fract_x
_atom_site_fract_y
_atom_site_fract_z
Si Si1 0.281267 0.640161 0.183886
Si Si2 0.637330 0.428250 0.312532
Si Si3 0.944298 0.583193 0.109472
Si Si4 0.067483 0.846693 0.862266
Si Si5 0.231774 0.286742 0.512736
Si Si6 0.560126 0.223646 0.434732
Si Si7 0.621701 0.087826 0.071731
O O1 0.409763 0.623586 0.277648
O O2 0.454340 0.389782 0.112818
O O3 0.115068 0.590088 0.175094
O O4 0.153997 0.908260 0.154987
O O5 0.797518 0.274986 0.229602
O O6 0.695619 0.590368 0.394336
O O7 0.636749 0.223960 0.345943
O O8 0.927711 0.376632 0.123520
O O9 0.736073 0.870775 0.130317
O O10 0.000000 0.500000 0.000000
O O11 0.185933 0.928205 0.944808
O O12 0.363533 0.231676 0.430890
O O13 0.000000 0.500000 0.500000
O O14 0.279289 0.026219 0.523923
O O15 0.500000 0.500000 0.500000
O O16 0.500000 0.000000 0.000000
#
# Coordination Sequence:
#
# PCOD9015359 Si02
#       7
#     2   2   2   2   2   2   2
#     4  10  23  42  62  90 124 166 211 264 325 376
#     4  10  23  41  60  92 132 164 207 261 317 379
#     4  11  23  42  61  91 122 162 219 270 320 381
#     4  10  25  40  63  91 124 169 216 262 329 373
#     4  10  22  39  67  99 125 167 210 251 310 377
#     4   9  21  41  65  95 129 163 207 252 310 374
#     4  10  21  42  61  90 120 159 211 265 323 383
#
# _framework density 21.599841999999999
#
# number of rings (size 3 to 8) (size 9 to 14) (size 15 to 20)
#    0.000    2.000    1.429    0.000    0.000   17.714 
#    0.000    0.000    0.000    0.000    0.000    0.000 
#    0.000    0.000    0.000    0.000    0.000    0.000 
#
# Total GULP energy -78046.539101 kJ/mol
# GULP energy per Si atom -5574.752793 kJ/mol
# Density = 2.155068 g / cm^3
# Si number density = 21.599842 Si / 1000 Ang^3
#
#
#
# Elastic Constant Matrix: (Units=GPa)
#
#
# Indices 1 2 3 4 5 6 
#
# 1 96.0205 87.9225 61.4889 -35.9313 10.6730 2.5022
# 2 87.9225 195.6982 40.7797 -39.7071 -2.4948 8.4227
# 3 61.4889 40.7797 83.7827 -6.5973 9.0142 7.6997
# 4 -35.9313 -39.7071 -6.5973 36.3627 -0.0016 0.1889
# 5 10.6730 -2.4948 9.0142 -0.0016 59.4192 -9.3108
# 6 2.5022 8.4227 7.6997 0.1889 -9.3108 51.6072
#
#
#
# Elastic Compliance Matrix: (Units=1/GPa)
#
#
# Indices 1 2 3 4 5 6 
#
# 1 0.054914 -0.010764 -0.031889 0.036709 -0.005037 0.002809
# 2 -0.010764 0.009375 0.003287 0.000204 0.001640 -0.001203
# 3 -0.031889 0.003287 0.032298 -0.022043 0.000393 -0.003658
# 4 0.036709 0.000204 -0.022043 0.059994 -0.003131 0.000691
# 5 -0.005037 0.001640 0.000393 -0.003131 0.018248 0.003222
# 6 0.002809 -0.001203 -0.003658 0.000691 0.003222 0.020562
#
#
# Mechanical properties :
#
#
# Convention : Reuss Voigt Hill
#
# Bulk Modulus (GPa) = 56.00547 83.98706 69.99627
# Shear Modulus (GPa) = 17.85236 41.83183 29.84209
#
# Velocity S-wave (km/s) = 2.87802 4.40554 3.72101
# Velocity P-wave (km/s) = 6.08514 8.05270 7.13705
#
# Compressibility (1/GPa) = 0.01785540
#
# Stress axis : x y z
#
# Youngs Moduli (GPa) = 18.21013 106.66760 30.96192
#
# Poissons Ratio (x) = 1.14812 0.98734
# Poissons Ratio (y) = 0.19601 -0.10176
# Poissons Ratio (z) = 0.58070 -0.35057
#
# Static dielectric constant tensor:
#      x y z
#    x 1.807410 -0.021650 -0.027770 
#    y -0.021650 1.790130 0.044290 
#    z -0.027770 0.044290 1.893940 
# 
# From -- ./inp_files/552827.got.cif
#   From: 2010.05.17/outbox.cif.g08.bks.cpg/sg2_277_cif.got.tgz:552827.got - 2010.06.03 11:33:40.
