data_PCOD9015216
_publ_section_title
;
Structure prediction by ZEFSAII (Michael W. Deem and Ramdas Pophale) SiO2 
 PCOD9015216
Probable space group: P -1
;
_chemical_formula_sum "Si O2"
_cell_formula_units_Z 16
_cell_length_a 15.485980
_cell_length_b 12.199088
_cell_length_c 18.110164
_cell_angle_alpha 153.698425
_cell_angle_beta 32.407466
_cell_angle_gamma 129.309148
_cell_volume 694.250907
_symmetry_space_group_name_H-M "P -1"
_symmetry_group_IT_number 2
_symmetry_cell_setting 'triclinic'
loop_
_space_group_symop_operation_xyz
x,y,z
-x,-y,-z
loop_
_atom_site_type_symbol
_atom_site_label
_atom_site_fract_x
_atom_site_fract_y
_atom_site_fract_z
Si Si1 0.121231 0.344207 0.592543
Si Si2 0.040380 0.618428 0.116860
Si Si3 0.213773 0.821865 0.436763
Si Si4 0.683940 0.322181 0.963087
Si Si5 0.096834 0.156965 0.225691
Si Si6 0.523979 0.980057 0.058047
Si Si7 0.889152 0.854986 0.963124
Si Si8 0.396302 0.276615 0.875113
O O1 0.009624 0.483505 0.832612
O O2 0.021400 0.525979 0.700801
O O3 0.160664 0.020217 0.360394
O O4 0.337127 0.263512 0.395350
O O5 0.246588 0.575308 0.954517
O O6 0.887474 0.960323 0.426025
O O7 0.000000 0.500000 0.000000
O O8 0.052461 0.898478 0.659107
O O9 0.312115 0.491325 0.136982
O O10 0.380450 0.866717 0.370984
O O11 0.676111 0.517671 0.019520
O O12 0.496258 0.299662 0.079181
O O13 0.133315 0.075489 0.064833
O O14 0.000000 0.500000 0.500000
O O15 0.289121 0.040350 0.061389
O O16 0.500000 0.000000 0.000000
O O17 0.687254 0.931347 0.186980
O O18 0.000000 0.000000 0.000000
#
# Coordination Sequence:
#
# PCOD9015216 Si02
#       8
#     2   2   2   2   2   2   2   2
#     4  10  23  44  70  95 136 186 238 286 347 416
#     4  12  24  40  68 101 141 178 229 294 357 410
#     4  11  24  41  73 107 131 173 241 294 342 412
#     4  10  21  41  72  99 129 179 239 290 338 411
#     4  12  24  41  69 102 139 177 223 288 347 423
#     4  10  22  39  71 105 135 172 238 287 349 409
#     4  12  27  45  66  99 148 188 226 281 359 424
#     4  11  22  44  74 102 133 182 237 289 346 413
#
# _framework density 23.046423000000001
#
# number of rings (size 3 to 8) (size 9 to 14) (size 15 to 20)
#    0.750    0.250    3.750    3.375    5.250    0.000 
#    0.000    6.875    0.000    0.000    0.000    0.000 
#    0.000    0.000    0.000    0.000    0.000    0.000 
#
# Total GULP energy -89297.968835 kJ/mol
# GULP energy per Si atom -5581.123052 kJ/mol
# Density = 2.299397 g / cm^3
# Si number density = 23.046423 Si / 1000 Ang^3
#
#
#
# Elastic Constant Matrix: (Units=GPa)
#
#
# Indices 1 2 3 4 5 6 
#
# 1 169.3305 70.1524 38.6731 -30.2507 -24.1576 5.9676
# 2 70.1524 137.6261 32.0196 -40.3827 -12.9547 7.4306
# 3 38.6731 32.0196 51.4739 -28.6527 -30.0346 7.6135
# 4 -30.2507 -40.3827 -28.6527 34.7932 9.1830 -10.5020
# 5 -24.1576 -12.9547 -30.0346 9.1830 38.4300 -7.0120
# 6 5.9676 7.4306 7.6135 -10.5020 -7.0120 41.8461
#
#
#
# Elastic Compliance Matrix: (Units=1/GPa)
#
#
# Indices 1 2 3 4 5 6 
#
# 1 0.008243 -0.003149 -0.002677 0.000938 0.001880 0.000421
# 2 -0.003149 0.012413 0.003642 0.014657 0.001835 0.001568
# 3 -0.002677 0.003642 0.075569 0.053947 0.047067 0.007412
# 4 0.000938 0.014657 0.053947 0.087571 0.029385 0.014350
# 5 0.001880 0.001835 0.047067 0.029385 0.059066 0.008115
# 6 0.000421 0.001568 0.007412 0.014350 0.008115 0.027171
#
#
# Mechanical properties :
#
#
# Convention : Reuss Voigt Hill
#
# Bulk Modulus (GPa) = 10.88648 71.12452 41.00550
# Shear Modulus (GPa) = 16.39242 37.51955 26.95599
#
# Velocity S-wave (km/s) = 2.66987 4.03922 3.42371
# Velocity P-wave (km/s) = 3.77336 7.25825 5.78448
#
# Compressibility (1/GPa) = 0.09185707
#
# Stress axis : x y z
#
# Youngs Moduli (GPa) = 121.31970 80.56161 13.23289
#
# Poissons Ratio (x) = 0.25372 0.03542
# Poissons Ratio (y) = 0.38208 -0.04820
# Poissons Ratio (z) = 0.32477 -0.29344
#
# Static dielectric constant tensor:
#      x y z
#    x 1.861740 0.037620 0.001310 
#    y 0.037620 1.968810 -0.022050 
#    z 0.001310 -0.022050 1.963010 
# 
# From -- ./inp_files/573497.got.cif
#   From: 2010.05.17/outbox.cif.g08.bks.cpg/sg2_287_cif.got.tgz:573497.got - 2010.06.03 11:33:40.
