data_PCOD9015527
_publ_section_title
;
Structure prediction by ZEFSAII (Michael W. Deem and Ramdas Pophale) SiO2 
 PCOD9015527
Probable space group: P -1
;
_chemical_formula_sum "Si O2"
_cell_formula_units_Z 16
_cell_length_a 9.475148
_cell_length_b 12.401479
_cell_length_c 11.595774
_cell_angle_alpha 125.898999
_cell_angle_beta 41.802862
_cell_angle_gamma 109.739787
_cell_volume 723.168071
_symmetry_space_group_name_H-M "P -1"
_symmetry_group_IT_number 2
_symmetry_cell_setting 'triclinic'
loop_
_space_group_symop_operation_xyz
x,y,z
-x,-y,-z
loop_
_atom_site_type_symbol
_atom_site_label
_atom_site_fract_x
_atom_site_fract_y
_atom_site_fract_z
Si Si1 0.131449 0.102499 0.041644
Si Si2 0.072619 0.413113 0.788025
Si Si3 0.498289 0.059822 0.413275
Si Si4 0.309714 0.134568 0.185884
Si Si5 0.809578 0.628211 0.938473
Si Si6 0.907678 0.867622 0.441225
Si Si7 0.741544 0.565214 0.696158
Si Si8 0.520388 0.654952 0.363603
O O1 0.379264 0.043300 0.818340
O O2 0.135386 0.102251 0.177437
O O3 0.091094 0.247095 0.094139
O O4 0.000000 0.000000 0.000000
O O5 0.960804 0.280617 0.764541
O O6 0.325319 0.373452 0.636279
O O7 0.999604 0.506898 0.783361
O O8 0.000000 0.500000 0.000000
O O9 0.254615 0.098670 0.544496
O O10 0.604012 0.193481 0.443344
O O11 0.500000 0.000000 0.500000
O O12 0.216742 0.161166 0.386189
O O13 0.334905 0.284174 0.217529
O O14 0.500000 0.000000 0.000000
O O15 0.682452 0.583216 0.879083
O O16 0.663218 0.662390 0.163873
O O17 0.000000 0.000000 0.500000
O O18 0.619615 0.457887 0.643507
O O19 0.000000 0.500000 0.500000
#
# Coordination Sequence:
#
# PCOD9015527 Si02
#       8
#     2   2   2   2   2   2   2   2
#     4  11  25  41  66  97 134 178 213 279 340 399
#     4   9  21  42  65  98 129 166 227 278 332 397
#     4  11  23  42  65  98 132 165 230 269 329 403
#     4  11  25  46  64  96 141 173 228 276 341 411
#     4  10  21  42  63  93 127 169 224 268 331 400
#     4  11  25  44  71  98 130 179 224 281 334 407
#     4  11  25  41  64  97 132 174 223 273 341 401
#     4  10  22  40  68  89 130 175 215 277 325 399
#
# _framework density 22.124870000000001
#
# number of rings (size 3 to 8) (size 9 to 14) (size 15 to 20)
#    0.000    1.500    2.500    1.125    5.250    4.000 
#    0.000    1.875    0.000    0.000    0.000    0.000 
#    0.000    0.000    0.000    0.000    0.000    0.000 
#
# Total GULP energy -89231.543865 kJ/mol
# GULP energy per Si atom -5576.971492 kJ/mol
# Density = 2.207451 g / cm^3
# Si number density = 22.124870 Si / 1000 Ang^3
#
#
#
# Elastic Constant Matrix: (Units=GPa)
#
#
# Indices 1 2 3 4 5 6 
#
# 1 126.4485 86.4027 8.7308 23.1124 18.3798 -11.6665
# 2 86.4027 138.5471 28.9653 48.1622 -1.2152 -4.1623
# 3 8.7308 28.9653 63.9662 23.2433 10.8696 -8.6767
# 4 23.1124 48.1622 23.2433 47.2796 -2.0423 10.5070
# 5 18.3798 -1.2152 10.8696 -2.0423 33.7398 7.6983
# 6 -11.6665 -4.1623 -8.6767 10.5070 7.6983 49.6450
#
#
#
# Elastic Compliance Matrix: (Units=1/GPa)
#
#
# Indices 1 2 3 4 5 6 
#
# 1 0.019672 -0.012807 0.007938 -0.002930 -0.015737 0.007997
# 2 -0.012807 0.020180 -0.005006 -0.011181 0.008915 -0.001209
# 3 0.007938 -0.005006 0.026910 -0.015410 -0.016850 0.012023
# 4 -0.002930 -0.011181 -0.015410 0.045630 0.012553 -0.015923
# 5 -0.015737 0.008915 -0.016850 0.012553 0.048384 -0.016055
# 6 0.007997 -0.001209 0.012023 -0.015923 -0.016055 0.029882
#
#
# Mechanical properties :
#
#
# Convention : Reuss Voigt Hill
#
# Bulk Modulus (GPa) = 21.27122 64.12882 42.70002
# Shear Modulus (GPa) = 22.11622 39.79042 30.95332
#
# Velocity S-wave (km/s) = 3.16509 4.24541 3.74442
# Velocity P-wave (km/s) = 4.79501 7.28555 6.16731
#
# Compressibility (1/GPa) = 0.04701188
#
# Stress axis : x y z
#
# Youngs Moduli (GPa) = 50.83356 49.55394 37.16054
#
# Poissons Ratio (x) = 0.63464 -0.29497
# Poissons Ratio (y) = 0.65103 0.18602
# Poissons Ratio (z) = -0.40350 0.24806
#
# Static dielectric constant tensor:
#      x y z
#    x 1.808050 0.023210 -0.039560 
#    y 0.023210 1.842270 0.026390 
#    z -0.039560 0.026390 1.814740 
# 
# From -- ./inp_files/263340.got.cif
#   From: 2010.05.17/outbox.cif.g08.bks.cpg/sg2_132_cif.got.tgz:263340.got - 2010.06.03 11:33:40.
