data_PCOD9015785
_publ_section_title
;
Structure prediction by ZEFSAII (Michael W. Deem and Ramdas Pophale) SiO2 
 PCOD9015785
Probable space group: P -1
;
_chemical_formula_sum "Si O2"
_cell_formula_units_Z 12
_cell_length_a 11.599884
_cell_length_b 7.282865
_cell_length_c 6.555416
_cell_angle_alpha 119.099376
_cell_angle_beta 79.059733
_cell_angle_gamma 104.445747
_cell_volume 467.066189
_symmetry_space_group_name_H-M "P -1"
_symmetry_group_IT_number 2
_symmetry_cell_setting 'triclinic'
loop_
_space_group_symop_operation_xyz
x,y,z
-x,-y,-z
loop_
_atom_site_type_symbol
_atom_site_label
_atom_site_fract_x
_atom_site_fract_y
_atom_site_fract_z
Si Si1 0.775732 0.531452 0.837229
Si Si2 0.136898 0.852405 0.285096
Si Si3 0.554780 0.881092 0.231431
Si Si4 0.486918 0.464622 0.246430
Si Si5 0.193769 0.995707 0.777428
Si Si6 0.048030 0.237907 0.371198
O O1 0.799962 0.347559 0.882489
O O2 0.646637 0.505174 0.760802
O O3 0.869666 0.551734 0.626812
O O4 0.816752 0.761663 0.047529
O O5 0.006146 0.763677 0.382542
O O6 0.210971 0.965753 0.513017
O O7 0.122879 0.043004 0.243450
O O8 0.574820 0.663165 0.222392
O O9 0.493999 0.760528 0.982032
O O10 0.677557 0.026268 0.191928
O O11 0.500000 0.000000 0.500000
O O12 0.500000 0.500000 0.500000
O O13 0.069154 0.837736 0.768456
#
# Coordination Sequence:
#
# PCOD9015785 Si02
#       6
#     2   2   2   2   2   2
#     4  11  20  38  62  85 125 161 198 263 312 368
#     4   9  20  36  55  87 123 159 196 243 319 368
#     4  10  21  42  65  87 129 167 205 269 314 371
#     4  10  24  39  63  96 123 164 219 257 316 382
#     4   9  20  36  60  88 118 158 207 252 310 378
#     4   9  20  37  57  90 122 154 205 253 303 389
#
# _framework density 25.692291000000001
#
# number of rings (size 3 to 8) (size 9 to 14) (size 15 to 20)
#    1.000    1.333    0.000    2.000    2.333    1.333 
#    0.000    0.000   11.000    0.000    0.000    0.000 
#    0.000    0.000    0.000    0.000    0.000    0.000 
#
# Total GULP energy -66844.449688 kJ/mol
# GULP energy per Si atom -5570.370807 kJ/mol
# Density = 2.563381 g / cm^3
# Si number density = 25.692291 Si / 1000 Ang^3
#
#
#
# Elastic Constant Matrix: (Units=GPa)
#
#
# Indices 1 2 3 4 5 6 
#
# 1 108.0431 44.8385 19.7595 1.2106 -12.2163 20.0971
# 2 44.8385 96.3178 14.2676 2.9250 -6.5913 -5.5324
# 3 19.7595 14.2676 138.4532 25.5646 4.0392 -8.2451
# 4 1.2106 2.9250 25.5646 37.3721 -10.0647 -11.7820
# 5 -12.2163 -6.5913 4.0392 -10.0647 29.4102 -0.7526
# 6 20.0971 -5.5324 -8.2451 -11.7820 -0.7526 42.2298
#
#
#
# Elastic Compliance Matrix: (Units=1/GPa)
#
#
# Indices 1 2 3 4 5 6 
#
# 1 0.014323 -0.006515 -0.002010 0.000163 0.004618 -0.007934
# 2 -0.006515 0.013815 -0.000469 0.001383 0.001062 0.005223
# 3 -0.002010 -0.000469 0.009046 -0.007144 -0.004612 0.000586
# 4 0.000163 0.001383 -0.007144 0.038591 0.014815 0.009740
# 5 0.004618 0.001062 -0.004612 0.014815 0.041911 0.001921
# 6 -0.007934 0.005223 0.000586 0.009740 0.001921 0.031006
#
#
# Mechanical properties :
#
#
# Convention : Reuss Voigt Hill
#
# Bulk Modulus (GPa) = 52.09288 55.61612 53.85450
# Shear Modulus (GPa) = 28.88836 39.39900 34.14368
#
# Velocity S-wave (km/s) = 3.35684 3.92023 3.64943
# Velocity P-wave (km/s) = 5.94510 6.49500 6.22612
#
# Compressibility (1/GPa) = 0.01919648
#
# Stress axis : x y z
#
# Youngs Moduli (GPa) = 69.81748 72.38386 110.54088
#
# Poissons Ratio (x) = 0.47156 0.22221
# Poissons Ratio (y) = 0.45484 0.05187
# Poissons Ratio (z) = 0.14035 0.03397
#
# Static dielectric constant tensor:
#      x y z
#    x 2.141080 0.000440 -0.150720 
#    y 0.000440 1.966210 -0.018170 
#    z -0.150720 -0.018170 2.216280 
# 
# From -- ./inp_files/232629.got.cif
#   From: 2010.05.17/outbox.cif.g08.bks.cpg/sg2_117_cif.got.tgz:232629.got - 2010.06.03 11:33:40.
