data_PCOD9015070
_publ_section_title
;
Structure prediction by ZEFSAII (Michael W. Deem and Ramdas Pophale) SiO2 
 PCOD9015070
Probable space group: P -1
;
_chemical_formula_sum "Si O2"
_cell_formula_units_Z 13
_cell_length_a 12.897804
_cell_length_b 10.143494
_cell_length_c 16.230423
_cell_angle_alpha 140.331195
_cell_angle_beta 24.502281
_cell_angle_gamma 132.272070
_cell_volume 559.052625
_symmetry_space_group_name_H-M "P -1"
_symmetry_group_IT_number 2
_symmetry_cell_setting 'triclinic'
loop_
_space_group_symop_operation_xyz
x,y,z
-x,-y,-z
loop_
_atom_site_type_symbol
_atom_site_label
_atom_site_fract_x
_atom_site_fract_y
_atom_site_fract_z
Si Si1 0.123381 0.209116 0.010089
Si Si2 0.882921 0.534215 0.220465
Si Si3 0.131594 0.993629 0.490368
Si Si4 0.571689 0.545423 0.299644
Si Si5 0.315168 0.214365 0.221043
Si Si6 0.617576 0.698020 0.974599
Si Si7 0.500000 0.000000 0.500000
O O1 0.163693 0.270470 0.104893
O O2 0.370436 0.151854 0.745607
O O3 0.934333 0.388930 0.192133
O O4 0.000000 0.000000 0.000000
O O5 0.651138 0.488606 0.308685
O O6 0.864703 0.776532 0.369083
O O7 0.151457 0.491564 0.959849
O O8 0.411319 0.891689 0.230084
O O9 0.963454 0.852621 0.598049
O O10 0.000000 0.000000 0.500000
O O11 0.398351 0.386023 0.306615
O O12 0.485715 0.787897 0.463210
O O13 0.332046 0.304599 0.160129
O O14 0.500000 0.000000 0.000000
O O15 0.500000 0.500000 0.000000
#
# Coordination Sequence:
#
# PCOD9015070 Si02
#       7
#     2   2   2   2   2   2   1
#     4  11  26  44  68  99 141 186 237 293 350 431
#     4  10  22  41  68 101 137 185 233 293 356 420
#     4  12  24  44  73 104 142 189 236 298 367 428
#     4  10  21  41  71 100 138 179 233 292 354 428
#     4  12  25  45  75 106 139 185 243 298 356 431
#     4  12  27  47  69 105 147 184 235 298 362 427
#     4  10  22  44  66 102 140 178 226 288 368 412
#
# _framework density 23.253623999999999
#
# number of rings (size 3 to 8) (size 9 to 14) (size 15 to 20)
#    0.000    0.923    3.077    3.692    2.154    5.538 
#    0.000    2.308    0.000    0.000    0.000    0.000 
#    0.000    0.000    0.000    0.000    0.000    0.000 
#
# Total GULP energy -72476.827466 kJ/mol
# GULP energy per Si atom -5575.140574 kJ/mol
# Density = 2.320070 g / cm^3
# Si number density = 23.253624 Si / 1000 Ang^3
#
#
#
# Elastic Constant Matrix: (Units=GPa)
#
#
# Indices 1 2 3 4 5 6 
#
# 1 203.9634 83.6152 36.0576 17.2533 9.2045 -3.7586
# 2 83.6152 128.1836 23.4398 25.5598 3.6269 -2.8873
# 3 36.0576 23.4398 87.2324 23.2471 3.3444 -3.6121
# 4 17.2533 25.5598 23.2471 49.2179 -8.6202 9.3873
# 5 9.2045 3.6269 3.3444 -8.6202 26.6920 -0.0893
# 6 -3.7586 -2.8873 -3.6121 9.3873 -0.0893 44.2587
#
#
#
# Elastic Compliance Matrix: (Units=1/GPa)
#
#
# Indices 1 2 3 4 5 6 
#
# 1 0.007008 -0.004264 -0.001771 0.000309 -0.001515 0.000104
# 2 -0.004264 0.011689 0.000157 -0.005262 -0.001832 0.001526
# 3 -0.001771 0.000157 0.014360 -0.007364 -0.003579 0.002586
# 4 0.000309 -0.005262 -0.007364 0.029740 0.011112 -0.007203
# 5 -0.001515 -0.001832 -0.003579 0.011112 0.042263 -0.002812
# 6 0.000104 0.001526 0.002586 -0.007203 -0.002812 0.024436
#
#
# Mechanical properties :
#
#
# Convention : Reuss Voigt Hill
#
# Bulk Modulus (GPa) = 46.94371 78.40050 62.67211
# Shear Modulus (GPa) = 33.70322 42.45151 38.07737
#
# Velocity S-wave (km/s) = 3.81120 4.27732 4.05097
# Velocity P-wave (km/s) = 6.29273 7.62775 6.99218
#
# Compressibility (1/GPa) = 0.02130211
#
# Stress axis : x y z
#
# Youngs Moduli (GPa) = 142.69159 85.54745 69.63695
#
# Poissons Ratio (x) = 0.36477 0.12333
# Poissons Ratio (y) = 0.60844 -0.01095
# Poissons Ratio (z) = 0.25271 -0.01345
#
# Static dielectric constant tensor:
#      x y z
#    x 1.362110 0.056400 -0.153480 
#    y 0.056400 1.813530 -0.045090 
#    z -0.153480 -0.045090 1.855660 
# 
# From -- ./inp_files/147947.got.cif
#   From: 2010.05.17/outbox.cif.g08.bks.cpg/sg2_74_cif.got.tgz:147947.got - 2010.06.03 11:33:40.
