data_PCOD9015377
_publ_section_title
;
Structure prediction by ZEFSAII (Michael W. Deem and Ramdas Pophale) SiO2 
 PCOD9015377
Probable space group: P -1
;
_chemical_formula_sum "Si O2"
_cell_formula_units_Z 14
_cell_length_a 21.330379
_cell_length_b 8.411286
_cell_length_c 7.347988
_cell_angle_alpha 92.593200
_cell_angle_beta 47.337651
_cell_angle_gamma 127.057813
_cell_volume 607.741570
_symmetry_space_group_name_H-M "P -1"
_symmetry_group_IT_number 2
_symmetry_cell_setting 'triclinic'
loop_
_space_group_symop_operation_xyz
x,y,z
-x,-y,-z
loop_
_atom_site_type_symbol
_atom_site_label
_atom_site_fract_x
_atom_site_fract_y
_atom_site_fract_z
Si Si1 0.678998 0.816188 0.891499
Si Si2 0.634702 0.282104 0.175603
Si Si3 0.096790 0.454243 0.795826
Si Si4 0.206141 0.929307 0.682565
Si Si5 0.142247 0.647514 0.306279
Si Si6 0.702937 0.520311 0.683683
Si Si7 0.378251 0.440407 0.524264
O O1 0.743066 0.736796 0.727613
O O2 0.683226 0.903278 0.686997
O O3 0.761201 0.058747 0.862700
O O4 0.526675 0.578962 0.249082
O O5 0.645394 0.463621 0.270361
O O6 0.500000 0.000000 0.500000
O O7 0.768178 0.367270 0.950274
O O8 0.627577 0.303344 0.972314
O O9 0.170434 0.695184 0.787678
O O10 0.111975 0.546638 0.566861
O O11 0.172654 0.398459 0.638914
O O12 0.936134 0.213065 0.128517
O O13 0.263945 0.137480 0.724328
O O14 0.000000 0.500000 0.500000
O O15 0.624359 0.470142 0.659822
#
# Coordination Sequence:
#
# PCOD9015377 Si02
#       7
#     2   2   2   2   2   2   2
#     4  10  21  42  61  93 133 163 221 268 315 391
#     4  11  24  45  63  97 133 165 223 268 311 398
#     4   9  20  39  61  95 127 167 221 262 313 397
#     4   9  19  37  62  88 126 163 212 260 316 379
#     4  10  22  42  63  89 134 172 210 272 325 373
#     4  10  23  41  66  94 127 171 209 271 326 371
#     4  11  23  42  65  95 130 174 210 268 326 380
#
# _framework density 23.036104999999999
#
# number of rings (size 3 to 8) (size 9 to 14) (size 15 to 20)
#    0.000    2.000    1.429    1.714    0.000    9.143 
#    7.714    2.857    0.000    0.000    0.000    0.000 
#    0.000    0.000    0.000    0.000    0.000    0.000 
#
# Total GULP energy -78220.156310 kJ/mol
# GULP energy per Si atom -5587.154022 kJ/mol
# Density = 2.298367 g / cm^3
# Si number density = 23.036105 Si / 1000 Ang^3
#
#
#
# Elastic Constant Matrix: (Units=GPa)
#
#
# Indices 1 2 3 4 5 6 
#
# 1 92.2910 15.8556 32.2999 1.6357 4.8841 -6.4919
# 2 15.8556 154.4695 54.5026 19.8176 -37.8889 -15.0763
# 3 32.2999 54.5026 121.3296 15.6073 -19.3454 -12.6987
# 4 1.6357 19.8176 15.6073 35.6663 -5.5663 -8.3715
# 5 4.8841 -37.8889 -19.3454 -5.5663 47.5024 16.0094
# 6 -6.4919 -15.0763 -12.6987 -8.3715 16.0094 24.8176
#
#
#
# Elastic Compliance Matrix: (Units=1/GPa)
#
#
# Indices 1 2 3 4 5 6 
#
# 1 0.012796 -0.001092 -0.003452 0.001871 -0.004977 0.004759
# 2 -0.001092 0.009425 -0.002595 -0.003318 0.006613 -0.001273
# 3 -0.003452 -0.002595 0.011119 -0.002717 0.002200 0.000874
# 4 0.001871 -0.003318 -0.002717 0.032887 -0.003638 0.010524
# 5 -0.004977 0.006613 0.002200 -0.003638 0.033768 -0.019169
# 6 0.004759 -0.001273 0.000874 0.010524 -0.019169 0.057128
#
#
# Mechanical properties :
#
#
# Convention : Reuss Voigt Hill
#
# Bulk Modulus (GPa) = 52.46195 63.71182 58.08688
# Shear Modulus (GPa) = 28.12858 39.29274 33.71066
#
# Velocity S-wave (km/s) = 3.49817 4.13450 3.82957
# Velocity P-wave (km/s) = 6.25615 7.10700 6.69511
#
# Compressibility (1/GPa) = 0.01906144
#
# Stress axis : x y z
#
# Youngs Moduli (GPa) = 78.14900 106.10026 89.93966
#
# Poissons Ratio (x) = 0.11583 0.31049
# Poissons Ratio (y) = 0.08531 0.23341
# Poissons Ratio (z) = 0.26979 0.27535
#
# Static dielectric constant tensor:
#      x y z
#    x 1.911260 0.011930 0.042570 
#    y 0.011930 1.877260 0.018630 
#    z 0.042570 0.018630 1.842240 
# 
# From -- ./inp_files/328795.got.cif
#   From: 2010.05.17/outbox.cif.g08.bks.cpg/sg2_165_cif.got.tgz:328795.got - 2010.06.03 11:33:40.
