data_PCOD9015777
_publ_section_title
;
Structure prediction by ZEFSAII (Michael W. Deem and Ramdas Pophale) SiO2 
 PCOD9015777
Probable space group: P -1
;
_chemical_formula_sum "Si O2"
_cell_formula_units_Z 16
_cell_length_a 9.013658
_cell_length_b 18.700309
_cell_length_c 19.851144
_cell_angle_alpha 158.678973
_cell_angle_beta 138.555308
_cell_angle_gamma 50.035290
_cell_volume 783.184952
_symmetry_space_group_name_H-M "P -1"
_symmetry_group_IT_number 2
_symmetry_cell_setting 'triclinic'
loop_
_space_group_symop_operation_xyz
x,y,z
-x,-y,-z
loop_
_atom_site_type_symbol
_atom_site_label
_atom_site_fract_x
_atom_site_fract_y
_atom_site_fract_z
Si Si1 0.087358 0.775165 0.595928
Si Si2 0.530773 0.084384 0.692600
Si Si3 0.512395 0.974332 0.855415
Si Si4 0.990219 0.967801 0.868462
Si Si5 0.123788 0.982342 0.366507
Si Si6 0.344870 0.326846 0.064034
Si Si7 0.493072 0.220656 0.457820
Si Si8 0.752390 0.343642 0.110224
O O1 0.359417 0.805770 0.703491
O O2 0.939156 0.552319 0.362761
O O3 0.054378 0.923514 0.775179
O O4 0.988208 0.851517 0.561108
O O5 0.709451 0.069697 0.680939
O O6 0.284794 0.064378 0.556423
O O7 0.504207 0.902431 0.579359
O O8 0.635994 0.286913 0.947890
O O9 0.448703 0.902612 0.694279
O O10 0.781906 0.010456 0.991557
O O11 0.430975 0.182432 0.020830
O O12 0.775976 0.780851 0.647752
O O13 0.884890 0.164745 0.011599
O O14 0.913844 0.793356 0.147360
O O15 0.356691 0.553714 0.290313
O O16 0.538801 0.345143 0.088115
#
# Coordination Sequence:
#
# PCOD9015777 Si02
#       8
#     2   2   2   2   2   2   2   2
#     4  11  23  42  62  91 122 158 204 250 296 358
#     4  10  21  42  65  86 123 160 194 250 304 353
#     4  11  25  39  62  92 120 161 206 245 300 355
#     4  11  22  42  63  85 127 160 199 253 296 353
#     4  10  22  41  64  90 119 158 202 246 300 358
#     4  11  23  39  63  91 123 158 201 247 297 359
#     4  11  22  41  61  89 126 156 199 251 297 355
#     4  11  22  40  64  87 124 162 195 248 306 349
#
# _framework density 20.429402
#
# number of rings (size 3 to 8) (size 9 to 14) (size 15 to 20)
#    0.000    1.250    6.250    0.750    1.750    3.500 
#    0.000    0.000    0.000    0.000    0.000    0.000 
#    0.000    0.000    0.000    0.000    0.000    0.000 
#
# Total GULP energy -89261.095725 kJ/mol
# GULP energy per Si atom -5578.818483 kJ/mol
# Density = 2.038290 g / cm^3
# Si number density = 20.429402 Si / 1000 Ang^3
#
#
#
# Elastic Constant Matrix: (Units=GPa)
#
#
# Indices 1 2 3 4 5 6 
#
# 1 72.9285 10.4832 32.1272 0.1615 15.1320 7.8274
# 2 10.4832 45.8675 25.9497 -15.0768 -9.5577 2.4769
# 3 32.1272 25.9497 83.8151 3.0355 2.6988 9.0047
# 4 0.1615 -15.0768 3.0355 32.0963 -0.7359 2.1807
# 5 15.1320 -9.5577 2.6988 -0.7359 33.7732 -4.4853
# 6 7.8274 2.4769 9.0047 2.1807 -4.4853 18.7790
#
#
#
# Elastic Compliance Matrix: (Units=1/GPa)
#
#
# Indices 1 2 3 4 5 6 
#
# 1 0.019463 -0.003621 -0.005161 -0.001038 -0.010353 -0.007512
# 2 -0.003621 0.038705 -0.012130 0.019446 0.014421 0.003407
# 3 -0.005161 -0.012130 0.018589 -0.007159 -0.003446 -0.005154
# 4 -0.001038 0.019446 -0.007159 0.041258 0.007204 -0.001770
# 5 -0.010353 0.014421 -0.003446 0.007204 0.040474 0.012896
# 6 -0.007512 0.003407 -0.005154 -0.001770 0.012896 0.061690
#
#
# Mechanical properties :
#
#
# Convention : Reuss Voigt Hill
#
# Bulk Modulus (GPa) = 28.62682 37.74795 33.18738
# Shear Modulus (GPa) = 18.27162 25.86642 22.06902
#
# Velocity S-wave (km/s) = 2.99386 3.56214 3.29029
# Velocity P-wave (km/s) = 5.09842 5.95280 5.54210
#
# Compressibility (1/GPa) = 0.03493227
#
# Stress axis : x y z
#
# Youngs Moduli (GPa) = 51.37951 25.83641 53.79563
#
# Poissons Ratio (x) = 0.09356 0.27765
# Poissons Ratio (y) = 0.18605 0.65254
# Poissons Ratio (z) = 0.26518 0.31340
#
# Static dielectric constant tensor:
#      x y z
#    x 1.779500 0.011070 0.011930 
#    y 0.011070 1.735180 -0.007260 
#    z 0.011930 -0.007260 1.726260 
# 
# From -- ./inp_files/206148.got.cif
#   From: 2010.05.17/outbox.cif.g08.bks.cpg/sg2_104_cif.got.tgz:206148.got - 2010.06.03 11:33:40.
