data_PCOD9015309
_publ_section_title
;
Structure prediction by ZEFSAII (Michael W. Deem and Ramdas Pophale) SiO2 
 PCOD9015309
Probable space group: P -1
;
_chemical_formula_sum "Si O2"
_cell_formula_units_Z 12
_cell_length_a 17.272486
_cell_length_b 5.093839
_cell_length_c 6.410652
_cell_angle_alpha 82.713418
_cell_angle_beta 87.362004
_cell_angle_gamma 57.925846
_cell_volume 473.925061
_symmetry_space_group_name_H-M "P -1"
_symmetry_group_IT_number 2
_symmetry_cell_setting 'triclinic'
loop_
_space_group_symop_operation_xyz
x,y,z
-x,-y,-z
loop_
_atom_site_type_symbol
_atom_site_label
_atom_site_fract_x
_atom_site_fract_y
_atom_site_fract_z
Si Si1 0.123051 0.800664 0.271417
Si Si2 0.816265 0.790567 0.969140
Si Si3 0.347267 0.683057 0.504273
Si Si4 0.320606 0.201452 0.701104
Si Si5 0.947276 0.419106 0.342065
Si Si6 0.500605 0.637684 0.768687
O O1 0.114699 0.674962 0.511005
O O2 0.146149 0.523376 0.138268
O O3 0.022791 0.116646 0.236378
O O4 0.187822 0.936144 0.197388
O O5 0.724617 0.860360 0.090332
O O6 0.887143 0.697870 0.162288
O O7 0.290565 0.552526 0.627174
O O8 0.439073 0.555522 0.643486
O O9 0.395653 0.512285 0.301920
O O10 0.303330 0.048944 0.513375
O O11 0.430842 0.009459 0.737138
O O12 0.000000 0.500000 0.500000
O O13 0.500000 0.500000 0.000000
#
# Coordination Sequence:
#
# PCOD9015309 Si02
#       6
#     2   2   2   2   2   2
#     4  11  25  43  65  95 123 169 212 258 313 388
#     4  12  25  42  66  92 135 164 205 271 319 360
#     4   9  20  40  59  84 123 158 202 246 295 364
#     4  10  21  42  58  89 126 159 198 252 311 356
#     4  11  25  44  68  96 122 169 221 252 317 381
#     4   9  20  38  63  89 115 162 207 244 294 365
#
# _framework density 25.320457999999999
#
# number of rings (size 3 to 8) (size 9 to 14) (size 15 to 20)
#    1.000    0.667    1.667    2.500    4.667    0.667 
#    6.000    0.000    0.000    0.000    0.000    0.000 
#    0.000    0.000    0.000    0.000    0.000    0.000 
#
# Total GULP energy -66990.053175 kJ/mol
# GULP energy per Si atom -5582.504431 kJ/mol
# Density = 2.526283 g / cm^3
# Si number density = 25.320458 Si / 1000 Ang^3
#
#
#
# Elastic Constant Matrix: (Units=GPa)
#
#
# Indices 1 2 3 4 5 6 
#
# 1 65.9454 35.9623 2.3484 -2.6517 -23.9282 -2.5469
# 2 35.9623 91.1357 12.7893 6.7865 -3.2586 11.3417
# 3 2.3484 12.7893 83.2016 -0.0562 -31.3049 -2.1140
# 4 -2.6517 6.7865 -0.0562 45.9541 -1.4826 -13.1087
# 5 -23.9282 -3.2586 -31.3049 -1.4826 39.0965 -6.4806
# 6 -2.5469 11.3417 -2.1140 -13.1087 -6.4806 42.6746
#
#
#
# Elastic Compliance Matrix: (Units=1/GPa)
#
#
# Indices 1 2 3 4 5 6 
#
# 1 0.043673 -0.021807 0.019238 0.012898 0.044123 0.020017
# 2 -0.021807 0.022991 -0.012378 -0.009626 -0.024134 -0.014647
# 3 0.019238 -0.012378 0.026795 0.007936 0.034732 0.013477
# 4 0.012898 -0.009626 0.007936 0.028811 0.017051 0.015161
# 5 0.044123 -0.024134 0.034732 0.017051 0.083790 0.028730
# 6 0.020017 -0.014647 0.013477 0.015161 0.028730 0.038208
#
#
# Mechanical properties :
#
#
# Convention : Reuss Voigt Hill
#
# Bulk Modulus (GPa) = 15.73192 38.05363 26.89277
# Shear Modulus (GPa) = 16.92911 38.15722 27.54316
#
# Velocity S-wave (km/s) = 2.58852 3.88618 3.30173
# Velocity P-wave (km/s) = 3.89366 5.93279 5.01790
#
# Compressibility (1/GPa) = 0.06356502
#
# Stress axis : x y z
#
# Youngs Moduli (GPa) = 22.89765 43.49472 37.32104
#
# Poissons Ratio (x) = 0.94849 -0.71798
# Poissons Ratio (y) = 0.49933 0.46195
# Poissons Ratio (z) = -0.44050 0.53837
#
# Static dielectric constant tensor:
#      x y z
#    x 1.686650 0.818670 0.206600 
#    y 0.818670 0.009710 -0.387770 
#    z 0.206600 -0.387770 1.907710 
# 
# From -- ./inp_files/339609.got.cif
#   From: 2010.05.17/outbox.cif.g08.bks.cpg/sg2_170_cif.got.tgz:339609.got - 2010.06.03 11:33:40.
