data_PCOD9015254
_publ_section_title
;
Structure prediction by ZEFSAII (Michael W. Deem and Ramdas Pophale) SiO2 
 PCOD9015254
Probable space group: P -1
;
_chemical_formula_sum "Si O2"
_cell_formula_units_Z 14
_cell_length_a 14.413043
_cell_length_b 9.011632
_cell_length_c 11.075836
_cell_angle_alpha 77.363323
_cell_angle_beta 110.063409
_cell_angle_gamma 42.919847
_cell_volume 624.181751
_symmetry_space_group_name_H-M "P -1"
_symmetry_group_IT_number 2
_symmetry_cell_setting 'triclinic'
loop_
_space_group_symop_operation_xyz
x,y,z
-x,-y,-z
loop_
_atom_site_type_symbol
_atom_site_label
_atom_site_fract_x
_atom_site_fract_y
_atom_site_fract_z
Si Si1 0.105339 0.344033 0.753242
Si Si2 0.936601 0.087778 0.253117
Si Si3 0.141297 0.029391 0.538282
Si Si4 0.978235 0.241947 0.861746
Si Si5 0.789098 0.833097 0.916925
Si Si6 0.423914 0.120102 0.310264
Si Si7 0.534545 0.224485 0.165575
O O1 0.984065 0.642041 0.581321
O O2 0.955978 0.413285 0.725784
O O3 0.292230 0.022343 0.816988
O O4 0.206596 0.264563 0.937853
O O5 0.077051 0.029237 0.386627
O O6 0.932227 0.968415 0.379767
O O7 0.693726 0.454080 0.051935
O O8 0.015142 0.912998 0.191884
O O9 0.382479 0.747857 0.719945
O O10 0.797761 0.493308 0.835071
O O11 0.186072 0.023961 0.061416
O O12 0.603768 0.013505 0.727224
O O13 0.000000 0.500000 0.000000
O O14 0.543439 0.062439 0.280498
O O15 0.500000 0.000000 0.500000
#
# Coordination Sequence:
#
# PCOD9015254 Si02
#       7
#     2   2   2   2   2   2   2
#     4  10  21  41  73  97 125 175 227 272 320 383
#     4  11  25  43  65  96 141 176 211 272 349 386
#     4  11  23  41  67  99 135 172 218 279 327 390
#     4   9  21  44  64  90 131 178 208 264 340 386
#     4   8  18  38  64  90 126 169 207 266 323 381
#     4  11  23  39  65 102 130 166 224 277 323 389
#     4  12  25  42  68 103 133 168 230 277 321 396
#
# _framework density 22.429364
#
# number of rings (size 3 to 8) (size 9 to 14) (size 15 to 20)
#    0.857    0.857    1.429    2.571    2.000    2.857 
#    5.143    0.714    0.000    0.000    0.000    0.000 
#    0.000    0.000    0.000    0.000    0.000    0.000 
#
# Total GULP energy -78017.488420 kJ/mol
# GULP energy per Si atom -5572.677744 kJ/mol
# Density = 2.237831 g / cm^3
# Si number density = 22.429364 Si / 1000 Ang^3
#
#
#
# Elastic Constant Matrix: (Units=GPa)
#
#
# Indices 1 2 3 4 5 6 
#
# 1 54.5045 10.7194 12.0805 6.6267 15.8958 1.3372
# 2 10.7194 87.9016 27.6872 29.1353 17.6630 4.7544
# 3 12.0805 27.6872 109.3791 34.8662 11.7730 12.9735
# 4 6.6267 29.1353 34.8662 38.3866 16.9879 7.6221
# 5 15.8958 17.6630 11.7730 16.9879 31.3757 6.5819
# 6 1.3372 4.7544 12.9735 7.6221 6.5819 29.3375
#
#
#
# Elastic Compliance Matrix: (Units=1/GPa)
#
#
# Indices 1 2 3 4 5 6 
#
# 1 0.022150 -0.000935 -0.002450 0.004254 -0.012482 0.001921
# 2 -0.000935 0.015505 -0.000378 -0.010227 -0.002781 0.000978
# 3 -0.002450 -0.000378 0.013516 -0.012632 0.003936 -0.003405
# 4 0.004254 -0.010227 -0.012632 0.054072 -0.020428 -0.002416
# 5 -0.012482 -0.002781 0.003936 -0.020428 0.050772 -0.006805
# 6 0.001921 0.000978 -0.003405 -0.002416 -0.006805 0.037500
#
#
# Mechanical properties :
#
#
# Convention : Reuss Voigt Hill
#
# Bulk Modulus (GPa) = 22.91251 39.19550 31.05400
# Shear Modulus (GPa) = 23.19218 33.23983 28.21601
#
# Velocity S-wave (km/s) = 3.21909 3.85382 3.55067
# Velocity P-wave (km/s) = 4.90452 6.10865 5.53940
#
# Compressibility (1/GPa) = 0.04364429
#
# Stress axis : x y z
#
# Youngs Moduli (GPa) = 45.14665 64.49455 73.98791
#
# Poissons Ratio (x) = 0.06031 0.18127
# Poissons Ratio (y) = 0.04222 0.02799
# Poissons Ratio (z) = 0.11061 0.02440
#
# Static dielectric constant tensor:
#      x y z
#    x 1.825910 0.047900 0.037370 
#    y 0.047900 1.845580 0.009290 
#    z 0.037370 0.009290 1.932090 
# 
# From -- ./inp_files/445887.got.cif
#   From: 2010.05.17/outbox.cif.g08.bks.cpg/sg2_223_cif.got.tgz:445887.got - 2010.06.03 11:33:40.
