data_PCOD9015773
_publ_section_title
;
Structure prediction by ZEFSAII (Michael W. Deem and Ramdas Pophale) SiO2 
 PCOD9015773
Probable space group: P -1
;
_chemical_formula_sum "Si O2"
_cell_formula_units_Z 14
_cell_length_a 11.129764
_cell_length_b 11.714894
_cell_length_c 6.951034
_cell_angle_alpha 38.135269
_cell_angle_beta 81.426859
_cell_angle_gamma 73.327490
_cell_volume 531.620065
_symmetry_space_group_name_H-M "P -1"
_symmetry_group_IT_number 2
_symmetry_cell_setting 'triclinic'
loop_
_space_group_symop_operation_xyz
x,y,z
-x,-y,-z
loop_
_atom_site_type_symbol
_atom_site_label
_atom_site_fract_x
_atom_site_fract_y
_atom_site_fract_z
Si Si1 0.375965 0.495398 0.290128
Si Si2 0.217021 0.815277 0.187186
Si Si3 0.004332 0.549216 0.157940
Si Si4 0.248363 0.179262 0.250101
Si Si5 0.877580 0.124353 0.252831
Si Si6 0.794552 0.773425 0.339286
Si Si7 0.647566 0.491121 0.180232
O O1 0.312582 0.686182 0.175932
O O2 0.304853 0.335344 0.568727
O O3 0.525945 0.436622 0.363786
O O4 0.360836 0.525578 0.023981
O O5 0.227703 0.658825 0.559298
O O6 0.104757 0.904314 0.944274
O O7 0.240013 0.007763 0.012594
O O8 0.059952 0.360420 0.523896
O O9 0.110264 0.662510 0.003458
O O10 0.000000 0.500000 0.000000
O O11 0.866005 0.695443 0.021849
O O12 0.224530 0.212682 0.441381
O O13 0.235344 0.962340 0.529130
O O14 0.356454 0.289103 0.053787
O O15 0.000000 0.000000 0.500000
#
# Coordination Sequence:
#
# PCOD9015773 Si02
#       7
#     2   2   2   2   2   2   2
#     4  10  21  42  65  81 129 162 198 255 309 344
#     4  11  21  38  65  90 121 160 208 245 300 366
#     4   9  15  30  59  82 117 160 197 242 298 362
#     4   8  17  33  56  84 122 153 199 249 300 355
#     4   9  17  33  60  90 115 163 200 238 307 363
#     4   9  18  34  59  89 114 162 205 236 301 366
#     4  10  22  40  61  94 122 155 207 256 296 361
#
# _framework density 26.334598
#
# number of rings (size 3 to 8) (size 9 to 14) (size 15 to 20)
#    0.000    2.571    1.429    1.286    0.000    0.571 
#    0.000   19.286    0.000    0.000    0.000    0.000 
#    0.000    0.000    0.000    0.000    0.000    0.000 
#
# Total GULP energy -78092.407244 kJ/mol
# GULP energy per Si atom -5578.029089 kJ/mol
# Density = 2.627466 g / cm^3
# Si number density = 26.334598 Si / 1000 Ang^3
#
#
#
# Elastic Constant Matrix: (Units=GPa)
#
#
# Indices 1 2 3 4 5 6 
#
# 1 96.8587 34.4207 25.5946 -13.1733 -26.3501 28.0675
# 2 34.4207 108.7165 51.9459 -4.9004 -16.7703 11.5973
# 3 25.5946 51.9459 143.9475 -1.1388 -22.0248 31.9197
# 4 -13.1733 -4.9004 -1.1388 68.7021 22.2743 -9.2438
# 5 -26.3501 -16.7703 -22.0248 22.2743 32.8210 -5.2833
# 6 28.0675 11.5973 31.9197 -9.2438 -5.2833 31.7024
#
#
#
# Elastic Compliance Matrix: (Units=1/GPa)
#
#
# Indices 1 2 3 4 5 6 
#
# 1 0.020443 -0.004218 0.004970 -0.004679 0.017549 -0.020000
# 2 -0.004218 0.012333 -0.004550 0.000471 0.000182 0.003971
# 3 0.004970 -0.004550 0.012688 -0.004747 0.010976 -0.015065
# 4 -0.004679 0.000471 -0.004747 0.021484 -0.019385 0.011784
# 5 0.017549 0.000182 0.010976 -0.019385 0.061624 -0.022037
# 6 -0.020000 0.003971 -0.015065 0.011784 -0.022037 0.062730
#
#
# Mechanical properties :
#
#
# Convention : Reuss Voigt Hill
#
# Bulk Modulus (GPa) = 26.40626 63.71612 45.06119
# Shear Modulus (GPa) = 23.63855 42.48256 33.06055
#
# Velocity S-wave (km/s) = 2.99929 4.02080 3.54701
# Velocity P-wave (km/s) = 4.69503 6.76780 5.82436
#
# Compressibility (1/GPa) = 0.03786982
#
# Stress axis : x y z
#
# Youngs Moduli (GPa) = 48.91613 81.08203 78.81718
#
# Poissons Ratio (x) = 0.34197 -0.39173
# Poissons Ratio (y) = 0.20631 0.35859
# Poissons Ratio (z) = -0.24312 0.36889
#
# Static dielectric constant tensor:
#      x y z
#    x 2.118630 0.001470 0.050300 
#    y 0.001470 2.135640 -0.004930 
#    z 0.050300 -0.004930 2.110850 
# 
# From -- ./inp_files/169941.got.cif
#   From: 2010.05.17/outbox.cif.g08.bks.cpg/sg2_85_cif.got.tgz:169941.got - 2010.06.03 11:33:40.
