data_PCOD9015772
_publ_section_title
;
Structure prediction by ZEFSAII (Michael W. Deem and Ramdas Pophale) SiO2 
 PCOD9015772
Probable space group: P -1
;
_chemical_formula_sum "Si O2"
_cell_formula_units_Z 16
_cell_length_a 20.719066
_cell_length_b 9.105342
_cell_length_c 8.318436
_cell_angle_alpha 87.006178
_cell_angle_beta 85.856139
_cell_angle_gamma 29.021615
_cell_volume 759.148128
_symmetry_space_group_name_H-M "P -1"
_symmetry_group_IT_number 2
_symmetry_cell_setting 'triclinic'
loop_
_space_group_symop_operation_xyz
x,y,z
-x,-y,-z
loop_
_atom_site_type_symbol
_atom_site_label
_atom_site_fract_x
_atom_site_fract_y
_atom_site_fract_z
Si Si1 0.182515 0.138386 0.161627
Si Si2 0.564952 0.188180 0.175064
Si Si3 0.523203 0.311673 0.822791
Si Si4 0.838515 0.194773 0.354480
Si Si5 0.054749 0.191577 0.925650
Si Si6 0.852932 0.491024 0.205254
Si Si7 0.025504 0.295767 0.424265
Si Si8 0.541324 0.747457 0.482478
O O1 0.154358 0.070370 0.303248
O O2 0.062548 0.494900 0.170789
O O3 0.324895 0.928653 0.172579
O O4 0.146238 0.129858 0.001861
O O5 0.564840 0.364822 0.193586
O O6 0.501447 0.248260 0.345399
O O7 0.709410 0.825729 0.149985
O O8 0.493370 0.305122 0.007367
O O9 0.512574 0.227078 0.673229
O O10 0.849500 0.343917 0.305640
O O11 0.698744 0.436926 0.446030
O O12 0.852729 0.087819 0.186871
O O13 0.949032 0.897139 0.461499
O O14 0.969003 0.266188 0.063569
O O15 0.899228 0.519483 0.322708
O O16 0.000000 0.500000 0.500000
O O17 0.500000 0.000000 0.500000
#
# Coordination Sequence:
#
# PCOD9015772 Si02
#       8
#     2   2   2   2   2   2   2   2
#     4  10  21  42  65 107 132 170 230 293 340 415
#     4  11  25  47  73 105 139 185 241 285 350 414
#     4  11  26  44  78 103 140 190 238 290 350 414
#     4  12  25  45  68  98 140 182 229 283 357 417
#     4  10  22  40  71  98 136 174 227 281 355 410
#     4  11  24  46  67  99 143 177 223 293 349 423
#     4  11  24  38  70 101 131 177 227 284 350 413
#     4  12  28  48  69 105 144 192 234 292 349 417
#
# _framework density 21.076255
#
# number of rings (size 3 to 8) (size 9 to 14) (size 15 to 20)
#    0.000    1.000    3.750    1.875    7.000    0.500 
#    2.250    0.000    0.000    0.000    0.000    0.000 
#    0.000    0.000    0.000    0.000    0.000    0.000 
#
# Total GULP energy -89307.603792 kJ/mol
# GULP energy per Si atom -5581.725237 kJ/mol
# Density = 2.102828 g / cm^3
# Si number density = 21.076255 Si / 1000 Ang^3
#
#
#
# Elastic Constant Matrix: (Units=GPa)
#
#
# Indices 1 2 3 4 5 6 
#
# 1 72.7284 22.7661 54.4232 -1.7633 -14.0775 12.3437
# 2 22.7661 78.6181 34.6482 4.8794 -7.5544 11.6317
# 3 54.4232 34.6482 142.4338 0.5356 -15.4899 14.6965
# 4 -1.7633 4.8794 0.5356 35.5340 12.2941 -5.5439
# 5 -14.0775 -7.5544 -15.4899 12.2941 31.2324 3.8400
# 6 12.3437 11.6317 14.6965 -5.5439 3.8400 26.3116
#
#
#
# Elastic Compliance Matrix: (Units=1/GPa)
#
#
# Indices 1 2 3 4 5 6 
#
# 1 0.021764 -0.001397 -0.006226 -0.002801 0.008463 -0.007941
# 2 -0.001397 0.015858 -0.002030 -0.005062 0.005056 -0.007026
# 3 -0.006226 -0.002030 0.010506 -0.001632 0.002902 -0.002817
# 4 -0.002801 -0.005062 -0.001632 0.038121 -0.020201 0.015444
# 5 0.008463 0.005056 0.002902 -0.020201 0.048808 -0.019206
# 6 -0.007941 -0.007026 -0.002817 0.015444 -0.019206 0.052468
#
#
# Mechanical properties :
#
#
# Convention : Reuss Voigt Hill
#
# Bulk Modulus (GPa) = 34.69492 57.49504 46.09498
# Shear Modulus (GPa) = 23.10126 30.74510 26.92318
#
# Velocity S-wave (km/s) = 3.31430 3.82351 3.57798
# Velocity P-wave (km/s) = 5.58063 6.84332 6.24398
#
# Compressibility (1/GPa) = 0.02882266
#
# Stress axis : x y z
#
# Youngs Moduli (GPa) = 45.94796 63.05844 95.18378
#
# Poissons Ratio (x) = 0.08806 0.59260
# Poissons Ratio (y) = 0.06417 0.19325
# Poissons Ratio (z) = 0.28606 0.12803
#
# Static dielectric constant tensor:
#      x y z
#    x 1.755340 -0.011920 -0.024410 
#    y -0.011920 1.762820 -0.011220 
#    z -0.024410 -0.011220 1.850360 
# 
# From -- ./inp_files/343603.got.cif
#   From: 2010.05.17/outbox.cif.g08.bks.cpg/sg2_172_cif.got.tgz:343603.got - 2010.06.03 11:33:40.
