data_PCOD9015538
_publ_section_title
;
Structure prediction by ZEFSAII (Michael W. Deem and Ramdas Pophale) SiO2 
 PCOD9015538
Probable space group: P -1
;
_chemical_formula_sum "Si O2"
_cell_formula_units_Z 16
_cell_length_a 9.612893
_cell_length_b 7.484504
_cell_length_c 10.976109
_cell_angle_alpha 123.132935
_cell_angle_beta 61.567115
_cell_angle_gamma 110.638141
_cell_volume 576.956005
_symmetry_space_group_name_H-M "P -1"
_symmetry_group_IT_number 2
_symmetry_cell_setting 'triclinic'
loop_
_space_group_symop_operation_xyz
x,y,z
-x,-y,-z
loop_
_atom_site_type_symbol
_atom_site_label
_atom_site_fract_x
_atom_site_fract_y
_atom_site_fract_z
Si Si1 0.938056 0.220852 0.470834
Si Si2 0.527116 0.011328 0.769270
Si Si3 0.559328 0.597804 0.185602
Si Si4 0.887080 0.174806 0.736025
Si Si5 0.263567 0.490499 0.419359
Si Si6 0.952343 0.182128 0.970597
Si Si7 0.700071 0.421156 0.294951
Si Si8 0.251377 0.224819 0.021149
O O1 0.100458 0.347548 0.402225
O O2 0.910469 0.308486 0.652152
O O3 0.786535 0.268233 0.475986
O O4 0.971933 0.978150 0.379095
O O5 0.491136 0.163561 0.727142
O O6 0.710210 0.045596 0.745306
O O7 0.407271 0.110199 0.948543
O O8 0.444890 0.770535 0.700441
O O9 0.391766 0.464908 0.251899
O O10 0.663570 0.564853 0.248863
O O11 0.651828 0.557723 0.004487
O O12 0.913071 0.284211 0.895902
O O13 0.291287 0.453622 0.535458
O O14 0.134036 0.183500 0.934431
O O15 0.855135 0.304751 0.155953
O O16 0.875120 0.931199 0.901672
#
# Coordination Sequence:
#
# PCOD9015538 Si02
#       8
#     2   2   2   2   2   2   2   2
#     4  10  24  40  66  96 128 181 221 265 342 377
#     4   9  21  42  61  96 127 173 220 262 324 384
#     4  10  21  42  63  93 136 170 219 270 326 384
#     4  11  22  43  69  93 135 175 220 272 326 404
#     4  11  23  44  62  98 138 165 225 280 318 401
#     4  10  22  41  66  98 131 171 222 271 329 391
#     4  11  24  40  69 100 131 177 218 270 336 388
#     4   8  20  39  61  93 128 167 217 261 323 381
#
# _framework density 27.731750000000002
#
# number of rings (size 3 to 8) (size 9 to 14) (size 15 to 20)
#    0.750    1.250    1.250    1.125    7.000    3.000 
#    4.500    0.625    0.000    0.000    0.000    0.000 
#    0.000    0.000    0.000    0.000    0.000    0.000 
#
# Total GULP energy -89141.039281 kJ/mol
# GULP energy per Si atom -5571.314955 kJ/mol
# Density = 2.766863 g / cm^3
# Si number density = 27.731750 Si / 1000 Ang^3
#
#
#
# Elastic Constant Matrix: (Units=GPa)
#
#
# Indices 1 2 3 4 5 6 
#
# 1 113.9957 19.2569 34.3046 1.9328 -15.6249 -13.1529
# 2 19.2569 69.9336 25.0833 -23.2557 0.8829 8.2965
# 3 34.3046 25.0833 138.1240 -4.3278 1.0721 3.2995
# 4 1.9328 -23.2557 -4.3278 39.9599 -4.2120 -3.7223
# 5 -15.6249 0.8829 1.0721 -4.2120 20.4260 -18.9532
# 6 -13.1529 8.2965 3.2995 -3.7223 -18.9532 61.1653
#
#
#
# Elastic Compliance Matrix: (Units=1/GPa)
#
#
# Indices 1 2 3 4 5 6 
#
# 1 0.014631 -0.004541 -0.003239 -0.000495 0.021168 0.010466
# 2 -0.004541 0.020576 -0.002097 0.010781 -0.006753 -0.005091
# 3 -0.003239 -0.002097 0.008500 -0.000964 -0.005466 -0.002623
# 4 -0.000495 0.010781 -0.000964 0.032453 0.008875 0.003208
# 5 0.021168 -0.006753 -0.005466 0.008875 0.103032 0.038229
# 6 0.010466 -0.005091 -0.002623 0.003208 0.038229 0.031473
#
#
# Mechanical properties :
#
#
# Convention : Reuss Voigt Hill
#
# Bulk Modulus (GPa) = 41.74658 53.26031 47.50345
# Shear Modulus (GPa) = 20.97282 40.53748 30.75515
#
# Velocity S-wave (km/s) = 2.75303 3.82746 3.33381
# Velocity P-wave (km/s) = 5.01916 6.22735 5.65561
#
# Compressibility (1/GPa) = 0.02395406
#
# Stress axis : x y z
#
# Youngs Moduli (GPa) = 68.34602 48.60006 117.64617
#
# Poissons Ratio (x) = 0.22067 0.38107
# Poissons Ratio (y) = 0.31033 0.24672
# Poissons Ratio (z) = 0.22138 0.10192
#
# Static dielectric constant tensor:
#      x y z
#    x 2.152540 0.002250 -0.026550 
#    y 0.002250 2.251060 0.023100 
#    z -0.026550 0.023100 2.253460 
# 
# From -- ./inp_files/382586.got.cif
#   From: 2010.05.17/outbox.cif.g08.bks.cpg/sg2_192_cif.got.tgz:382586.got - 2010.06.03 11:33:40.
