data_PCOD9015945
_publ_section_title
;
Structure prediction by ZEFSAII (Michael W. Deem and Ramdas Pophale) SiO2 
 PCOD9015945
Probable space group: P -1
;
_chemical_formula_sum "Si O2"
_cell_formula_units_Z 16
_cell_length_a 12.952335
_cell_length_b 9.717812
_cell_length_c 10.604519
_cell_angle_alpha 115.224890
_cell_angle_beta 37.598987
_cell_angle_gamma 116.706210
_cell_volume 721.468110
_symmetry_space_group_name_H-M "P -1"
_symmetry_group_IT_number 2
_symmetry_cell_setting 'triclinic'
loop_
_space_group_symop_operation_xyz
x,y,z
-x,-y,-z
loop_
_atom_site_type_symbol
_atom_site_label
_atom_site_fract_x
_atom_site_fract_y
_atom_site_fract_z
Si Si1 0.486359 0.598461 0.178200
Si Si2 0.872157 0.184432 0.830131
Si Si3 0.007797 0.720670 0.494790
Si Si4 0.755448 0.676617 0.355532
Si Si5 0.888310 0.380766 0.384861
Si Si6 0.268057 0.152653 0.059440
Si Si7 0.607801 0.406665 0.208433
Si Si8 0.909232 0.822099 0.020941
O O1 0.305553 0.594475 0.421721
O O2 0.592630 0.522472 0.151979
O O3 0.500000 0.500000 0.000000
O O4 0.536356 0.771892 0.134144
O O5 0.899414 0.153420 0.644163
O O6 0.060325 0.277216 0.733619
O O7 0.800377 0.026285 0.913105
O O8 0.728823 0.287830 0.015249
O O9 0.000983 0.550864 0.374783
O O10 0.816322 0.750858 0.717646
O O11 0.096684 0.720688 0.544028
O O12 0.699864 0.507517 0.277475
O O13 0.586393 0.682505 0.603336
O O14 0.788542 0.788906 0.246027
O O15 0.959095 0.297037 0.165856
O O16 0.191713 0.197328 0.019061
O O17 0.000000 0.000000 0.000000
#
# Coordination Sequence:
#
# PCOD9015945 Si02
#       8
#     2   2   2   2   2   2   2   2
#     4  12  23  44  68 100 134 173 229 286 327 405
#     4  12  24  43  68  98 138 178 213 284 349 391
#     4  10  21  42  66 100 129 170 231 275 331 412
#     4  11  24  44  68  94 137 181 224 278 326 399
#     4  10  22  39  73  96 125 183 226 275 339 390
#     4  11  24  42  67  97 137 173 222 278 340 399
#     4  11  26  44  67 102 134 174 236 275 325 407
#     4  11  22  44  66  96 135 177 226 275 331 409
#
# _framework density 22.177002999999999
#
# number of rings (size 3 to 8) (size 9 to 14) (size 15 to 20)
#    0.000    1.000    3.750    3.000    1.750    3.000 
#    0.000    2.500    0.000    0.000    0.000    0.000 
#    0.000    0.000    0.000    0.000    0.000    0.000 
#
# Total GULP energy -89236.188318 kJ/mol
# GULP energy per Si atom -5577.261770 kJ/mol
# Density = 2.212653 g / cm^3
# Si number density = 22.177003 Si / 1000 Ang^3
#
#
#
# Elastic Constant Matrix: (Units=GPa)
#
#
# Indices 1 2 3 4 5 6 
#
# 1 58.6624 29.9994 26.1503 -11.3985 1.7240 -21.1192
# 2 29.9994 98.6477 64.9326 -27.1045 -10.8944 -13.3881
# 3 26.1503 64.9326 105.7973 -26.8647 -5.0542 -10.7291
# 4 -11.3985 -27.1045 -26.8647 37.9923 -4.3417 5.9678
# 5 1.7240 -10.8944 -5.0542 -4.3417 29.6274 -2.7841
# 6 -21.1192 -13.3881 -10.7291 5.9678 -2.7841 31.8469
#
#
#
# Elastic Compliance Matrix: (Units=1/GPa)
#
#
# Indices 1 2 3 4 5 6 
#
# 1 0.025520 -0.004632 -0.002026 0.000472 -0.002148 0.014017
# 2 -0.004632 0.020681 -0.009092 0.007519 0.007596 0.001814
# 3 -0.002026 -0.009092 0.016734 0.004837 0.000300 -0.000408
# 4 0.000472 0.007519 0.004837 0.036402 0.008808 -0.000948
# 5 -0.002148 0.007596 0.000300 0.008808 0.038348 0.003572
# 6 0.014017 0.001814 -0.000408 -0.000948 0.003572 0.041811
#
#
# Mechanical properties :
#
#
# Convention : Reuss Voigt Hill
#
# Bulk Modulus (GPa) = 31.81198 56.14133 43.97666
# Shear Modulus (GPa) = 22.57577 29.36167 25.96872
#
# Velocity S-wave (km/s) = 3.19404 3.64259 3.42566
# Velocity P-wave (km/s) = 5.28945 6.56211 5.95985
#
# Compressibility (1/GPa) = 0.03143469
#
# Stress axis : x y z
#
# Youngs Moduli (GPa) = 39.18479 48.35265 59.75791
#
# Poissons Ratio (x) = 0.22399 0.12107
# Poissons Ratio (y) = 0.18152 0.54332
# Poissons Ratio (z) = 0.07939 0.43963
#
# Static dielectric constant tensor:
#      x y z
#    x 2.165570 0.189300 -0.203290 
#    y 0.189300 1.904940 -0.136120 
#    z -0.203290 -0.136120 1.969690 
# 
# From -- ./inp_files/447745.got.cif
#   From: 2010.05.17/outbox.cif.g08.bks.cpg/sg2_224_cif.got.tgz:447745.got - 2010.06.03 11:33:40.
