data_PCOD9015296
_publ_section_title
;
Structure prediction by ZEFSAII (Michael W. Deem and Ramdas Pophale) SiO2 
 PCOD9015296
Probable space group: P -1
;
_chemical_formula_sum "Si O2"
_cell_formula_units_Z 14
_cell_length_a 7.861497
_cell_length_b 11.299969
_cell_length_c 9.533371
_cell_angle_alpha 77.668505
_cell_angle_beta 116.504606
_cell_angle_gamma 138.477138
_cell_volume 491.933250
_symmetry_space_group_name_H-M "P -1"
_symmetry_group_IT_number 2
_symmetry_cell_setting 'triclinic'
loop_
_space_group_symop_operation_xyz
x,y,z
-x,-y,-z
loop_
_atom_site_type_symbol
_atom_site_label
_atom_site_fract_x
_atom_site_fract_y
_atom_site_fract_z
Si Si1 0.831038 0.576701 0.768249
Si Si2 0.282662 0.946363 0.266063
Si Si3 0.340014 0.668446 0.587256
Si Si4 0.354444 0.440893 0.810026
Si Si5 0.128700 0.163398 0.403912
Si Si6 0.309000 0.035007 0.949797
Si Si7 0.769295 0.291599 0.873288
O O1 0.513553 0.455262 0.732640
O O2 0.917268 0.711507 0.643194
O O3 0.896151 0.467369 0.797249
O O4 0.001370 0.672915 0.957545
O O5 0.480357 0.867980 0.608023
O O6 0.249330 0.010604 0.096366
O O7 0.000000 0.500000 0.500000
O O8 0.970084 0.764916 0.256141
O O9 0.390090 0.599661 0.750031
O O10 0.536547 0.704386 0.527125
O O11 0.380230 0.864496 0.256349
O O12 0.500000 0.500000 0.000000
O O13 0.000000 0.000000 0.500000
O O14 0.968545 0.070699 0.218135
O O15 0.500000 0.000000 0.000000
O O16 0.543790 0.235018 0.917622
#
# Coordination Sequence:
#
# PCOD9015296 Si02
#       7
#     2   2   2   2   2   2   2
#     4  10  21  42  72 121 162 198 268 322 404 498
#     4  11  23  45  81 116 158 209 268 346 403 477
#     4  11  29  51  78 114 161 221 283 331 415 491
#     4  11  23  44  77 120 156 202 266 337 410 484
#     4  11  24  49  78 114 167 219 268 333 415 495
#     4  10  21  42  74 121 147 200 269 318 415 476
#     4  10  21  41  76 116 163 197 259 338 398 480
#
# _framework density 28.459144999999999
#
# number of rings (size 3 to 8) (size 9 to 14) (size 15 to 20)
#    0.000    1.429    4.286    0.857    4.000    4.000 
#    0.000    0.714    0.000    0.000    0.000    0.000 
#    0.000    0.000    0.000    0.000    0.000    0.000 
#
# Total GULP energy -78246.246054 kJ/mol
# GULP energy per Si atom -5589.017575 kJ/mol
# Density = 2.839437 g / cm^3
# Si number density = 28.459145 Si / 1000 Ang^3
#
#
#
# Elastic Constant Matrix: (Units=GPa)
#
#
# Indices 1 2 3 4 5 6 
#
# 1 71.5280 61.0788 27.1547 -24.3407 -3.8679 -0.8623
# 2 61.0788 213.4756 56.6942 -24.8635 11.4857 4.1655
# 3 27.1547 56.6942 188.7142 -27.9019 22.1781 -7.1369
# 4 -24.3407 -24.8635 -27.9019 61.4804 -10.1363 10.5127
# 5 -3.8679 11.4857 22.1781 -10.1363 38.1500 -11.1217
# 6 -0.8623 4.1655 -7.1369 10.5127 -11.1217 70.5464
#
#
#
# Elastic Compliance Matrix: (Units=1/GPa)
#
#
# Indices 1 2 3 4 5 6 
#
# 1 0.021820 -0.005478 -0.001230 0.006862 0.006538 0.000474
# 2 -0.005478 0.006638 -0.000995 -0.000159 -0.002278 -0.000895
# 3 -0.001230 -0.000995 0.006362 0.001486 -0.003137 -0.000029
# 4 0.006862 -0.000159 0.001486 0.020738 0.004780 -0.002093
# 5 0.006538 -0.002278 -0.003137 0.004780 0.031882 0.004211
# 6 0.000474 -0.000895 -0.000029 -0.002093 0.004211 0.015207
#
#
# Mechanical properties :
#
#
# Convention : Reuss Voigt Hill
#
# Bulk Modulus (GPa) = 51.51224 84.84147 68.17686
# Shear Modulus (GPa) = 40.15278 55.95470 48.05374
#
# Velocity S-wave (km/s) = 3.76026 4.43893 4.11361
# Velocity P-wave (km/s) = 6.08214 7.49323 6.82426
#
# Compressibility (1/GPa) = 0.01941286
#
# Stress axis : x y z
#
# Youngs Moduli (GPa) = 45.83034 150.65523 157.17595
#
# Poissons Ratio (x) = 0.82531 0.19329
# Poissons Ratio (y) = 0.25106 0.15646
# Poissons Ratio (z) = 0.05636 0.14997
#
# Static dielectric constant tensor:
#      x y z
#    x 2.308460 -0.093390 0.014570 
#    y -0.093390 2.437300 -0.014070 
#    z 0.014570 -0.014070 2.276970 
# 
# From -- ./inp_files/435508.got.cif
#   From: 2010.05.17/outbox.cif.g08.bks.cpg/sg2_218_cif.got.tgz:435508.got - 2010.06.03 11:33:40.
