data_PCOD9015281
_publ_section_title
;
Structure prediction by ZEFSAII (Michael W. Deem and Ramdas Pophale) SiO2 
 PCOD9015281
Probable space group: P -1
;
_chemical_formula_sum "Si O2"
_cell_formula_units_Z 14
_cell_length_a 7.834343
_cell_length_b 12.255857
_cell_length_c 13.782472
_cell_angle_alpha 47.535444
_cell_angle_beta 136.254642
_cell_angle_gamma 142.309061
_cell_volume 542.438574
_symmetry_space_group_name_H-M "P -1"
_symmetry_group_IT_number 2
_symmetry_cell_setting 'triclinic'
loop_
_space_group_symop_operation_xyz
x,y,z
-x,-y,-z
loop_
_atom_site_type_symbol
_atom_site_label
_atom_site_fract_x
_atom_site_fract_y
_atom_site_fract_z
Si Si1 0.229000 0.557848 0.919600
Si Si2 0.098205 0.970273 0.765022
Si Si3 0.239181 0.879731 0.544134
Si Si4 0.268074 0.504967 0.472910
Si Si5 0.313545 0.445687 0.224626
Si Si6 0.397693 0.893544 0.255689
Si Si7 0.895881 0.818556 0.978304
O O1 0.121104 0.363999 0.946689
O O2 0.936486 0.560006 0.807220
O O3 0.341694 0.558732 0.074591
O O4 0.536626 0.727244 0.894529
O O5 0.847548 0.762971 0.749627
O O6 0.423985 0.038430 0.814945
O O7 0.024488 0.097583 0.606469
O O8 0.055685 0.957442 0.870303
O O9 0.077763 0.665055 0.591726
O O10 0.500000 0.000000 0.500000
O O11 0.373127 0.968923 0.649728
O O12 0.500000 0.500000 0.500000
O O13 0.376383 0.485480 0.634411
O O14 0.313794 0.695873 0.367312
O O15 0.098201 0.886344 0.118334
#
# Coordination Sequence:
#
# PCOD9015281 Si02
#       7
#     2   2   2   2   2   2   2
#     4   9  21  42  68 110 143 188 247 294 361 446
#     4  11  23  47  70 105 146 191 246 302 355 446
#     4  12  29  47  72 112 151 189 251 304 364 438
#     4  12  24  43  79 104 143 197 241 292 368 438
#     4  10  21  41  75 102 144 195 242 296 363 436
#     4  12  25  48  74 107 149 194 241 303 364 440
#     4  10  23  42  73 105 149 187 240 305 369 423
#
# _framework density 25.809372
#
# number of rings (size 3 to 8) (size 9 to 14) (size 15 to 20)
#    0.000    1.143    2.857    2.571    2.000    6.286 
#    2.571    1.429    0.000    0.857    0.000    0.000 
#    0.000    0.000    0.000    0.000    0.000    0.000 
#
# Total GULP energy -78550.572458 kJ/mol
# GULP energy per Si atom -5610.755176 kJ/mol
# Density = 2.575063 g / cm^3
# Si number density = 25.809372 Si / 1000 Ang^3
#
#
#
# Elastic Constant Matrix: (Units=GPa)
#
#
# Indices 1 2 3 4 5 6 
#
# 1 72.3837 29.4133 23.8551 -1.5269 -10.2634 12.6478
# 2 29.4133 160.4892 55.5782 6.4039 -11.2989 -2.2627
# 3 23.8551 55.5782 161.5010 20.2029 -2.8260 -2.2497
# 4 -1.5269 6.4039 20.2029 41.9028 0.8617 4.8445
# 5 -10.2634 -11.2989 -2.8260 0.8617 35.8833 -9.0123
# 6 12.6478 -2.2627 -2.2497 4.8445 -9.0123 39.3339
#
#
#
# Elastic Compliance Matrix: (Units=1/GPa)
#
#
# Indices 1 2 3 4 5 6 
#
# 1 0.016792 -0.002385 -0.002006 0.002516 0.002479 -0.005393
# 2 -0.002385 0.007589 -0.002149 -0.000433 0.001945 0.001580
# 3 -0.002006 -0.002149 0.007694 -0.003607 -0.000217 0.001356
# 4 0.002516 -0.000433 -0.003607 0.026327 -0.001495 -0.004625
# 5 0.002479 0.001945 -0.000217 -0.001495 0.030855 0.006556
# 6 -0.005393 0.001580 0.001356 -0.004625 0.006556 0.029398
#
#
# Mechanical properties :
#
#
# Convention : Reuss Voigt Hill
#
# Bulk Modulus (GPa) = 52.64494 68.00747 60.32620
# Shear Modulus (GPa) = 36.21428 42.45914 39.33671
#
# Velocity S-wave (km/s) = 3.74992 4.06039 3.90824
# Velocity P-wave (km/s) = 6.26028 6.95625 6.61742
#
# Compressibility (1/GPa) = 0.01899518
#
# Stress axis : x y z
#
# Youngs Moduli (GPa) = 59.55042 131.77390 129.97010
#
# Poissons Ratio (x) = 0.31425 0.26075
# Poissons Ratio (y) = 0.14201 0.27932
# Poissons Ratio (z) = 0.11947 0.28319
#
# Static dielectric constant tensor:
#      x y z
#    x 2.062920 -0.024490 -0.004090 
#    y -0.024490 1.991540 0.006250 
#    z -0.004090 0.006250 2.037320 
# 
# From -- ./inp_files/505331.got.cif
#   From: 2010.05.17/outbox.cif.g08.bks.cpg/sg2_253_cif.got.tgz:505331.got - 2010.06.03 11:33:40.
