data_PCOD9015054
_publ_section_title
;
Structure prediction by ZEFSAII (Michael W. Deem and Ramdas Pophale) SiO2 
 PCOD9015054
Probable space group: P -1
;
_chemical_formula_sum "Si O2"
_cell_formula_units_Z 16
_cell_length_a 12.984569
_cell_length_b 9.451457
_cell_length_c 14.788060
_cell_angle_alpha 102.957899
_cell_angle_beta 112.683184
_cell_angle_gamma 134.972429
_cell_volume 768.370495
_symmetry_space_group_name_H-M "P -1"
_symmetry_group_IT_number 2
_symmetry_cell_setting 'triclinic'
loop_
_space_group_symop_operation_xyz
x,y,z
-x,-y,-z
loop_
_atom_site_type_symbol
_atom_site_label
_atom_site_fract_x
_atom_site_fract_y
_atom_site_fract_z
Si Si1 0.730565 0.742338 0.874341
Si Si2 0.560338 0.724434 0.453720
Si Si3 0.424930 0.560844 0.034854
Si Si4 0.936944 0.852440 0.289742
Si Si5 0.463223 0.714062 0.788760
Si Si6 0.683406 0.143291 0.241000
Si Si7 0.737915 0.523777 0.516176
Si Si8 0.227706 0.771713 0.503453
O O1 0.599574 0.547043 0.710053
O O2 0.606999 0.516790 0.883077
O O3 0.687899 0.865305 0.894119
O O4 0.000000 0.000000 0.000000
O O5 0.428479 0.586116 0.484399
O O6 0.608128 0.938638 0.459501
O O7 0.817627 0.946792 0.579784
O O8 0.594983 0.894398 0.129276
O O9 0.500000 0.500000 0.000000
O O10 0.174501 0.313997 0.868512
O O11 0.740247 0.587169 0.259235
O O12 0.010494 0.106056 0.351487
O O13 0.482081 0.907396 0.842934
O O14 0.371441 0.601757 0.638645
O O15 0.699227 0.130525 0.352349
O O16 0.951715 0.496850 0.358453
O O17 0.760761 0.385149 0.535779
#
# Coordination Sequence:
#
# PCOD9015054 Si02
#       8
#     2   2   2   2   2   2   2   2
#     4  12  27  46  68  98 142 182 228 281 350 404
#     4  12  24  45  69 103 137 179 230 279 344 409
#     4  12  25  44  69 102 140 178 229 281 340 407
#     4  12  24  42  69 103 134 181 229 286 334 404
#     4  11  24  44  69  99 137 178 233 279 344 400
#     4  10  22  42  68 103 136 178 225 288 336 398
#     4  11  24  39  70 104 137 174 229 279 340 404
#     4  10  21  41  70  99 138 176 228 278 340 403
#
# _framework density 20.823288000000002
#
# number of rings (size 3 to 8) (size 9 to 14) (size 15 to 20)
#    0.000    0.750    5.000    2.625    1.750    0.500 
#    0.000    1.875    0.000    0.000    0.000    0.000 
#    0.000    0.000    0.000    0.000    0.000    0.000 
#
# Total GULP energy -89467.377379 kJ/mol
# GULP energy per Si atom -5591.711086 kJ/mol
# Density = 2.077589 g / cm^3
# Si number density = 20.823288 Si / 1000 Ang^3
#
#
#
# Elastic Constant Matrix: (Units=GPa)
#
#
# Indices 1 2 3 4 5 6 
#
# 1 126.0320 31.0329 36.0001 7.9894 1.3649 -23.0640
# 2 31.0329 82.5477 -1.3696 7.6889 -13.0303 -15.1096
# 3 36.0001 -1.3696 72.1266 1.4464 3.6022 -15.1387
# 4 7.9894 7.6889 1.4464 28.2820 -5.3581 -11.3396
# 5 1.3649 -13.0303 3.6022 -5.3581 34.2361 -3.9540
# 6 -23.0640 -15.1096 -15.1387 -11.3396 -3.9540 40.5703
#
#
#
# Elastic Compliance Matrix: (Units=1/GPa)
#
#
# Indices 1 2 3 4 5 6 
#
# 1 0.010785 -0.003774 -0.004845 -0.000993 -0.001221 0.002522
# 2 -0.003774 0.015578 0.002995 0.000061 0.006399 0.005415
# 3 -0.004845 0.002995 0.017422 0.001927 0.000430 0.005443
# 4 -0.000993 0.000061 0.001927 0.042126 0.007922 0.012724
# 5 -0.001221 0.006399 0.000430 0.007922 0.033737 0.007352
# 6 0.002522 0.005415 0.005443 0.012724 0.007352 0.034403
#
#
# Mechanical properties :
#
#
# Convention : Reuss Voigt Hill
#
# Bulk Modulus (GPa) = 30.73285 45.78144 38.25714
# Shear Modulus (GPa) = 28.38603 34.95387 31.66995
#
# Velocity S-wave (km/s) = 3.69614 4.10151 3.90409
# Velocity P-wave (km/s) = 5.74510 6.66808 6.22372
#
# Compressibility (1/GPa) = 0.03253847
#
# Stress axis : x y z
#
# Youngs Moduli (GPa) = 92.72033 64.19272 57.39976
#
# Poissons Ratio (x) = 0.24223 0.27808
# Poissons Ratio (y) = 0.34988 -0.17191
# Poissons Ratio (z) = 0.44920 -0.19225
#
# Static dielectric constant tensor:
#      x y z
#    x 1.789620 -0.036450 0.013280 
#    y -0.036450 1.726960 -0.020020 
#    z 0.013280 -0.020020 1.725610 
# 
# From -- ./inp_files/205218.got.cif
#   From: 2010.05.17/outbox.cif.g08.bks.cpg/sg2_103_cif.got.tgz:205218.got - 2010.06.03 11:33:40.
