data_PCOD9015133
_publ_section_title
;
Structure prediction by ZEFSAII (Michael W. Deem and Ramdas Pophale) SiO2 
 PCOD9015133
Probable space group: P -1
;
_chemical_formula_sum "Si O2"
_cell_formula_units_Z 14
_cell_length_a 9.262473
_cell_length_b 7.923895
_cell_length_c 16.193241
_cell_angle_alpha 83.123951
_cell_angle_beta 119.854014
_cell_angle_gamma 47.968643
_cell_volume 544.361493
_symmetry_space_group_name_H-M "P -1"
_symmetry_group_IT_number 2
_symmetry_cell_setting 'triclinic'
loop_
_space_group_symop_operation_xyz
x,y,z
-x,-y,-z
loop_
_atom_site_type_symbol
_atom_site_label
_atom_site_fract_x
_atom_site_fract_y
_atom_site_fract_z
Si Si1 0.564492 0.351536 0.939412
Si Si2 0.426368 0.234769 0.414772
Si Si3 0.252568 0.725042 0.518879
Si Si4 0.797003 0.796891 0.868625
Si Si5 0.256952 0.757688 0.173367
Si Si6 0.188711 0.184584 0.614967
Si Si7 0.810135 0.647506 0.149937
O O1 0.579455 0.448793 0.852648
O O2 0.323688 0.410451 0.846180
O O3 0.500000 0.500000 0.000000
O O4 0.915410 0.973793 0.073596
O O5 0.615228 0.236810 0.502162
O O6 0.051939 0.556232 0.274904
O O7 0.500000 0.000000 0.500000
O O8 0.593735 0.078426 0.381316
O O9 0.545192 0.421371 0.677231
O O10 0.064683 0.728751 0.428067
O O11 0.000000 0.000000 0.500000
O O12 0.955505 0.629986 0.835687
O O13 0.805048 0.989439 0.874786
O O14 0.440599 0.042848 0.757242
O O15 0.000000 0.500000 0.000000
O O16 0.000000 0.500000 0.500000
O O17 0.500000 0.000000 0.000000
#
# Coordination Sequence:
#
# PCOD9015133 Si02
#       7
#     2   2   2   2   2   2   2
#     4  11  24  42  69 104 139 185 241 295 365 424
#     4  10  24  43  67  99 139 183 240 303 357 425
#     4  10  22  42  72 101 136 193 245 287 367 436
#     4  11  23  41  67 108 142 189 244 290 366 432
#     4  11  23  43  73  99 148 191 235 305 358 437
#     4  10  21  41  71  97 143 184 237 292 352 436
#     4  11  23  42  66  97 146 185 236 304 359 429
#
# _framework density 25.718207
#
# number of rings (size 3 to 8) (size 9 to 14) (size 15 to 20)
#    0.000    1.429    2.857    1.714    4.000    6.857 
#    0.000    0.714    0.000    0.000    0.000    0.000 
#    0.000    0.000    0.000    0.000    0.000    0.000 
#
# Total GULP energy -78268.118733 kJ/mol
# GULP energy per Si atom -5590.579910 kJ/mol
# Density = 2.565967 g / cm^3
# Si number density = 25.718207 Si / 1000 Ang^3
#
#
#
# Elastic Constant Matrix: (Units=GPa)
#
#
# Indices 1 2 3 4 5 6 
#
# 1 181.3379 24.3265 73.1112 -3.2137 49.0696 7.0513
# 2 24.3265 90.9409 11.3273 8.4446 16.4644 -13.6441
# 3 73.1112 11.3273 178.7704 -11.6173 37.9631 17.1930
# 4 -3.2137 8.4446 -11.6173 38.1412 -1.7962 4.4664
# 5 49.0696 16.4644 37.9631 -1.7962 57.6614 -4.2454
# 6 7.0513 -13.6441 17.1930 4.4664 -4.2454 51.8328
#
#
#
# Elastic Compliance Matrix: (Units=1/GPa)
#
#
# Indices 1 2 3 4 5 6 
#
# 1 0.007903 -0.001128 -0.001925 0.000222 -0.005216 -0.001180
# 2 -0.001128 0.012649 -0.000474 -0.003584 -0.002174 0.003771
# 3 -0.001925 -0.000474 0.007550 0.002419 -0.003331 -0.002848
# 4 0.000222 -0.003584 0.002419 0.028253 -0.000189 -0.004226
# 5 -0.005216 -0.002174 -0.003331 -0.000189 0.024832 0.003292
# 6 -0.001180 0.003771 -0.002848 -0.004226 0.003292 0.022025
#
#
# Mechanical properties :
#
#
# Convention : Reuss Voigt Hill
#
# Bulk Modulus (GPa) = 47.51044 74.28657 60.89851
# Shear Modulus (GPa) = 42.63230 52.34604 47.48917
#
# Velocity S-wave (km/s) = 4.07587 4.51640 4.30178
# Velocity P-wave (km/s) = 6.37682 7.49298 6.95732
#
# Compressibility (1/GPa) = 0.02104800
#
# Stress axis : x y z
#
# Youngs Moduli (GPa) = 126.52939 79.05759 132.45551
#
# Poissons Ratio (x) = 0.08914 0.25500
# Poissons Ratio (y) = 0.14267 0.06282
# Poissons Ratio (z) = 0.24359 0.03750
#
# Static dielectric constant tensor:
#      x y z
#    x 2.037030 0.019560 0.018540 
#    y 0.019560 2.214170 0.094510 
#    z 0.018540 0.094510 2.025040 
# 
# From -- ./inp_files/557186.got.cif
#   From: 2010.05.17/outbox.cif.g08.bks.cpg/sg2_279_cif.got.tgz:557186.got - 2010.06.03 11:33:40.
