data_PCOD9015961
_publ_section_title
;
Structure prediction by ZEFSAII (Michael W. Deem and Ramdas Pophale) SiO2 
 PCOD9015961
Probable space group: P -1
;
_chemical_formula_sum "Si O2"
_cell_formula_units_Z 16
_cell_length_a 14.764725
_cell_length_b 20.223602
_cell_length_c 9.343403
_cell_angle_alpha 114.919691
_cell_angle_beta 105.154207
_cell_angle_gamma 18.747323
_cell_volume 716.899706
_symmetry_space_group_name_H-M "P -1"
_symmetry_group_IT_number 2
_symmetry_cell_setting 'triclinic'
loop_
_space_group_symop_operation_xyz
x,y,z
-x,-y,-z
loop_
_atom_site_type_symbol
_atom_site_label
_atom_site_fract_x
_atom_site_fract_y
_atom_site_fract_z
Si Si1 0.814810 0.351136 0.575624
Si Si2 0.156756 0.931732 0.822888
Si Si3 0.704580 0.902426 0.895457
Si Si4 0.823498 0.781199 0.508694
Si Si5 0.754961 0.669636 0.773821
Si Si6 0.260883 0.970811 0.651918
Si Si7 0.715363 0.596022 0.240888
Si Si8 0.132975 0.998281 0.193543
O O1 0.480625 0.642149 0.705369
O O2 0.067832 0.221871 0.504340
O O3 0.944113 0.231864 0.676296
O O4 0.868581 0.244430 0.389390
O O5 0.186698 0.968160 0.742984
O O6 0.090598 0.021046 0.027402
O O7 0.892856 0.064870 0.812832
O O8 0.770020 0.823526 0.694315
O O9 0.050786 0.647463 0.878974
O O10 0.500000 0.000000 0.000000
O O11 0.474648 0.142677 0.015959
O O12 0.088553 0.525246 0.343710
O O13 0.500000 0.000000 0.500000
O O14 0.491324 0.863292 0.713286
O O15 0.046192 0.511254 0.745587
O O16 0.481144 0.770294 0.438550
O O17 0.482388 0.769386 0.168200
#
# Coordination Sequence:
#
# PCOD9015961 Si02
#       8
#     2   2   2   2   2   2   2   2
#     4  11  25  42  69 101 133 175 226 275 338 400
#     4  11  24  49  70  97 132 175 227 284 343 389
#     4  10  24  38  64  97 133 184 225 274 325 397
#     4  12  25  41  63  98 141 183 222 270 335 398
#     4  11  23  42  67  94 144 175 220 269 329 400
#     4  11  23  43  71  98 132 183 216 274 336 407
#     4  10  21  42  66 101 136 176 223 275 333 395
#     4  10  25  45  70  96 135 170 225 290 330 399
#
# _framework density 22.318325999999999
#
# number of rings (size 3 to 8) (size 9 to 14) (size 15 to 20)
#    0.000    1.250    2.500    2.250    8.750    3.500 
#    0.000    3.750    0.000    0.000    0.000    0.000 
#    0.000    0.000    0.000    0.000    0.000    0.000 
#
# Total GULP energy -89380.838826 kJ/mol
# GULP energy per Si atom -5586.302427 kJ/mol
# Density = 2.226753 g / cm^3
# Si number density = 22.318326 Si / 1000 Ang^3
#
#
#
# Elastic Constant Matrix: (Units=GPa)
#
#
# Indices 1 2 3 4 5 6 
#
# 1 108.9787 25.6533 58.3534 -19.5955 -9.3908 9.5346
# 2 25.6533 81.4493 43.3266 1.4745 5.0826 22.3868
# 3 58.3534 43.3266 46.0082 9.2494 34.9380 5.0568
# 4 -19.5955 1.4745 9.2494 25.3518 -1.4373 5.1148
# 5 -9.3908 5.0826 34.9380 -1.4373 24.5707 -0.7611
# 6 9.5346 22.3868 5.0568 5.1148 -0.7611 24.9749
#
#
#
# Elastic Compliance Matrix: (Units=1/GPa)
#
#
# Indices 1 2 3 4 5 6 
#
# 1 0.003807 -0.006444 0.010127 -0.001486 -0.011631 0.002223
# 2 -0.006444 0.016886 0.003135 -0.005198 -0.011108 -0.012584
# 3 0.010127 0.003135 -0.011231 0.014220 0.019816 -0.006711
# 4 -0.001486 -0.005198 0.014220 0.033412 -0.017915 -0.005042
# 5 -0.011631 -0.011108 0.019816 -0.017915 0.009771 0.014351
# 6 0.002223 -0.012584 -0.006711 -0.005042 0.014351 0.053301
#
#
# Mechanical properties :
#
#
# Convention : Reuss Voigt Hill
#
# Bulk Modulus (GPa) = 43.29465 54.56700 48.93083
# Shear Modulus (GPa) = 49.99580 22.25300 36.12440
#
# Velocity S-wave (km/s) = 4.73813 3.16107 4.02755
# Velocity P-wave (km/s) = 7.02666 6.15026 6.60302
#
# Compressibility (1/GPa) = 0.02309754
#
# Stress axis : x y z
#
# Youngs Moduli (GPa) = 262.70697 59.22173 -89.04063
#
# Poissons Ratio (x) = 0.38164 0.90174
# Poissons Ratio (y) = 1.69297 0.27915
# Poissons Ratio (z) = -2.66051 -0.18567
#
# Static dielectric constant tensor:
#      x y z
#    x 2.013530 0.126190 0.033680 
#    y 0.126190 1.940640 -0.009650 
#    z 0.033680 -0.009650 1.875930 
# 
# From -- ./inp_files/319440.got.cif
#   From: 2010.05.17/outbox.cif.g08.bks.cpg/sg2_160_cif.got.tgz:319440.got - 2010.06.03 11:33:40.
