data_PCOD9015316
_publ_section_title
;
Structure prediction by ZEFSAII (Michael W. Deem and Ramdas Pophale) SiO2 
 PCOD9015316
Probable space group: P -1
;
_chemical_formula_sum "Si O2"
_cell_formula_units_Z 16
_cell_length_a 16.971717
_cell_length_b 7.804048
_cell_length_c 15.996258
_cell_angle_alpha 110.543607
_cell_angle_beta 32.475828
_cell_angle_gamma 133.458946
_cell_volume 667.647290
_symmetry_space_group_name_H-M "P -1"
_symmetry_group_IT_number 2
_symmetry_cell_setting 'triclinic'
loop_
_space_group_symop_operation_xyz
x,y,z
-x,-y,-z
loop_
_atom_site_type_symbol
_atom_site_label
_atom_site_fract_x
_atom_site_fract_y
_atom_site_fract_z
Si Si1 0.873855 0.091509 0.090584
Si Si2 0.843769 0.103629 0.581791
Si Si3 0.515000 0.098774 0.803959
Si Si4 0.101495 0.279873 0.223908
Si Si5 0.716528 0.848526 0.369100
Si Si6 0.477292 0.434061 0.814913
Si Si7 0.749345 0.179520 0.846210
Si Si8 0.329216 0.727485 0.745780
O O1 0.765626 0.191040 0.205399
O O2 0.863887 0.007195 0.179088
O O3 0.128105 0.377669 0.872050
O O4 0.704919 0.806302 0.134528
O O5 0.722290 0.171069 0.665618
O O6 0.061016 0.265700 0.356119
O O7 0.866677 0.162073 0.670152
O O8 0.662704 0.761534 0.673796
O O9 0.376956 0.841866 0.816654
O O10 0.588392 0.355657 0.736695
O O11 0.328765 0.971826 0.020784
O O12 0.331456 0.395727 0.011190
O O13 0.113050 0.496754 0.213187
O O14 0.882882 0.974810 0.320863
O O15 0.500000 0.500000 0.500000
O O16 0.574752 0.898557 0.519958
O O17 0.500000 0.000000 0.000000
#
# Coordination Sequence:
#
# PCOD9015316 Si02
#       8
#     2   2   2   2   2   2   2   2
#     4  10  23  38  63  89 127 169 209 256 317 372
#     4  11  23  45  65  93 131 163 215 265 321 380
#     4  10  21  43  67  89 130 170 205 267 322 372
#     4  12  23  41  67  94 129 172 212 264 322 377
#     4  12  24  36  62  96 127 166 211 256 313 377
#     4  11  24  42  63  97 128 168 214 264 314 381
#     4  10  21  42  70  92 124 173 211 264 325 379
#     4  10  21  42  59  91 127 165 211 260 310 380
#
# _framework density 23.964748
#
# number of rings (size 3 to 8) (size 9 to 14) (size 15 to 20)
#    0.000    1.250    3.750    3.000    0.000    1.500 
#    2.250    4.375    0.000    0.000    0.000    0.000 
#    0.000    0.000    0.000    0.000    0.000    0.000 
#
# Total GULP energy -89566.824025 kJ/mol
# GULP energy per Si atom -5597.926502 kJ/mol
# Density = 2.391020 g / cm^3
# Si number density = 23.964748 Si / 1000 Ang^3
#
#
#
# Elastic Constant Matrix: (Units=GPa)
#
#
# Indices 1 2 3 4 5 6 
#
# 1 56.9041 26.9148 15.8979 5.5801 13.6096 1.3446
# 2 26.9148 107.3886 13.0643 -9.3447 8.1238 -0.4778
# 3 15.8979 13.0643 91.7281 1.4193 18.0913 -2.8685
# 4 5.5801 -9.3447 1.4193 28.8711 10.2941 0.5050
# 5 13.6096 8.1238 18.0913 10.2941 33.2602 5.7735
# 6 1.3446 -0.4778 -2.8685 0.5050 5.7735 35.2834
#
#
#
# Elastic Compliance Matrix: (Units=1/GPa)
#
#
# Indices 1 2 3 4 5 6 
#
# 1 0.022338 -0.005285 -0.001970 -0.003957 -0.005532 -0.000121
# 2 -0.005285 0.011325 -0.000322 0.005489 -0.002234 0.000616
# 3 -0.001970 -0.000322 0.012723 0.002138 -0.007085 0.002234
# 4 -0.003957 0.005489 0.002138 0.042133 -0.014296 0.002135
# 5 -0.005532 -0.002234 -0.007085 -0.014296 0.042391 -0.007127
# 6 -0.000121 0.000616 0.002234 0.002135 -0.007127 0.029672
#
#
# Mechanical properties :
#
#
# Convention : Reuss Voigt Hill
#
# Bulk Modulus (GPa) = 32.01918 40.86389 36.44153
# Shear Modulus (GPa) = 26.86049 32.82587 29.84318
#
# Velocity S-wave (km/s) = 3.35152 3.70504 3.53270
# Velocity P-wave (km/s) = 5.32605 5.94910 5.64618
#
# Compressibility (1/GPa) = 0.03123128
#
# Stress axis : x y z
#
# Youngs Moduli (GPa) = 44.76762 88.29930 78.59581
#
# Poissons Ratio (x) = 0.46667 0.15485
# Poissons Ratio (y) = 0.23660 0.02531
# Poissons Ratio (z) = 0.08820 0.02844
#
# Static dielectric constant tensor:
#      x y z
#    x 1.880670 0.000980 -0.005790 
#    y 0.000980 1.942410 0.020340 
#    z -0.005790 0.020340 1.912980 
# 
# From -- ./inp_files/577363.got.cif
#   From: 2010.05.17/outbox.cif.g08.bks.cpg/sg2_289_cif.got.tgz:577363.got - 2010.06.03 11:33:40.
