data_PCOD9015580
_publ_section_title
;
Structure prediction by ZEFSAII (Michael W. Deem and Ramdas Pophale) SiO2 
 PCOD9015580
Probable space group: P -1
;
_chemical_formula_sum "Si O2"
_cell_formula_units_Z 15
_cell_length_a 10.426594
_cell_length_b 8.437526
_cell_length_c 14.852805
_cell_angle_alpha 129.882341
_cell_angle_beta 45.408271
_cell_angle_gamma 137.116559
_cell_volume 611.166483
_symmetry_space_group_name_H-M "P -1"
_symmetry_group_IT_number 2
_symmetry_cell_setting 'triclinic'
loop_
_space_group_symop_operation_xyz
x,y,z
-x,-y,-z
loop_
_atom_site_type_symbol
_atom_site_label
_atom_site_fract_x
_atom_site_fract_y
_atom_site_fract_z
Si Si1 0.841171 0.599432 0.918766
Si Si2 0.399287 0.861153 0.228335
Si Si3 0.647296 0.916758 0.846959
Si Si4 0.035489 0.413384 0.546073
Si Si5 0.225750 0.897659 0.732409
Si Si6 0.640462 0.611320 0.206239
Si Si7 0.000000 0.000000 0.500000
Si Si8 0.075130 0.314691 0.750920
O O1 0.638151 0.380319 0.889580
O O2 0.983696 0.483703 0.831521
O O3 0.774207 0.658606 0.066421
O O4 0.991745 0.812669 0.854729
O O5 0.613161 0.015905 0.232136
O O6 0.196192 0.754573 0.354531
O O7 0.369067 0.017396 0.224851
O O8 0.570050 0.639972 0.801941
O O9 0.886830 0.097733 0.822053
O O10 0.500000 0.000000 0.000000
O O11 0.000000 0.500000 0.500000
O O12 0.185560 0.658815 0.615113
O O13 0.106881 0.221347 0.451674
O O14 0.338136 0.131598 0.697741
O O15 0.732698 0.559723 0.230541
O O16 0.894239 0.797580 0.395762
#
# Coordination Sequence:
#
# PCOD9015580 Si02
#       8
#     2   2   2   2   2   2   1   2
#     4  10  21  42  63  97 137 177 217 279 345 406
#     4  10  22  44  65  97 139 171 223 280 340 407
#     4  11  22  41  67 101 135 175 221 279 338 409
#     4  11  25  48  71  96 139 183 234 293 334 404
#     4  11  24  41  64  98 139 174 224 278 350 408
#     4  12  24  37  67 105 131 178 226 272 355 411
#     4  12  22  48  72  96 132 188 234 274 346 402
#     4  11  23  42  69  95 133 175 230 282 334 405
#
# _framework density 24.543230999999999
#
# number of rings (size 3 to 8) (size 9 to 14) (size 15 to 20)
#    0.000    1.067    6.667    2.400    1.867    4.267 
#    0.000    2.667    0.000    0.000    0.000    0.000 
#    0.000    0.000    0.000    0.000    0.000    0.000 
#
# Total GULP energy -83596.240727 kJ/mol
# GULP energy per Si atom -5573.082715 kJ/mol
# Density = 2.448737 g / cm^3
# Si number density = 24.543231 Si / 1000 Ang^3
#
#
#
# Elastic Constant Matrix: (Units=GPa)
#
#
# Indices 1 2 3 4 5 6 
#
# 1 70.4759 24.9258 16.7498 3.1286 22.5617 3.4468
# 2 24.9258 190.9129 20.9430 11.7486 3.8848 -13.2909
# 3 16.7498 20.9430 64.6439 3.6216 10.1832 -2.6621
# 4 3.1286 11.7486 3.6216 32.2062 -3.6910 12.8512
# 5 22.5617 3.8848 10.1832 -3.6910 24.8269 5.3975
# 6 3.4468 -13.2909 -2.6621 12.8512 5.3975 45.1163
#
#
#
# Elastic Compliance Matrix: (Units=1/GPa)
#
#
# Indices 1 2 3 4 5 6 
#
# 1 0.021621 -0.001928 -0.001642 -0.003896 -0.019497 0.001126
# 2 -0.001928 0.005975 -0.001219 -0.002860 0.000324 0.002611
# 3 -0.001642 -0.001219 0.017595 -0.003109 -0.006534 0.002472
# 4 -0.003896 -0.002860 -0.003109 0.039960 0.014207 -0.013810
# 5 -0.019497 0.000324 -0.006534 0.014207 0.065049 -0.010629
# 6 0.001126 0.002611 0.002472 -0.013810 -0.010629 0.028200
#
#
# Mechanical properties :
#
#
# Convention : Reuss Voigt Hill
#
# Bulk Modulus (GPa) = 28.07989 50.14110 39.11050
# Shear Modulus (GPa) = 25.01895 37.99081 31.50488
#
# Velocity S-wave (km/s) = 3.19624 3.93862 3.58669
# Velocity P-wave (km/s) = 5.00870 6.41543 5.75521
#
# Compressibility (1/GPa) = 0.03561267
#
# Stress axis : x y z
#
# Youngs Moduli (GPa) = 46.25165 167.37366 56.83424
#
# Poissons Ratio (x) = 0.32268 0.09330
# Poissons Ratio (y) = 0.08917 0.06931
# Poissons Ratio (z) = 0.07593 0.20410
#
# Static dielectric constant tensor:
#      x y z
#    x 1.857860 0.125020 0.032950 
#    y 0.125020 2.027960 -0.327830 
#    z 0.032950 -0.327830 2.019370 
# 
# From -- ./inp_files/444670.got.cif
#   From: 2010.05.17/outbox.cif.g08.bks.cpg/sg2_223_cif.got.tgz:444670.got - 2010.06.03 11:33:40.
