data_PCOD9015192
_publ_section_title
;
Structure prediction by ZEFSAII (Michael W. Deem and Ramdas Pophale) SiO2 
 PCOD9015192
Probable space group: P -1
;
_chemical_formula_sum "Si O2"
_cell_formula_units_Z 16
_cell_length_a 12.108956
_cell_length_b 12.638353
_cell_length_c 11.444315
_cell_angle_alpha 120.880487
_cell_angle_beta 114.469741
_cell_angle_gamma 25.823981
_cell_volume 649.404086
_symmetry_space_group_name_H-M "P -1"
_symmetry_group_IT_number 2
_symmetry_cell_setting 'triclinic'
loop_
_space_group_symop_operation_xyz
x,y,z
-x,-y,-z
loop_
_atom_site_type_symbol
_atom_site_label
_atom_site_fract_x
_atom_site_fract_y
_atom_site_fract_z
Si Si1 0.703231 0.757798 0.171743
Si Si2 0.236396 0.708698 0.062494
Si Si3 0.268794 0.141556 0.370227
Si Si4 0.093247 0.760566 0.778140
Si Si5 0.411582 0.463020 0.524113
Si Si6 0.262810 0.485674 0.137736
Si Si7 0.324209 0.951295 0.736867
Si Si8 0.975018 0.408683 0.600143
O O1 0.960132 0.575169 0.244461
O O2 0.510974 0.877405 0.253810
O O3 0.584053 0.990794 0.203680
O O4 0.744540 0.628345 0.011569
O O5 0.309244 0.556557 0.112763
O O6 0.500000 0.500000 0.000000
O O7 0.097037 0.769010 0.925660
O O8 0.083166 0.966015 0.180896
O O9 0.250078 0.153698 0.509500
O O10 0.037659 0.253845 0.306241
O O11 0.193364 0.345877 0.410920
O O12 0.337274 0.552620 0.678393
O O13 0.500000 0.500000 0.500000
O O14 0.634554 0.165489 0.427817
O O15 0.166764 0.595688 0.452109
O O16 0.494336 0.267807 0.207576
O O17 0.974393 0.773520 0.213674
#
# Coordination Sequence:
#
# PCOD9015192 Si02
#       8
#     2   2   2   2   2   2   2   2
#     4  12  24  44  74 107 150 195 249 314 382 448
#     4  11  25  46  74 109 147 194 257 316 374 450
#     4  10  21  41  72 108 150 190 245 312 382 443
#     4  10  24  46  75 111 146 196 252 310 383 448
#     4  11  24  48  75 102 149 201 248 308 376 450
#     4  12  29  47  79 107 155 202 253 313 383 448
#     4  12  28  50  72 112 151 203 254 310 370 464
#     4  10  22  42  69 110 148 192 251 309 376 455
#
# _framework density 24.637972999999999
#
# number of rings (size 3 to 8) (size 9 to 14) (size 15 to 20)
#    0.000    1.000    1.250    4.125    8.750    0.000 
#    9.000    3.125    0.000    0.000    0.000    0.000 
#    0.000    0.000    0.000    0.000    0.000    0.000 
#
# Total GULP energy -89354.608998 kJ/mol
# GULP energy per Si atom -5584.663062 kJ/mol
# Density = 2.458190 g / cm^3
# Si number density = 24.637973 Si / 1000 Ang^3
#
#
#
# Elastic Constant Matrix: (Units=GPa)
#
#
# Indices 1 2 3 4 5 6 
#
# 1 145.5829 39.2996 41.2518 8.9152 -12.6757 1.0961
# 2 39.2996 89.3267 37.6697 4.6958 -0.5345 22.8512
# 3 41.2518 37.6697 117.4459 38.0468 1.2564 4.9880
# 4 8.9152 4.6958 38.0468 46.2558 -9.5892 -9.5311
# 5 -12.6757 -0.5345 1.2564 -9.5892 43.3167 9.5308
# 6 1.0961 22.8512 4.9880 -9.5311 9.5308 25.1233
#
#
#
# Elastic Compliance Matrix: (Units=1/GPa)
#
#
# Indices 1 2 3 4 5 6 
#
# 1 0.008668 -0.003626 -0.002739 0.002127 0.002294 0.003401
# 2 -0.003626 0.019046 -0.003671 -0.001323 0.002962 -0.018062
# 3 -0.002739 -0.003671 0.014943 -0.012727 -0.003430 -0.003035
# 4 0.002127 -0.001323 -0.012727 0.036110 0.005624 0.015202
# 5 0.002294 0.002962 -0.003430 0.005624 0.027422 -0.010382
# 6 0.003401 -0.018062 -0.003035 0.015202 -0.010382 0.066392
#
#
# Mechanical properties :
#
#
# Convention : Reuss Voigt Hill
#
# Bulk Modulus (GPa) = 44.28185 65.42197 54.85191
# Shear Modulus (GPa) = 24.97713 38.54810 31.76261
#
# Velocity S-wave (km/s) = 3.18742 3.95977 3.59440
# Velocity P-wave (km/s) = 5.61767 6.89328 6.28791
#
# Compressibility (1/GPa) = 0.02258262
#
# Stress axis : x y z
#
# Youngs Moduli (GPa) = 115.36743 52.50360 66.92235
#
# Poissons Ratio (x) = 0.19040 0.18333
# Poissons Ratio (y) = 0.41836 0.24570
# Poissons Ratio (z) = 0.31605 0.19276
#
# Static dielectric constant tensor:
#      x y z
#    x 1.982740 -0.032040 0.000320 
#    y -0.032040 1.906070 0.067640 
#    z 0.000320 0.067640 1.835270 
# 
# From -- ./inp_files/428759.got.cif
#   From: 2010.05.17/outbox.cif.g08.bks.cpg/sg2_215_cif.got.tgz:428759.got - 2010.06.03 11:33:40.
