data_PCOD9015598
_publ_section_title
;
Structure prediction by ZEFSAII (Michael W. Deem and Ramdas Pophale) SiO2 
 PCOD9015598
Probable space group: P -1
;
_chemical_formula_sum "Si O2"
_cell_formula_units_Z 16
_cell_length_a 5.873231
_cell_length_b 19.030359
_cell_length_c 11.361178
_cell_angle_alpha 149.934831
_cell_angle_beta 81.681037
_cell_angle_gamma 105.722939
_cell_volume 601.643742
_symmetry_space_group_name_H-M "P -1"
_symmetry_group_IT_number 2
_symmetry_cell_setting 'triclinic'
loop_
_space_group_symop_operation_xyz
x,y,z
-x,-y,-z
loop_
_atom_site_type_symbol
_atom_site_label
_atom_site_fract_x
_atom_site_fract_y
_atom_site_fract_z
Si Si1 0.695668 0.644139 0.742739
Si Si2 0.830669 0.915805 0.547869
Si Si3 0.016106 0.886374 0.735310
Si Si4 0.453964 0.341203 0.970738
Si Si5 0.127647 0.699061 0.624943
Si Si6 0.701933 0.438970 0.804707
Si Si7 0.858370 0.275064 0.771881
Si Si8 0.521724 0.091997 0.928589
O O1 0.500000 0.500000 0.500000
O O2 0.948881 0.643351 0.666202
O O3 0.698468 0.649655 0.890990
O O4 0.608296 0.786085 0.922700
O O5 0.671604 0.804152 0.305465
O O6 0.832768 0.870687 0.619400
O O7 0.089773 0.883308 0.452269
O O8 0.714758 0.049894 0.765454
O O9 0.955802 0.738135 0.596864
O O10 0.294501 0.950567 0.766340
O O11 0.000000 0.000000 0.000000
O O12 0.700701 0.308791 0.938255
O O13 0.516483 0.491161 0.106150
O O14 0.257335 0.614680 0.407404
O O15 0.326883 0.839061 0.867019
O O16 0.743744 0.321177 0.725721
O O17 0.896873 0.594211 0.045266
#
# Coordination Sequence:
#
# PCOD9015598 Si02
#       8
#     2   2   2   2   2   2   2   2
#     4  12  28  50  71 104 147 196 243 289 344 431
#     4  11  24  42  72 104 140 181 233 300 362 421
#     4  12  23  45  71 110 147 175 239 304 364 425
#     4  11  25  44  69  99 145 192 240 283 353 429
#     4  12  25  44  75 107 144 185 239 298 361 424
#     4  10  22  39  67 102 137 183 229 301 356 417
#     4  10  21  42  64 103 143 178 233 295 360 423
#     4  12  26  44  73 107 140 192 238 294 365 416
#
# _framework density 26.593812
#
# number of rings (size 3 to 8) (size 9 to 14) (size 15 to 20)
#    0.000    0.750    3.750    3.000    0.000    4.500 
#    2.250    3.125    0.000    0.000    0.000    0.000 
#    0.000    0.000    0.000    0.000    0.000    0.000 
#
# Total GULP energy -89176.316655 kJ/mol
# GULP energy per Si atom -5573.519791 kJ/mol
# Density = 2.653328 g / cm^3
# Si number density = 26.593812 Si / 1000 Ang^3
#
#
#
# Elastic Constant Matrix: (Units=GPa)
#
#
# Indices 1 2 3 4 5 6 
#
# 1 77.5893 18.0489 20.9743 2.1237 -11.3530 3.6818
# 2 18.0489 72.5437 22.5624 -4.6203 2.5436 -0.6861
# 3 20.9743 22.5624 145.8805 -4.6735 -9.2396 -5.7865
# 4 2.1237 -4.6203 -4.6735 35.5523 -19.8095 -11.6394
# 5 -11.3530 2.5436 -9.2396 -19.8095 56.0447 0.6599
# 6 3.6818 -0.6861 -5.7865 -11.6394 0.6599 30.5639
#
#
#
# Elastic Compliance Matrix: (Units=1/GPa)
#
#
# Indices 1 2 3 4 5 6 
#
# 1 0.014600 -0.003321 -0.001553 -0.000909 0.002561 -0.002529
# 2 -0.003321 0.015348 -0.001870 0.001682 -0.001096 0.001055
# 3 -0.001553 -0.001870 0.007691 0.002848 0.002014 0.002642
# 4 -0.000909 0.001682 0.002848 0.042602 0.015072 0.016585
# 5 0.002561 -0.001096 0.002014 0.015072 0.024009 0.005270
# 6 -0.002529 0.001055 0.002642 0.016585 0.005270 0.039749
#
#
# Mechanical properties :
#
#
# Convention : Reuss Voigt Hill
#
# Bulk Modulus (GPa) = 41.40501 46.57607 43.99054
# Shear Modulus (GPa) = 30.20456 40.06071 35.13264
#
# Velocity S-wave (km/s) = 3.37378 3.88544 3.63861
# Velocity P-wave (km/s) = 5.54795 6.13846 5.85066
#
# Compressibility (1/GPa) = 0.02415167
#
# Stress axis : x y z
#
# Youngs Moduli (GPa) = 68.49184 65.15415 130.02263
#
# Poissons Ratio (x) = 0.21639 0.20189
# Poissons Ratio (y) = 0.22748 0.24314
# Poissons Ratio (z) = 0.10635 0.12184
#
# Static dielectric constant tensor:
#      x y z
#    x 2.076710 0.041780 0.099060 
#    y 0.041780 2.125730 -0.086590 
#    z 0.099060 -0.086590 1.806640 
# 
# From -- ./inp_files/370516.got.cif
#   From: 2010.05.17/outbox.cif.g08.bks.cpg/sg2_186_cif.got.tgz:370516.got - 2010.06.03 11:33:40.
