data_PCOD9015829
_publ_section_title
;
Structure prediction by ZEFSAII (Michael W. Deem and Ramdas Pophale) SiO2 
 PCOD9015829
Probable space group: P -1
;
_chemical_formula_sum "Si O2"
_cell_formula_units_Z 10
_cell_length_a 10.643519
_cell_length_b 12.561791
_cell_length_c 7.021499
_cell_angle_alpha 54.522384
_cell_angle_beta 64.978615
_cell_angle_gamma 31.528024
_cell_volume 394.049116
_symmetry_space_group_name_H-M "P -1"
_symmetry_group_IT_number 2
_symmetry_cell_setting 'triclinic'
loop_
_space_group_symop_operation_xyz
x,y,z
-x,-y,-z
loop_
_atom_site_type_symbol
_atom_site_label
_atom_site_fract_x
_atom_site_fract_y
_atom_site_fract_z
Si Si1 0.519007 0.980063 0.737895
Si Si2 0.688005 0.587328 0.967636
Si Si3 0.259859 0.772720 0.916344
Si Si4 0.004741 0.710858 0.258368
Si Si5 0.922347 0.852914 0.585748
O O1 0.670945 0.988882 0.688301
O O2 0.500000 0.000000 0.500000
O O3 0.246615 0.157546 0.792513
O O4 0.690748 0.721790 0.935169
O O5 0.405311 0.765131 0.960671
O O6 0.859587 0.346134 0.203963
O O7 0.786168 0.524866 0.752377
O O8 0.072638 0.811442 0.074799
O O9 0.500000 0.500000 0.000000
O O10 0.136032 0.955055 0.642216
O O11 0.995163 0.716528 0.487674
#
# Coordination Sequence:
#
# PCOD9015829 Si02
#       5
#     2   2   2   2   2
#     4  10  21  42  65  92 128 162 206 260 307 370
#     4  11  23  42  66  94 127 160 212 258 305 373
#     4  10  22  43  63  93 128 163 209 259 304 371
#     4  10  23  42  66  90 129 165 203 258 316 360
#     4  11  23  42  66  92 127 165 210 254 310 373
#
# _framework density 25.377547
#
# number of rings (size 3 to 8) (size 9 to 14) (size 15 to 20)
#    0.000    1.600    4.000    1.200    0.000    8.000 
#    7.200    0.000    0.000    0.000    0.000    0.000 
#    0.000    0.000    0.000    0.000    0.000    0.000 
#
# Total GULP energy -55834.142415 kJ/mol
# GULP energy per Si atom -5583.414242 kJ/mol
# Density = 2.531979 g / cm^3
# Si number density = 25.377547 Si / 1000 Ang^3
#
#
#
# Elastic Constant Matrix: (Units=GPa)
#
#
# Indices 1 2 3 4 5 6 
#
# 1 60.5124 40.5942 41.7863 18.5944 -6.2240 -28.7040
# 2 40.5942 142.5311 31.8501 11.2529 -2.7512 -44.9709
# 3 41.7863 31.8501 114.1251 -15.8039 1.9612 -27.0186
# 4 18.5944 11.2529 -15.8039 46.5183 -7.8912 -5.6032
# 5 -6.2240 -2.7512 1.9612 -7.8912 56.5180 5.7669
# 6 -28.7040 -44.9709 -27.0186 -5.6032 5.7669 54.7686
#
#
#
# Elastic Compliance Matrix: (Units=1/GPa)
#
#
# Indices 1 2 3 4 5 6 
#
# 1 0.037451 -0.003762 -0.013155 -0.017353 0.001143 0.008153
# 2 -0.003762 0.010100 0.000044 -0.000260 -0.000611 0.006381
# 3 -0.013155 0.000044 0.015515 0.010636 -0.000700 0.001957
# 4 -0.017353 -0.000260 0.010636 0.032385 0.002330 -0.000993
# 5 0.001143 -0.000611 -0.000700 0.002330 0.018337 -0.001941
# 6 0.008153 0.006381 0.001957 -0.000993 -0.001941 0.028839
#
#
# Mechanical properties :
#
#
# Convention : Reuss Voigt Hill
#
# Bulk Modulus (GPa) = 34.10720 60.62554 47.36637
# Shear Modulus (GPa) = 26.86075 45.09017 35.97546
#
# Velocity S-wave (km/s) = 3.25691 4.21975 3.76920
# Velocity P-wave (km/s) = 5.25474 6.90529 6.13577
#
# Compressibility (1/GPa) = 0.02931932
#
# Stress axis : x y z
#
# Youngs Moduli (GPa) = 26.70189 99.01429 64.45464
#
# Poissons Ratio (x) = 0.37250 0.84789
# Poissons Ratio (y) = 0.10045 -0.00284
# Poissons Ratio (z) = 0.35126 -0.00436
#
# Static dielectric constant tensor:
#      x y z
#    x 2.097810 0.099760 -0.067340 
#    y 0.099760 2.064010 0.002890 
#    z -0.067340 0.002890 2.015380 
# 
# From -- ./inp_files/148225.got.cif
#   From: 2010.05.17/outbox.cif.g08.bks.cpg/sg2_75_cif.got.tgz:148225.got - 2010.06.03 11:33:40.
