data_PCOD9015026
_publ_section_title
;
Structure prediction by ZEFSAII (Michael W. Deem and Ramdas Pophale) SiO2 
 PCOD9015026
Probable space group: P -1
;
_chemical_formula_sum "Si O2"
_cell_formula_units_Z 16
_cell_length_a 14.482460
_cell_length_b 14.924531
_cell_length_c 9.219146
_cell_angle_alpha 41.708354
_cell_angle_beta 41.417520
_cell_angle_gamma 39.759560
_cell_volume 771.994856
_symmetry_space_group_name_H-M "P -1"
_symmetry_group_IT_number 2
_symmetry_cell_setting 'triclinic'
loop_
_space_group_symop_operation_xyz
x,y,z
-x,-y,-z
loop_
_atom_site_type_symbol
_atom_site_label
_atom_site_fract_x
_atom_site_fract_y
_atom_site_fract_z
Si Si1 0.216311 0.358770 0.646990
Si Si2 0.968807 0.697155 0.522647
Si Si3 0.250217 0.368172 0.937692
Si Si4 0.527877 0.634844 0.866520
Si Si5 0.414160 0.685256 0.388746
Si Si6 0.242842 0.596098 0.897630
Si Si7 0.086580 0.174184 0.868846
Si Si8 0.789824 0.177499 0.822418
O O1 0.072904 0.519748 0.566231
O O2 0.218826 0.385290 0.783151
O O3 0.375273 0.328394 0.412336
O O4 0.182393 0.220725 0.813730
O O5 0.095112 0.751253 0.360513
O O6 0.875182 0.796957 0.374074
O O7 0.847584 0.703969 0.780829
O O8 0.441900 0.275869 0.834540
O O9 0.196486 0.530110 0.889079
O O10 0.500000 0.500000 0.000000
O O11 0.639991 0.556259 0.968782
O O12 0.358333 0.765111 0.961349
O O13 0.500000 0.500000 0.500000
O O14 0.323299 0.699581 0.628359
O O15 0.291575 0.762563 0.310326
O O16 0.095235 0.702522 0.039929
O O17 0.115683 0.004516 0.062734
#
# Coordination Sequence:
#
# PCOD9015026 Si02
#       8
#     2   2   2   2   2   2   2   2
#     4  12  24  41  71 102 131 183 235 273 329 409
#     4  12  23  44  70  97 139 182 226 275 332 414
#     4  11  23  41  71 100 133 175 239 275 323 399
#     4  12  22  41  73 100 129 179 240 277 322 407
#     4  10  21  41  70  97 132 178 226 274 326 401
#     4  11  21  42  71  98 135 182 227 277 331 406
#     4  12  27  43  67 105 143 173 222 288 348 393
#     4  12  26  44  72 104 136 176 226 287 347 391
#
# _framework density 20.725525000000001
#
# number of rings (size 3 to 8) (size 9 to 14) (size 15 to 20)
#    0.000    0.500    6.250    4.125    1.750    1.000 
#    0.000    0.625    0.000    0.000    0.000    0.000 
#    0.000    0.000    0.000    0.000    0.000    0.000 
#
# Total GULP energy -89412.584769 kJ/mol
# GULP energy per Si atom -5588.286548 kJ/mol
# Density = 2.067835 g / cm^3
# Si number density = 20.725525 Si / 1000 Ang^3
#
#
#
# Elastic Constant Matrix: (Units=GPa)
#
#
# Indices 1 2 3 4 5 6 
#
# 1 75.0211 29.8283 31.4869 3.0128 8.1211 -2.7439
# 2 29.8283 56.0925 42.5979 -2.3457 -7.4420 4.6674
# 3 31.4869 42.5979 140.5268 29.2678 -3.6895 3.6493
# 4 3.0128 -2.3457 29.2678 30.8117 -2.8688 -1.6637
# 5 8.1211 -7.4420 -3.6895 -2.8688 41.8415 -0.0454
# 6 -2.7439 4.6674 3.6493 -1.6637 -0.0454 12.1524
#
#
#
# Elastic Compliance Matrix: (Units=1/GPa)
#
#
# Indices 1 2 3 4 5 6 
#
# 1 0.019136 -0.011059 -0.000909 -0.001936 -0.005885 0.008554
# 2 -0.011059 0.033929 -0.010121 0.013469 0.008201 -0.010614
# 3 -0.000909 -0.010121 0.013214 -0.013478 -0.001385 -0.002136
# 4 -0.001936 0.013469 -0.013478 0.047187 0.004824 0.004915
# 5 -0.005885 0.008201 -0.001385 0.004824 0.026706 -0.003302
# 6 0.008554 -0.010614 -0.002136 0.004915 -0.003302 0.089598
#
#
# Mechanical properties :
#
#
# Convention : Reuss Voigt Hill
#
# Bulk Modulus (GPa) = 45.24749 53.27407 49.26078
# Shear Modulus (GPa) = 17.77367 28.14295 22.95831
#
# Velocity S-wave (km/s) = 2.93161 3.68895 3.33187
# Velocity P-wave (km/s) = 5.77393 6.62607 6.21463
#
# Compressibility (1/GPa) = 0.02210067
#
# Stress axis : x y z
#
# Youngs Moduli (GPa) = 52.25834 29.47291 75.67770
#
# Poissons Ratio (x) = 0.32595 0.06877
# Poissons Ratio (y) = 0.57793 0.76596
# Poissons Ratio (z) = 0.04749 0.29831
#
# Static dielectric constant tensor:
#      x y z
#    x 1.820610 -0.018830 -0.003290 
#    y -0.018830 1.725510 0.070960 
#    z -0.003290 0.070960 1.828490 
# 
# From -- ./inp_files/314469.got.cif
#   From: 2010.05.17/outbox.cif.g08.bks.cpg/sg2_158_cif.got.tgz:314469.got - 2010.06.03 11:33:40.
