data_PCOD9015363
_publ_section_title
;
Structure prediction by ZEFSAII (Michael W. Deem and Ramdas Pophale) SiO2 
 PCOD9015363
Probable space group: P -1
;
_chemical_formula_sum "Si O2"
_cell_formula_units_Z 16
_cell_length_a 23.195529
_cell_length_b 7.418685
_cell_length_c 11.871989
_cell_angle_alpha 44.577373
_cell_angle_beta 150.366985
_cell_angle_gamma 123.037083
_cell_volume 692.683561
_symmetry_space_group_name_H-M "P -1"
_symmetry_group_IT_number 2
_symmetry_cell_setting 'triclinic'
loop_
_space_group_symop_operation_xyz
x,y,z
-x,-y,-z
loop_
_atom_site_type_symbol
_atom_site_label
_atom_site_fract_x
_atom_site_fract_y
_atom_site_fract_z
Si Si1 0.054937 0.586069 0.267049
Si Si2 0.493031 0.421053 0.894222
Si Si3 0.173776 0.012749 0.364284
Si Si4 0.899706 0.258272 0.236236
Si Si5 0.394385 0.111238 0.581205
Si Si6 0.416335 0.103786 0.173406
Si Si7 0.782543 0.918684 0.339200
Si Si8 0.673327 0.354198 0.663192
O O1 0.117390 0.341337 0.405588
O O2 0.975047 0.481820 0.272778
O O3 0.151823 0.727069 0.423931
O O4 0.957757 0.799566 0.940274
O O5 0.362686 0.529703 0.572836
O O6 0.574017 0.609301 0.892791
O O7 0.500000 0.500000 0.000000
O O8 0.541218 0.111408 0.121411
O O9 0.232540 0.042234 0.571305
O O10 0.257091 0.093203 0.372491
O O11 0.823047 0.177896 0.243476
O O12 0.809654 0.315111 0.951437
O O13 0.000000 0.000000 0.500000
O O14 0.455347 0.034929 0.598999
O O15 0.400614 0.406010 0.493552
O O16 0.368944 0.913959 0.263748
O O17 0.329206 0.115368 0.911767
#
# Coordination Sequence:
#
# PCOD9015363 Si02
#       8
#     2   2   2   2   2   2   2   2
#     4  10  21  42  61  90 124 162 219 271 318 386
#     4  10  23  38  61  93 131 168 212 259 322 389
#     4  11  23  37  64  92 126 166 213 272 326 374
#     4   9  20  41  67  89 124 167 216 266 320 388
#     4  11  23  39  60  96 127 168 210 266 320 388
#     4  10  23  41  62  90 131 170 212 258 323 397
#     4  10  22  39  64  90 124 169 213 261 328 383
#     4  11  21  40  66  93 129 170 211 265 325 386
#
# _framework density 23.098572000000001
#
# number of rings (size 3 to 8) (size 9 to 14) (size 15 to 20)
#    0.000    1.750    1.250    2.250    5.250    0.500 
#    0.000    5.000   13.750    0.000    0.000    0.000 
#    0.000    0.000    0.000    0.000    0.000    0.000 
#
# Total GULP energy -89301.071359 kJ/mol
# GULP energy per Si atom -5581.316960 kJ/mol
# Density = 2.304600 g / cm^3
# Si number density = 23.098572 Si / 1000 Ang^3
#
#
#
# Elastic Constant Matrix: (Units=GPa)
#
#
# Indices 1 2 3 4 5 6 
#
# 1 46.2163 4.7615 17.5813 15.9293 8.2264 -0.6080
# 2 4.7615 88.1445 -5.1261 0.5680 -4.3367 25.5452
# 3 17.5813 -5.1261 114.1768 -2.3168 -10.7812 -10.0926
# 4 15.9293 0.5680 -2.3168 30.4962 2.6072 1.3917
# 5 8.2264 -4.3367 -10.7812 2.6072 25.3615 5.8008
# 6 -0.6080 25.5452 -10.0926 1.3917 5.8008 33.3119
#
#
#
# Elastic Compliance Matrix: (Units=1/GPa)
#
#
# Indices 1 2 3 4 5 6 
#
# 1 0.032631 -0.004082 -0.006383 -0.016527 -0.013398 0.004816
# 2 -0.004082 0.015806 0.000888 0.001891 0.007244 -0.013267
# 3 -0.006383 0.000888 0.010531 0.003545 0.006062 0.001189
# 4 -0.016527 0.001891 0.003545 0.041487 0.003622 -0.003042
# 5 -0.013398 0.007244 0.006062 0.003622 0.050158 -0.012849
# 6 0.004816 -0.013267 0.001189 -0.003042 -0.012849 0.043006
#
#
# Mechanical properties :
#
#
# Convention : Reuss Voigt Hill
#
# Bulk Modulus (GPa) = 25.11700 31.44122 28.27911
# Shear Modulus (GPa) = 22.11964 33.25531 27.68748
#
# Velocity S-wave (km/s) = 3.09790 3.79847 3.46593
# Velocity P-wave (km/s) = 4.86759 5.73403 5.31849
#
# Compressibility (1/GPa) = 0.03981366
#
# Stress axis : x y z
#
# Youngs Moduli (GPa) = 30.64608 63.26579 94.96211
#
# Poissons Ratio (x) = 0.25826 0.60611
# Poissons Ratio (y) = 0.12510 -0.08432
# Poissons Ratio (z) = 0.19560 -0.05618
#
# Static dielectric constant tensor:
#      x y z
#    x 1.866290 0.053370 -0.019520 
#    y 0.053370 1.923120 -0.005450 
#    z -0.019520 -0.005450 1.919160 
# 
# From -- ./inp_files/544863.got.cif
#   From: 2010.05.17/outbox.cif.g08.bks.cpg/sg2_273_cif.got.tgz:544863.got - 2010.06.03 11:33:40.
