data_PCOD9015088
_publ_section_title
;
Structure prediction by ZEFSAII (Michael W. Deem and Ramdas Pophale) SiO2 
 PCOD9015088
Probable space group: P -1
;
_chemical_formula_sum "Si O2"
_cell_formula_units_Z 16
_cell_length_a 10.257052
_cell_length_b 19.026502
_cell_length_c 12.908469
_cell_angle_alpha 148.478894
_cell_angle_beta 146.126317
_cell_angle_gamma 55.717268
_cell_volume 637.486092
_symmetry_space_group_name_H-M "P -1"
_symmetry_group_IT_number 2
_symmetry_cell_setting 'triclinic'
loop_
_space_group_symop_operation_xyz
x,y,z
-x,-y,-z
loop_
_atom_site_type_symbol
_atom_site_label
_atom_site_fract_x
_atom_site_fract_y
_atom_site_fract_z
Si Si1 0.069811 0.846552 0.456453
Si Si2 0.697715 0.446161 0.265424
Si Si3 0.027432 0.905407 0.218637
Si Si4 0.714190 0.261314 0.714184
Si Si5 0.502904 0.362460 0.266661
Si Si6 0.822601 0.769872 0.687313
Si Si7 0.025036 0.590941 0.238468
Si Si8 0.581862 0.129949 0.803066
O O1 0.281796 0.821941 0.496599
O O2 0.973849 0.728841 0.343398
O O3 0.138597 0.017877 0.746009
O O4 0.802602 0.769263 0.112664
O O5 0.632480 0.422739 0.314981
O O6 0.665245 0.585221 0.374375
O O7 0.000000 0.500000 0.500000
O O8 0.555998 0.270287 0.912069
O O9 0.086351 0.768541 0.119797
O O10 0.335587 0.047786 0.616005
O O11 0.913523 0.857100 0.967180
O O12 0.407467 0.198117 0.470033
O O13 0.849948 0.445409 0.014775
O O14 0.500000 0.500000 0.500000
O O15 0.686873 0.322044 0.407760
O O16 0.114771 0.814599 0.886715
O O17 0.000000 0.500000 0.000000
O O18 0.500000 0.000000 0.500000
#
# Coordination Sequence:
#
# PCOD9015088 Si02
#       8
#     2   2   2   2   2   2   2   2
#     4  11  24  40  64  98 140 182 228 285 349 419
#     4  10  21  41  71 103 135 182 238 283 348 414
#     4  11  23  42  64  93 138 175 224 287 347 411
#     4  11  23  37  61  98 130 175 226 278 342 417
#     4  12  21  38  70 102 138 185 227 289 351 406
#     4  10  23  39  68  91 134 178 225 286 341 404
#     4  10  22  38  62  99 136 177 232 279 338 416
#     4   9  20  42  68  95 128 188 226 281 350 410
#
# _framework density 25.098586999999998
#
# number of rings (size 3 to 8) (size 9 to 14) (size 15 to 20)
#    0.000    1.500    3.750    1.875    1.750    2.000 
#    0.000    0.000    5.500    9.750    0.000    0.000 
#    0.000    0.000    0.000    0.000    0.000    0.000 
#
# Total GULP energy -89244.454559 kJ/mol
# GULP energy per Si atom -5577.778410 kJ/mol
# Density = 2.504146 g / cm^3
# Si number density = 25.098587 Si / 1000 Ang^3
#
#
#
# Elastic Constant Matrix: (Units=GPa)
#
#
# Indices 1 2 3 4 5 6 
#
# 1 66.6939 13.4006 14.9066 0.3291 0.3885 -23.6815
# 2 13.4006 120.2176 42.8902 0.2755 2.3082 -11.8993
# 3 14.9066 42.8902 73.1680 7.7122 9.9791 -14.4778
# 4 0.3291 0.2755 7.7122 51.0807 -5.3499 2.2180
# 5 0.3885 2.3082 9.9791 -5.3499 32.3296 5.0352
# 6 -23.6815 -11.8993 -14.4778 2.2180 5.0352 35.0277
#
#
#
# Elastic Compliance Matrix: (Units=1/GPa)
#
#
# Indices 1 2 3 4 5 6 
#
# 1 0.020060 -0.000621 -0.000670 -0.000842 -0.002224 0.013447
# 2 -0.000621 0.010655 -0.006345 0.001029 0.001326 0.000321
# 3 -0.000670 -0.006345 0.020430 -0.004160 -0.007655 0.007200
# 4 -0.000842 0.001029 -0.004160 0.020936 0.005313 -0.004028
# 5 -0.002224 0.001326 -0.007655 0.005313 0.035612 -0.009672
# 6 0.013447 0.000321 0.007200 -0.004028 -0.009672 0.042371
#
#
# Mechanical properties :
#
#
# Convention : Reuss Voigt Hill
#
# Bulk Modulus (GPa) = 27.87608 44.71937 36.29772
# Shear Modulus (GPa) = 28.20157 36.27975 32.24066
#
# Velocity S-wave (km/s) = 3.35570 3.80608 3.58797
# Velocity P-wave (km/s) = 5.11322 6.09682 5.62655
#
# Compressibility (1/GPa) = 0.03587305
#
# Stress axis : x y z
#
# Youngs Moduli (GPa) = 49.84945 93.85029 48.94710
#
# Poissons Ratio (x) = 0.05833 0.03279
# Poissons Ratio (y) = 0.03098 0.31057
# Poissons Ratio (z) = 0.03339 0.59549
#
# Static dielectric constant tensor:
#      x y z
#    x 2.120360 -0.077430 0.101100 
#    y -0.077430 2.295110 -0.024770 
#    z 0.101100 -0.024770 1.978500 
# 
# From -- ./inp_files/524121.got.cif
#   From: 2010.05.17/outbox.cif.g08.bks.cpg/sg2_263_cif.got.tgz:524121.got - 2010.06.03 11:33:40.
