data_PCOD9015534
_publ_section_title
;
Structure prediction by ZEFSAII (Michael W. Deem and Ramdas Pophale) SiO2 
 PCOD9015534
Probable space group: P -1
;
_chemical_formula_sum "Si O2"
_cell_formula_units_Z 16
_cell_length_a 9.192660
_cell_length_b 8.229282
_cell_length_c 16.410879
_cell_angle_alpha 79.778348
_cell_angle_beta 67.211572
_cell_angle_gamma 132.515196
_cell_volume 643.768984
_symmetry_space_group_name_H-M "P -1"
_symmetry_group_IT_number 2
_symmetry_cell_setting 'triclinic'
loop_
_space_group_symop_operation_xyz
x,y,z
-x,-y,-z
loop_
_atom_site_type_symbol
_atom_site_label
_atom_site_fract_x
_atom_site_fract_y
_atom_site_fract_z
Si Si1 0.492499 0.792169 0.019678
Si Si2 0.021608 0.718148 0.472915
Si Si3 0.497923 0.311188 0.786423
Si Si4 0.520213 0.772973 0.441322
Si Si5 0.991367 0.310139 0.054337
Si Si6 0.988557 0.970584 0.603741
Si Si7 0.903966 0.731360 0.142381
Si Si8 0.620724 0.227041 0.361861
O O1 0.477488 0.714394 0.121429
O O2 0.234456 0.506957 0.049383
O O3 0.500000 0.000000 0.000000
O O4 0.794045 0.988821 0.908245
O O5 0.687774 0.465479 0.562246
O O6 0.000000 0.500000 0.500000
O O7 0.117773 0.934651 0.362536
O O8 0.289619 0.966120 0.450555
O O9 0.799396 0.646834 0.679212
O O10 0.299211 0.290204 0.803902
O O11 0.317341 0.000767 0.820863
O O12 0.322490 0.651689 0.571789
O O13 0.669359 0.073714 0.361117
O O14 0.743492 0.834233 0.417886
O O15 0.057305 0.258542 0.964170
O O16 0.000000 0.500000 0.000000
O O17 0.000000 0.000000 0.500000
O O18 0.772171 0.458795 0.238686
#
# Coordination Sequence:
#
# PCOD9015534 Si02
#       8
#     2   2   2   2   2   2   2   2
#     4  11  23  44  69  97 131 167 218 278 330 396
#     4  10  21  42  63  93 131 172 220 268 321 389
#     4  11  25  44  66  98 137 175 219 275 329 395
#     4  10  22  38  68  92 134 175 219 267 328 383
#     4  11  23  44  69  96 128 170 219 277 334 391
#     4  12  23  45  66  96 141 175 220 277 323 386
#     4  11  23  42  69  95 135 169 218 275 332 391
#     4  10  21  42  63  97 132 171 217 270 328 396
#
# _framework density 24.853635000000001
#
# number of rings (size 3 to 8) (size 9 to 14) (size 15 to 20)
#    0.000    1.250    5.000    1.875    1.750    3.000 
#   11.250    0.000    0.000    0.000    0.000    0.000 
#    0.000    0.000    0.000    0.000    0.000    0.000 
#
# Total GULP energy -89191.867855 kJ/mol
# GULP energy per Si atom -5574.491741 kJ/mol
# Density = 2.479707 g / cm^3
# Si number density = 24.853635 Si / 1000 Ang^3
#
#
#
# Elastic Constant Matrix: (Units=GPa)
#
#
# Indices 1 2 3 4 5 6 
#
# 1 163.1088 27.4985 27.4218 -16.7320 11.3497 34.9885
# 2 27.4985 120.2919 35.8616 -37.5331 -0.7794 33.1997
# 3 27.4218 35.8616 136.9653 -33.7454 18.4084 24.1979
# 4 -16.7320 -37.5331 -33.7454 40.5618 4.1712 -12.3911
# 5 11.3497 -0.7794 18.4084 4.1712 44.0388 -12.2912
# 6 34.9885 33.1997 24.1979 -12.3911 -12.2912 37.7386
#
#
#
# Elastic Compliance Matrix: (Units=1/GPa)
#
#
# Indices 1 2 3 4 5 6 
#
# 1 0.008959 0.001935 0.001679 0.003911 -0.006690 -0.011979
# 2 0.001935 0.015191 0.002244 0.012975 -0.006424 -0.014429
# 3 0.001679 0.002244 0.012207 0.010545 -0.009568 -0.011012
# 4 0.003911 0.012975 0.010545 0.044935 -0.012550 -0.011135
# 5 -0.006690 -0.006424 -0.009568 -0.012550 0.036714 0.025826
# 6 -0.011979 -0.014429 -0.011012 -0.011135 0.025826 0.062114
#
#
# Mechanical properties :
#
#
# Convention : Reuss Voigt Hill
#
# Bulk Modulus (GPa) = 20.80184 66.88108 43.84146
# Shear Modulus (GPa) = 27.11115 46.44011 36.77563
#
# Velocity S-wave (km/s) = 3.30636 4.32736 3.85084
# Velocity P-wave (km/s) = 4.79207 7.20669 6.11965
#
# Compressibility (1/GPa) = 0.04807268
#
# Stress axis : x y z
#
# Youngs Moduli (GPa) = 111.62078 65.83037 81.92210
#
# Poissons Ratio (x) = -0.12736 -0.13755
# Poissons Ratio (y) = -0.21595 -0.18387
# Poissons Ratio (z) = -0.18742 -0.14776
#
# Static dielectric constant tensor:
#      x y z
#    x 1.828640 0.071180 0.075580 
#    y 0.071180 1.835790 -0.147110 
#    z 0.075580 -0.147110 2.057040 
# 
# From -- ./inp_files/587905.got.cif
#   From: 2010.05.17/outbox.cif.g08.bks.cpg/sg2_294_cif.got.tgz:587905.got - 2010.06.03 11:33:40.
