data_PCOD9015828
_publ_section_title
;
Structure prediction by ZEFSAII (Michael W. Deem and Ramdas Pophale) SiO2 
 PCOD9015828
Probable space group: P -1
;
_chemical_formula_sum "Si O2"
_cell_formula_units_Z 12
_cell_length_a 10.066596
_cell_length_b 6.766559
_cell_length_c 15.242734
_cell_angle_alpha 56.392407
_cell_angle_beta 42.543380
_cell_angle_gamma 86.572055
_cell_volume 459.670043
_symmetry_space_group_name_H-M "P -1"
_symmetry_group_IT_number 2
_symmetry_cell_setting 'triclinic'
loop_
_space_group_symop_operation_xyz
x,y,z
-x,-y,-z
loop_
_atom_site_type_symbol
_atom_site_label
_atom_site_fract_x
_atom_site_fract_y
_atom_site_fract_z
Si Si1 0.688362 0.209462 0.110708
Si Si2 0.510101 0.291150 0.910291
Si Si3 0.757922 0.407981 0.583936
Si Si4 0.151962 0.293919 0.218892
Si Si5 0.728793 0.867890 0.423774
Si Si6 0.210073 0.555395 0.812936
O O1 0.705632 0.401180 0.137897
O O2 0.412405 0.904740 0.308958
O O3 0.764120 0.392528 0.939048
O O4 0.940919 0.246135 0.997776
O O5 0.555383 0.345952 0.770667
O O6 0.744751 0.613492 0.757370
O O7 0.293936 0.225962 0.097602
O O8 0.500000 0.000000 0.000000
O O9 0.818251 0.663039 0.422531
O O10 0.000000 0.500000 0.500000
O O11 0.862243 0.032355 0.410899
O O12 0.431297 0.634743 0.624673
O O13 0.796344 0.158913 0.267350
#
# Coordination Sequence:
#
# PCOD9015828 Si02
#       6
#     2   2   2   2   2   2
#     4  10  21  42  65  92 127 176 214 267 322 391
#     4  11  22  40  62  93 132 176 216 252 326 403
#     4  12  26  39  63 103 135 164 218 271 331 388
#     4  10  22  40  66  90 132 175 208 265 326 385
#     4  10  22  41  63  97 124 168 218 274 322 378
#     4   9  21  43  67  87 125 178 223 260 326 376
#
# _framework density 26.105682999999999
#
# number of rings (size 3 to 8) (size 9 to 14) (size 15 to 20)
#    0.000    1.667    1.667    2.000    4.667    2.000 
#    0.000    0.000    0.000    0.000    0.000    0.000 
#    0.000    0.000    0.000    0.000    0.000    0.000 
#
# Total GULP energy -66802.636359 kJ/mol
# GULP energy per Si atom -5566.886363 kJ/mol
# Density = 2.604627 g / cm^3
# Si number density = 26.105683 Si / 1000 Ang^3
#
#
#
# Elastic Constant Matrix: (Units=GPa)
#
#
# Indices 1 2 3 4 5 6 
#
# 1 79.4427 28.8324 17.2772 -4.4604 -11.1172 -5.3122
# 2 28.8324 78.5977 7.0170 6.4034 -10.9933 2.0111
# 3 17.2772 7.0170 79.6949 -17.8315 -42.0098 -9.1231
# 4 -4.4604 6.4034 -17.8315 34.4634 5.6181 4.6435
# 5 -11.1172 -10.9933 -42.0098 5.6181 56.0044 -4.0181
# 6 -5.3122 2.0111 -9.1231 4.6435 -4.0181 34.1644
#
#
#
# Elastic Compliance Matrix: (Units=1/GPa)
#
#
# Indices 1 2 3 4 5 6 
#
# 1 0.015332 -0.005571 -0.002020 0.001637 0.000414 0.001999
# 2 -0.005571 0.015412 0.000120 -0.003772 0.002319 -0.000956
# 3 -0.002020 0.000120 0.025530 0.008920 0.018412 0.007449
# 4 0.001637 -0.003772 0.008920 0.034299 0.002729 -0.001482
# 5 0.000414 0.002319 0.018412 0.002729 0.032526 0.008299
# 6 0.001999 -0.000956 0.007449 -0.001482 0.008299 0.032804
#
#
# Mechanical properties :
#
#
# Convention : Reuss Voigt Hill
#
# Bulk Modulus (GPa) = 24.19446 38.22094 31.20770
# Shear Modulus (GPa) = 27.08226 37.23369 32.15797
#
# Velocity S-wave (km/s) = 3.22438 3.78069 3.51356
# Velocity P-wave (km/s) = 4.81146 5.80782 5.33296
#
# Compressibility (1/GPa) = 0.04133177
#
# Stress axis : x y z
#
# Youngs Moduli (GPa) = 65.22172 64.88450 39.17024
#
# Poissons Ratio (x) = 0.36146 0.07913
# Poissons Ratio (y) = 0.36333 -0.00469
# Poissons Ratio (z) = 0.13175 -0.00777
#
# Static dielectric constant tensor:
#      x y z
#    x 2.183110 -0.128530 -0.042390 
#    y -0.128530 2.093370 -0.007540 
#    z -0.042390 -0.007540 2.116790 
# 
# From -- ./inp_files/24779.got.cif
#   From: 2010.05.17/outbox.cif.g08.bks.cpg/sg2_13_cif.got.tgz:24779.got - 2010.06.03 11:33:40.
