data_PCOD9015895
_publ_section_title
;
Structure prediction by ZEFSAII (Michael W. Deem and Ramdas Pophale) SiO2 
 PCOD9015895
Probable space group: P -1
;
_chemical_formula_sum "Si O2"
_cell_formula_units_Z 16
_cell_length_a 25.687100
_cell_length_b 15.884673
_cell_length_c 23.202748
_cell_angle_alpha 156.226556
_cell_angle_beta 10.167748
_cell_angle_gamma 156.987213
_cell_volume 647.558834
_symmetry_space_group_name_H-M "P -1"
_symmetry_group_IT_number 2
_symmetry_cell_setting 'triclinic'
loop_
_space_group_symop_operation_xyz
x,y,z
-x,-y,-z
loop_
_atom_site_type_symbol
_atom_site_label
_atom_site_fract_x
_atom_site_fract_y
_atom_site_fract_z
Si Si1 0.555649 0.719053 0.369910
Si Si2 0.122413 0.138185 0.359052
Si Si3 0.836374 0.176477 0.377157
Si Si4 0.798855 0.311272 0.022568
Si Si5 0.161321 0.165787 0.136499
Si Si6 0.895735 0.433949 0.871560
Si Si7 0.278643 0.759102 0.813665
Si Si8 0.156506 0.645958 0.302806
O O1 0.214876 0.617532 0.653190
O O2 0.525782 0.756169 0.494471
O O3 0.727060 0.967071 0.322858
O O4 0.727672 0.533152 0.067588
O O5 0.985930 0.226900 0.618705
O O6 0.005188 0.242418 0.497723
O O7 0.039403 0.879334 0.283287
O O8 0.487536 0.235288 0.018038
O O9 0.003051 0.125113 0.221070
O O10 0.072282 0.386997 0.224904
O O11 0.526904 0.244808 0.774660
O O12 0.698706 0.362313 0.100013
O O13 0.021842 0.536883 0.941776
O O14 0.601942 0.230614 0.244456
O O15 0.985291 0.311473 0.454462
O O16 0.146665 0.957483 0.062785
#
# Coordination Sequence:
#
# PCOD9015895 Si02
#       8
#     2   2   2   2   2   2   2   2
#     4  10  22  42  67  96 127 162 216 269 320 379
#     4  12  26  44  63  92 134 174 220 262 304 373
#     4  11  22  40  68  96 130 167 207 261 330 387
#     4  10  21  42  65  96 129 169 213 262 324 379
#     4  11  21  40  65  98 135 165 200 261 329 392
#     4  11  24  45  66  90 127 178 219 262 311 375
#     4   9  20  39  68 100 130 159 208 268 329 380
#     4  12  25  42  63  97 130 171 216 259 316 382
#
# _framework density 24.708181
#
# number of rings (size 3 to 8) (size 9 to 14) (size 15 to 20)
#    0.000    1.250    1.250    5.625    1.750    2.500 
#    0.000    8.125    0.000    0.000    0.000    0.000 
#    0.000    0.000    0.000    0.000    0.000    0.000 
#
# Total GULP energy -89436.635063 kJ/mol
# GULP energy per Si atom -5589.789691 kJ/mol
# Density = 2.465194 g / cm^3
# Si number density = 24.708181 Si / 1000 Ang^3
#
#
#
# Elastic Constant Matrix: (Units=GPa)
#
#
# Indices 1 2 3 4 5 6 
#
# 1 55.0627 -48.8560 -15.3036 -10.9839 0.5198 -7.9238
# 2 -48.8560 -109.3465 -115.2281 38.5022 2.9637 -17.7670
# 3 -15.3036 -115.2281 32.6006 3.4220 -9.9288 -1.8106
# 4 -10.9839 38.5022 3.4220 29.3513 10.4009 3.0039
# 5 0.5198 2.9637 -9.9288 10.4009 48.4179 7.2387
# 6 -7.9238 -17.7670 -1.8106 3.0039 7.2387 21.7848
#
#
#
# Elastic Compliance Matrix: (Units=1/GPa)
#
#
# Indices 1 2 3 4 5 6 
#
# 1 0.018145 -0.002491 -0.002307 0.011162 -0.003512 0.004004
# 2 -0.002491 -0.001093 -0.005687 0.001787 -0.001136 -0.002139
# 3 -0.002307 -0.005687 0.009190 0.005442 0.002005 -0.006130
# 4 0.011162 0.001787 0.005442 0.037657 -0.007701 0.003336
# 5 -0.003512 -0.001136 0.002005 -0.007701 0.024173 -0.009008
# 6 0.004004 -0.002139 -0.006130 0.003336 -0.009008 0.047639
#
#
# Mechanical properties :
#
#
# Convention : Reuss Voigt Hill
#
# Bulk Modulus (GPa) = 189.72496 -42.27318 73.72589
# Shear Modulus (GPa) = 31.55813 30.42445 30.99129
#
# Velocity S-wave (km/s) = 3.57772 3.51287 3.54544
# Velocity P-wave (km/s) = 9.69638 0.83214 6.83108
#
# Compressibility (1/GPa) = 0.00527079
#
# Stress axis : x y z
#
# Youngs Moduli (GPa) = 55.11086 -914.54887 108.81548
#
# Poissons Ratio (x) = -2.27857 0.25105
# Poissons Ratio (y) = 0.13731 0.61881
# Poissons Ratio (z) = 0.12715 -5.20088
#
# Static dielectric constant tensor:
#      x y z
#    x 1.951610 -0.023370 0.076340 
#    y -0.023370 2.052260 0.042330 
#    z 0.076340 0.042330 1.982000 
# 
# From -- ./inp_files/618893.got.cif
#   From: 2010.05.17/outbox.cif.g08.bks.cpg/sg2_310_cif.got.tgz:618893.got - 2010.06.03 11:33:40.
