data_PCOD9015480
_publ_section_title
;
Structure prediction by ZEFSAII (Michael W. Deem and Ramdas Pophale) SiO2 
 PCOD9015480
Probable space group: P -1
;
_chemical_formula_sum "Si O2"
_cell_formula_units_Z 16
_cell_length_a 8.628359
_cell_length_b 14.472055
_cell_length_c 14.107849
_cell_angle_alpha 46.988309
_cell_angle_beta 114.557763
_cell_angle_gamma 76.845858
_cell_volume 749.720132
_symmetry_space_group_name_H-M "P -1"
_symmetry_group_IT_number 2
_symmetry_cell_setting 'triclinic'
loop_
_space_group_symop_operation_xyz
x,y,z
-x,-y,-z
loop_
_atom_site_type_symbol
_atom_site_label
_atom_site_fract_x
_atom_site_fract_y
_atom_site_fract_z
Si Si1 0.838856 0.030478 0.849720
Si Si2 0.673922 0.329249 0.900196
Si Si3 0.301598 0.108050 0.963370
Si Si4 0.989635 0.386479 0.207026
Si Si5 0.436546 0.267967 0.014489
Si Si6 0.710194 0.377775 0.553453
Si Si7 0.366841 0.367613 0.241671
Si Si8 0.219018 0.978095 0.544252
O O1 0.724556 0.220967 0.637367
O O2 0.651132 0.035529 0.850360
O O3 0.051842 0.840342 0.969355
O O4 0.000000 0.000000 0.000000
O O5 0.646817 0.236230 0.036031
O O6 0.423506 0.459680 0.674037
O O7 0.636944 0.488382 0.822870
O O8 0.335601 0.215645 0.956970
O O9 0.000471 0.259596 0.741991
O O10 0.500000 0.000000 0.000000
O O11 0.227025 0.352406 0.289866
O O12 0.807053 0.506887 0.168489
O O13 0.094097 0.186798 0.357563
O O14 0.808594 0.523778 0.974710
O O15 0.574102 0.133751 0.237286
O O16 0.500000 0.500000 0.500000
O O17 0.638439 0.151316 0.424400
O O18 0.000000 0.000000 0.500000
#
# Coordination Sequence:
#
# PCOD9015480 Si02
#       8
#     2   2   2   2   2   2   2   2
#     4  10  21  42  63  88 127 167 215 267 317 378
#     4  12  23  41  67  94 129 173 219 265 324 390
#     4  11  24  43  65  95 135 168 212 278 326 374
#     4  10  22  42  65  93 132 162 215 267 322 384
#     4  11  25  41  63  96 130 169 211 268 328 376
#     4  11  24  43  68  91 125 177 224 259 320 392
#     4  10  23  40  65  96 127 169 209 268 324 377
#     4  11  23  42  66  93 131 168 215 262 323 393
#
# _framework density 21.341298999999999
#
# number of rings (size 3 to 8) (size 9 to 14) (size 15 to 20)
#    0.000    1.250    2.500    4.125    0.000    8.500 
#    0.000    0.000    0.000    0.000    0.000    0.000 
#    0.000    0.000    0.000    0.000    0.000    0.000 
#
# Total GULP energy -89421.715559 kJ/mol
# GULP energy per Si atom -5588.857222 kJ/mol
# Density = 2.129272 g / cm^3
# Si number density = 21.341299 Si / 1000 Ang^3
#
#
#
# Elastic Constant Matrix: (Units=GPa)
#
#
# Indices 1 2 3 4 5 6 
#
# 1 120.4794 45.1159 13.1078 -17.8442 5.7505 -7.2873
# 2 45.1159 124.2603 12.5557 -30.0063 11.3412 -5.1008
# 3 13.1078 12.5557 57.9901 -20.8519 0.9301 -8.5150
# 4 -17.8442 -30.0063 -20.8519 36.3455 2.7648 -2.6436
# 5 5.7505 11.3412 0.9301 2.7648 34.9842 -5.4369
# 6 -7.2873 -5.1008 -8.5150 -2.6436 -5.4369 41.5007
#
#
#
# Elastic Compliance Matrix: (Units=1/GPa)
#
#
# Indices 1 2 3 4 5 6 
#
# 1 0.009888 -0.002860 -0.000581 0.002307 -0.000659 0.001326
# 2 -0.002860 0.011651 0.001881 0.009695 -0.003902 0.001422
# 3 -0.000581 0.001881 0.023270 0.015141 -0.001447 0.005678
# 4 0.002307 0.009695 0.015141 0.046328 -0.006529 0.006799
# 5 -0.000659 -0.003902 -0.001447 -0.006529 0.030939 0.002745
# 6 0.001326 0.001422 0.005678 0.006799 0.002745 0.026461
#
#
# Mechanical properties :
#
#
# Convention : Reuss Voigt Hill
#
# Bulk Modulus (GPa) = 23.98675 49.36541 36.67608
# Shear Modulus (GPa) = 30.20189 38.02943 34.11566
#
# Velocity S-wave (km/s) = 3.76598 4.22591 4.00256
# Velocity P-wave (km/s) = 5.49310 6.85512 6.21155
#
# Compressibility (1/GPa) = 0.04168969
#
# Stress axis : x y z
#
# Youngs Moduli (GPa) = 101.13732 85.82633 42.97428
#
# Poissons Ratio (x) = 0.24543 0.02497
# Poissons Ratio (y) = 0.28921 -0.08084
# Poissons Ratio (z) = 0.05876 -0.16145
#
# Static dielectric constant tensor:
#      x y z
#    x 1.759560 -0.015940 0.013280 
#    y -0.015940 1.777210 0.024400 
#    z 0.013280 0.024400 1.829170 
# 
# From -- ./inp_files/503884.got.cif
#   From: 2010.05.17/outbox.cif.g08.bks.cpg/sg2_252_cif.got.tgz:503884.got - 2010.06.03 11:33:40.
