data_PCOD9015635
_publ_section_title
;
Structure prediction by ZEFSAII (Michael W. Deem and Ramdas Pophale) SiO2 
 PCOD9015635
Probable space group: P -1
;
_chemical_formula_sum "Si O2"
_cell_formula_units_Z 16
_cell_length_a 13.882826
_cell_length_b 6.677226
_cell_length_c 12.374764
_cell_angle_alpha 47.988814
_cell_angle_beta 94.946685
_cell_angle_gamma 119.381832
_cell_volume 688.799205
_symmetry_space_group_name_H-M "P -1"
_symmetry_group_IT_number 2
_symmetry_cell_setting 'triclinic'
loop_
_space_group_symop_operation_xyz
x,y,z
-x,-y,-z
loop_
_atom_site_type_symbol
_atom_site_label
_atom_site_fract_x
_atom_site_fract_y
_atom_site_fract_z
Si Si1 0.026839 0.452984 0.841999
Si Si2 0.203840 0.070228 0.119946
Si Si3 0.106055 0.366440 0.116258
Si Si4 0.308726 0.733326 0.363832
Si Si5 0.227994 0.608525 0.639905
Si Si6 0.363700 0.224937 0.561941
Si Si7 0.446963 0.576549 0.866283
Si Si8 0.298412 0.112187 0.840567
O O1 0.122694 0.564793 0.716882
O O2 0.995657 0.708994 0.782718
O O3 0.062159 0.372472 0.988212
O O4 0.906062 0.133837 0.897672
O O5 0.152355 0.139593 0.194701
O O6 0.254774 0.859525 0.229557
O O7 0.313537 0.423070 0.953502
O O8 0.218557 0.743670 0.012219
O O9 0.235932 0.658102 0.494798
O O10 0.306495 0.414545 0.448495
O O11 0.448911 0.039228 0.284991
O O12 0.235104 0.300347 0.768325
O O13 0.342027 0.947386 0.578342
O O14 0.500000 0.500000 0.500000
O O15 0.313850 0.076256 0.729257
O O16 0.416941 0.352229 0.837222
O O17 0.500000 0.500000 0.000000
#
# Coordination Sequence:
#
# PCOD9015635 Si02
#       8
#     2   2   2   2   2   2   2   2
#     4  11  24  40  68  97 126 170 218 269 318 376
#     4  11  24  43  65  93 135 173 204 268 328 376
#     4  11  24  38  66 101 125 163 222 263 319 385
#     4  10  25  44  62  96 131 169 218 255 321 396
#     4  11  24  42  65  93 131 165 216 274 312 372
#     4  11  23  40  69  94 125 171 216 266 318 374
#     4  10  21  42  64  90 131 166 203 263 320 382
#     4  11  22  40  66  97 126 163 218 264 320 380
#
# _framework density 23.228832000000001
#
# number of rings (size 3 to 8) (size 9 to 14) (size 15 to 20)
#    0.000    1.250    2.500    2.625    5.250    3.500 
#    0.000    2.500    0.000    0.000    0.000    0.000 
#    0.000    0.000    0.000    0.000    0.000    0.000 
#
# Total GULP energy -89386.964861 kJ/mol
# GULP energy per Si atom -5586.685304 kJ/mol
# Density = 2.317596 g / cm^3
# Si number density = 23.228832 Si / 1000 Ang^3
#
#
#
# Elastic Constant Matrix: (Units=GPa)
#
#
# Indices 1 2 3 4 5 6 
#
# 1 68.1135 8.7503 16.7748 -4.5169 -9.7488 -2.8872
# 2 8.7503 87.6077 7.4095 -10.3826 7.8130 6.1419
# 3 16.7748 7.4095 67.2544 5.1763 -3.3663 -2.8267
# 4 -4.5169 -10.3826 5.1763 22.1400 -5.5788 -8.7394
# 5 -9.7488 7.8130 -3.3663 -5.5788 35.0115 -1.6525
# 6 -2.8872 6.1419 -2.8267 -8.7394 -1.6525 47.0460
#
#
#
# Elastic Compliance Matrix: (Units=1/GPa)
#
#
# Indices 1 2 3 4 5 6 
#
# 1 0.017241 -0.001298 -0.004253 0.006288 0.005794 0.002344
# 2 -0.001298 0.012568 -0.001614 0.004968 -0.002576 -0.000985
# 3 -0.004253 -0.001614 0.016525 -0.005556 -0.000125 -0.000094
# 4 0.006288 0.004968 -0.005556 0.056542 0.009601 0.010244
# 5 0.005794 -0.002576 -0.000125 0.009601 0.032438 0.003607
# 6 0.002344 -0.000985 -0.000094 0.010244 0.003607 0.023552
#
#
# Mechanical properties :
#
#
# Convention : Reuss Voigt Hill
#
# Bulk Modulus (GPa) = 31.24497 32.09388 31.66943
# Shear Modulus (GPa) = 27.19397 33.50890 30.35144
#
# Velocity S-wave (km/s) = 3.42526 3.80222 3.61865
# Velocity P-wave (km/s) = 5.39661 5.75519 5.57878
#
# Compressibility (1/GPa) = 0.03200515
#
# Stress axis : x y z
#
# Youngs Moduli (GPa) = 58.00084 79.56549 60.51487
#
# Poissons Ratio (x) = 0.10329 0.25736
# Poissons Ratio (y) = 0.07530 0.09765
# Poissons Ratio (z) = 0.24666 0.12839
#
# Static dielectric constant tensor:
#      x y z
#    x 1.957560 -0.005250 -0.065310 
#    y -0.005250 1.883320 -0.010310 
#    z -0.065310 -0.010310 1.966570 
# 
# From -- ./inp_files/441648.got.cif
#   From: 2010.05.17/outbox.cif.g08.bks.cpg/sg2_221_cif.got.tgz:441648.got - 2010.06.03 11:33:40.
