data_PCOD9015595
_publ_section_title
;
Structure prediction by ZEFSAII (Michael W. Deem and Ramdas Pophale) SiO2 
 PCOD9015595
Probable space group: P -1
;
_chemical_formula_sum "Si O2"
_cell_formula_units_Z 14
_cell_length_a 16.079312
_cell_length_b 5.961829
_cell_length_c 22.236071
_cell_angle_alpha 118.346719
_cell_angle_beta 156.919542
_cell_angle_gamma 48.216282
_cell_volume 549.094025
_symmetry_space_group_name_H-M "P -1"
_symmetry_group_IT_number 2
_symmetry_cell_setting 'triclinic'
loop_
_space_group_symop_operation_xyz
x,y,z
-x,-y,-z
loop_
_atom_site_type_symbol
_atom_site_label
_atom_site_fract_x
_atom_site_fract_y
_atom_site_fract_z
Si Si1 0.143131 0.831165 0.980515
Si Si2 0.709486 0.061788 0.378645
Si Si3 0.372274 0.828641 0.237165
Si Si4 0.941139 0.210764 0.774913
Si Si5 0.380637 0.915345 0.535187
Si Si6 0.713042 0.182727 0.222779
Si Si7 0.603311 0.781452 0.158971
O O1 0.285328 0.955601 0.126512
O O2 0.403666 0.467275 0.082045
O O3 0.917956 0.899848 0.885686
O O4 0.956421 0.059201 0.829422
O O5 0.482014 0.454945 0.257851
O O6 0.633862 0.095944 0.403732
O O7 0.692251 0.853054 0.290222
O O8 0.031624 0.911818 0.578403
O O9 0.620978 0.778673 0.430353
O O10 0.677164 0.609499 0.660575
O O11 0.843545 0.089078 0.644543
O O12 0.260639 0.052818 0.957774
O O13 0.689629 0.413619 0.181928
O O14 0.731833 0.855066 0.199365
#
# Coordination Sequence:
#
# PCOD9015595 Si02
#       7
#     2   2   2   2   2   2   2
#     4  10  21  42  64 102 127 179 218 284 333 405
#     4  12  25  41  67 104 131 171 225 285 338 401
#     4  11  23  39  69  99 133 167 228 285 339 393
#     4  10  23  44  65  95 133 181 227 275 342 407
#     4  11  24  42  64  96 137 175 225 282 340 404
#     4  11  24  42  70 102 141 176 225 280 347 401
#     4  11  24  44  71  99 137 182 229 276 339 411
#
# _framework density 25.496545000000001
#
# number of rings (size 3 to 8) (size 9 to 14) (size 15 to 20)
#    0.000    1.143    2.857    3.429    4.000    1.714 
#    5.143    3.571    0.000    0.000    0.000    0.000 
#    0.000    0.000    0.000    0.000    0.000    0.000 
#
# Total GULP energy -78007.962265 kJ/mol
# GULP energy per Si atom -5571.997305 kJ/mol
# Density = 2.543851 g / cm^3
# Si number density = 25.496545 Si / 1000 Ang^3
#
#
#
# Elastic Constant Matrix: (Units=GPa)
#
#
# Indices 1 2 3 4 5 6 
#
# 1 39.7658 81.1667 -6.0556 14.4242 -17.4218 4.8872
# 2 81.1667 47.5012 42.7228 -9.7471 13.7416 11.6039
# 3 -6.0556 42.7228 171.5281 52.1615 31.8689 5.6124
# 4 14.4242 -9.7471 52.1615 68.1125 12.9826 4.2073
# 5 -17.4218 13.7416 31.8689 12.9826 50.9707 1.0172
# 6 4.8872 11.6039 5.6124 4.2073 1.0172 25.3751
#
#
#
# Elastic Compliance Matrix: (Units=1/GPa)
#
#
# Indices 1 2 3 4 5 6 
#
# 1 -0.002702 0.011841 -0.004283 0.006415 -0.002974 -0.004891
# 2 0.011841 -0.003538 0.002039 -0.005530 0.005143 -0.000403
# 3 -0.004283 0.002039 0.007233 -0.003195 -0.005703 -0.000949
# 4 0.006415 -0.005530 -0.003195 0.014635 0.001964 -0.000505
# 5 -0.002974 0.005143 -0.005703 0.001964 0.020315 -0.001657
# 6 -0.004891 -0.000403 -0.000949 -0.000505 -0.001657 0.040895
#
#
# Mechanical properties :
#
#
# Convention : Reuss Voigt Hill
#
# Bulk Modulus (GPa) = 49.53890 54.94032 52.23961
# Shear Modulus (GPa) = 77.67068 38.28908 57.97988
#
# Velocity S-wave (km/s) = 5.52534 3.87943 4.77385
# Velocity P-wave (km/s) = 7.75742 6.45457 7.13580
#
# Compressibility (1/GPa) = 0.02018616
#
# Stress axis : x y z
#
# Youngs Moduli (GPa) = -370.11585 -282.64949 138.25073
#
# Poissons Ratio (x) = 3.34671 0.59210
# Poissons Ratio (y) = 4.38236 -0.28184
# Poissons Ratio (z) = -1.58513 0.57622
#
# Static dielectric constant tensor:
#      x y z
#    x 2.121380 0.214770 0.053760 
#    y 0.214770 2.272860 0.105890 
#    z 0.053760 0.105890 2.021160 
# 
# From -- ./inp_files/475126.got.cif
#   From: 2010.05.17/outbox.cif.g08.bks.cpg/sg2_238_cif.got.tgz:475126.got - 2010.06.03 11:33:40.
