data_PCOD9015038
_publ_section_title
;
Structure prediction by ZEFSAII (Michael W. Deem and Ramdas Pophale) SiO2 
 PCOD9015038
Probable space group: P -1
;
_chemical_formula_sum "Si O2"
_cell_formula_units_Z 16
_cell_length_a 9.781755
_cell_length_b 23.554066
_cell_length_c 5.045281
_cell_angle_alpha 68.034390
_cell_angle_beta 45.264807
_cell_angle_gamma 51.110825
_cell_volume 637.881622
_symmetry_space_group_name_H-M "P -1"
_symmetry_group_IT_number 2
_symmetry_cell_setting 'triclinic'
loop_
_space_group_symop_operation_xyz
x,y,z
-x,-y,-z
loop_
_atom_site_type_symbol
_atom_site_label
_atom_site_fract_x
_atom_site_fract_y
_atom_site_fract_z
Si Si1 0.084589 0.844527 0.876553
Si Si2 0.187242 0.193994 0.077292
Si Si3 0.683503 0.430821 0.531508
Si Si4 0.766336 0.297944 0.856780
Si Si5 0.931967 0.668938 0.241119
Si Si6 0.271792 0.012444 0.644287
Si Si7 0.675177 0.076914 0.793765
Si Si8 0.993447 0.456337 0.341529
O O1 0.205020 0.880217 0.510678
O O2 0.896821 0.841758 0.956312
O O3 0.272652 0.760683 0.855941
O O4 0.932894 0.902280 0.214666
O O5 0.964561 0.247545 0.463307
O O6 0.247098 0.248108 0.757331
O O7 0.401211 0.137216 0.064194
O O8 0.500000 0.500000 0.500000
O O9 0.600941 0.376559 0.806655
O O10 0.754843 0.461044 0.625868
O O11 0.923303 0.383413 0.114765
O O12 0.884744 0.320288 0.875100
O O13 0.849787 0.629723 0.621080
O O14 0.303751 0.977219 0.375370
O O15 0.500000 0.000000 0.500000
O O16 0.220382 0.966938 0.001275
O O17 0.000000 0.500000 0.500000
O O18 0.000000 0.500000 0.000000
#
# Coordination Sequence:
#
# PCOD9015038 Si02
#       8
#     2   2   2   2   2   2   2   2
#     4  11  24  42  68  97 137 177 225 284 337 405
#     4  10  22  43  67  92 137 179 224 279 340 406
#     4  10  21  41  70  98 134 175 229 277 339 410
#     4   9  21  40  69  91 135 181 222 275 347 400
#     4   9  20  41  64  94 129 180 216 270 343 401
#     4  12  25  45  70 100 137 181 224 280 340 401
#     4  12  27  43  68 104 133 178 230 279 338 402
#     4  11  21  39  63  96 130 171 216 273 335 397
#
# _framework density 25.083022
#
# number of rings (size 3 to 8) (size 9 to 14) (size 15 to 20)
#    0.000    1.500    2.500    1.875    5.250    2.000 
#    2.250    2.500    0.000    0.000    0.000    0.000 
#    0.000    0.000    0.000    0.000    0.000    0.000 
#
# Total GULP energy -89387.384300 kJ/mol
# GULP energy per Si atom -5586.711519 kJ/mol
# Density = 2.502593 g / cm^3
# Si number density = 25.083022 Si / 1000 Ang^3
#
#
#
# Elastic Constant Matrix: (Units=GPa)
#
#
# Indices 1 2 3 4 5 6 
#
# 1 71.5163 36.6852 13.7997 3.7686 10.6555 9.5885
# 2 36.6852 153.5728 33.6574 -43.3549 -0.9282 2.7278
# 3 13.7997 33.6574 75.1531 -35.1414 1.3326 9.9078
# 4 3.7686 -43.3549 -35.1414 48.1733 5.0076 9.5896
# 5 10.6555 -0.9282 1.3326 5.0076 43.9628 -5.8724
# 6 9.5885 2.7278 9.9078 9.5896 -5.8724 37.7572
#
#
#
# Elastic Compliance Matrix: (Units=1/GPa)
#
#
# Indices 1 2 3 4 5 6 
#
# 1 0.019685 -0.006598 -0.005686 -0.011102 -0.003576 -0.000767
# 2 -0.006598 0.011330 0.002922 0.013544 -0.000245 -0.003387
# 3 -0.005686 0.002922 0.026792 0.025609 -0.004016 -0.012926
# 4 -0.011102 0.013544 0.025609 0.057320 -0.007072 -0.020537
# 5 -0.003576 -0.000245 -0.004016 -0.007072 0.025571 0.007753
# 6 -0.000767 -0.003387 -0.012926 -0.020537 0.007753 0.036738
#
#
# Mechanical properties :
#
#
# Convention : Reuss Voigt Hill
#
# Bulk Modulus (GPa) = 25.58833 52.05852 38.82342
# Shear Modulus (GPa) = 23.90172 40.38531 32.14352
#
# Velocity S-wave (km/s) = 3.09026 4.01692 3.58367
# Velocity P-wave (km/s) = 4.79130 6.50490 5.71272
#
# Compressibility (1/GPa) = 0.03908032
#
# Stress axis : x y z
#
# Youngs Moduli (GPa) = 50.79887 88.26372 37.32479
#
# Poissons Ratio (x) = 0.58240 0.21224
# Poissons Ratio (y) = 0.33519 -0.10904
# Poissons Ratio (z) = 0.28886 -0.25786
#
# Static dielectric constant tensor:
#      x y z
#    x 2.000390 0.017010 0.087060 
#    y 0.017010 1.923710 -0.165840 
#    z 0.087060 -0.165840 2.043250 
# 
# From -- ./inp_files/84174.got.cif
#   From: 2010.05.17/outbox.cif.g08.bks.cpg/sg2_43_cif.got.tgz:84174.got - 2010.06.03 11:33:40.
