data_PCOD9015874
_publ_section_title
;
Structure prediction by ZEFSAII (Michael W. Deem and Ramdas Pophale) SiO2 
 PCOD9015874
Probable space group: P -1
;
_chemical_formula_sum "Si O2"
_cell_formula_units_Z 16
_cell_length_a 12.492734
_cell_length_b 9.644861
_cell_length_c 13.926420
_cell_angle_alpha 130.503470
_cell_angle_beta 138.751948
_cell_angle_gamma 44.788045
_cell_volume 754.755571
_symmetry_space_group_name_H-M "P -1"
_symmetry_group_IT_number 2
_symmetry_cell_setting 'triclinic'
loop_
_space_group_symop_operation_xyz
x,y,z
-x,-y,-z
loop_
_atom_site_type_symbol
_atom_site_label
_atom_site_fract_x
_atom_site_fract_y
_atom_site_fract_z
Si Si1 0.117819 0.303411 0.705557
Si Si2 0.222296 0.641648 0.597555
Si Si3 0.127951 0.492718 0.997192
Si Si4 0.489543 0.788290 0.913670
Si Si5 0.497115 0.147956 0.830050
Si Si6 0.970499 0.306477 0.312189
Si Si7 0.084071 0.043866 0.981342
Si Si8 0.381720 0.216574 0.565789
O O1 0.112210 0.360371 0.838222
O O2 0.311318 0.128764 0.721421
O O3 0.941502 0.274071 0.549103
O O4 0.094094 0.510216 0.726019
O O5 0.313528 0.786589 0.748061
O O6 0.366327 0.406215 0.574731
O O7 0.129092 0.615492 0.620310
O O8 0.342306 0.383394 0.106403
O O9 0.000000 0.500000 0.000000
O O10 0.053662 0.727226 0.029085
O O11 0.498855 0.741555 0.014782
O O12 0.500000 0.000000 0.000000
O O13 0.453894 0.232351 0.729039
O O14 0.708371 0.984193 0.890082
O O15 0.182753 0.224930 0.435477
O O16 0.922178 0.125544 0.168951
O O17 0.000000 0.000000 0.000000
O O18 0.500000 0.000000 0.500000
#
# Coordination Sequence:
#
# PCOD9015874 Si02
#       8
#     2   2   2   2   2   2   2   2
#     4  10  21  42  65  95 128 177 210 272 320 402
#     4  11  22  42  68  93 132 168 219 266 332 391
#     4  11  26  45  65  94 136 170 220 277 330 385
#     4  11  26  47  69  91 123 177 232 269 315 397
#     4  11  22  39  66  91 132 171 220 261 330 384
#     4  11  20  39  62  95 139 165 215 265 330 386
#     4  12  24  37  64 103 136 171 217 274 332 383
#     4  11  23  36  61 101 138 166 204 269 336 393
#
# _framework density 21.198915
#
# number of rings (size 3 to 8) (size 9 to 14) (size 15 to 20)
#    0.000    1.000    5.000    2.250    5.250    1.000 
#    0.000    4.375    0.000    0.000    0.000    0.000 
#    0.000    0.000    0.000    0.000    0.000    0.000 
#
# Total GULP energy -89143.149098 kJ/mol
# GULP energy per Si atom -5571.446819 kJ/mol
# Density = 2.115067 g / cm^3
# Si number density = 21.198915 Si / 1000 Ang^3
#
#
#
# Elastic Constant Matrix: (Units=GPa)
#
#
# Indices 1 2 3 4 5 6 
#
# 1 103.2974 30.1206 11.2952 2.6084 4.6710 -18.1099
# 2 30.1206 92.3156 19.8849 4.5406 24.8556 -20.6790
# 3 11.2952 19.8849 121.2653 -6.3864 22.3302 -3.9006
# 4 2.6084 4.5406 -6.3864 18.4212 -1.2584 4.6360
# 5 4.6710 24.8556 22.3302 -1.2584 34.3497 -4.8754
# 6 -18.1099 -20.6790 -3.9006 4.6360 -4.8754 34.6534
#
#
#
# Elastic Compliance Matrix: (Units=1/GPa)
#
#
# Indices 1 2 3 4 5 6 
#
# 1 0.011406 -0.002799 -0.000873 -0.002307 0.001629 0.004730
# 2 -0.002799 0.016810 -0.000665 -0.006685 -0.010473 0.007915
# 3 -0.000873 -0.000665 0.009634 0.003500 -0.005682 -0.001036
# 4 -0.002307 -0.006685 0.003500 0.060840 0.003334 -0.012471
# 5 0.001629 -0.010473 -0.005682 0.003334 0.040167 -0.000833
# 6 0.004730 0.007915 -0.001036 -0.012471 -0.000833 0.037487
#
#
# Mechanical properties :
#
#
# Convention : Reuss Voigt Hill
#
# Bulk Modulus (GPa) = 34.27300 48.83108 41.55204
# Shear Modulus (GPa) = 25.67493 34.52337 30.09915
#
# Velocity S-wave (km/s) = 3.48392 4.03990 3.77217
# Velocity P-wave (km/s) = 5.69088 6.69670 6.21417
#
# Compressibility (1/GPa) = 0.02917749
#
# Stress axis : x y z
#
# Youngs Moduli (GPa) = 87.67095 59.48716 103.79918
#
# Poissons Ratio (x) = 0.16651 0.09058
# Poissons Ratio (y) = 0.24540 0.06901
# Poissons Ratio (z) = 0.07651 0.03955
#
# Static dielectric constant tensor:
#      x y z
#    x 2.482730 -0.540850 -0.386490 
#    y -0.540850 2.211450 0.224730 
#    z -0.386490 0.224730 2.034100 
# 
# From -- ./inp_files/516307.got.cif
#   From: 2010.05.17/outbox.cif.g08.bks.cpg/sg2_259_cif.got.tgz:516307.got - 2010.06.03 11:33:40.
