data_PCOD9015482
_publ_section_title
;
Structure prediction by ZEFSAII (Michael W. Deem and Ramdas Pophale) SiO2 
 PCOD9015482
Probable space group: P -1
;
_chemical_formula_sum "Si O2"
_cell_formula_units_Z 16
_cell_length_a 14.765717
_cell_length_b 9.254026
_cell_length_c 8.758297
_cell_angle_alpha 49.534416
_cell_angle_beta 94.614905
_cell_angle_gamma 74.547748
_cell_volume 823.523766
_symmetry_space_group_name_H-M "P -1"
_symmetry_group_IT_number 2
_symmetry_cell_setting 'triclinic'
loop_
_space_group_symop_operation_xyz
x,y,z
-x,-y,-z
loop_
_atom_site_type_symbol
_atom_site_label
_atom_site_fract_x
_atom_site_fract_y
_atom_site_fract_z
Si Si1 0.048623 0.642675 0.331027
Si Si2 0.564733 0.588723 0.038480
Si Si3 0.234818 0.458187 0.852720
Si Si4 0.512452 0.941938 0.221565
Si Si5 0.405528 0.662347 0.468015
Si Si6 0.281822 0.440405 0.528227
Si Si7 0.074539 0.904477 0.433611
Si Si8 0.069235 0.310218 0.028701
O O1 0.168251 0.513948 0.406187
O O2 0.036833 0.820911 0.334644
O O3 0.000000 0.500000 0.500000
O O4 0.992553 0.702661 0.120516
O O5 0.673681 0.560649 0.016087
O O6 0.586176 0.450723 0.291252
O O7 0.500000 0.500000 0.000000
O O8 0.502226 0.837665 0.863954
O O9 0.278481 0.370257 0.751724
O O10 0.164990 0.699965 0.648161
O O11 0.163880 0.353826 0.968348
O O12 0.426467 0.868909 0.317781
O O13 0.622148 0.752911 0.396368
O O14 0.500000 0.000000 0.000000
O O15 0.500000 0.500000 0.500000
O O16 0.308971 0.642706 0.394731
O O17 0.105129 0.087413 0.265401
O O18 0.000000 0.000000 0.500000
O O19 0.000000 0.500000 0.000000
#
# Coordination Sequence:
#
# PCOD9015482 Si02
#       8
#     2   2   2   2   2   2   2   2
#     4  11  21  41  65  94 130 158 213 266 304 382
#     4  11  24  42  60  95 130 157 205 260 309 371
#     4  10  21  42  63  88 130 160 207 258 312 369
#     4  11  19  39  68  88 122 170 204 246 311 373
#     4   9  18  37  63  87 120 158 204 252 296 364
#     4   9  19  38  63  96 122 158 209 259 302 368
#     4  11  22  42  65  92 128 166 205 259 319 370
#     4  12  23  43  66  89 125 173 210 260 320 369
#
# _framework density 19.428705999999998
#
# number of rings (size 3 to 8) (size 9 to 14) (size 15 to 20)
#    0.000    1.500    7.500    0.375    0.000    3.500 
#    9.000    0.000    0.000    0.000    0.000    0.000 
#    0.000    0.000    0.000    0.000    0.000    0.000 
#
# Total GULP energy -89101.569197 kJ/mol
# GULP energy per Si atom -5568.848075 kJ/mol
# Density = 1.938449 g / cm^3
# Si number density = 19.428706 Si / 1000 Ang^3
#
#
#
# Elastic Constant Matrix: (Units=GPa)
#
#
# Indices 1 2 3 4 5 6 
#
# 1 182.7101 56.1555 56.5534 -13.1638 -6.9197 25.1060
# 2 56.1555 113.6108 34.3576 -25.7970 0.4724 17.9499
# 3 56.5534 34.3576 79.0513 -24.0636 -13.5425 13.7764
# 4 -13.1638 -25.7970 -24.0636 33.0369 13.1940 -7.2434
# 5 -6.9197 0.4724 -13.5425 13.1940 37.4514 -5.0194
# 6 25.1060 17.9499 13.7764 -7.2434 -5.0194 30.4601
#
#
#
# Elastic Compliance Matrix: (Units=1/GPa)
#
#
# Indices 1 2 3 4 5 6 
#
# 1 0.008112 -0.002740 -0.004973 -0.003510 0.000492 -0.003576
# 2 -0.002740 0.013267 -0.001087 0.009669 -0.004953 -0.003586
# 3 -0.004973 -0.001087 0.020711 0.010889 0.002530 -0.001621
# 4 -0.003510 0.009669 0.010889 0.050511 -0.014371 0.001914
# 5 0.000492 -0.004953 0.002530 -0.014371 0.033293 0.003438
# 6 -0.003576 -0.003586 -0.001621 0.001914 0.003438 0.039645
#
#
# Mechanical properties :
#
#
# Convention : Reuss Voigt Hill
#
# Bulk Modulus (GPa) = 40.83253 74.38946 57.61100
# Shear Modulus (GPa) = 26.13658 35.41005 30.77331
#
# Velocity S-wave (km/s) = 3.67175 4.27378 3.98415
# Velocity P-wave (km/s) = 6.24803 7.91992 7.13313
#
# Compressibility (1/GPa) = 0.02449028
#
# Stress axis : x y z
#
# Youngs Moduli (GPa) = 123.27995 75.37321 48.28308
#
# Poissons Ratio (x) = 0.20649 0.24013
# Poissons Ratio (y) = 0.33773 0.05248
# Poissons Ratio (z) = 0.61313 0.08193
#
# Static dielectric constant tensor:
#      x y z
#    x 1.761530 -0.037710 -0.123150 
#    y -0.037710 1.738640 0.161820 
#    z -0.123150 0.161820 2.418960 
# 
# From -- ./inp_files/297495.got.cif
#   From: 2010.05.17/outbox.cif.g08.bks.cpg/sg2_149_cif.got.tgz:297495.got - 2010.06.03 11:33:40.
