data_PCOD9015619
_publ_section_title
;
Structure prediction by ZEFSAII (Michael W. Deem and Ramdas Pophale) SiO2 
 PCOD9015619
Probable space group: P -1
;
_chemical_formula_sum "Si O2"
_cell_formula_units_Z 14
_cell_length_a 10.166557
_cell_length_b 10.183903
_cell_length_c 7.042425
_cell_angle_alpha 62.756823
_cell_angle_beta 85.369102
_cell_angle_gamma 96.558458
_cell_volume 636.669111
_symmetry_space_group_name_H-M "P -1"
_symmetry_group_IT_number 2
_symmetry_cell_setting 'triclinic'
loop_
_space_group_symop_operation_xyz
x,y,z
-x,-y,-z
loop_
_atom_site_type_symbol
_atom_site_label
_atom_site_fract_x
_atom_site_fract_y
_atom_site_fract_z
Si Si1 0.486975 0.324486 0.664942
Si Si2 0.801569 0.682146 0.183494
Si Si3 0.220418 0.906808 0.724650
Si Si4 0.085800 0.822557 0.196852
Si Si5 0.202783 0.093063 0.271455
Si Si6 0.252644 0.674013 0.559106
Si Si7 0.505966 0.108182 0.109100
O O1 0.500000 0.500000 0.500000
O O2 0.672212 0.733692 0.265268
O O3 0.588677 0.271530 0.537299
O O4 0.534740 0.274755 0.899609
O O5 0.774262 0.503307 0.290172
O O6 0.933491 0.744815 0.243908
O O7 0.815387 0.751281 0.923492
O O8 0.202389 0.766559 0.674446
O O9 0.376124 0.927249 0.750256
O O10 0.176004 0.043502 0.523189
O O11 0.140377 0.869752 0.951059
O O12 0.173442 0.710821 0.357063
O O13 0.117492 0.969171 0.227548
O O14 0.360105 0.084819 0.233093
O O15 0.500000 0.000000 0.000000
#
# Coordination Sequence:
#
# PCOD9015619 Si02
#       7
#     2   2   2   2   2   2   2
#     4   9  19  38  62  86 118 153 198 246 295 348
#     4  10  22  39  64  88 125 161 194 246 305 350
#     4  11  22  37  64  89 123 154 203 248 292 355
#     4  11  21  40  65  87 122 163 198 243 295 358
#     4  10  22  38  59  90 123 156 201 245 297 351
#     4  10  21  42  64  89 117 159 206 244 292 357
#     4  11  18  37  62  88 114 158 201 244 294 352
#
# _framework density 21.989443999999999
#
# number of rings (size 3 to 8) (size 9 to 14) (size 15 to 20)
#    0.000    1.714    2.857    2.143    0.000    1.143 
#    0.000    9.286    6.286    0.000    0.000    0.000 
#    0.000    0.000    0.000    0.000    0.000    0.000 
#
# Total GULP energy -78228.989219 kJ/mol
# GULP energy per Si atom -5587.784944 kJ/mol
# Density = 2.193940 g / cm^3
# Si number density = 21.989444 Si / 1000 Ang^3
#
#
#
# Elastic Constant Matrix: (Units=GPa)
#
#
# Indices 1 2 3 4 5 6 
#
# 1 114.1912 24.4836 39.8105 2.3832 10.9129 22.0259
# 2 24.4836 52.0759 63.4414 -18.7416 7.0431 9.4937
# 3 39.8105 63.4414 169.2363 -11.8636 17.1910 -1.6066
# 4 2.3832 -18.7416 -11.8636 35.7316 -7.8120 7.2410
# 5 10.9129 7.0431 17.1910 -7.8120 22.4317 -6.3606
# 6 22.0259 9.4937 -1.6066 7.2410 -6.3606 29.9713
#
#
#
# Elastic Compliance Matrix: (Units=1/GPa)
#
#
# Indices 1 2 3 4 5 6 
#
# 1 0.012380 -0.001399 -0.001835 -0.001824 -0.007628 -0.009931
# 2 -0.001399 0.060785 -0.020614 0.030639 0.000515 -0.026624
# 3 -0.001835 -0.020614 0.013900 -0.008879 -0.003539 0.010017
# 4 -0.001824 0.030639 -0.008879 0.046946 0.009255 -0.018219
# 5 -0.007628 0.000515 -0.003539 0.009255 0.058437 0.015419
# 6 -0.009931 -0.026624 0.010017 -0.018219 0.015419 0.057308
#
#
# Mechanical properties :
#
#
# Convention : Reuss Voigt Hill
#
# Bulk Modulus (GPa) = 25.40144 65.66384 45.53264
# Shear Modulus (GPa) = 16.09917 31.47813 23.78865
#
# Velocity S-wave (km/s) = 2.70873 3.78764 3.29267
# Velocity P-wave (km/s) = 4.62165 7.00390 5.93356
#
# Compressibility (1/GPa) = 0.03936785
#
# Stress axis : x y z
#
# Youngs Moduli (GPa) = 80.77809 16.45148 71.94027
#
# Poissons Ratio (x) = 0.02302 0.13200
# Poissons Ratio (y) = 0.11303 1.48300
# Poissons Ratio (z) = 0.14822 0.33914
#
# Static dielectric constant tensor:
#      x y z
#    x 1.829870 -0.020370 0.000040 
#    y -0.020370 1.791120 -0.039900 
#    z 0.000040 -0.039900 1.825510 
# 
# From -- ./inp_files/65662.got.cif
#   From: 2010.05.17/outbox.cif.g08.bks.cpg/sg2_33_cif.got.tgz:65662.got - 2010.06.03 11:33:40.
