data_PCOD9015141
_publ_section_title
;
Structure prediction by ZEFSAII (Michael W. Deem and Ramdas Pophale) SiO2 
 PCOD9015141
Probable space group: P -1
;
_chemical_formula_sum "Si O2"
_cell_formula_units_Z 9
_cell_length_a 14.453521
_cell_length_b 18.801407
_cell_length_c 10.647652
_cell_angle_alpha 19.469622
_cell_angle_beta 153.424063
_cell_angle_gamma 161.800608
_cell_volume 301.185706
_symmetry_space_group_name_H-M "P -1"
_symmetry_group_IT_number 2
_symmetry_cell_setting 'triclinic'
loop_
_space_group_symop_operation_xyz
x,y,z
-x,-y,-z
loop_
_atom_site_type_symbol
_atom_site_label
_atom_site_fract_x
_atom_site_fract_y
_atom_site_fract_z
Si Si1 0.976391 0.965873 0.281829
Si Si2 0.842308 0.512034 0.507253
Si Si3 0.000000 0.500000 0.500000
Si Si4 0.492283 0.397901 0.490037
Si Si5 0.651317 0.078662 0.350743
O O1 0.708334 0.746229 0.220206
O O2 0.827330 0.805144 0.499820
O O3 0.218552 0.987225 0.485556
O O4 0.084488 0.292231 0.858294
O O5 0.561397 0.399140 0.427196
O O6 0.835160 0.294713 0.780036
O O7 0.101213 0.722111 0.572194
O O8 0.337759 0.758104 0.548578
O O9 0.622711 0.291348 0.902632
#
# Coordination Sequence:
#
# PCOD9015141 Si02
#       5
#     2   2   1   2   2
#     4  10  21  41  71  99 124 170 220 264 327 382
#     4  11  23  45  68  96 132 171 215 269 323 382
#     4  12  26  40  68  96 134 178 212 260 328 386
#     4  10  21  41  71  99 124 170 220 264 327 382
#     4  11  23  45  68  96 132 171 215 269 323 382
#
# _framework density 29.881893999999999
#
# number of rings (size 3 to 8) (size 9 to 14) (size 15 to 20)
#    0.000    1.333    2.222    6.000    0.000    1.778 
#    4.000    1.111    0.000    0.000    0.000    0.000 
#    0.000    0.000    0.000    0.000    0.000    0.000 
#
# Total GULP energy -50344.605312 kJ/mol
# GULP energy per Si atom -5593.845035 kJ/mol
# Density = 2.981388 g / cm^3
# Si number density = 29.881894 Si / 1000 Ang^3
#
#
#
# Elastic Constant Matrix: (Units=GPa)
#
#
# Indices 1 2 3 4 5 6 
#
# 1 293.4757 66.4325 4.0714 -0.9021 2.7834 26.8037
# 2 66.4325 128.3420 25.5478 -1.8309 -4.4268 18.1464
# 3 4.0714 25.5478 114.2314 1.8497 6.4461 0.0929
# 4 -0.9021 -1.8309 1.8497 44.5662 9.2634 7.3255
# 5 2.7834 -4.4268 6.4461 9.2634 35.0826 -6.2235
# 6 26.8037 18.1464 0.0929 7.3255 -6.2235 93.3518
#
#
#
# Elastic Compliance Matrix: (Units=1/GPa)
#
#
# Indices 1 2 3 4 5 6 
#
# 1 0.003944 -0.002022 0.000356 0.000295 -0.000857 -0.000820
# 2 -0.002022 0.009487 -0.002136 0.000332 0.001451 -0.001191
# 3 0.000356 -0.002136 0.009331 -0.000091 -0.001956 0.000180
# 4 0.000295 0.000332 -0.000091 0.024293 -0.006825 -0.002510
# 5 -0.000857 0.001451 -0.001956 -0.006825 0.031377 0.002593
# 6 -0.000820 -0.001191 0.000180 -0.002510 0.002593 0.011549
#
#
# Mechanical properties :
#
#
# Convention : Reuss Voigt Hill
#
# Bulk Modulus (GPa) = 65.97247 80.90582 73.43914
# Shear Modulus (GPa) = 48.71569 63.93326 56.32447
#
# Velocity S-wave (km/s) = 4.04205 4.63053 4.34626
# Velocity P-wave (km/s) = 6.62645 7.46478 7.05807
#
# Compressibility (1/GPa) = 0.01515784
#
# Stress axis : x y z
#
# Youngs Moduli (GPa) = 253.54408 105.41292 107.17099
#
# Poissons Ratio (x) = 0.21312 -0.03814
# Poissons Ratio (y) = 0.51261 0.22890
# Poissons Ratio (z) = -0.09022 0.22515
#
# Static dielectric constant tensor:
#      x y z
#    x 2.846960 0.015080 0.427910 
#    y 0.015080 2.333610 -0.043660 
#    z 0.427910 -0.043660 2.635950 
# 
# From -- ./inp_files/161900.got.cif
#   From: 2010.05.17/outbox.cif.g08.bks.cpg/sg2_81_cif.got.tgz:161900.got - 2010.06.03 11:33:40.
