data_PCOD9015590
_publ_section_title
;
Structure prediction by ZEFSAII (Michael W. Deem and Ramdas Pophale) SiO2 
 PCOD9015590
Probable space group: P -1
;
_chemical_formula_sum "Si O2"
_cell_formula_units_Z 14
_cell_length_a 7.252798
_cell_length_b 12.919936
_cell_length_c 8.916044
_cell_angle_alpha 130.779920
_cell_angle_beta 106.540998
_cell_angle_gamma 95.685481
_cell_volume 557.759820
_symmetry_space_group_name_H-M "P -1"
_symmetry_group_IT_number 2
_symmetry_cell_setting 'triclinic'
loop_
_space_group_symop_operation_xyz
x,y,z
-x,-y,-z
loop_
_atom_site_type_symbol
_atom_site_label
_atom_site_fract_x
_atom_site_fract_y
_atom_site_fract_z
Si Si1 0.637304 0.692915 0.787854
Si Si2 0.352090 0.887112 0.190741
Si Si3 0.451712 0.768117 0.381317
Si Si4 0.310304 0.413975 0.600553
Si Si5 0.021424 0.669881 0.335972
Si Si6 0.330715 0.834268 0.802787
Si Si7 0.055469 0.144074 0.749260
O O1 0.515297 0.555616 0.737360
O O2 0.764979 0.654300 0.648233
O O3 0.457160 0.730630 0.700625
O O4 0.772827 0.825176 0.053146
O O5 0.459407 0.801298 0.236729
O O6 0.154017 0.876134 0.230618
O O7 0.492813 0.064572 0.381383
O O8 0.274376 0.812015 0.943179
O O9 0.618509 0.702690 0.406708
O O10 0.219721 0.659892 0.283954
O O11 0.147501 0.446702 0.702689
O O12 0.903911 0.720782 0.228171
O O13 0.000000 0.000000 0.500000
O O14 0.141213 0.796851 0.609000
O O15 0.500000 0.000000 0.000000
#
# Coordination Sequence:
#
# PCOD9015590 Si02
#       7
#     2   2   2   2   2   2   2
#     4  11  26  44  68 100 136 181 224 277 336 404
#     4  10  22  39  67  96 138 174 219 281 344 384
#     4  10  21  42  64 100 132 174 220 284 330 398
#     4  11  24  47  68  94 142 179 229 271 334 402
#     4  11  23  40  68  96 131 177 223 273 334 398
#     4  12  22  41  67 100 133 173 228 280 336 394
#     4  11  24  42  67 104 133 172 228 280 340 400
#
# _framework density 25.100413
#
# number of rings (size 3 to 8) (size 9 to 14) (size 15 to 20)
#    0.000    1.143    2.857    2.571    6.000    1.143 
#    2.571    5.714    0.000    0.000    0.000    0.000 
#    0.000    0.000    0.000    0.000    0.000    0.000 
#
# Total GULP energy -78267.445237 kJ/mol
# GULP energy per Si atom -5590.531803 kJ/mol
# Density = 2.504328 g / cm^3
# Si number density = 25.100413 Si / 1000 Ang^3
#
#
#
# Elastic Constant Matrix: (Units=GPa)
#
#
# Indices 1 2 3 4 5 6 
#
# 1 75.8872 27.2968 6.5574 -11.1034 -1.1063 27.8593
# 2 27.2968 94.7918 11.5323 -3.7106 13.1254 12.0829
# 3 6.5574 11.5323 55.8974 -15.2213 2.5313 -11.3137
# 4 -11.1034 -3.7106 -15.2213 32.3307 2.4685 -3.2523
# 5 -1.1063 13.1254 2.5313 2.4685 31.3768 -15.3037
# 6 27.8593 12.0829 -11.3137 -3.2523 -15.3037 40.8483
#
#
#
# Elastic Compliance Matrix: (Units=1/GPa)
#
#
# Indices 1 2 3 4 5 6 
#
# 1 0.021055 -0.002363 -0.004066 0.003840 -0.006493 -0.016914
# 2 -0.002363 0.013759 -0.003852 -0.001068 -0.008816 -0.006913
# 3 -0.004066 -0.003852 0.024576 0.010693 0.005246 0.013536
# 4 0.003840 -0.001068 0.010693 0.037597 -0.001783 0.002984
# 5 -0.006493 -0.008816 0.005246 -0.001783 0.047864 0.026279
# 6 -0.016914 -0.006913 0.013536 0.002984 0.026279 0.051894
#
#
# Mechanical properties :
#
#
# Convention : Reuss Voigt Hill
#
# Bulk Modulus (GPa) = 25.75582 35.26103 30.50843
# Shear Modulus (GPa) = 21.71558 32.99049 27.35303
#
# Velocity S-wave (km/s) = 2.94453 3.62932 3.30471
# Velocity P-wave (km/s) = 4.67373 5.62504 5.17131
#
# Compressibility (1/GPa) = 0.03882617
#
# Stress axis : x y z
#
# Youngs Moduli (GPa) = 47.49354 72.68186 40.69079
#
# Poissons Ratio (x) = 0.17176 0.16546
# Poissons Ratio (y) = 0.11224 0.15675
# Poissons Ratio (z) = 0.19313 0.27999
#
# Static dielectric constant tensor:
#      x y z
#    x 1.986040 0.027240 -0.022480 
#    y 0.027240 2.028330 -0.005660 
#    z -0.022480 -0.005660 1.991330 
# 
# From -- ./inp_files/182808.got.cif
#   From: 2010.05.17/outbox.cif.g08.bks.cpg/sg2_92_cif.got.tgz:182808.got - 2010.06.03 11:33:40.
