data_PCOD9015665
_publ_section_title
;
Structure prediction by ZEFSAII (Michael W. Deem and Ramdas Pophale) SiO2 
 PCOD9015665
Probable space group: P -1
;
_chemical_formula_sum "Si O2"
_cell_formula_units_Z 16
_cell_length_a 11.342850
_cell_length_b 13.809387
_cell_length_c 13.714095
_cell_angle_alpha 57.196713
_cell_angle_beta 46.610676
_cell_angle_gamma 35.052654
_cell_volume 895.471205
_symmetry_space_group_name_H-M "P -1"
_symmetry_group_IT_number 2
_symmetry_cell_setting 'triclinic'
loop_
_space_group_symop_operation_xyz
x,y,z
-x,-y,-z
loop_
_atom_site_type_symbol
_atom_site_label
_atom_site_fract_x
_atom_site_fract_y
_atom_site_fract_z
Si Si1 0.233883 0.632754 0.229587
Si Si2 0.902444 0.124373 0.224686
Si Si3 0.388183 0.719672 0.429397
Si Si4 0.120146 0.048652 0.494341
Si Si5 0.462206 0.282345 0.248621
Si Si6 0.569995 0.466595 0.315732
Si Si7 0.251116 0.169622 0.504425
Si Si8 0.221670 0.889916 0.007511
O O1 0.345057 0.467555 0.199947
O O2 0.372063 0.568528 0.289086
O O3 0.264735 0.737445 0.101696
O O4 0.960225 0.749206 0.345546
O O5 0.682984 0.188073 0.249461
O O6 0.812483 0.294055 0.223273
O O7 0.934907 0.018128 0.353209
O O8 0.131345 0.006950 0.088951
O O9 0.553246 0.595213 0.313722
O O10 0.481286 0.604740 0.534596
O O11 0.123220 0.809606 0.504369
O O12 0.327648 0.882444 0.402250
O O13 0.198746 0.122331 0.463651
O O14 0.280382 0.287925 0.397021
O O15 0.562666 0.182538 0.143810
O O16 0.500000 0.000000 0.500000
O O17 0.000000 0.000000 0.000000
#
# Coordination Sequence:
#
# PCOD9015665 Si02
#       8
#     2   2   2   2   2   2   2   2
#     4  11  20  34  51  73 107 137 172 213 255 305
#     4   9  16  30  49  72 102 136 171 206 247 307
#     4   9  17  29  48  76 106 124 173 224 253 287
#     4  10  17  30  50  74 103 137 170 209 257 295
#     4  10  21  31  47  76 107 141 170 204 253 305
#     4   9  17  29  49  78 101 125 165 224 266 282
#     4  12  20  33  50  75 109 145 166 200 259 322
#     4  10  18  33  50  71 100 141 179 208 240 306
#
# _framework density 17.867687
#
# number of rings (size 3 to 8) (size 9 to 14) (size 15 to 20)
#    0.000    2.000    3.750    1.500    0.000    0.000 
#    0.000    0.000    0.000    0.000    0.000   15.750 
#    0.000    0.000    0.000    0.000    0.000    0.000 
#
# Total GULP energy -89145.855155 kJ/mol
# GULP energy per Si atom -5571.615947 kJ/mol
# Density = 1.782702 g / cm^3
# Si number density = 17.867687 Si / 1000 Ang^3
#
#
#
# Elastic Constant Matrix: (Units=GPa)
#
#
# Indices 1 2 3 4 5 6 
#
# 1 44.1980 11.3270 1.5172 0.7178 14.0697 4.7801
# 2 11.3270 71.4265 5.3322 -5.0408 14.4165 -1.3980
# 3 1.5172 5.3322 40.2870 5.2195 13.2348 -3.4804
# 4 0.7178 -5.0408 5.2195 22.8795 6.1550 15.2341
# 5 14.0697 14.4165 13.2348 6.1550 19.9322 6.9031
# 6 4.7801 -1.3980 -3.4804 15.2341 6.9031 37.6737
#
#
#
# Elastic Compliance Matrix: (Units=1/GPa)
#
#
# Indices 1 2 3 4 5 6 
#
# 1 0.031493 0.000781 0.007732 0.005386 -0.029589 -0.000009
# 2 0.000781 0.017822 0.002605 0.007381 -0.017826 0.001085
# 3 0.007732 0.002605 0.037192 -0.006651 -0.033953 0.011462
# 4 0.005386 0.007381 -0.006651 0.068227 -0.016959 -0.025505
# 5 -0.029589 -0.017826 -0.033953 -0.016959 0.116782 -0.014585
# 6 -0.000009 0.001085 0.011462 -0.025505 -0.014585 0.040630
#
#
# Mechanical properties :
#
#
# Convention : Reuss Voigt Hill
#
# Bulk Modulus (GPa) = 9.19594 21.36270 15.27932
# Shear Modulus (GPa) = 15.33006 25.27943 20.30474
#
# Velocity S-wave (km/s) = 2.93230 3.76548 3.37470
# Velocity P-wave (km/s) = 4.07706 5.55762 4.87389
#
# Compressibility (1/GPa) = 0.10874358
#
# Stress axis : x y z
#
# Youngs Moduli (GPa) = 31.75356 56.10956 26.88754
#
# Poissons Ratio (x) = -0.04380 -0.20791
# Poissons Ratio (y) = -0.02479 -0.07005
# Poissons Ratio (z) = -0.24553 -0.14618
#
# Static dielectric constant tensor:
#      x y z
#    x 1.621450 0.032580 0.046020 
#    y 0.032580 1.665510 0.029720 
#    z 0.046020 0.029720 1.591730 
# 
# From -- ./inp_files/178952.got.cif
#   From: 2010.05.17/outbox.cif.g08.bks.cpg/sg2_90_cif.got.tgz:178952.got - 2010.06.03 11:33:40.
