data_PCOD9015900
_publ_section_title
;
Structure prediction by ZEFSAII (Michael W. Deem and Ramdas Pophale) SiO2 
 PCOD9015900
Probable space group: P -1
;
_chemical_formula_sum "Si O2"
_cell_formula_units_Z 14
_cell_length_a 10.708386
_cell_length_b 11.742971
_cell_length_c 6.902606
_cell_angle_alpha 84.355280
_cell_angle_beta 66.625664
_cell_angle_gamma 49.825228
_cell_volume 593.221219
_symmetry_space_group_name_H-M "P -1"
_symmetry_group_IT_number 2
_symmetry_cell_setting 'triclinic'
loop_
_space_group_symop_operation_xyz
x,y,z
-x,-y,-z
loop_
_atom_site_type_symbol
_atom_site_label
_atom_site_fract_x
_atom_site_fract_y
_atom_site_fract_z
Si Si1 0.355341 0.643894 0.924021
Si Si2 0.575778 0.817734 0.762461
Si Si3 0.112559 0.524597 0.297250
Si Si4 0.883145 0.418828 0.118142
Si Si5 0.290461 0.884592 0.201105
Si Si6 0.514603 0.708134 0.475922
Si Si7 0.092802 0.201895 0.373345
O O1 0.215813 0.630077 0.926942
O O2 0.445572 0.649148 0.675474
O O3 0.500000 0.500000 0.000000
O O4 0.265198 0.795842 0.080206
O O5 0.686187 0.639616 0.787530
O O6 0.506692 0.828539 0.587729
O O7 0.719624 0.840123 0.672516
O O8 0.413355 0.908634 0.000835
O O9 0.000000 0.500000 0.500000
O O10 0.063738 0.672495 0.400536
O O11 0.045765 0.551945 0.115076
O O12 0.721182 0.568585 0.310781
O O13 0.033405 0.288625 0.191197
O O14 0.398612 0.780505 0.339980
O O15 0.120520 0.052299 0.353169
#
# Coordination Sequence:
#
# PCOD9015900 Si02
#       7
#     2   2   2   2   2   2   2
#     4  11  24  42  71  98 124 169 235 268 307 405
#     4  10  21  42  65  96 131 172 225 258 316 410
#     4  10  22  40  63  99 130 166 219 263 314 399
#     4  12  23  41  70  96 132 176 215 270 332 377
#     4  11  24  43  66  97 132 171 221 275 321 380
#     4  11  22  40  73  96 122 177 225 264 327 382
#     4  11  26  40  63 100 140 167 210 277 336 376
#
# _framework density 23.599966999999999
#
# number of rings (size 3 to 8) (size 9 to 14) (size 15 to 20)
#    0.000    1.143    4.286    1.714    0.000    8.000 
#    0.000    1.429    0.000    0.000    0.000    0.000 
#    0.000    0.000    0.000    0.000    0.000    0.000 
#
# Total GULP energy -78338.857251 kJ/mol
# GULP energy per Si atom -5595.632661 kJ/mol
# Density = 2.354625 g / cm^3
# Si number density = 23.599967 Si / 1000 Ang^3
#
#
#
# Elastic Constant Matrix: (Units=GPa)
#
#
# Indices 1 2 3 4 5 6 
#
# 1 52.3132 -11.7200 26.9505 -6.9987 10.8889 10.8878
# 2 -11.7200 81.2060 27.7760 27.1089 -4.3823 10.4687
# 3 26.9505 27.7760 157.3706 -4.0764 12.1840 7.7250
# 4 -6.9987 27.1089 -4.0764 47.1895 3.5577 8.8882
# 5 10.8889 -4.3823 12.1840 3.5577 31.7303 -2.1165
# 6 10.8878 10.4687 7.7250 8.8882 -2.1165 22.3889
#
#
#
# Elastic Compliance Matrix: (Units=1/GPa)
#
#
# Indices 1 2 3 4 5 6 
#
# 1 0.028945 0.005940 -0.004288 0.004607 -0.009188 -0.018072
# 2 0.005940 0.018786 -0.004502 -0.009367 0.002926 -0.006124
# 3 -0.004288 -0.004502 0.008159 0.002852 -0.002603 -0.000003
# 4 0.004607 -0.009367 0.002852 0.030309 -0.008145 -0.011647
# 5 -0.009188 0.002926 -0.002603 -0.008145 0.037706 0.010796
# 6 -0.018072 -0.006124 -0.000003 -0.011647 0.010796 0.061963
#
#
# Mechanical properties :
#
#
# Convention : Reuss Voigt Hill
#
# Bulk Modulus (GPa) = 19.92354 41.87810 30.90082
# Shear Modulus (GPa) = 24.00424 36.78731 30.39577
#
# Velocity S-wave (km/s) = 3.19271 3.95243 3.59271
# Velocity P-wave (km/s) = 4.69592 6.21389 5.50746
#
# Compressibility (1/GPa) = 0.05019189
#
# Stress axis : x y z
#
# Youngs Moduli (GPa) = 34.54771 53.23196 122.56694
#
# Poissons Ratio (x) = -0.31620 0.52553
# Poissons Ratio (y) = -0.20522 0.55174
# Poissons Ratio (z) = 0.14813 0.23962
#
# Static dielectric constant tensor:
#      x y z
#    x 1.957410 0.065540 -0.022510 
#    y 0.065540 1.935760 0.005040 
#    z -0.022510 0.005040 1.885290 
# 
# From -- ./inp_files/68936.got.cif
#   From: 2010.05.17/outbox.cif.g08.bks.cpg/sg2_35_cif.got.tgz:68936.got - 2010.06.03 11:33:40.
