data_PCOD9015690
_publ_section_title
;
Structure prediction by ZEFSAII (Michael W. Deem and Ramdas Pophale) SiO2 
 PCOD9015690
Probable space group: P -1
;
_chemical_formula_sum "Si O2"
_cell_formula_units_Z 16
_cell_length_a 6.086595
_cell_length_b 5.079663
_cell_length_c 21.615001
_cell_angle_alpha 114.612557
_cell_angle_beta 101.470706
_cell_angle_gamma 90.429979
_cell_volume 592.368678
_symmetry_space_group_name_H-M "P -1"
_symmetry_group_IT_number 2
_symmetry_cell_setting 'triclinic'
loop_
_space_group_symop_operation_xyz
x,y,z
-x,-y,-z
loop_
_atom_site_type_symbol
_atom_site_label
_atom_site_fract_x
_atom_site_fract_y
_atom_site_fract_z
Si Si1 0.223431 0.949495 0.545711
Si Si2 0.019245 0.224990 0.672791
Si Si3 0.347177 0.779759 0.779679
Si Si4 0.307263 0.483822 0.155460
Si Si5 0.861349 0.143863 0.059546
Si Si6 0.661553 0.963988 0.704767
Si Si7 0.372661 0.573767 0.420547
Si Si8 0.386203 0.295367 0.905735
O O1 0.285023 0.643977 0.490768
O O2 0.413074 0.203012 0.560871
O O3 0.000000 0.000000 0.500000
O O4 0.162231 0.020775 0.619403
O O5 0.817004 0.337574 0.630937
O O6 0.163852 0.513138 0.731994
O O7 0.919036 0.022261 0.702771
O O8 0.499061 0.723980 0.842388
O O9 0.524638 0.791295 0.734544
O O10 0.269263 0.093256 0.823436
O O11 0.063362 0.308184 0.128740
O O12 0.366558 0.630527 0.105823
O O13 0.355227 0.715220 0.236472
O O14 0.718140 0.404309 0.058192
O O15 0.697149 0.893728 0.058171
O O16 0.000000 0.000000 0.000000
O O17 0.581229 0.758185 0.621636
#
# Coordination Sequence:
#
# PCOD9015690 Si02
#       8
#     2   2   2   2   2   2   2   2
#     4   9  20  42  63  88 136 181 228 303 362 434
#     4  11  23  40  67  96 136 179 235 298 372 425
#     4  11  24  46  69 104 146 186 237 300 366 429
#     4  11  27  46  73 106 151 188 243 302 364 432
#     4  12  28  49  78 112 150 196 246 296 360 437
#     4  11  24  38  71  99 132 182 240 292 365 429
#     4  10  21  42  64  94 133 176 240 299 358 442
#     4  11  26  49  74 108 149 195 242 298 366 429
#
# _framework density 27.010207000000001
#
# number of rings (size 3 to 8) (size 9 to 14) (size 15 to 20)
#    0.000    1.250    2.500    1.875    5.250    2.500 
#    0.000    5.625    0.000    0.000    0.000    0.000 
#    0.000    0.000    0.000    0.000    0.000    0.000 
#
# Total GULP energy -89405.144602 kJ/mol
# GULP energy per Si atom -5587.821538 kJ/mol
# Density = 2.694873 g / cm^3
# Si number density = 27.010207 Si / 1000 Ang^3
#
#
#
# Elastic Constant Matrix: (Units=GPa)
#
#
# Indices 1 2 3 4 5 6 
#
# 1 115.3318 52.8299 56.6956 15.9168 -9.8186 18.9699
# 2 52.8299 133.3832 52.2191 19.2990 -11.1064 17.8380
# 3 56.6956 52.2191 154.0384 29.0966 -37.3387 8.8316
# 4 15.9168 19.2990 29.0966 34.1258 3.9628 -10.5103
# 5 -9.8186 -11.1064 -37.3387 3.9628 84.5029 6.5220
# 6 18.9699 17.8380 8.8316 -10.5103 6.5220 40.3669
#
#
#
# Elastic Compliance Matrix: (Units=1/GPa)
#
#
# Indices 1 2 3 4 5 6 
#
# 1 0.012608 -0.002676 -0.002559 -0.003880 0.000573 -0.005285
# 2 -0.002676 0.010469 -0.000941 -0.005497 0.001278 -0.004801
# 3 -0.002559 -0.000941 0.011077 -0.009607 0.005245 -0.004154
# 4 -0.003880 -0.005497 -0.009607 0.049928 -0.009370 0.020868
# 5 0.000573 0.001278 0.005245 -0.009370 0.015358 -0.006902
# 6 -0.005285 -0.004801 -0.004154 0.020868 -0.006902 0.036835
#
#
# Mechanical properties :
#
#
# Convention : Reuss Voigt Hill
#
# Bulk Modulus (GPa) = 45.86579 80.69363 63.27971
# Shear Modulus (GPa) = 32.07315 47.86640 39.96977
#
# Velocity S-wave (km/s) = 3.44967 4.21427 3.85099
# Velocity P-wave (km/s) = 5.73452 7.32258 6.57666
#
# Compressibility (1/GPa) = 0.02180274
#
# Stress axis : x y z
#
# Youngs Moduli (GPa) = 79.31646 95.51807 90.27925
#
# Poissons Ratio (x) = 0.25562 0.23098
# Poissons Ratio (y) = 0.21226 0.08493
# Poissons Ratio (z) = 0.20294 0.08986
#
# Static dielectric constant tensor:
#      x y z
#    x 2.130380 -0.110700 0.011020 
#    y -0.110700 2.173210 -0.056560 
#    z 0.011020 -0.056560 2.142340 
# 
# From -- ./inp_files/603440.got.cif
#   From: 2010.05.17/outbox.cif.g08.bks.cpg/sg2_302_cif.got.tgz:603440.got - 2010.06.03 11:33:40.
