data_PCOD9015339
_publ_section_title
;
Structure prediction by ZEFSAII (Michael W. Deem and Ramdas Pophale) SiO2 
 PCOD9015339
Probable space group: P -1
;
_chemical_formula_sum "Si O2"
_cell_formula_units_Z 14
_cell_length_a 25.431955
_cell_length_b 5.009504
_cell_length_c 7.675324
_cell_angle_alpha 101.931719
_cell_angle_beta 143.840239
_cell_angle_gamma 79.954710
_cell_volume 564.454753
_symmetry_space_group_name_H-M "P -1"
_symmetry_group_IT_number 2
_symmetry_cell_setting 'triclinic'
loop_
_space_group_symop_operation_xyz
x,y,z
-x,-y,-z
loop_
_atom_site_type_symbol
_atom_site_label
_atom_site_fract_x
_atom_site_fract_y
_atom_site_fract_z
Si Si1 0.686547 0.876478 0.567135
Si Si2 0.136428 0.419228 0.970232
Si Si3 0.761838 0.180726 0.472235
Si Si4 0.598535 0.483380 0.011789
Si Si5 0.085846 0.146302 0.333028
Si Si6 0.486567 0.983527 0.751839
Si Si7 0.056908 0.729015 0.477284
O O1 0.634476 0.619748 0.307173
O O2 0.620140 0.026423 0.543680
O O3 0.711540 0.060566 0.491481
O O4 0.777594 0.760603 0.873361
O O5 0.106924 0.634440 0.772905
O O6 0.048696 0.258979 0.769030
O O7 0.170213 0.593101 0.248390
O O8 0.687995 0.323468 0.169993
O O9 0.822433 0.941208 0.523913
O O10 0.524784 0.258148 0.813932
O O11 0.547874 0.733142 0.815410
O O12 0.087515 0.004151 0.507638
O O13 0.072941 0.468455 0.358748
O O14 0.000000 0.000000 0.000000
O O15 0.500000 0.000000 0.000000
#
# Coordination Sequence:
#
# PCOD9015339 Si02
#       7
#     2   2   2   2   2   2   2
#     4  10  20  32  57  87 123 149 194 244 296 344
#     4  10  24  39  62  88 118 159 200 247 290 350
#     4  11  22  35  62  90 124 152 200 244 295 347
#     4  10  19  31  50  84 124 152 182 240 302 342
#     4  12  25  42  62  88 118 159 197 246 296 352
#     4  10  17  30  49  81 125 148 184 238 306 337
#     4  11  26  44  61  84 123 160 199 241 298 349
#
# _framework density 24.802695
#
# number of rings (size 3 to 8) (size 9 to 14) (size 15 to 20)
#    0.000    1.429    4.286    3.000    8.000    1.143 
#    0.000    0.000    0.000    0.000    0.000    6.000 
#    0.000    0.000    0.000    0.000    0.000    0.000 
#
# Total GULP energy -78350.125502 kJ/mol
# GULP energy per Si atom -5596.437536 kJ/mol
# Density = 2.474624 g / cm^3
# Si number density = 24.802695 Si / 1000 Ang^3
#
#
#
# Elastic Constant Matrix: (Units=GPa)
#
#
# Indices 1 2 3 4 5 6 
#
# 1 51.2197 21.2101 56.1698 -2.3711 17.6474 -2.4207
# 2 21.2101 109.9715 48.6159 -18.2686 14.7020 -0.5166
# 3 56.1698 48.6159 115.7673 -31.5386 40.7357 -16.0092
# 4 -2.3711 -18.2686 -31.5386 34.5987 -15.2600 11.9556
# 5 17.6474 14.7020 40.7357 -15.2600 31.6623 -9.9247
# 6 -2.4207 -0.5166 -16.0092 11.9556 -9.9247 47.8604
#
#
#
# Elastic Compliance Matrix: (Units=1/GPa)
#
#
# Indices 1 2 3 4 5 6 
#
# 1 0.057211 0.000097 -0.035604 -0.027848 -0.000205 -0.002101
# 2 0.000097 0.011521 -0.004980 0.003033 0.001867 -0.001907
# 3 -0.035604 -0.004980 0.041454 0.023518 -0.019163 0.002163
# 4 -0.027848 0.003033 0.023518 0.055975 0.009074 -0.005610
# 5 -0.000205 0.001867 -0.019163 0.009074 0.061114 0.004006
# 6 -0.002101 -0.001907 0.002163 -0.005610 0.004006 0.023723
#
#
# Mechanical properties :
#
#
# Convention : Reuss Voigt Hill
#
# Bulk Modulus (GPa) = 34.23258 58.77222 46.50240
# Shear Modulus (GPa) = 14.63233 32.88846 23.76040
#
# Velocity S-wave (km/s) = 2.43152 3.64538 3.09848
# Velocity P-wave (km/s) = 4.65993 6.43939 5.62053
#
# Compressibility (1/GPa) = 0.02921194
#
# Stress axis : x y z
#
# Youngs Moduli (GPa) = 17.47919 86.79579 24.12335
#
# Poissons Ratio (x) = -0.00842 0.85889
# Poissons Ratio (y) = -0.00170 0.12013
# Poissons Ratio (z) = 0.62233 0.43222
#
# Static dielectric constant tensor:
#      x y z
#    x 2.002530 -0.064780 -0.019620 
#    y -0.064780 1.981140 -0.023030 
#    z -0.019620 -0.023030 2.023190 
# 
# From -- ./inp_files/111540.got.cif
#   From: 2010.05.17/outbox.cif.g08.bks.cpg/sg2_56_cif.got.tgz:111540.got - 2010.06.03 11:33:40.
