data_PCOD9015159
_publ_section_title
;
Structure prediction by ZEFSAII (Michael W. Deem and Ramdas Pophale) SiO2 
 PCOD9015159
Probable space group: P -1
;
_chemical_formula_sum "Si O2"
_cell_formula_units_Z 16
_cell_length_a 22.720831
_cell_length_b 16.761782
_cell_length_c 5.189300
_cell_angle_alpha 102.865371
_cell_angle_beta 75.397038
_cell_angle_gamma 159.149412
_cell_volume 680.224720
_symmetry_space_group_name_H-M "P -1"
_symmetry_group_IT_number 2
_symmetry_cell_setting 'triclinic'
loop_
_space_group_symop_operation_xyz
x,y,z
-x,-y,-z
loop_
_atom_site_type_symbol
_atom_site_label
_atom_site_fract_x
_atom_site_fract_y
_atom_site_fract_z
Si Si1 0.827479 0.331641 0.625185
Si Si2 0.125653 0.029977 0.352425
Si Si3 0.311048 0.548640 0.152064
Si Si4 0.516497 0.822602 0.641869
Si Si5 0.908380 0.525458 0.190644
Si Si6 0.145081 0.205920 0.783333
Si Si7 0.213940 0.962351 0.423896
Si Si8 0.015772 0.788954 0.909605
O O1 0.815468 0.386773 0.457168
O O2 0.000000 0.500000 0.500000
O O3 0.667751 0.073581 0.595147
O O4 0.843768 0.388332 0.934178
O O5 0.184483 0.020137 0.421553
O O6 0.940285 0.837663 0.359794
O O7 0.144312 0.018653 0.031585
O O8 0.204871 0.204191 0.546063
O O9 0.421777 0.730738 0.939657
O O10 0.279388 0.419895 0.965595
O O11 0.123938 0.350455 0.222452
O O12 0.400347 0.666507 0.409791
O O13 0.604793 0.845967 0.616778
O O14 0.910162 0.619486 0.142695
O O15 0.105195 0.767207 0.219732
O O16 0.000000 0.000000 0.000000
O O17 0.118218 0.843010 0.715935
#
# Coordination Sequence:
#
# PCOD9015159 Si02
#       8
#     2   2   2   2   2   2   2   2
#     4  12  23  41  68  98 134 183 238 275 332 414
#     4   9  20  35  71  98 127 165 242 269 323 383
#     4  11  28  45  69 100 146 178 218 282 365 396
#     4  12  28  45  66 101 146 180 217 290 358 396
#     4  11  22  38  71  98 124 173 251 282 314 385
#     4  10  21  41  72 101 131 179 235 274 325 419
#     4  11  23  42  71 101 136 179 235 277 335 409
#     4  10  22  42  71  99 135 180 235 280 334 409
#
# _framework density 23.521636000000001
#
# number of rings (size 3 to 8) (size 9 to 14) (size 15 to 20)
#    0.000    1.250    2.500    2.625   15.750    0.000 
#    0.000    5.000    0.000    0.000    0.000    0.000 
#    0.000    0.000    0.000    0.000    0.000    0.000 
#
# Total GULP energy -89185.269253 kJ/mol
# GULP energy per Si atom -5574.079328 kJ/mol
# Density = 2.346810 g / cm^3
# Si number density = 23.521636 Si / 1000 Ang^3
#
#
#
# Elastic Constant Matrix: (Units=GPa)
#
#
# Indices 1 2 3 4 5 6 
#
# 1 53.7765 -13.8773 10.6073 -5.7607 12.8092 -4.6505
# 2 -13.8773 65.2974 26.4881 6.5668 3.6649 -3.2768
# 3 10.6073 26.4881 127.6554 22.6790 5.9759 8.7564
# 4 -5.7607 6.5668 22.6790 44.4807 -6.9767 -4.0944
# 5 12.8092 3.6649 5.9759 -6.9767 41.0577 4.0606
# 6 -4.6505 -3.2768 8.7564 -4.0944 4.0606 36.2050
#
#
#
# Elastic Compliance Matrix: (Units=1/GPa)
#
#
# Indices 1 2 3 4 5 6 
#
# 1 0.023936 0.007137 -0.004158 0.003541 -0.007488 0.005966
# 2 0.007137 0.019138 -0.004747 0.000344 -0.003605 0.004240
# 3 -0.004158 -0.004747 0.010455 -0.005599 -0.000348 -0.004087
# 4 0.003541 0.000344 -0.005599 0.026747 0.003785 0.004440
# 5 -0.007488 -0.003605 -0.000348 0.003785 0.028096 -0.003927
# 6 0.005966 0.004240 -0.004087 0.004440 -0.003927 0.030702
#
#
# Mechanical properties :
#
#
# Convention : Reuss Voigt Hill
#
# Bulk Modulus (GPa) = 20.00251 32.57393 26.28822
# Shear Modulus (GPa) = 31.39246 39.24943 35.32094
#
# Velocity S-wave (km/s) = 3.65721 4.08935 3.87930
# Velocity P-wave (km/s) = 5.13380 6.01461 5.59158
#
# Compressibility (1/GPa) = 0.04999373
#
# Stress axis : x y z
#
# Youngs Moduli (GPa) = 41.77767 52.25307 95.64357
#
# Poissons Ratio (x) = -0.37294 0.39765
# Poissons Ratio (y) = -0.29818 0.45405
# Poissons Ratio (z) = 0.17370 0.24806
#
# Static dielectric constant tensor:
#      x y z
#    x 2.004790 -0.090490 0.055640 
#    y -0.090490 1.906670 -0.020660 
#    z 0.055640 -0.020660 2.006950 
# 
# From -- ./inp_files/124587.got.cif
#   From: 2010.05.17/outbox.cif.g08.bks.cpg/sg2_63_cif.got.tgz:124587.got - 2010.06.03 11:33:40.
