data_PCOD9015650
_publ_section_title
;
Structure prediction by ZEFSAII (Michael W. Deem and Ramdas Pophale) SiO2 
 PCOD9015650
Probable space group: P -1
;
_chemical_formula_sum "Si O2"
_cell_formula_units_Z 16
_cell_length_a 20.742945
_cell_length_b 17.765114
_cell_length_c 11.417466
_cell_angle_alpha 137.839707
_cell_angle_beta 148.376264
_cell_angle_gamma 19.937983
_cell_volume 709.843816
_symmetry_space_group_name_H-M "P -1"
_symmetry_group_IT_number 2
_symmetry_cell_setting 'triclinic'
loop_
_space_group_symop_operation_xyz
x,y,z
-x,-y,-z
loop_
_atom_site_type_symbol
_atom_site_label
_atom_site_fract_x
_atom_site_fract_y
_atom_site_fract_z
Si Si1 0.940184 0.340277 0.099838
Si Si2 0.115956 0.019212 0.151130
Si Si3 0.035833 0.203016 0.635104
Si Si4 0.277931 0.959331 0.977144
Si Si5 0.394834 0.225298 0.041016
Si Si6 0.630073 0.718004 0.667213
Si Si7 0.355308 0.145715 0.653417
Si Si8 0.708966 0.259815 0.112902
O O1 0.117093 0.292375 0.380317
O O2 0.910202 0.274217 0.081808
O O3 0.107381 0.154683 0.039020
O O4 0.690229 0.590741 0.941240
O O5 0.346666 0.887662 0.430263
O O6 0.240316 0.876392 0.060041
O O7 0.000000 0.000000 0.000000
O O8 0.828067 0.469684 0.633137
O O9 0.926403 0.178074 0.378431
O O10 0.117031 0.102079 0.774582
O O11 0.298125 0.031298 0.781165
O O12 0.336520 0.782451 0.893333
O O13 0.528860 0.834967 0.201629
O O14 0.293648 0.308189 0.112654
O O15 0.298017 0.213345 0.780652
O O16 0.575145 0.872440 0.682304
O O17 0.500000 0.500000 0.000000
#
# Coordination Sequence:
#
# PCOD9015650 Si02
#       8
#     2   2   2   2   2   2   2   2
#     4  10  21  42  64  91 131 165 214 267 312 380
#     4  10  22  40  65  92 126 169 213 263 323 372
#     4  11  23  42  66  96 129 170 210 258 325 376
#     4  10  22  41  64  95 127 168 211 262 321 376
#     4  11  23  41  65  96 127 168 212 260 322 376
#     4  11  22  44  65  93 133 166 212 268 310 379
#     4  10  23  41  67  94 126 171 215 258 320 376
#     4  11  22  41  65  94 127 163 218 263 309 382
#
# _framework density 22.540168000000001
#
# number of rings (size 3 to 8) (size 9 to 14) (size 15 to 20)
#    0.000    1.500    2.500    2.250    0.000    4.000 
#    4.500    1.875    0.000    0.000    0.000    0.000 
#    0.000    0.000    0.000    0.000    0.000    0.000 
#
# Total GULP energy -89301.753120 kJ/mol
# GULP energy per Si atom -5581.359570 kJ/mol
# Density = 2.248887 g / cm^3
# Si number density = 22.540168 Si / 1000 Ang^3
#
#
#
# Elastic Constant Matrix: (Units=GPa)
#
#
# Indices 1 2 3 4 5 6 
#
# 1 19.1612 17.4699 -31.3224 -18.3577 -3.2295 21.0406
# 2 17.4699 106.8849 -5.0899 -6.4904 -0.6199 21.1324
# 3 -31.3224 -5.0899 39.2220 -10.5151 -23.3137 5.6562
# 4 -18.3577 -6.4904 -10.5151 19.9745 -6.6541 -2.4886
# 5 -3.2295 -0.6199 -23.3137 -6.6541 25.8178 16.2032
# 6 21.0406 21.1324 5.6562 -2.4886 16.2032 40.3778
#
#
#
# Elastic Compliance Matrix: (Units=1/GPa)
#
#
# Indices 1 2 3 4 5 6 
#
# 1 0.004525 -0.004405 -0.015287 -0.011662 -0.023003 0.010601
# 2 -0.004405 0.010995 0.000142 -0.000075 0.002684 -0.004561
# 3 -0.015287 0.000142 0.004801 -0.012506 -0.006474 0.009046
# 4 -0.011662 -0.000075 -0.012506 0.029714 -0.014947 0.015698
# 5 -0.023003 0.002684 -0.006474 -0.014947 0.026184 0.000060
# 6 0.010601 -0.004561 0.009046 0.015698 0.000060 0.021305
#
#
# Mechanical properties :
#
#
# Convention : Reuss Voigt Hill
#
# Bulk Modulus (GPa) = -53.25029 14.15368 -19.54831
# Shear Modulus (GPa) = 38.35410 29.51472 33.93441
#
# Velocity S-wave (km/s) = 4.12951 3.62253 3.88430
# Velocity P-wave (km/s) = 0.96892 4.87749 3.38017
#
# Compressibility (1/GPa) = -0.01877924
#
# Stress axis : x y z
#
# Youngs Moduli (GPa) = 221.01200 90.94832 208.28638
#
# Poissons Ratio (x) = 0.40063 3.18402
# Poissons Ratio (y) = 0.97357 -0.02952
# Poissons Ratio (z) = 3.37856 -0.01289
#
# Static dielectric constant tensor:
#      x y z
#    x 1.943930 0.110360 0.020950 
#    y 0.110360 1.900680 -0.008130 
#    z 0.020950 -0.008130 1.804190 
# 
# From -- ./inp_files/273564.got.cif
#   From: 2010.05.17/outbox.cif.g08.bks.cpg/sg2_137_cif.got.tgz:273564.got - 2010.06.03 11:33:40.
