data_PCOD9015263
_publ_section_title
;
Structure prediction by ZEFSAII (Michael W. Deem and Ramdas Pophale) SiO2 
 PCOD9015263
Probable space group: P -1
;
_chemical_formula_sum "Si O2"
_cell_formula_units_Z 16
_cell_length_a 8.784883
_cell_length_b 14.367603
_cell_length_c 8.233113
_cell_angle_alpha 113.980383
_cell_angle_beta 49.703852
_cell_angle_gamma 84.999876
_cell_volume 626.206512
_symmetry_space_group_name_H-M "P -1"
_symmetry_group_IT_number 2
_symmetry_cell_setting 'triclinic'
loop_
_space_group_symop_operation_xyz
x,y,z
-x,-y,-z
loop_
_atom_site_type_symbol
_atom_site_label
_atom_site_fract_x
_atom_site_fract_y
_atom_site_fract_z
Si Si1 0.837054 0.352518 0.618531
Si Si2 0.644843 0.362297 0.275636
Si Si3 0.605898 0.826763 0.115235
Si Si4 0.897015 0.739509 0.315252
Si Si5 0.410970 0.793171 0.550247
Si Si6 0.924141 0.908673 0.902896
Si Si7 0.610979 0.611231 0.851300
Si Si8 0.786372 0.990441 0.704600
O O1 0.773165 0.470405 0.646169
O O2 0.985644 0.345413 0.670938
O O3 0.962534 0.224399 0.357162
O O4 0.597454 0.367084 0.866829
O O5 0.500000 0.500000 0.500000
O O6 0.622612 0.309219 0.421875
O O7 0.514885 0.340233 0.199935
O O8 0.907283 0.310561 0.996234
O O9 0.448000 0.825763 0.367442
O O10 0.448248 0.904041 0.129671
O O11 0.742107 0.892790 0.127068
O O12 0.723469 0.689685 0.882682
O O13 0.653177 0.760096 0.440754
O O14 0.836436 0.867442 0.509144
O O15 0.148440 0.899815 0.829205
O O16 0.796694 0.987221 0.889058
O O17 0.000000 0.000000 0.500000
#
# Coordination Sequence:
#
# PCOD9015263 Si02
#       8
#     2   2   2   2   2   2   2   2
#     4   9  19  42  68 102 133 180 233 288 337 420
#     4  11  25  44  69 106 145 185 230 288 354 421
#     4  12  25  43  74 104 135 186 240 288 345 415
#     4  10  25  45  71 101 144 184 231 285 360 412
#     4  12  25  46  65 104 147 182 231 291 349 413
#     4  11  23  43  70 102 137 180 240 285 341 418
#     4  10  21  41  74 100 138 182 236 284 347 416
#     4  11  22  49  76 103 138 182 236 295 343 417
#
# _framework density 25.550678000000001
#
# number of rings (size 3 to 8) (size 9 to 14) (size 15 to 20)
#    0.000    1.250    2.500    3.375    7.000    1.500 
#    4.500    1.250    0.000    0.000    0.000    0.000 
#    0.000    0.000    0.000    0.000    0.000    0.000 
#
# Total GULP energy -89420.017397 kJ/mol
# GULP energy per Si atom -5588.751087 kJ/mol
# Density = 2.549252 g / cm^3
# Si number density = 25.550678 Si / 1000 Ang^3
#
#
#
# Elastic Constant Matrix: (Units=GPa)
#
#
# Indices 1 2 3 4 5 6 
#
# 1 179.3162 166.3137 26.0933 65.1427 -20.6672 70.9952
# 2 166.3137 374.0370 39.2389 128.9918 11.1743 126.0933
# 3 26.0933 39.2389 93.1659 9.3838 -11.6079 3.4176
# 4 65.1427 128.9918 9.3838 123.2096 9.8816 83.4240
# 5 -20.6672 11.1743 -11.6079 9.8816 42.1530 16.6700
# 6 70.9952 126.0933 3.4176 83.4240 16.6700 138.6850
#
#
#
# Elastic Compliance Matrix: (Units=1/GPa)
#
#
# Indices 1 2 3 4 5 6 
#
# 1 0.011924 -0.004428 -0.000318 -0.000393 0.008136 -0.002812
# 2 -0.004428 0.006396 -0.001469 -0.003153 -0.003037 -0.001251
# 3 -0.000318 -0.001469 0.011805 -0.000012 0.003157 0.000835
# 4 -0.000393 -0.003153 -0.000012 0.016109 -0.000543 -0.006557
# 5 0.008136 -0.003037 0.003157 -0.000543 0.031467 -0.004937
# 6 -0.002812 -0.001251 0.000835 -0.006557 -0.004937 0.014304
#
#
# Mechanical properties :
#
#
# Convention : Reuss Voigt Hill
#
# Bulk Modulus (GPa) = 56.51239 123.31234 89.91236
# Shear Modulus (GPa) = 45.31730 88.46773 66.89252
#
# Velocity S-wave (km/s) = 4.21601 5.89064 5.12222
# Velocity P-wave (km/s) = 6.77240 9.72794 8.38147
#
# Compressibility (1/GPa) = 0.01769524
#
# Stress axis : x y z
#
# Youngs Moduli (GPa) = 83.86526 156.33933 84.70926
#
# Poissons Ratio (x) = 0.69232 0.02694
# Poissons Ratio (y) = 0.37138 0.12441
# Poissons Ratio (z) = 0.02667 0.22962
#
# Static dielectric constant tensor:
#      x y z
#    x 2.095890 0.094170 0.029590 
#    y 0.094170 2.227210 0.124400 
#    z 0.029590 0.124400 2.131430 
# 
# From -- ./inp_files/208151.got.cif
#   From: 2010.05.17/outbox.cif.g08.bks.cpg/sg2_105_cif.got.tgz:208151.got - 2010.06.03 11:33:40.
