data_PCOD9015744
_publ_section_title
;
Structure prediction by ZEFSAII (Michael W. Deem and Ramdas Pophale) SiO2 
 PCOD9015744
Probable space group: P -1
;
_chemical_formula_sum "Si O2"
_cell_formula_units_Z 16
_cell_length_a 9.780120
_cell_length_b 9.483599
_cell_length_c 12.592675
_cell_angle_alpha 97.117335
_cell_angle_beta 145.507759
_cell_angle_gamma 94.000798
_cell_volume 624.863941
_symmetry_space_group_name_H-M "P -1"
_symmetry_group_IT_number 2
_symmetry_cell_setting 'triclinic'
loop_
_space_group_symop_operation_xyz
x,y,z
-x,-y,-z
loop_
_atom_site_type_symbol
_atom_site_label
_atom_site_fract_x
_atom_site_fract_y
_atom_site_fract_z
Si Si1 0.379020 0.220432 0.198708
Si Si2 0.202244 0.213092 0.582498
Si Si3 0.853179 0.080443 0.084696
Si Si4 0.963570 0.322943 0.848420
Si Si5 0.457566 0.160688 0.472075
Si Si6 0.796509 0.362211 0.301371
Si Si7 0.014879 0.086913 0.679765
Si Si8 0.296119 0.622984 0.994634
O O1 0.515789 0.234375 0.399393
O O2 0.576321 0.287275 0.236955
O O3 0.155475 0.296199 0.056426
O O4 0.249230 0.043812 0.082211
O O5 0.212693 0.059461 0.519032
O O6 0.976497 0.258276 0.386049
O O7 0.451136 0.352062 0.771661
O O8 0.117382 0.168870 0.644901
O O9 0.748694 0.216663 0.014562
O O10 0.159308 0.137377 0.287488
O O11 0.786812 0.981515 0.140658
O O12 0.074175 0.487107 0.887653
O O13 0.670948 0.274570 0.691219
O O14 0.974309 0.202409 0.751508
O O15 0.500000 0.000000 0.500000
O O16 0.689388 0.401713 0.125420
O O17 0.000000 0.500000 0.500000
#
# Coordination Sequence:
#
# PCOD9015744 Si02
#       8
#     2   2   2   2   2   2   2   2
#     4  11  25  43  72 104 131 179 239 273 335 412
#     4  11  24  39  68  98 142 181 220 280 339 401
#     4  11  25  42  69 103 134 178 233 286 326 408
#     4  11  25  46  69  99 136 182 226 281 341 407
#     4  12  24  45  75  97 133 177 235 289 337 392
#     4  12  25  42  69 103 145 179 223 277 342 415
#     4  10  21  42  64  99 130 180 230 268 336 396
#     4  12  26  44  67 105 144 177 222 277 348 402
#
# _framework density 25.605573
#
# number of rings (size 3 to 8) (size 9 to 14) (size 15 to 20)
#    0.000    0.750    3.750    4.875    5.250    3.000 
#    0.000    0.625    0.000    0.000    0.000    0.000 
#    0.000    0.000    0.000    0.000    0.000    0.000 
#
# Total GULP energy -89568.292302 kJ/mol
# GULP energy per Si atom -5598.018269 kJ/mol
# Density = 2.554729 g / cm^3
# Si number density = 25.605573 Si / 1000 Ang^3
#
#
#
# Elastic Constant Matrix: (Units=GPa)
#
#
# Indices 1 2 3 4 5 6 
#
# 1 53.1350 9.3419 21.2611 3.1017 -4.4191 5.9728
# 2 9.3419 93.2117 20.8161 2.8520 -2.5296 9.7365
# 3 21.2611 20.8161 131.0031 -4.4436 19.7711 9.9107
# 4 3.1017 2.8520 -4.4436 60.8236 10.1785 1.4358
# 5 -4.4191 -2.5296 19.7711 10.1785 39.0191 5.4015
# 6 5.9728 9.7365 9.9107 1.4358 5.4015 35.0822
#
#
#
# Elastic Compliance Matrix: (Units=1/GPa)
#
#
# Indices 1 2 3 4 5 6 
#
# 1 0.021484 -0.000718 -0.004034 -0.002193 0.005427 -0.003065
# 2 -0.000718 0.011613 -0.001887 -0.000959 0.002277 -0.002879
# 3 -0.004034 -0.001887 0.009592 0.001993 -0.005866 -0.000678
# 4 -0.002193 -0.000959 0.001993 0.017738 -0.005985 0.000272
# 5 0.005427 0.002277 -0.005866 -0.005985 0.031549 -0.004511
# 6 -0.003065 -0.002879 -0.000678 0.000272 -0.004511 0.030700
#
#
# Mechanical properties :
#
#
# Convention : Reuss Voigt Hill
#
# Bulk Modulus (GPa) = 34.00039 42.24311 38.12175
# Shear Modulus (GPa) = 34.30312 42.04703 38.17507
#
# Velocity S-wave (km/s) = 3.66413 4.05669 3.86539
# Velocity P-wave (km/s) = 5.58645 6.20288 5.90272
#
# Compressibility (1/GPa) = 0.02941142
#
# Stress axis : x y z
#
# Youngs Moduli (GPa) = 46.54562 86.10670 104.25247
#
# Poissons Ratio (x) = 0.06181 0.42059
# Poissons Ratio (y) = 0.03341 0.19674
# Poissons Ratio (z) = 0.18778 0.16250
#
# Static dielectric constant tensor:
#      x y z
#    x 2.152800 -0.049470 0.017390 
#    y -0.049470 1.999660 0.016890 
#    z 0.017390 0.016890 2.012600 
# 
# From -- ./inp_files/515712.got.cif
#   From: 2010.05.17/outbox.cif.g08.bks.cpg/sg2_258_cif.got.tgz:515712.got - 2010.06.03 11:33:40.
