data_PCOD9015284
_publ_section_title
;
Structure prediction by ZEFSAII (Michael W. Deem and Ramdas Pophale) SiO2 
 PCOD9015284
Probable space group: P -1
;
_chemical_formula_sum "Si O2"
_cell_formula_units_Z 11
_cell_length_a 6.972794
_cell_length_b 7.446787
_cell_length_c 13.123480
_cell_angle_alpha 136.245958
_cell_angle_beta 98.857267
_cell_angle_gamma 63.695622
_cell_volume 407.011496
_symmetry_space_group_name_H-M "P -1"
_symmetry_group_IT_number 2
_symmetry_cell_setting 'triclinic'
loop_
_space_group_symop_operation_xyz
x,y,z
-x,-y,-z
loop_
_atom_site_type_symbol
_atom_site_label
_atom_site_fract_x
_atom_site_fract_y
_atom_site_fract_z
Si Si1 0.795928 0.470327 0.016505
Si Si2 0.550106 0.657397 0.867474
Si Si3 0.144114 0.398964 0.281127
Si Si4 0.425605 0.905860 0.664970
Si Si5 0.719645 0.457007 0.355849
Si Si6 0.000000 0.000000 0.000000
O O1 0.625199 0.537817 0.936752
O O2 0.275921 0.777881 0.654918
O O3 0.686545 0.744570 0.198258
O O4 0.000000 0.500000 0.000000
O O5 0.747537 0.449845 0.720496
O O6 0.327024 0.669034 0.806608
O O7 0.500000 0.000000 0.000000
O O8 0.925431 0.515494 0.380126
O O9 0.079279 0.246112 0.122767
O O10 0.354539 0.216081 0.296562
O O11 0.513456 0.758596 0.502999
O O12 0.879636 0.151832 0.940928
#
# Coordination Sequence:
#
# PCOD9015284 Si02
#       6
#     2   2   2   2   2   1
#     4  12  24  46  72 106 148 192 248 309 358 432
#     4  11  21  44  73 107 148 186 243 310 362 434
#     4  11  21  41  71 107 141 186 244 293 367 446
#     4  10  23  43  70 106 154 188 235 310 361 440
#     4  10  21  41  75 108 147 192 234 296 385 439
#     4  12  26  40  74 104 138 198 248 296 362 420
#
# _framework density 27.026264000000001
#
# number of rings (size 3 to 8) (size 9 to 14) (size 15 to 20)
#    0.000    1.091    5.455    2.727    0.000    0.727 
#    0.000    1.818    4.000    0.000    0.000    0.000 
#    0.000    0.000    0.000    0.000    0.000    0.000 
#
# Total GULP energy -61367.978959 kJ/mol
# GULP energy per Si atom -5578.907178 kJ/mol
# Density = 2.696475 g / cm^3
# Si number density = 27.026264 Si / 1000 Ang^3
#
#
#
# Elastic Constant Matrix: (Units=GPa)
#
#
# Indices 1 2 3 4 5 6 
#
# 1 157.0606 38.9424 22.0527 4.8189 -31.9670 -2.5095
# 2 38.9424 173.9118 24.4151 7.7668 -1.6539 17.8195
# 3 22.0527 24.4151 99.7142 -5.9476 -9.4607 3.5025
# 4 4.8189 7.7668 -5.9476 32.1423 -4.8179 8.4591
# 5 -31.9670 -1.6539 -9.4607 -4.8179 41.1943 -15.2991
# 6 -2.5095 17.8195 3.5025 8.4591 -15.2991 42.5332
#
#
#
# Elastic Compliance Matrix: (Units=1/GPa)
#
#
# Indices 1 2 3 4 5 6 
#
# 1 0.008795 -0.002205 -0.000851 -0.000940 0.008151 0.004632
# 2 -0.002205 0.006858 -0.001435 -0.001073 -0.003328 -0.003869
# 3 -0.000851 -0.001435 0.010940 0.002854 0.002064 -0.000175
# 4 -0.000940 -0.001073 0.002854 0.033860 0.001617 -0.005994
# 5 0.008151 -0.003328 0.002064 0.001617 0.036523 0.014521
# 6 0.004632 -0.003869 -0.000175 -0.005994 0.014521 0.031835
#
#
# Mechanical properties :
#
#
# Convention : Reuss Voigt Hill
#
# Bulk Modulus (GPa) = 56.78118 66.83411 61.80764
# Shear Modulus (GPa) = 34.80363 46.19239 40.49801
#
# Velocity S-wave (km/s) = 3.59245 4.13869 3.87521
# Velocity P-wave (km/s) = 6.18569 6.90082 6.55302
#
# Compressibility (1/GPa) = 0.01761147
#
# Stress axis : x y z
#
# Youngs Moduli (GPa) = 113.70020 145.81592 91.40430
#
# Poissons Ratio (x) = 0.32153 0.07775
# Poissons Ratio (y) = 0.25072 0.13120
# Poissons Ratio (z) = 0.09671 0.20929
#
# Static dielectric constant tensor:
#      x y z
#    x 2.164310 0.010590 0.046660 
#    y 0.010590 1.949980 -0.212740 
#    z 0.046660 -0.212740 1.876210 
# 
# From -- ./inp_files/558204.got.cif
#   From: 2010.05.17/outbox.cif.g08.bks.cpg/sg2_280_cif.got.tgz:558204.got - 2010.06.03 11:33:40.
