data_PCOD9015838
_publ_section_title
;
Structure prediction by ZEFSAII (Michael W. Deem and Ramdas Pophale) SiO2 
 PCOD9015838
Probable space group: P -1
;
_chemical_formula_sum "Si O2"
_cell_formula_units_Z 16
_cell_length_a 12.061486
_cell_length_b 14.508843
_cell_length_c 9.992255
_cell_angle_alpha 130.968200
_cell_angle_beta 142.373803
_cell_angle_gamma 48.220315
_cell_volume 763.998576
_symmetry_space_group_name_H-M "P -1"
_symmetry_group_IT_number 2
_symmetry_cell_setting 'triclinic'
loop_
_space_group_symop_operation_xyz
x,y,z
-x,-y,-z
loop_
_atom_site_type_symbol
_atom_site_label
_atom_site_fract_x
_atom_site_fract_y
_atom_site_fract_z
Si Si1 0.586578 0.072800 0.844677
Si Si2 0.469364 0.604359 0.683834
Si Si3 0.556728 0.835953 0.908770
Si Si4 0.593702 0.799416 0.479184
Si Si5 0.107060 0.799428 0.665844
Si Si6 0.411523 0.578716 0.124915
Si Si7 0.980162 0.359789 0.322214
Si Si8 0.181387 0.033307 0.649270
O O1 0.481361 0.164857 0.710335
O O2 0.573690 0.933220 0.661925
O O3 0.492620 0.111236 0.936121
O O4 0.789170 0.101395 0.080963
O O5 0.500000 0.500000 0.500000
O O6 0.594988 0.687975 0.825912
O O7 0.259825 0.707732 0.618235
O O8 0.537691 0.525891 0.809544
O O9 0.367354 0.904229 0.704942
O O10 0.741160 0.877365 0.091694
O O11 0.491972 0.698121 0.338949
O O12 0.817381 0.726581 0.619281
O O13 0.071123 0.706299 0.656488
O O14 0.908114 0.883959 0.488623
O O15 0.500000 0.500000 0.000000
O O16 0.186363 0.631035 0.933598
O O17 0.000000 0.500000 0.500000
O O18 0.000000 0.000000 0.500000
#
# Coordination Sequence:
#
# PCOD9015838 Si02
#       8
#     2   2   2   2   2   2   2   2
#     4  10  21  42  65  92 136 168 208 284 331 383
#     4  11  24  44  66  96 133 175 219 272 326 388
#     4  10  23  43  67  89 129 177 213 264 338 386
#     4  11  23  41  63 100 130 165 225 272 329 387
#     4  11  22  43  70  94 133 169 222 272 333 393
#     4  12  22  44  68  94 134 176 220 269 327 396
#     4  12  24  40  71  98 127 177 222 266 331 396
#     4  11  21  40  68  93 118 169 223 261 319 398
#
# _framework density 20.942447999999999
#
# number of rings (size 3 to 8) (size 9 to 14) (size 15 to 20)
#    0.000    1.000    6.250    1.500    1.750    2.500 
#    6.750    0.625    0.000    0.000    0.000    0.000 
#    0.000    0.000    0.000    0.000    0.000    0.000 
#
# Total GULP energy -89294.973291 kJ/mol
# GULP energy per Si atom -5580.935831 kJ/mol
# Density = 2.089478 g / cm^3
# Si number density = 20.942448 Si / 1000 Ang^3
#
#
#
# Elastic Constant Matrix: (Units=GPa)
#
#
# Indices 1 2 3 4 5 6 
#
# 1 44.2968 29.6046 40.6855 0.1321 10.6506 15.6135
# 2 29.6046 131.4507 74.4110 -2.3003 6.4019 25.0454
# 3 40.6855 74.4110 138.7926 -5.7826 27.0724 2.5835
# 4 0.1321 -2.3003 -5.7826 59.8058 6.2448 7.9576
# 5 10.6506 6.4019 27.0724 6.2448 46.1401 4.0734
# 6 15.6135 25.0454 2.5835 7.9576 4.0734 34.0866
#
#
#
# Elastic Compliance Matrix: (Units=1/GPa)
#
#
# Indices 1 2 3 4 5 6 
#
# 1 0.038887 0.001258 -0.011486 0.001360 -0.001001 -0.018064
# 2 0.001258 0.013897 -0.008263 0.000803 0.003471 -0.010763
# 3 -0.011486 -0.008263 0.016128 0.000530 -0.006689 0.010785
# 4 0.001360 0.000803 0.000530 0.017756 -0.002692 -0.005076
# 5 -0.001001 0.003471 -0.006689 -0.002692 0.026071 -0.004072
# 6 -0.018064 -0.010763 0.010785 -0.005076 -0.004072 0.046374
#
#
# Mechanical properties :
#
#
# Convention : Reuss Voigt Hill
#
# Bulk Modulus (GPa) = 31.31688 67.10472 49.21080
# Shear Modulus (GPa) = 24.18514 39.32910 31.75712
#
# Velocity S-wave (km/s) = 3.40198 4.33825 3.89832
# Velocity P-wave (km/s) = 5.51521 7.56345 6.61904
#
# Compressibility (1/GPa) = 0.03193166
#
# Stress axis : x y z
#
# Youngs Moduli (GPa) = 25.71537 71.95732 62.00420
#
# Poissons Ratio (x) = -0.09053 0.71216
# Poissons Ratio (y) = -0.03235 0.51233
# Poissons Ratio (z) = 0.29536 0.59457
#
# Static dielectric constant tensor:
#      x y z
#    x 1.790140 0.023140 0.036550 
#    y 0.023140 1.794020 0.049690 
#    z 0.036550 0.049690 1.821280 
# 
# From -- ./inp_files/455132.got.cif
#   From: 2010.05.17/outbox.cif.g08.bks.cpg/sg2_228_cif.got.tgz:455132.got - 2010.06.03 11:33:40.
