data_PCOD9015869
_publ_section_title
;
Structure prediction by ZEFSAII (Michael W. Deem and Ramdas Pophale) SiO2 
 PCOD9015869
Probable space group: P -1
;
_chemical_formula_sum "Si O2"
_cell_formula_units_Z 16
_cell_length_a 18.832650
_cell_length_b 11.287158
_cell_length_c 5.414537
_cell_angle_alpha 69.304595
_cell_angle_beta 41.731122
_cell_angle_gamma 61.701467
_cell_volume 674.556190
_symmetry_space_group_name_H-M "P -1"
_symmetry_group_IT_number 2
_symmetry_cell_setting 'triclinic'
loop_
_space_group_symop_operation_xyz
x,y,z
-x,-y,-z
loop_
_atom_site_type_symbol
_atom_site_label
_atom_site_fract_x
_atom_site_fract_y
_atom_site_fract_z
Si Si1 0.358321 0.139768 0.647637
Si Si2 0.420643 0.631520 0.475904
Si Si3 0.216536 0.198280 0.472099
Si Si4 0.900412 0.015361 0.048587
Si Si5 0.932460 0.501876 0.425464
Si Si6 0.539498 0.160716 0.472429
Si Si7 0.716423 0.231912 0.661300
Si Si8 0.837872 0.271426 0.725618
O O1 0.282150 0.191522 0.566449
O O2 0.438932 0.216559 0.494856
O O3 0.441707 0.995463 0.436825
O O4 0.287544 0.132492 0.087447
O O5 0.500000 0.500000 0.500000
O O6 0.473139 0.747880 0.322430
O O7 0.387625 0.644849 0.265288
O O8 0.292484 0.667248 0.886986
O O9 0.166901 0.355263 0.421640
O O10 0.123537 0.124412 0.820928
O O11 0.780314 0.114329 0.395982
O O12 0.904342 0.115594 0.738958
O O13 0.000000 0.000000 0.000000
O O14 0.897649 0.369746 0.601362
O O15 0.000000 0.500000 0.500000
O O16 0.000000 0.500000 0.000000
O O17 0.658479 0.161949 0.056533
O O18 0.815168 0.277460 0.487708
#
# Coordination Sequence:
#
# PCOD9015869 Si02
#       8
#     2   2   2   2   2   2   2   2
#     4  11  25  42  71 102 143 183 229 291 359 415
#     4  10  23  39  66  95 135 181 239 277 347 423
#     4  12  26  46  72 108 138 184 241 291 346 434
#     4  11  24  43  73  99 134 180 241 295 350 411
#     4  12  29  50  72 102 146 187 232 292 362 419
#     4  10  23  40  64  99 137 185 223 294 349 415
#     4  10  21  42  65  94 138 172 238 290 342 412
#     4  10  25  44  69 100 136 185 226 296 348 415
#
# _framework density 23.719297999999998
#
# number of rings (size 3 to 8) (size 9 to 14) (size 15 to 20)
#    0.000    1.250    1.250    3.750    8.750    4.500 
#    0.000    0.000    0.000    0.000    0.000    0.000 
#    0.000    0.000    0.000    0.000    0.000    0.000 
#
# Total GULP energy -89229.216953 kJ/mol
# GULP energy per Si atom -5576.826060 kJ/mol
# Density = 2.366531 g / cm^3
# Si number density = 23.719298 Si / 1000 Ang^3
#
#
#
# Elastic Constant Matrix: (Units=GPa)
#
#
# Indices 1 2 3 4 5 6 
#
# 1 213.0415 51.2579 28.5950 -21.8225 9.3853 -9.0592
# 2 51.2579 97.5572 14.3302 -9.9138 0.4176 -13.4642
# 3 28.5950 14.3302 56.7016 -0.6639 1.1908 5.2977
# 4 -21.8225 -9.9138 -0.6639 19.4315 1.0276 -3.0134
# 5 9.3853 0.4176 1.1908 1.0276 33.2299 -6.6746
# 6 -9.0592 -13.4642 5.2977 -3.0134 -6.6746 44.0619
#
#
#
# Elastic Compliance Matrix: (Units=1/GPa)
#
#
# Indices 1 2 3 4 5 6 
#
# 1 0.006316 -0.002138 -0.002645 0.006174 -0.001624 0.001139
# 2 -0.002138 0.012803 -0.002530 0.004642 0.001251 0.004284
# 3 -0.002645 -0.002530 0.019956 -0.004181 -0.000630 -0.004098
# 4 0.006174 0.004642 -0.004181 0.061836 -0.002139 0.007096
# 5 -0.001624 0.001251 -0.000630 -0.002139 0.031582 0.004762
# 6 0.001139 0.004284 -0.004098 0.007096 0.004762 0.025938
#
#
# Mechanical properties :
#
#
# Convention : Reuss Voigt Hill
#
# Bulk Modulus (GPa) = 40.89956 61.74072 51.32014
# Shear Modulus (GPa) = 27.59296 37.55249 32.57272
#
# Velocity S-wave (km/s) = 3.41444 3.98327 3.70977
# Velocity P-wave (km/s) = 5.72932 6.87324 6.32719
#
# Compressibility (1/GPa) = 0.02445014
#
# Stress axis : x y z
#
# Youngs Moduli (GPa) = 158.33217 78.10621 50.10932
#
# Poissons Ratio (x) = 0.16702 0.13253
# Poissons Ratio (y) = 0.33856 0.12675
# Poissons Ratio (z) = 0.41875 0.19757
#
# Static dielectric constant tensor:
#      x y z
#    x 2.083390 -0.001510 0.082390 
#    y -0.001510 1.984530 0.052740 
#    z 0.082390 0.052740 2.124840 
# 
# From -- ./inp_files/108807.got.cif
#   From: 2010.05.17/outbox.cif.g08.bks.cpg/sg2_55_cif.got.tgz:108807.got - 2010.06.03 11:33:40.
