data_PCOD9015112
_publ_section_title
;
Structure prediction by ZEFSAII (Michael W. Deem and Ramdas Pophale) SiO2 
 PCOD9015112
Probable space group: P -1
;
_chemical_formula_sum "Si O2"
_cell_formula_units_Z 14
_cell_length_a 11.998009
_cell_length_b 9.261505
_cell_length_c 18.386000
_cell_angle_alpha 132.243464
_cell_angle_beta 25.809062
_cell_angle_gamma 120.497957
_cell_volume 627.491771
_symmetry_space_group_name_H-M "P -1"
_symmetry_group_IT_number 2
_symmetry_cell_setting 'triclinic'
loop_
_space_group_symop_operation_xyz
x,y,z
-x,-y,-z
loop_
_atom_site_type_symbol
_atom_site_label
_atom_site_fract_x
_atom_site_fract_y
_atom_site_fract_z
Si Si1 0.415347 0.621031 0.244435
Si Si2 0.605187 0.823475 0.936345
Si Si3 0.166386 0.881247 0.614479
Si Si4 0.998527 0.334822 0.101098
Si Si5 0.201717 0.220358 0.601721
Si Si6 0.785757 0.062208 0.235447
Si Si7 0.270416 0.724056 0.214617
O O1 0.399630 0.392261 0.167902
O O2 0.332097 0.712683 0.403528
O O3 0.229088 0.757115 0.336150
O O4 0.714065 0.625879 0.053589
O O5 0.907009 0.820602 0.771586
O O6 0.418899 0.861171 0.130057
O O7 0.500000 0.000000 0.000000
O O8 0.302344 0.902599 0.617805
O O9 0.096732 0.090681 0.679518
O O10 0.794836 0.561271 0.294227
O O11 0.929527 0.219679 0.172593
O O12 0.021792 0.168225 0.967654
O O13 0.511063 0.094719 0.361950
O O14 0.999852 0.264382 0.666602
O O15 0.500000 0.500000 0.000000
#
# Coordination Sequence:
#
# PCOD9015112 Si02
#       7
#     2   2   2   2   2   2   2
#     4  11  23  43  69  97 136 182 215 280 345 393
#     4  11  21  43  65 100 132 176 230 275 338 404
#     4  12  25  44  66 102 144 170 227 281 337 404
#     4  11  23  48  71  97 135 180 232 272 341 395
#     4  12  23  45  72 101 134 178 230 278 331 413
#     4  11  27  46  70 101 137 181 226 284 329 407
#     4  10  21  41  71  93 134 178 220 279 333 397
#
# _framework density 22.311050999999999
#
# number of rings (size 3 to 8) (size 9 to 14) (size 15 to 20)
#    0.000    0.857    5.714    2.143    2.000    1.143 
#    2.571    0.000    0.000    0.000    0.000    0.000 
#    0.000    0.000    0.000    0.000    0.000    0.000 
#
# Total GULP energy -78224.031062 kJ/mol
# GULP energy per Si atom -5587.430790 kJ/mol
# Density = 2.226027 g / cm^3
# Si number density = 22.311051 Si / 1000 Ang^3
#
#
#
# Elastic Constant Matrix: (Units=GPa)
#
#
# Indices 1 2 3 4 5 6 
#
# 1 78.3646 5.2127 12.2228 -6.4324 17.9906 -22.1187
# 2 5.2127 137.8613 10.0116 1.7577 11.7207 -2.9415
# 3 12.2228 10.0116 55.3244 -1.9265 14.3112 -4.1261
# 4 -6.4324 1.7577 -1.9265 45.4076 5.9988 -0.2343
# 5 17.9906 11.7207 14.3112 5.9988 36.9577 -5.6389
# 6 -22.1187 -2.9415 -4.1261 -0.2343 -5.6389 20.7737
#
#
#
# Elastic Compliance Matrix: (Units=1/GPa)
#
#
# Indices 1 2 3 4 5 6 
#
# 1 0.020451 0.000293 -0.001091 0.003900 -0.007257 0.019674
# 2 0.000293 0.007495 -0.000830 -0.000003 -0.002100 0.000638
# 3 -0.001091 -0.000830 0.020472 0.001713 -0.007285 0.000829
# 4 0.003900 -0.000003 0.001713 0.023441 -0.005883 0.003159
# 5 -0.007257 -0.002100 -0.007285 -0.005883 0.035028 -0.000029
# 6 0.019674 0.000638 0.000829 0.003159 -0.000029 0.069368
#
#
# Mechanical properties :
#
#
# Convention : Reuss Voigt Hill
#
# Bulk Modulus (GPa) = 22.14276 36.27162 29.20719
# Shear Modulus (GPa) = 25.69825 36.90136 31.29980
#
# Velocity S-wave (km/s) = 3.39752 4.07129 3.74957
# Velocity P-wave (km/s) = 5.03359 6.19621 5.64491
#
# Compressibility (1/GPa) = 0.04516148
#
# Stress axis : x y z
#
# Youngs Moduli (GPa) = 48.89840 133.42061 48.84645
#
# Poissons Ratio (x) = -0.03909 0.05329
# Poissons Ratio (y) = -0.01433 0.04056
# Poissons Ratio (z) = 0.05334 0.11078
#
# Static dielectric constant tensor:
#      x y z
#    x 1.864200 0.038620 0.011140 
#    y 0.038620 1.829200 0.021080 
#    z 0.011140 0.021080 1.851060 
# 
# From -- ./inp_files/566879.got.cif
#   From: 2010.05.17/outbox.cif.g08.bks.cpg/sg2_284_cif.got.tgz:566879.got - 2010.06.03 11:33:40.
