data_PCOD9015102
_publ_section_title
;
Structure prediction by ZEFSAII (Michael W. Deem and Ramdas Pophale) SiO2 
 PCOD9015102
Probable space group: P -1
;
_chemical_formula_sum "Si O2"
_cell_formula_units_Z 14
_cell_length_a 10.713833
_cell_length_b 11.541676
_cell_length_c 11.013517
_cell_angle_alpha 40.199705
_cell_angle_beta 78.312336
_cell_angle_gamma 104.909612
_cell_volume 652.782927
_symmetry_space_group_name_H-M "P -1"
_symmetry_group_IT_number 2
_symmetry_cell_setting 'triclinic'
loop_
_space_group_symop_operation_xyz
x,y,z
-x,-y,-z
loop_
_atom_site_type_symbol
_atom_site_label
_atom_site_fract_x
_atom_site_fract_y
_atom_site_fract_z
Si Si1 0.632715 0.849445 0.778747
Si Si2 0.461862 0.787264 0.101515
Si Si3 0.130619 0.267487 0.621781
Si Si4 0.186538 0.722330 0.755421
Si Si5 0.773263 0.926311 0.053638
Si Si6 0.596077 0.426578 0.194023
Si Si7 0.280158 0.057236 0.687776
O O1 0.516727 0.709166 0.795858
O O2 0.785134 0.109038 0.492780
O O3 0.522917 0.852118 0.898556
O O4 0.679645 0.697014 0.943205
O O5 0.270581 0.543717 0.343581
O O6 0.500000 0.000000 0.000000
O O7 0.596124 0.771508 0.146607
O O8 0.161115 0.124162 0.641326
O O9 0.934558 0.135919 0.775953
O O10 0.181831 0.227461 0.775245
O O11 0.282862 0.630195 0.776045
O O12 0.254385 0.878040 0.739985
O O13 0.000000 0.500000 0.000000
O O14 0.754092 0.027366 0.099248
O O15 0.466912 0.302006 0.431107
#
# Coordination Sequence:
#
# PCOD9015102 Si02
#       7
#     2   2   2   2   2   2   2
#     4  10  22  43  61  94 125 165 215 264 323 381
#     4  12  25  37  62  98 132 168 214 261 324 389
#     4   9  20  42  64  91 125 172 215 256 323 382
#     4  11  25  40  64 100 123 164 221 269 321 384
#     4   9  21  40  64  93 124 171 213 259 316 381
#     4  10  21  41  71  85 124 173 213 264 317 383
#     4   9  18  40  65  87 122 167 211 263 319 379
#
# _framework density 21.446639999999999
#
# number of rings (size 3 to 8) (size 9 to 14) (size 15 to 20)
#    0.857    1.143    1.429    2.143    4.000    3.429 
#    2.571    0.000    0.000    0.000    0.000    0.000 
#    0.000    0.000    0.000    0.000    0.000    0.000 
#
# Total GULP energy -78081.433000 kJ/mol
# GULP energy per Si atom -5577.245214 kJ/mol
# Density = 2.139783 g / cm^3
# Si number density = 21.446640 Si / 1000 Ang^3
#
#
#
# Elastic Constant Matrix: (Units=GPa)
#
#
# Indices 1 2 3 4 5 6 
#
# 1 53.0502 18.5884 41.8710 -0.8674 -5.7957 -23.4104
# 2 18.5884 73.5688 41.8199 6.5936 -5.4587 -29.7706
# 3 41.8710 41.8199 180.8938 0.6728 -18.3334 -26.0296
# 4 -0.8674 6.5936 0.6728 29.1159 -13.3540 -3.7037
# 5 -5.7957 -5.4587 -18.3334 -13.3540 23.9939 2.2152
# 6 -23.4104 -29.7706 -26.0296 -3.7037 2.2152 27.2571
#
#
#
# Elastic Compliance Matrix: (Units=1/GPa)
#
#
# Indices 1 2 3 4 5 6 
#
# 1 0.036435 0.007698 -0.004200 0.007880 0.008398 0.036078
# 2 0.007698 0.026864 -0.003037 -0.000551 0.002317 0.032789
# 3 -0.004200 -0.003037 0.007885 0.003234 0.006068 0.000551
# 4 0.007880 -0.000551 0.003234 0.050667 0.031192 0.013605
# 5 0.008398 0.002317 0.006068 0.031192 0.064891 0.014503
# 6 0.036078 0.032789 0.000551 0.013605 0.014503 0.104684
#
#
# Mechanical properties :
#
#
# Convention : Reuss Voigt Hill
#
# Bulk Modulus (GPa) = 13.86865 56.89680 35.38272
# Shear Modulus (GPa) = 15.89628 29.75561 22.82595
#
# Velocity S-wave (km/s) = 2.72546 3.72886 3.26592
# Velocity P-wave (km/s) = 4.04781 6.71761 5.54576
#
# Compressibility (1/GPa) = 0.07210508
#
# Stress axis : x y z
#
# Youngs Moduli (GPa) = 27.44636 37.22429 126.82793
#
# Poissons Ratio (x) = -0.28655 0.53265
# Poissons Ratio (y) = -0.21128 0.38522
# Poissons Ratio (z) = 0.11527 0.11306
#
# Static dielectric constant tensor:
#      x y z
#    x 1.823910 -0.030000 0.049550 
#    y -0.030000 1.747050 0.025160 
#    z 0.049550 0.025160 1.771390 
# 
# From -- ./inp_files/427365.got.cif
#   From: 2010.05.17/outbox.cif.g08.bks.cpg/sg2_214_cif.got.tgz:427365.got - 2010.06.03 11:33:40.
