data_PCOD9015487
_publ_section_title
;
Structure prediction by ZEFSAII (Michael W. Deem and Ramdas Pophale) SiO2 
 PCOD9015487
Probable space group: P -1
;
_chemical_formula_sum "Si O2"
_cell_formula_units_Z 16
_cell_length_a 20.320396
_cell_length_b 9.329922
_cell_length_c 6.593825
_cell_angle_alpha 56.804224
_cell_angle_beta 62.554762
_cell_angle_gamma 47.408285
_cell_volume 761.800051
_symmetry_space_group_name_H-M "P -1"
_symmetry_group_IT_number 2
_symmetry_cell_setting 'triclinic'
loop_
_space_group_symop_operation_xyz
x,y,z
-x,-y,-z
loop_
_atom_site_type_symbol
_atom_site_label
_atom_site_fract_x
_atom_site_fract_y
_atom_site_fract_z
Si Si1 0.383654 0.745231 0.814853
Si Si2 0.188934 0.467866 0.375277
Si Si3 0.903661 0.183661 0.085976
Si Si4 0.915479 0.489229 0.135553
Si Si5 0.421133 0.443040 0.372597
Si Si6 0.644848 0.821210 0.349227
Si Si7 0.267315 0.789567 0.581099
Si Si8 0.750078 0.825895 0.861676
O O1 0.479868 0.620792 0.656940
O O2 0.302480 0.793369 0.750232
O O3 0.369418 0.962567 0.731448
O O4 0.394939 0.594833 0.098289
O O5 0.105256 0.533861 0.586942
O O6 0.272894 0.366854 0.487608
O O7 0.214782 0.290595 0.311656
O O8 0.158850 0.665651 0.126783
O O9 0.921362 0.314731 0.118232
O O10 0.836228 0.137409 0.324934
O O11 0.000000 0.000000 0.000000
O O12 0.830596 0.706332 0.000914
O O13 0.000000 0.500000 0.000000
O O14 0.428693 0.230162 0.481500
O O15 0.340325 0.564735 0.555128
O O16 0.673368 0.808714 0.082901
O O17 0.277738 0.944498 0.310217
#
# Coordination Sequence:
#
# PCOD9015487 Si02
#       8
#     2   2   2   2   2   2   2   2
#     4  11  24  42  68 101 130 183 218 268 342 385
#     4  10  21  42  63  89 127 173 217 258 331 393
#     4  11  27  42  65 101 128 169 221 277 332 388
#     4  10  24  42  63  90 124 169 222 270 329 396
#     4  11  24  42  67  99 138 168 228 277 319 403
#     4  11  21  43  66  97 132 177 221 268 331 388
#     4  12  23  44  65  93 138 171 218 278 330 393
#     4  10  22  38  67  91 125 179 214 263 335 386
#
# _framework density 21.002884999999999
#
# number of rings (size 3 to 8) (size 9 to 14) (size 15 to 20)
#    0.000    1.250    2.500    3.750    3.500    1.500 
#    2.250    0.625    0.000    0.000    0.000    0.000 
#    0.000    0.000    0.000    0.000    0.000    0.000 
#
# Total GULP energy -89273.636848 kJ/mol
# GULP energy per Si atom -5579.602303 kJ/mol
# Density = 2.095508 g / cm^3
# Si number density = 21.002885 Si / 1000 Ang^3
#
#
#
# Elastic Constant Matrix: (Units=GPa)
#
#
# Indices 1 2 3 4 5 6 
#
# 1 93.0638 18.4305 31.0804 2.8792 -28.0794 10.1814
# 2 18.4305 103.3427 31.9054 0.2370 -9.3037 11.0673
# 3 31.0804 31.9054 94.9559 -0.2596 -13.3712 16.1998
# 4 2.8792 0.2370 -0.2596 37.3497 0.7973 -5.2369
# 5 -28.0794 -9.3037 -13.3712 0.7973 29.9048 2.3683
# 6 10.1814 11.0673 16.1998 -5.2369 2.3683 22.9945
#
#
#
# Elastic Compliance Matrix: (Units=1/GPa)
#
#
# Indices 1 2 3 4 5 6 
#
# 1 0.017290 -0.000123 -0.001894 -0.002892 0.016106 -0.008579
# 2 -0.000123 0.011169 -0.002717 -0.000667 0.002464 -0.003813
# 3 -0.001894 -0.002717 0.014129 -0.001023 0.004394 -0.008493
# 4 -0.002892 -0.000667 -0.001023 0.028401 -0.004874 0.009293
# 5 0.016106 0.002464 0.004394 -0.004874 0.052846 -0.017965
# 6 -0.008579 -0.003813 -0.008493 0.009293 -0.017965 0.059073
#
#
# Mechanical properties :
#
#
# Convention : Reuss Voigt Hill
#
# Bulk Modulus (GPa) = 30.19405 50.46610 40.33007
# Shear Modulus (GPa) = 24.58022 32.04621 28.31321
#
# Velocity S-wave (km/s) = 3.42471 3.91039 3.67558
# Velocity P-wave (km/s) = 5.48138 6.66847 6.10385
#
# Compressibility (1/GPa) = 0.03311911
#
# Stress axis : x y z
#
# Youngs Moduli (GPa) = 57.83754 89.53357 70.77698
#
# Poissons Ratio (x) = 0.01105 0.13406
# Poissons Ratio (y) = 0.00714 0.19229
# Poissons Ratio (z) = 0.10955 0.24325
#
# Static dielectric constant tensor:
#      x y z
#    x 1.735010 -0.005900 -0.010980 
#    y -0.005900 1.794870 0.013460 
#    z -0.010980 0.013460 1.799050 
# 
# From -- ./inp_files/45826.got.cif
#   From: 2010.05.17/outbox.cif.g08.bks.cpg/sg2_23_cif.got.tgz:45826.got - 2010.06.03 11:33:40.
