data_PCOD9015137
_publ_section_title
;
Structure prediction by ZEFSAII (Michael W. Deem and Ramdas Pophale) SiO2 
 PCOD9015137
Probable space group: P -1
;
_chemical_formula_sum "Si O2"
_cell_formula_units_Z 14
_cell_length_a 8.215835
_cell_length_b 8.634592
_cell_length_c 11.013458
_cell_angle_alpha 81.560250
_cell_angle_beta 46.438297
_cell_angle_gamma 95.546387
_cell_volume 538.279392
_symmetry_space_group_name_H-M "P -1"
_symmetry_group_IT_number 2
_symmetry_cell_setting 'triclinic'
loop_
_space_group_symop_operation_xyz
x,y,z
-x,-y,-z
loop_
_atom_site_type_symbol
_atom_site_label
_atom_site_fract_x
_atom_site_fract_y
_atom_site_fract_z
Si Si1 0.970638 0.617068 0.189481
Si Si2 0.246316 0.497915 0.266294
Si Si3 0.911108 0.960898 0.189032
Si Si4 0.774570 0.270062 0.555306
Si Si5 0.440988 0.694712 0.836157
Si Si6 0.809011 0.987241 0.710945
Si Si7 0.664564 0.241059 0.355351
O O1 0.141048 0.603639 0.216130
O O2 0.814439 0.433522 0.267247
O O3 0.845689 0.760416 0.250140
O O4 0.165958 0.670330 0.978645
O O5 0.250272 0.564534 0.393057
O O6 0.498563 0.467684 0.132345
O O7 0.051539 0.322986 0.374927
O O8 0.762752 0.090536 0.279578
O O9 0.088132 0.001913 0.208768
O O10 0.000000 0.000000 0.000000
O O11 0.716246 0.140388 0.705729
O O12 0.623327 0.206382 0.523259
O O13 0.525033 0.748951 0.649548
O O14 0.584217 0.835358 0.831698
O O15 0.000000 0.000000 0.500000
#
# Coordination Sequence:
#
# PCOD9015137 Si02
#       7
#     2   2   2   2   2   2   2
#     4  11  24  47  70  98 143 185 227 289 348 412
#     4  10  21  41  71  98 132 183 236 278 345 417
#     4  12  25  46  74 104 138 189 230 281 356 413
#     4  10  21  43  69  97 135 185 229 283 347 408
#     4  12  25  42  69 103 140 180 233 282 354 410
#     4  12  23  46  72  96 141 184 230 290 342 414
#     4  11  25  46  70 103 143 179 232 292 345 409
#
# _framework density 26.008800000000001
#
# number of rings (size 3 to 8) (size 9 to 14) (size 15 to 20)
#    0.000    0.857    5.714    1.714    0.000    1.714 
#    5.143    0.000    0.000    0.000    0.000    0.000 
#    0.000    0.000    0.000    0.000    0.000    0.000 
#
# Total GULP energy -78088.870123 kJ/mol
# GULP energy per Si atom -5577.776437 kJ/mol
# Density = 2.594960 g / cm^3
# Si number density = 26.008800 Si / 1000 Ang^3
#
#
#
# Elastic Constant Matrix: (Units=GPa)
#
#
# Indices 1 2 3 4 5 6 
#
# 1 146.3568 69.8673 46.2452 15.5026 43.1693 -10.5220
# 2 69.8673 166.8127 31.4364 -1.5325 3.0913 -3.4320
# 3 46.2452 31.4364 52.2892 6.6471 20.8346 8.8790
# 4 15.5026 -1.5325 6.6471 34.0359 4.0893 8.1022
# 5 43.1693 3.0913 20.8346 4.0893 53.4167 1.3853
# 6 -10.5220 -3.4320 8.8790 8.1022 1.3853 53.0863
#
#
#
# Elastic Compliance Matrix: (Units=1/GPa)
#
#
# Indices 1 2 3 4 5 6 
#
# 1 0.014742 -0.004668 -0.006888 -0.005699 -0.008647 0.004868
# 2 -0.004668 0.008432 -0.002890 0.002662 0.004219 -0.000413
# 3 -0.006888 -0.002890 0.030496 -0.000714 -0.005941 -0.006389
# 4 -0.005699 0.002662 -0.000714 0.033383 0.002330 -0.005994
# 5 -0.008647 0.004219 -0.005941 0.002330 0.027643 -0.001525
# 6 0.004868 -0.000413 -0.006389 -0.005994 -0.001525 0.021798
#
#
# Mechanical properties :
#
#
# Convention : Reuss Voigt Hill
#
# Bulk Modulus (GPa) = 40.35856 73.39518 56.87687
# Shear Modulus (GPa) = 28.79414 42.63510 35.71462
#
# Velocity S-wave (km/s) = 3.33091 4.05317 3.70966
# Velocity P-wave (km/s) = 5.50856 7.08413 6.34543
#
# Compressibility (1/GPa) = 0.02477789
#
# Stress axis : x y z
#
# Youngs Moduli (GPa) = 67.83506 118.58976 32.79082
#
# Poissons Ratio (x) = 0.55361 0.22586
# Poissons Ratio (y) = 0.31667 0.09477
# Poissons Ratio (z) = 0.46723 0.34275
#
# Static dielectric constant tensor:
#      x y z
#    x 2.021820 -0.034990 -0.006190 
#    y -0.034990 2.036810 0.001270 
#    z -0.006190 0.001270 2.365820 
# 
# From -- ./inp_files/382218.got.cif
#   From: 2010.05.17/outbox.cif.g08.bks.cpg/sg2_192_cif.got.tgz:382218.got - 2010.06.03 11:33:40.
