data_PCOD9015583
_publ_section_title
;
Structure prediction by ZEFSAII (Michael W. Deem and Ramdas Pophale) SiO2 
 PCOD9015583
Probable space group: P -1
;
_chemical_formula_sum "Si O2"
_cell_formula_units_Z 12
_cell_length_a 8.471967
_cell_length_b 7.224369
_cell_length_c 13.298245
_cell_angle_alpha 39.126651
_cell_angle_beta 125.619732
_cell_angle_gamma 124.424582
_cell_volume 407.161467
_symmetry_space_group_name_H-M "P -1"
_symmetry_group_IT_number 2
_symmetry_cell_setting 'triclinic'
loop_
_space_group_symop_operation_xyz
x,y,z
-x,-y,-z
loop_
_atom_site_type_symbol
_atom_site_label
_atom_site_fract_x
_atom_site_fract_y
_atom_site_fract_z
Si Si1 0.582218 0.266771 0.559564
Si Si2 0.522709 0.581888 0.201629
Si Si3 0.777635 0.274984 0.826836
Si Si4 0.105310 0.240137 0.104043
Si Si5 0.234294 0.713079 0.693663
Si Si6 0.000628 0.056335 0.342526
O O1 0.500000 0.500000 0.500000
O O2 0.618541 0.427683 0.397105
O O3 0.734742 0.174024 0.737497
O O4 0.412808 0.969149 0.608667
O O5 0.411663 0.805552 0.131765
O O6 0.334110 0.394338 0.146339
O O7 0.697215 0.591961 0.177790
O O8 0.829583 0.642649 0.696853
O O9 0.980559 0.203175 0.972223
O O10 0.028696 0.987230 0.266646
O O11 0.000000 0.500000 0.000000
O O12 0.195547 0.833717 0.739922
O O13 0.040241 0.775347 0.538323
#
# Coordination Sequence:
#
# PCOD9015583 Si02
#       6
#     2   2   2   2   2   2
#     4  10  17  30  50  73  94 123 160 195 234 278
#     4   9  17  29  52  73  90 125 167 190 222 286
#     4   9  18  34  52  68  97 129 158 188 236 285
#     4   8  15  32  50  69  91 133 159 182 228 297
#     4  11  18  29  51  76  95 119 162 202 231 277
#     4   9  18  30  50  72  97 124 156 195 244 271
#
# _framework density 29.472335999999999
#
# number of rings (size 3 to 8) (size 9 to 14) (size 15 to 20)
#    0.000    3.000    5.000    0.500    0.000    0.000 
#    0.000   10.000    0.000    0.000    0.000    0.000 
#    0.000    0.000    0.000    0.000    0.000    0.000 
#
# Total GULP energy -66837.436366 kJ/mol
# GULP energy per Si atom -5569.786364 kJ/mol
# Density = 2.940526 g / cm^3
# Si number density = 29.472336 Si / 1000 Ang^3
#
#
#
# Elastic Constant Matrix: (Units=GPa)
#
#
# Indices 1 2 3 4 5 6 
#
# 1 121.8287 14.6324 19.4337 11.4224 20.8646 -36.1752
# 2 14.6324 124.1380 26.5573 33.0846 11.1440 -27.6130
# 3 19.4337 26.5573 141.3200 52.9521 39.2783 -0.6744
# 4 11.4224 33.0846 52.9521 60.9960 -2.5176 -3.5349
# 5 20.8646 11.1440 39.2783 -2.5176 38.9097 -3.1837
# 6 -36.1752 -27.6130 -0.6744 -3.5349 -3.1837 50.9201
#
#
#
# Elastic Compliance Matrix: (Units=1/GPa)
#
#
# Indices 1 2 3 4 5 6 
#
# 1 0.012448 0.002465 0.002919 -0.006082 -0.009970 0.009173
# 2 0.002465 0.011986 0.003461 -0.009900 -0.008309 0.007090
# 3 0.002919 0.003461 0.021271 -0.021870 -0.025351 0.001129
# 4 -0.006082 -0.009900 -0.021870 0.042854 0.030530 -0.005095
# 5 -0.009970 -0.008309 -0.025351 0.030530 0.060501 -0.006023
# 6 0.009173 0.007090 0.001129 -0.005095 -0.006023 0.029285
#
#
# Mechanical properties :
#
#
# Convention : Reuss Voigt Hill
#
# Bulk Modulus (GPa) = 15.77441 56.50374 36.13908
# Shear Modulus (GPa) = 27.50481 51.94272 39.72377
#
# Velocity S-wave (km/s) = 3.05821 4.20268 3.67527
# Velocity P-wave (km/s) = 4.22305 6.53937 5.50443
#
# Compressibility (1/GPa) = 0.06339379
#
# Stress axis : x y z
#
# Youngs Moduli (GPa) = 80.33253 83.43129 47.01346
#
# Poissons Ratio (x) = -0.20563 -0.13722
# Poissons Ratio (y) = -0.19799 -0.16272
# Poissons Ratio (z) = -0.23447 -0.28877
#
# Static dielectric constant tensor:
#      x y z
#    x 2.674320 -0.207080 -0.080140 
#    y -0.207080 2.443230 0.070960 
#    z -0.080140 0.070960 2.647080 
# 
# From -- ./inp_files/276023.got.cif
#   From: 2010.05.17/outbox.cif.g08.bks.cpg/sg2_139_cif.got.tgz:276023.got - 2010.06.03 11:33:40.
