data_PCOD9015601
_publ_section_title
;
Structure prediction by ZEFSAII (Michael W. Deem and Ramdas Pophale) SiO2 
 PCOD9015601
Probable space group: P -1
;
_chemical_formula_sum "Si O2"
_cell_formula_units_Z 12
_cell_length_a 9.174016
_cell_length_b 5.422168
_cell_length_c 13.855171
_cell_angle_alpha 44.685059
_cell_angle_beta 93.028696
_cell_angle_gamma 84.073114
_cell_volume 474.142169
_symmetry_space_group_name_H-M "P -1"
_symmetry_group_IT_number 2
_symmetry_cell_setting 'triclinic'
loop_
_space_group_symop_operation_xyz
x,y,z
-x,-y,-z
loop_
_atom_site_type_symbol
_atom_site_label
_atom_site_fract_x
_atom_site_fract_y
_atom_site_fract_z
Si Si1 0.703125 0.261416 0.670175
Si Si2 0.434164 0.657927 0.056228
Si Si3 0.456039 0.677564 0.649910
Si Si4 0.046063 0.465823 0.295694
Si Si5 0.828632 0.335129 0.455241
Si Si6 0.115496 0.545360 0.075240
O O1 0.539977 0.331609 0.689173
O O2 0.793591 0.471854 0.685792
O O3 0.724837 0.420265 0.521427
O O4 0.787055 0.855097 0.792526
O O5 0.485572 0.376279 0.224381
O O6 0.253621 0.748872 0.012998
O O7 0.500000 0.500000 0.000000
O O8 0.500000 0.000000 0.000000
O O9 0.280352 0.713252 0.622815
O O10 0.500000 0.000000 0.500000
O O11 0.019494 0.643866 0.141870
O O12 0.932143 0.589118 0.344906
O O13 0.063541 0.038589 0.407712
O O14 0.000000 0.500000 0.000000
#
# Coordination Sequence:
#
# PCOD9015601 Si02
#       6
#     2   2   2   2   2   2
#     4  11  21  43  69 104 145 190 252 325 380 454
#     4  12  29  52  76 116 162 202 263 329 388 474
#     4  12  23  46  76 106 147 198 256 312 391 455
#     4  10  21  42  64 104 148 177 259 311 378 452
#     4  10  22  37  67 105 141 191 242 317 380 456
#     4  11  26  47  74 101 147 209 256 311 388 472
#
# _framework density 25.308861
#
# number of rings (size 3 to 8) (size 9 to 14) (size 15 to 20)
#    0.000    1.000    3.333    3.000    2.333    3.333 
#    0.000    0.000    0.000    0.000    0.000    0.000 
#    0.000    0.000    0.000    0.000    0.000    0.000 
#
# Total GULP energy -67075.037063 kJ/mol
# GULP energy per Si atom -5589.586422 kJ/mol
# Density = 2.525126 g / cm^3
# Si number density = 25.308861 Si / 1000 Ang^3
#
#
#
# Elastic Constant Matrix: (Units=GPa)
#
#
# Indices 1 2 3 4 5 6 
#
# 1 144.3248 44.8201 53.4842 18.0342 3.3270 10.0747
# 2 44.8201 112.4837 54.5203 31.5960 -8.7250 4.3520
# 3 53.4842 54.5203 132.8036 32.2747 5.0347 1.5190
# 4 18.0342 31.5960 32.2747 50.3718 5.0103 0.8136
# 5 3.3270 -8.7250 5.0347 5.0103 36.3479 6.8402
# 6 10.0747 4.3520 1.5190 0.8136 6.8402 50.5131
#
#
#
# Elastic Compliance Matrix: (Units=1/GPa)
#
#
# Indices 1 2 3 4 5 6 
#
# 1 0.008672 -0.002234 -0.002536 0.000016 -0.000724 -0.001363
# 2 -0.002234 0.013533 -0.003372 -0.006004 0.004973 -0.001196
# 3 -0.002536 -0.003372 0.010919 -0.003816 -0.001707 0.000761
# 4 0.000016 -0.006004 -0.003816 0.026514 -0.004727 0.000842
# 5 -0.000724 0.004973 -0.001707 -0.004727 0.030466 -0.004282
# 6 -0.001363 -0.001196 0.000761 0.000842 -0.004282 0.020715
#
#
# Mechanical properties :
#
#
# Convention : Reuss Voigt Hill
#
# Bulk Modulus (GPa) = 59.38220 77.25125 68.31673
# Shear Modulus (GPa) = 37.67425 43.23240 40.45332
#
# Velocity S-wave (km/s) = 3.86240 4.13751 4.00232
# Velocity P-wave (km/s) = 6.58823 7.30856 6.95772
#
# Compressibility (1/GPa) = 0.01684006
#
# Stress axis : x y z
#
# Youngs Moduli (GPa) = 115.30832 73.89314 91.58482
#
# Poissons Ratio (x) = 0.16509 0.23228
# Poissons Ratio (y) = 0.25761 0.30881
# Poissons Ratio (z) = 0.29244 0.24915
#
# Static dielectric constant tensor:
#      x y z
#    x 1.987160 -0.040300 -0.023710 
#    y -0.040300 2.090530 -0.069070 
#    z -0.023710 -0.069070 2.068780 
# 
# From -- ./inp_files/32896.got.cif
#   From: 2010.05.17/outbox.cif.g08.bks.cpg/sg2_17_cif.got.tgz:32896.got - 2010.06.03 11:33:40.
