data_PCOD9015024
_publ_section_title
;
Structure prediction by ZEFSAII (Michael W. Deem and Ramdas Pophale) SiO2 
 PCOD9015024
Probable space group: P -1
;
_chemical_formula_sum "Si O2"
_cell_formula_units_Z 14
_cell_length_a 7.883448
_cell_length_b 9.809039
_cell_length_c 11.726480
_cell_angle_alpha 89.564034
_cell_angle_beta 52.564352
_cell_angle_gamma 119.842298
_cell_volume 557.671534
_symmetry_space_group_name_H-M "P -1"
_symmetry_group_IT_number 2
_symmetry_cell_setting 'triclinic'
loop_
_space_group_symop_operation_xyz
x,y,z
-x,-y,-z
loop_
_atom_site_type_symbol
_atom_site_label
_atom_site_fract_x
_atom_site_fract_y
_atom_site_fract_z
Si Si1 0.155528 0.620996 0.048122
Si Si2 0.014548 0.146271 0.822030
Si Si3 0.262420 0.239780 0.088541
Si Si4 0.774912 0.133826 0.455508
Si Si5 0.034679 0.512494 0.634601
Si Si6 0.895930 0.767488 0.473707
Si Si7 0.492597 0.445490 0.775046
O O1 0.153013 0.785559 0.068930
O O2 0.965418 0.492189 0.229992
O O3 0.466538 0.699991 0.953111
O O4 0.000000 0.500000 0.000000
O O5 0.075476 0.150295 0.660795
O O6 0.303161 0.295178 0.761892
O O7 0.861101 0.945721 0.919122
O O8 0.033424 0.209334 0.266173
O O9 0.324766 0.375354 0.963282
O O10 0.762269 0.288415 0.488886
O O11 0.858743 0.093932 0.539879
O O12 0.500000 0.000000 0.500000
O O13 0.075257 0.377844 0.576970
O O14 0.743713 0.451227 0.710725
O O15 0.617498 0.633741 0.664425
#
# Coordination Sequence:
#
# PCOD9015024 Si02
#       7
#     2   2   2   2   2   2   2
#     4  10  24  43  67  98 134 176 219 278 333 390
#     4  11  24  43  68 100 136 177 214 276 340 395
#     4  11  26  43  67 102 136 173 223 275 335 396
#     4  11  25  42  68 100 135 175 223 280 330 391
#     4   9  22  42  67  93 131 179 230 268 322 404
#     4  10  23  44  68  94 136 177 227 269 327 401
#     4  10  21  41  70  97 126 176 229 265 325 398
#
# _framework density 25.104384
#
# number of rings (size 3 to 8) (size 9 to 14) (size 15 to 20)
#    0.000    1.714    0.000    3.000   10.000    4.571 
#    2.571    0.000    0.000    0.000    0.000    0.000 
#    0.000    0.000    0.000    0.000    0.000    0.000 
#
# Total GULP energy -78196.906760 kJ/mol
# GULP energy per Si atom -5585.493340 kJ/mol
# Density = 2.504725 g / cm^3
# Si number density = 25.104384 Si / 1000 Ang^3
#
#
#
# Elastic Constant Matrix: (Units=GPa)
#
#
# Indices 1 2 3 4 5 6 
#
# 1 89.1714 38.6045 38.9201 0.4314 -1.9149 35.9963
# 2 38.6045 129.2229 16.2323 0.6235 -5.0194 26.6963
# 3 38.9201 16.2323 106.9625 21.7317 11.7123 24.2592
# 4 0.4314 0.6235 21.7317 39.4646 10.0389 5.1727
# 5 -1.9149 -5.0194 11.7123 10.0389 41.1785 7.8763
# 6 35.9963 26.6963 24.2592 5.1727 7.8763 67.9088
#
#
#
# Elastic Compliance Matrix: (Units=1/GPa)
#
#
# Indices 1 2 3 4 5 6 
#
# 1 0.017648 -0.003129 -0.005304 0.003026 0.002502 -0.006750
# 2 -0.003129 0.009152 0.000132 -0.000261 0.001404 -0.002130
# 3 -0.005304 0.000132 0.013068 -0.006439 -0.002154 -0.001168
# 4 0.003026 -0.000261 -0.006439 0.030316 -0.005279 -0.000898
# 5 0.002502 0.001404 -0.002154 -0.005279 0.027210 -0.003862
# 6 -0.006750 -0.002130 -0.001168 -0.000898 -0.003862 0.020075
#
#
# Mechanical properties :
#
#
# Convention : Reuss Voigt Hill
#
# Bulk Modulus (GPa) = 42.98121 56.98563 49.98342
# Shear Modulus (GPa) = 35.25387 45.15039 40.20213
#
# Velocity S-wave (km/s) = 3.75145 4.24548 4.00609
# Velocity P-wave (km/s) = 5.99355 6.83966 6.43054
#
# Compressibility (1/GPa) = 0.02326598
#
# Stress axis : x y z
#
# Youngs Moduli (GPa) = 56.66310 109.26051 76.52129
#
# Poissons Ratio (x) = 0.34186 0.40590
# Poissons Ratio (y) = 0.17729 -0.01009
# Poissons Ratio (z) = 0.30057 -0.01440
#
# Static dielectric constant tensor:
#      x y z
#    x 2.003480 -0.003150 0.002780 
#    y -0.003150 1.999780 0.030200 
#    z 0.002780 0.030200 2.155750 
# 
# From -- ./inp_files/390355.got.cif
#   From: 2010.05.17/outbox.cif.g08.bks.cpg/sg2_196_cif.got.tgz:390355.got - 2010.06.03 11:33:40.
