data_PCOD9015152
_publ_section_title
;
Structure prediction by ZEFSAII (Michael W. Deem and Ramdas Pophale) SiO2 
 PCOD9015152
Probable space group: P -1
;
_chemical_formula_sum "Si O2"
_cell_formula_units_Z 16
_cell_length_a 11.763855
_cell_length_b 7.776286
_cell_length_c 12.182617
_cell_angle_alpha 111.700095
_cell_angle_beta 47.339100
_cell_angle_gamma 126.786702
_cell_volume 655.117699
_symmetry_space_group_name_H-M "P -1"
_symmetry_group_IT_number 2
_symmetry_cell_setting 'triclinic'
loop_
_space_group_symop_operation_xyz
x,y,z
-x,-y,-z
loop_
_atom_site_type_symbol
_atom_site_label
_atom_site_fract_x
_atom_site_fract_y
_atom_site_fract_z
Si Si1 0.170507 0.373572 0.418851
Si Si2 0.142562 0.795844 0.585682
Si Si3 0.950829 0.734499 0.292855
Si Si4 0.094435 0.183419 0.890289
Si Si5 0.842443 0.274696 0.192978
Si Si6 0.553235 0.446678 0.173317
Si Si7 0.665472 0.212881 0.889736
Si Si8 0.463661 0.045671 0.294682
O O1 0.164098 0.586950 0.502184
O O2 0.119460 0.244206 0.537632
O O3 0.365353 0.427588 0.266211
O O4 0.023524 0.248808 0.392398
O O5 0.120051 0.794793 0.730182
O O6 0.326386 0.999869 0.471765
O O7 0.831175 0.486716 0.273156
O O8 0.148903 0.769514 0.192057
O O9 0.947221 0.868323 0.223017
O O10 0.000672 0.321600 0.017203
O O11 0.304368 0.330042 0.811773
O O12 0.000000 0.000000 0.000000
O O13 0.654170 0.091969 0.224337
O O14 0.507322 0.253164 0.242825
O O15 0.645289 0.405188 0.997483
O O16 0.636235 0.162727 0.768388
O O17 0.500000 0.000000 0.000000
#
# Coordination Sequence:
#
# PCOD9015152 Si02
#       8
#     2   2   2   2   2   2   2   2
#     4  10  24  44  71 101 141 181 234 287 342 411
#     4  10  23  45  68 101 139 188 227 278 349 415
#     4  11  21  47  74  91 140 194 227 276 351 422
#     4  12  26  43  66 104 142 178 231 292 352 406
#     4  11  23  44  71  98 140 188 225 278 347 422
#     4  11  24  44  69 106 136 179 235 296 342 403
#     4  10  21  41  72 100 132 184 239 276 339 419
#     4  11  22  43  74 101 136 184 238 275 344 421
#
# _framework density 24.423095
#
# number of rings (size 3 to 8) (size 9 to 14) (size 15 to 20)
#    0.000    1.250    3.750    2.250    1.750    2.000 
#    6.750    1.250    0.000    0.000    0.000    0.000 
#    0.000    0.000    0.000    0.000    0.000    0.000 
#
# Total GULP energy -89614.134779 kJ/mol
# GULP energy per Si atom -5600.883424 kJ/mol
# Density = 2.436751 g / cm^3
# Si number density = 24.423095 Si / 1000 Ang^3
#
#
#
# Elastic Constant Matrix: (Units=GPa)
#
#
# Indices 1 2 3 4 5 6 
#
# 1 137.5752 35.7338 34.4712 -5.6696 7.2828 5.8021
# 2 35.7338 69.4802 9.8841 -3.1215 11.8155 -1.3479
# 3 34.4712 9.8841 92.4347 -7.9674 9.6967 0.9707
# 4 -5.6696 -3.1215 -7.9674 35.8867 2.9873 4.2163
# 5 7.2828 11.8155 9.6967 2.9873 53.4337 -14.7725
# 6 5.8021 -1.3479 0.9707 4.2163 -14.7725 35.9162
#
#
#
# Elastic Compliance Matrix: (Units=1/GPa)
#
#
# Indices 1 2 3 4 5 6 
#
# 1 0.009221 -0.004283 -0.002869 0.000684 -0.000321 -0.001785
# 2 -0.004283 0.017188 0.000217 0.001170 -0.003375 -0.000194
# 3 -0.002869 0.000217 0.012353 0.002639 -0.002362 -0.001144
# 4 0.000684 0.001170 0.002639 0.029603 -0.003932 -0.005230
# 5 -0.000321 -0.003375 -0.002362 -0.003932 0.022879 0.009861
# 6 -0.001785 -0.000194 -0.001144 -0.005230 0.009861 0.032824
#
#
# Mechanical properties :
#
#
# Convention : Reuss Voigt Hill
#
# Bulk Modulus (GPa) = 40.17943 51.07424 45.62684
# Shear Modulus (GPa) = 34.19125 39.67406 36.93266
#
# Velocity S-wave (km/s) = 3.74566 4.03482 3.89292
# Velocity P-wave (km/s) = 5.93243 6.53177 6.23930
#
# Compressibility (1/GPa) = 0.02488836
#
# Stress axis : x y z
#
# Youngs Moduli (GPa) = 108.45187 58.18163 80.95460
#
# Poissons Ratio (x) = 0.24922 0.23228
# Poissons Ratio (y) = 0.46455 -0.01753
# Poissons Ratio (z) = 0.31118 -0.01260
#
# Static dielectric constant tensor:
#      x y z
#    x 1.924390 -0.077720 0.018600 
#    y -0.077720 2.011420 0.075360 
#    z 0.018600 0.075360 1.957930 
# 
# From -- ./inp_files/419588.got.cif
#   From: 2010.05.17/outbox.cif.g08.bks.cpg/sg2_210_cif.got.tgz:419588.got - 2010.06.03 11:33:40.
