data_PCOD9015806
_publ_section_title
;
Structure prediction by ZEFSAII (Michael W. Deem and Ramdas Pophale) SiO2 
 PCOD9015806
Probable space group: P -1
;
_chemical_formula_sum "Si O2"
_cell_formula_units_Z 14
_cell_length_a 13.427946
_cell_length_b 13.134444
_cell_length_c 8.640700
_cell_angle_alpha 105.562872
_cell_angle_beta 130.157595
_cell_angle_gamma 37.328423
_cell_volume 599.971536
_symmetry_space_group_name_H-M "P -1"
_symmetry_group_IT_number 2
_symmetry_cell_setting 'triclinic'
loop_
_space_group_symop_operation_xyz
x,y,z
-x,-y,-z
loop_
_atom_site_type_symbol
_atom_site_label
_atom_site_fract_x
_atom_site_fract_y
_atom_site_fract_z
Si Si1 0.615543 0.821047 0.958980
Si Si2 0.941251 0.213917 0.130035
Si Si3 0.148969 0.798063 0.629746
Si Si4 0.469610 0.444259 0.593494
Si Si5 0.620857 0.607516 0.064913
Si Si6 0.871263 0.545721 0.545698
Si Si7 0.512543 0.166782 0.500560
O O1 0.529252 0.863429 0.715309
O O2 0.545209 0.765368 0.965947
O O3 0.907918 0.631496 0.191571
O O4 0.500000 0.000000 0.000000
O O5 0.973669 0.163833 0.324050
O O6 0.834752 0.405340 0.099689
O O7 0.728272 0.285412 0.877701
O O8 0.206372 0.027728 0.245609
O O9 0.231959 0.654962 0.528622
O O10 0.406581 0.671326 0.884453
O O11 0.000000 0.000000 0.500000
O O12 0.500000 0.500000 0.500000
O O13 0.446589 0.336954 0.482627
O O14 0.708056 0.568340 0.309997
O O15 0.673856 0.749111 0.523195
O O16 0.000000 0.500000 0.500000
#
# Coordination Sequence:
#
# PCOD9015806 Si02
#       7
#     2   2   2   2   2   2   2
#     4  11  24  44  66  92 125 170 230 282 329 388
#     4  11  22  40  65  98 135 173 214 262 334 414
#     4  11  22  39  66 101 137 177 216 260 327 410
#     4  11  23  39  64 102 138 170 217 267 326 409
#     4  10  21  42  65  90 130 176 214 271 331 387
#     4  10  23  43  64  89 123 168 224 274 325 385
#     4  12  23  41  67  94 130 174 214 280 339 385
#
# _framework density 23.334441000000002
#
# number of rings (size 3 to 8) (size 9 to 14) (size 15 to 20)
#    0.000    1.143    0.000    8.571    0.000    2.286 
#    0.000   15.714    0.000    0.000    0.000    0.000 
#    0.000    0.000    0.000    0.000    0.000    0.000 
#
# Total GULP energy -78287.030939 kJ/mol
# GULP energy per Si atom -5591.930781 kJ/mol
# Density = 2.328133 g / cm^3
# Si number density = 23.334441 Si / 1000 Ang^3
#
#
#
# Elastic Constant Matrix: (Units=GPa)
#
#
# Indices 1 2 3 4 5 6 
#
# 1 83.9378 41.6921 -4.7229 -7.8279 -12.7079 -8.0087
# 2 41.6921 139.8665 36.6740 -4.8849 5.9771 -4.3823
# 3 -4.7229 36.6740 81.3951 -1.6279 4.8898 -12.2239
# 4 -7.8279 -4.8849 -1.6279 46.6252 -4.0078 7.5744
# 5 -12.7079 5.9771 4.8898 -4.0078 28.3532 -6.7476
# 6 -8.0087 -4.3823 -12.2239 7.5744 -6.7476 43.4611
#
#
#
# Elastic Compliance Matrix: (Units=1/GPa)
#
#
# Indices 1 2 3 4 5 6 
#
# 1 0.017610 -0.006525 0.004140 0.002490 0.010068 0.004880
# 2 -0.006525 0.010588 -0.005210 -0.000208 -0.004838 -0.002315
# 3 0.004140 -0.005210 0.015512 0.000031 0.001429 0.004817
# 4 0.002490 -0.000208 0.000031 0.022635 0.003657 -0.002931
# 5 0.010068 -0.004838 0.001429 0.003657 0.042927 0.007797
# 6 0.004880 -0.002315 0.004817 -0.002931 0.007797 0.026751
#
#
# Mechanical properties :
#
#
# Convention : Reuss Voigt Hill
#
# Bulk Modulus (GPa) = 35.06586 50.27621 42.67104
# Shear Modulus (GPa) = 31.11002 39.12498 35.11750
#
# Velocity S-wave (km/s) = 3.65529 4.09920 3.88360
# Velocity P-wave (km/s) = 5.73368 6.63305 6.19969
#
# Compressibility (1/GPa) = 0.02851777
#
# Stress axis : x y z
#
# Youngs Moduli (GPa) = 56.78749 94.44836 64.46756
#
# Poissons Ratio (x) = 0.61627 -0.26687
# Poissons Ratio (y) = 0.37053 0.33590
# Poissons Ratio (z) = -0.23508 0.49210
#
# Static dielectric constant tensor:
#      x y z
#    x 1.926700 -0.009560 0.038560 
#    y -0.009560 1.909760 0.006530 
#    z 0.038560 0.006530 1.913190 
# 
# From -- ./inp_files/315693.got.cif
#   From: 2010.05.17/outbox.cif.g08.bks.cpg/sg2_158_cif.got.tgz:315693.got - 2010.06.03 11:33:40.
