data_PCOD9015578
_publ_section_title
;
Structure prediction by ZEFSAII (Michael W. Deem and Ramdas Pophale) SiO2 
 PCOD9015578
Probable space group: P -1
;
_chemical_formula_sum "Si O2"
_cell_formula_units_Z 14
_cell_length_a 11.562825
_cell_length_b 13.285194
_cell_length_c 19.463700
_cell_angle_alpha 24.504381
_cell_angle_beta 132.991116
_cell_angle_gamma 145.821537
_cell_volume 663.626457
_symmetry_space_group_name_H-M "P -1"
_symmetry_group_IT_number 2
_symmetry_cell_setting 'triclinic'
loop_
_space_group_symop_operation_xyz
x,y,z
-x,-y,-z
loop_
_atom_site_type_symbol
_atom_site_label
_atom_site_fract_x
_atom_site_fract_y
_atom_site_fract_z
Si Si1 0.683787 0.773522 0.013980
Si Si2 0.672410 0.314916 0.644117
Si Si3 0.938451 0.040365 0.540523
Si Si4 0.537590 0.769016 0.632633
Si Si5 0.123957 0.373823 0.613524
Si Si6 0.074480 0.235820 0.997012
Si Si7 0.814926 0.118302 0.301558
O O1 0.498237 0.459605 0.179033
O O2 0.736149 0.649443 0.049163
O O3 0.875944 0.010363 0.001512
O O4 0.652234 0.004255 0.826518
O O5 0.840482 0.573693 0.609328
O O6 0.791862 0.534048 0.487663
O O7 0.428185 0.146015 0.660505
O O8 0.819491 0.961143 0.469879
O O9 0.013196 0.839955 0.703093
O O10 0.772153 0.969920 0.572037
O O11 0.346115 0.554449 0.632728
O O12 0.500000 0.000000 0.500000
O O13 0.000000 0.500000 0.500000
O O14 0.969691 0.002678 0.812027
O O15 0.117768 0.542687 0.857249
#
# Coordination Sequence:
#
# PCOD9015578 Si02
#       7
#     2   2   2   2   2   2   2
#     4  10  22  38  68  96 130 166 218 268 326 384
#     4  12  23  42  67  99 127 170 221 271 320 385
#     4  11  24  45  65  96 134 171 219 268 327 384
#     4  11  23  41  67  96 132 173 211 272 334 378
#     4  11  22  38  64 102 132 164 217 271 325 384
#     4  10  21  42  63  97 133 172 209 272 328 381
#     4  11  24  43  69  93 129 180 218 264 324 395
#
# _framework density 21.096207
#
# number of rings (size 3 to 8) (size 9 to 14) (size 15 to 20)
#    0.000    1.143    4.286    2.143    2.000    2.857 
#    0.000    7.143    0.000    0.000    0.000    0.000 
#    0.000    0.000    0.000    0.000    0.000    0.000 
#
# Total GULP energy -78136.369290 kJ/mol
# GULP energy per Si atom -5581.169235 kJ/mol
# Density = 2.104819 g / cm^3
# Si number density = 21.096207 Si / 1000 Ang^3
#
#
#
# Elastic Constant Matrix: (Units=GPa)
#
#
# Indices 1 2 3 4 5 6 
#
# 1 114.8705 32.6751 46.7218 -7.3014 23.1263 23.2602
# 2 32.6751 91.1021 21.0002 -7.8869 2.1447 22.5567
# 3 46.7218 21.0002 91.2660 4.8446 7.7577 8.5380
# 4 -7.3014 -7.8869 4.8446 23.6682 -7.2471 2.1976
# 5 23.1263 2.1447 7.7577 -7.2471 37.5132 3.3274
# 6 23.2602 22.5567 8.5380 2.1976 3.3274 29.7708
#
#
#
# Elastic Compliance Matrix: (Units=1/GPa)
#
#
# Indices 1 2 3 4 5 6 
#
# 1 0.014829 -0.001272 -0.006208 0.004309 -0.006202 -0.008467
# 2 -0.001272 0.015165 -0.002446 0.006977 0.002713 -0.010613
# 3 -0.006208 -0.002446 0.014796 -0.006206 -0.000556 0.002981
# 4 0.004309 0.006977 -0.006206 0.051052 0.009125 -0.011662
# 5 -0.006202 0.002713 -0.000556 0.009125 0.032322 -0.001336
# 6 -0.008467 -0.010613 0.002981 -0.011662 -0.001336 0.048401
#
#
# Mechanical properties :
#
#
# Convention : Reuss Voigt Hill
#
# Bulk Modulus (GPa) = 40.10200 55.33695 47.71948
# Shear Modulus (GPa) = 24.42223 31.31323 27.86773
#
# Velocity S-wave (km/s) = 3.40613 3.85685 3.63848
# Velocity P-wave (km/s) = 5.87532 6.79128 6.34983
#
# Compressibility (1/GPa) = 0.02493641
#
# Stress axis : x y z
#
# Youngs Moduli (GPa) = 67.43342 65.94227 67.58639
#
# Poissons Ratio (x) = 0.08390 0.41960
# Poissons Ratio (y) = 0.08580 0.16533
# Poissons Ratio (z) = 0.41865 0.16131
#
# Static dielectric constant tensor:
#      x y z
#    x 1.851640 -0.190290 0.041390 
#    y -0.190290 2.397910 -0.062280 
#    z 0.041390 -0.062280 1.742940 
# 
# From -- ./inp_files/175884.got.cif
#   From: 2010.05.17/outbox.cif.g08.bks.cpg/sg2_88_cif.got.tgz:175884.got - 2010.06.03 11:33:40.
