data_PCOD9015605
_publ_section_title
;
Structure prediction by ZEFSAII (Michael W. Deem and Ramdas Pophale) SiO2 
 PCOD9015605
Probable space group: P -1
;
_chemical_formula_sum "Si O2"
_cell_formula_units_Z 10
_cell_length_a 7.647770
_cell_length_b 16.162265
_cell_length_c 7.357303
_cell_angle_alpha 95.539784
_cell_angle_beta 102.444732
_cell_angle_gamma 28.933493
_cell_volume 421.389337
_symmetry_space_group_name_H-M "P -1"
_symmetry_group_IT_number 2
_symmetry_cell_setting 'triclinic'
loop_
_space_group_symop_operation_xyz
x,y,z
-x,-y,-z
loop_
_atom_site_type_symbol
_atom_site_label
_atom_site_fract_x
_atom_site_fract_y
_atom_site_fract_z
Si Si1 0.325140 0.677489 0.365596
Si Si2 0.483523 0.731576 0.927147
Si Si3 0.365965 0.603688 0.768649
Si Si4 0.870418 0.659614 0.673748
Si Si5 0.730656 0.124164 0.716657
O O1 0.270689 0.679822 0.564693
O O2 0.303703 0.598830 0.236703
O O3 0.767031 0.518710 0.397721
O O4 0.117953 0.844311 0.288267
O O5 0.474172 0.636055 0.924473
O O6 0.010702 0.694125 0.769952
O O7 0.516742 0.763796 0.133241
O O8 0.075246 0.924856 0.800043
O O9 0.770643 0.643810 0.819476
O O10 0.515945 0.805777 0.491516
#
# Coordination Sequence:
#
# PCOD9015605 Si02
#       5
#     2   2   2   2   2
#     4   9  20  40  64  89 117 154 204 244 291 352
#     4  11  24  41  59  91 123 157 198 240 304 349
#     4   9  21  40  62  91 118 153 203 242 297 354
#     4  10  21  42  64  85 118 163 196 243 296 354
#     4  11  23  40  62  89 124 155 197 252 287 355
#
# _framework density 23.731023
#
# number of rings (size 3 to 8) (size 9 to 14) (size 15 to 20)
#    1.200    0.800    2.000    1.200    0.000    2.400 
#    3.600    2.000    0.000    0.000    0.000    0.000 
#    0.000    0.000    0.000    0.000    0.000    0.000 
#
# Total GULP energy -55905.324843 kJ/mol
# GULP energy per Si atom -5590.532484 kJ/mol
# Density = 2.367701 g / cm^3
# Si number density = 23.731023 Si / 1000 Ang^3
#
#
#
# Elastic Constant Matrix: (Units=GPa)
#
#
# Indices 1 2 3 4 5 6 
#
# 1 123.0470 24.3893 41.7126 11.2942 -3.5570 17.9573
# 2 24.3893 78.0107 14.9814 0.2173 13.7870 15.8370
# 3 41.7126 14.9814 101.4035 -3.1475 -7.2710 6.1073
# 4 11.2942 0.2173 -3.1475 32.8257 2.1154 -0.5314
# 5 -3.5570 13.7870 -7.2710 2.1154 41.8852 2.8192
# 6 17.9573 15.8370 6.1073 -0.5314 2.8192 19.0960
#
#
#
# Elastic Compliance Matrix: (Units=1/GPa)
#
#
# Indices 1 2 3 4 5 6 
#
# 1 0.011503 -0.001288 -0.004044 -0.004578 0.001523 -0.008807
# 2 -0.001288 0.016756 -0.001619 0.000325 -0.005155 -0.011398
# 3 -0.004044 -0.001619 0.011922 0.002430 0.002062 0.001096
# 4 -0.004578 0.000325 0.002430 0.032472 -0.002014 0.004459
# 5 0.001523 -0.005155 0.002062 -0.002014 0.026279 -0.001752
# 6 -0.008807 -0.011398 0.001096 0.004459 -0.001752 0.070134
#
#
# Mechanical properties :
#
#
# Convention : Reuss Voigt Hill
#
# Bulk Modulus (GPa) = 38.05300 51.62531 44.83916
# Shear Modulus (GPa) = 26.07892 33.51991 29.79941
#
# Velocity S-wave (km/s) = 3.31862 3.76239 3.54745
# Velocity P-wave (km/s) = 5.54565 6.37775 5.97620
#
# Compressibility (1/GPa) = 0.02627914
#
# Stress axis : x y z
#
# Youngs Moduli (GPa) = 86.93662 59.67897 83.88186
#
# Poissons Ratio (x) = 0.07687 0.33920
# Poissons Ratio (y) = 0.11197 0.13580
# Poissons Ratio (z) = 0.35155 0.09661
#
# Static dielectric constant tensor:
#      x y z
#    x 1.894480 0.041680 0.001820 
#    y 0.041680 1.929760 0.027290 
#    z 0.001820 0.027290 1.883450 
# 
# From -- ./inp_files/63013.got.cif
#   From: 2010.05.17/outbox.cif.g08.bks.cpg/sg2_32_cif.got.tgz:63013.got - 2010.06.03 11:33:40.
