data_PCOD9015943
_publ_section_title
;
Structure prediction by ZEFSAII (Michael W. Deem and Ramdas Pophale) SiO2 
 PCOD9015943
Probable space group: P -1
;
_chemical_formula_sum "Si O2"
_cell_formula_units_Z 16
_cell_length_a 13.592350
_cell_length_b 19.400685
_cell_length_c 9.741368
_cell_angle_alpha 33.029262
_cell_angle_beta 145.088309
_cell_angle_gamma 148.077825
_cell_volume 685.966941
_symmetry_space_group_name_H-M "P -1"
_symmetry_group_IT_number 2
_symmetry_cell_setting 'triclinic'
loop_
_space_group_symop_operation_xyz
x,y,z
-x,-y,-z
loop_
_atom_site_type_symbol
_atom_site_label
_atom_site_fract_x
_atom_site_fract_y
_atom_site_fract_z
Si Si1 0.284494 0.980347 0.800690
Si Si2 0.377373 0.700101 0.041096
Si Si3 0.245724 0.971312 0.076405
Si Si4 0.059036 0.737799 0.475955
Si Si5 0.046500 0.155239 0.572367
Si Si6 0.482647 0.317026 0.474243
Si Si7 0.745694 0.568405 0.837450
Si Si8 0.109941 0.547338 0.401912
O O1 0.314983 0.143360 0.570822
O O2 0.152065 0.897394 0.657028
O O3 0.208616 0.909260 0.982690
O O4 0.500000 0.000000 0.000000
O O5 0.543724 0.873820 0.930788
O O6 0.166957 0.687389 0.792379
O O7 0.396087 0.652554 0.294219
O O8 0.382874 0.590949 0.116184
O O9 0.216742 0.855211 0.352123
O O10 0.088537 0.023465 0.833127
O O11 0.963643 0.807842 0.343983
O O12 0.910805 0.596727 0.454142
O O13 0.213443 0.302277 0.439239
O O14 0.369600 0.408458 0.205955
O O15 0.649886 0.343808 0.507518
O O16 0.963341 0.590180 0.083907
O O17 0.000000 0.500000 0.500000
#
# Coordination Sequence:
#
# PCOD9015943 Si02
#       8
#     2   2   2   2   2   2   2   2
#     4  11  24  41  69  97 131 179 229 275 330 403
#     4  10  21  42  66 100 126 174 226 274 333 397
#     4  11  24  41  66  99 134 177 217 280 339 396
#     4  11  25  42  65  96 140 177 216 278 342 402
#     4  12  23  42  68 102 130 174 229 277 336 394
#     4  11  23  43  70  98 131 178 230 278 333 398
#     4  11  23  42  73  97 133 173 231 284 325 405
#     4  11  27  45  67  99 137 181 221 280 345 402
#
# _framework density 23.324739000000001
#
# number of rings (size 3 to 8) (size 9 to 14) (size 15 to 20)
#    0.000    1.000    2.500    5.250    5.250    2.500 
#    2.250    0.000    0.000    0.000    0.000    0.000 
#    0.000    0.000    0.000    0.000    0.000    0.000 
#
# Total GULP energy -89463.474659 kJ/mol
# GULP energy per Si atom -5591.467166 kJ/mol
# Density = 2.327165 g / cm^3
# Si number density = 23.324739 Si / 1000 Ang^3
#
#
#
# Elastic Constant Matrix: (Units=GPa)
#
#
# Indices 1 2 3 4 5 6 
#
# 1 120.0124 1.1490 6.0723 -6.1850 -1.4178 -10.0318
# 2 1.1490 63.1656 -9.3565 -4.4722 -10.7842 -10.1527
# 3 6.0723 -9.3565 30.7100 -2.8842 5.1481 -6.6987
# 4 -6.1850 -4.4722 -2.8842 26.7896 1.5382 4.4853
# 5 -1.4178 -10.7842 5.1481 1.5382 31.9895 -1.8117
# 6 -10.0318 -10.1527 -6.6987 4.4853 -1.8117 36.3559
#
#
#
# Elastic Compliance Matrix: (Units=1/GPa)
#
#
# Indices 1 2 3 4 5 6 
#
# 1 0.008650 0.000232 -0.001158 0.001522 0.000693 0.002085
# 2 0.000232 0.018966 0.006448 0.002500 0.005615 0.006520
# 3 -0.001158 0.006448 0.037404 0.003751 -0.003640 0.007729
# 4 0.001522 0.002500 0.003751 0.039121 -0.001750 -0.003104
# 5 0.000693 0.005615 -0.003640 -0.001750 0.034024 0.003000
# 6 0.002085 0.006520 0.007729 -0.003104 0.003000 0.031859
#
#
# Mechanical properties :
#
#
# Convention : Reuss Voigt Hill
#
# Bulk Modulus (GPa) = 13.14661 23.29086 18.21874
# Shear Modulus (GPa) = 27.12475 33.42854 30.27665
#
# Velocity S-wave (km/s) = 3.41386 3.78984 3.60675
# Velocity P-wave (km/s) = 4.60302 5.39979 5.01725
#
# Compressibility (1/GPa) = 0.07606524
#
# Stress axis : x y z
#
# Youngs Moduli (GPa) = 115.61014 52.72596 26.73475
#
# Poissons Ratio (x) = -0.01225 0.03096
# Poissons Ratio (y) = -0.02686 -0.17239
# Poissons Ratio (z) = 0.13387 -0.33998
#
# Static dielectric constant tensor:
#      x y z
#    x 1.902120 0.026530 0.022840 
#    y 0.026530 1.902810 -0.001770 
#    z 0.022840 -0.001770 1.900800 
# 
# From -- ./inp_files/257646.got.cif
#   From: 2010.05.17/outbox.cif.g08.bks.cpg/sg2_129_cif.got.tgz:257646.got - 2010.06.03 11:33:40.
