data_PCOD9015426
_publ_section_title
;
Structure prediction by ZEFSAII (Michael W. Deem and Ramdas Pophale) SiO2 
 PCOD9015426
Probable space group: P -1
;
_chemical_formula_sum "Si O2"
_cell_formula_units_Z 15
_cell_length_a 12.122037
_cell_length_b 7.498456
_cell_length_c 13.321582
_cell_angle_alpha 121.995353
_cell_angle_beta 46.773169
_cell_angle_gamma 90.361442
_cell_volume 611.137627
_symmetry_space_group_name_H-M "P -1"
_symmetry_group_IT_number 2
_symmetry_cell_setting 'triclinic'
loop_
_space_group_symop_operation_xyz
x,y,z
-x,-y,-z
loop_
_atom_site_type_symbol
_atom_site_label
_atom_site_fract_x
_atom_site_fract_y
_atom_site_fract_z
Si Si1 0.042747 0.237155 0.254829
Si Si2 0.802773 0.700992 0.025451
Si Si3 0.336071 0.530963 0.739757
Si Si4 0.238251 0.860767 0.696754
Si Si5 0.000000 0.500000 0.000000
Si Si6 0.248074 0.723340 0.283254
Si Si7 0.128716 0.199954 0.406061
Si Si8 0.616759 0.468253 0.075092
O O1 0.912328 0.146839 0.275843
O O2 0.900313 0.539105 0.465294
O O3 0.174366 0.131261 0.239921
O O4 0.152739 0.232103 0.087100
O O5 0.613164 0.727879 0.164357
O O6 0.955223 0.421836 0.891219
O O7 0.836810 0.845364 0.139037
O O8 0.269877 0.719654 0.742020
O O9 0.553683 0.296232 0.523144
O O10 0.326543 0.661757 0.890645
O O11 0.192987 0.458365 0.818738
O O12 0.424297 0.522170 0.177993
O O13 0.068060 0.763763 0.452683
O O14 0.248405 0.973937 0.342972
O O15 0.262713 0.641184 0.133889
#
# Coordination Sequence:
#
# PCOD9015426 Si02
#       8
#     2   2   2   2   1   2   2   2
#     4  11  22  41  62  96 127 164 212 268 307 383
#     4  11  23  41  63  95 128 172 206 264 311 388
#     4  10  23  41  61  96 123 172 203 267 305 386
#     4  11  24  41  66  93 134 164 215 251 326 373
#     4  10  22  40  62  88 130 164 208 248 318 362
#     4  10  21  42  62  92 117 173 206 266 314 376
#     4  10  23  40  68  88 123 163 216 262 319 366
#     4  10  22  40  62  89 133 156 216 258 317 380
#
# _framework density 24.544388000000001
#
# number of rings (size 3 to 8) (size 9 to 14) (size 15 to 20)
#    0.000    1.600    2.667    1.200    1.867    5.333 
#    2.400    0.667    0.000    0.000    0.000    0.000 
#    0.000    0.000    0.000    0.000    0.000    0.000 
#
# Total GULP energy -83544.586401 kJ/mol
# GULP energy per Si atom -5569.639093 kJ/mol
# Density = 2.448852 g / cm^3
# Si number density = 24.544388 Si / 1000 Ang^3
#
#
#
# Elastic Constant Matrix: (Units=GPa)
#
#
# Indices 1 2 3 4 5 6 
#
# 1 113.8848 24.5365 32.8947 -10.2442 6.0332 -4.2091
# 2 24.5365 92.5653 30.9465 -19.4969 5.7069 2.0346
# 3 32.8947 30.9465 74.0649 -20.1133 2.2569 4.0960
# 4 -10.2442 -19.4969 -20.1133 40.2211 5.1414 10.0698
# 5 6.0332 5.7069 2.2569 5.1414 37.2705 3.7192
# 6 -4.2091 2.0346 4.0960 10.0698 3.7192 35.3202
#
#
#
# Elastic Compliance Matrix: (Units=1/GPa)
#
#
# Indices 1 2 3 4 5 6 
#
# 1 0.010416 -0.001410 -0.004250 -0.000510 -0.001352 0.002103
# 2 -0.001410 0.013616 -0.003474 0.005238 -0.002188 -0.001812
# 3 -0.004250 -0.003474 0.019351 0.008195 -0.000601 -0.004824
# 4 -0.000510 0.005238 0.008195 0.034674 -0.004933 -0.010679
# 5 -0.001352 -0.002188 -0.000601 -0.004933 0.028255 -0.001534
# 6 0.002103 -0.001812 -0.004824 -0.010679 -0.001534 0.032433
#
#
# Mechanical properties :
#
#
# Convention : Reuss Voigt Hill
#
# Bulk Modulus (GPa) = 39.81706 50.80782 45.31244
# Shear Modulus (GPa) = 30.23247 35.37152 32.80199
#
# Velocity S-wave (km/s) = 3.51343 3.80033 3.65970
# Velocity P-wave (km/s) = 5.71985 6.32472 6.02987
#
# Compressibility (1/GPa) = 0.02511487
#
# Stress axis : x y z
#
# Youngs Moduli (GPa) = 96.00785 73.44182 51.67595
#
# Poissons Ratio (x) = 0.10357 0.21964
# Poissons Ratio (y) = 0.13539 0.17951
# Poissons Ratio (z) = 0.40807 0.25512
#
# Static dielectric constant tensor:
#      x y z
#    x 2.094380 -0.232610 0.000240 
#    y -0.232610 2.507620 0.225210 
#    z 0.000240 0.225210 2.015870 
# 
# From -- ./inp_files/173171.got.cif
#   From: 2010.05.17/outbox.cif.g08.bks.cpg/sg2_87_cif.got.tgz:173171.got - 2010.06.03 11:33:40.
