data_PCOD9015082
_publ_section_title
;
Structure prediction by ZEFSAII (Michael W. Deem and Ramdas Pophale) SiO2 
 PCOD9015082
Probable space group: P -1
;
_chemical_formula_sum "Si O2"
_cell_formula_units_Z 14
_cell_length_a 8.840398
_cell_length_b 9.112679
_cell_length_c 16.479586
_cell_angle_alpha 29.182552
_cell_angle_beta 117.868834
_cell_angle_gamma 116.656998
_cell_volume 569.712650
_symmetry_space_group_name_H-M "P -1"
_symmetry_group_IT_number 2
_symmetry_cell_setting 'triclinic'
loop_
_space_group_symop_operation_xyz
x,y,z
-x,-y,-z
loop_
_atom_site_type_symbol
_atom_site_label
_atom_site_fract_x
_atom_site_fract_y
_atom_site_fract_z
Si Si1 0.077442 0.343892 0.853333
Si Si2 0.577544 0.700419 0.629494
Si Si3 0.244620 0.522734 0.379837
Si Si4 0.577904 0.787832 0.933970
Si Si5 0.631292 0.900313 0.146088
Si Si6 0.097676 0.222185 0.635669
Si Si7 0.923371 0.614887 0.841926
O O1 0.958405 0.489370 0.687850
O O2 0.027173 0.480374 0.860334
O O3 0.282423 0.339270 0.908112
O O4 0.000000 0.000000 0.000000
O O5 0.670189 0.662821 0.582082
O O6 0.416727 0.456580 0.695350
O O7 0.720380 0.582948 0.784239
O O8 0.500000 0.000000 0.500000
O O9 0.247071 0.350283 0.548637
O O10 0.325534 0.879874 0.232920
O O11 0.419263 0.904145 0.884721
O O12 0.500000 0.500000 0.000000
O O13 0.834501 0.922584 0.193760
O O14 0.500000 0.000000 0.000000
O O15 0.000000 0.500000 0.500000
O O16 0.973219 0.971425 0.682398
O O17 0.000000 0.500000 0.000000
#
# Coordination Sequence:
#
# PCOD9015082 Si02
#       7
#     2   2   2   2   2   2   2
#     4   9  20  40  68  97 134 181 224 277 344 396
#     4  10  22  46  70  98 136 183 220 286 352 394
#     4   9  23  44  69  97 141 177 234 278 337 421
#     4  10  21  41  71 102 131 179 226 281 345 402
#     4  11  25  46  64 101 140 176 228 281 347 413
#     4  12  27  44  69 103 139 184 229 288 345 395
#     4  11  24  43  70 102 133 178 240 277 332 423
#
# _framework density 24.573791
#
# number of rings (size 3 to 8) (size 9 to 14) (size 15 to 20)
#    0.000    1.714    0.000    3.429    6.000    4.571 
#   10.286    0.000    0.000    0.000    0.000    0.000 
#    0.000    0.000    0.000    0.000    0.000    0.000 
#
# Total GULP energy -78047.858498 kJ/mol
# GULP energy per Si atom -5574.847036 kJ/mol
# Density = 2.451786 g / cm^3
# Si number density = 24.573791 Si / 1000 Ang^3
#
#
#
# Elastic Constant Matrix: (Units=GPa)
#
#
# Indices 1 2 3 4 5 6 
#
# 1 69.4195 37.9856 42.1186 -6.2184 22.0206 -7.6359
# 2 37.9856 167.5242 71.5690 -21.5902 10.7595 -6.2021
# 3 42.1186 71.5690 96.6063 -1.9100 22.2124 -17.5027
# 4 -6.2184 -21.5902 -1.9100 64.7842 1.9688 16.8192
# 5 22.0206 10.7595 22.2124 1.9688 47.6818 -3.7000
# 6 -7.6359 -6.2021 -17.5027 16.8192 -3.7000 45.5637
#
#
#
# Elastic Compliance Matrix: (Units=1/GPa)
#
#
# Indices 1 2 3 4 5 6 
#
# 1 0.021508 -0.001265 -0.006988 0.001744 -0.006497 -0.000424
# 2 -0.001265 0.009694 -0.007436 0.003614 0.001482 -0.002963
# 3 -0.006988 -0.007436 0.021079 -0.004255 -0.004184 0.007145
# 4 0.001744 0.003614 -0.004255 0.018753 -0.001023 -0.007856
# 5 -0.006497 0.001482 -0.004184 -0.001023 0.025627 -0.000036
# 6 -0.000424 -0.002963 0.007145 -0.007856 -0.000036 0.027115
#
#
# Mechanical properties :
#
#
# Convention : Reuss Voigt Hill
#
# Bulk Modulus (GPa) = 47.84143 70.76625 59.30384
# Shear Modulus (GPa) = 30.84105 43.73107 37.28606
#
# Velocity S-wave (km/s) = 3.54650 4.22309 3.89949
# Velocity P-wave (km/s) = 6.02336 7.25529 6.66784
#
# Compressibility (1/GPa) = 0.02090238
#
# Stress axis : x y z
#
# Youngs Moduli (GPa) = 46.49459 103.15887 47.43975
#
# Poissons Ratio (x) = 0.13048 0.33153
# Poissons Ratio (y) = 0.05881 0.35276
# Poissons Ratio (z) = 0.32493 0.76709
#
# Static dielectric constant tensor:
#      x y z
#    x 2.111210 0.232320 0.232020 
#    y 0.232320 2.597820 1.051430 
#    z 0.232020 1.051430 3.480000 
# 
# From -- ./inp_files/556745.got.cif
#   From: 2010.05.17/outbox.cif.g08.bks.cpg/sg2_279_cif.got.tgz:556745.got - 2010.06.03 11:33:40.
