data_PCOD9015287
_publ_section_title
;
Structure prediction by ZEFSAII (Michael W. Deem and Ramdas Pophale) SiO2 
 PCOD9015287
Probable space group: P -1
;
_chemical_formula_sum "Si O2"
_cell_formula_units_Z 16
_cell_length_a 9.347376
_cell_length_b 11.592031
_cell_length_c 12.555560
_cell_angle_alpha 132.135302
_cell_angle_beta 46.813828
_cell_angle_gamma 127.919099
_cell_volume 704.556012
_symmetry_space_group_name_H-M "P -1"
_symmetry_group_IT_number 2
_symmetry_cell_setting 'triclinic'
loop_
_space_group_symop_operation_xyz
x,y,z
-x,-y,-z
loop_
_atom_site_type_symbol
_atom_site_label
_atom_site_fract_x
_atom_site_fract_y
_atom_site_fract_z
Si Si1 0.686713 0.927659 0.349622
Si Si2 0.130816 0.336191 0.858036
Si Si3 0.051303 0.575043 0.203780
Si Si4 0.143106 0.586020 0.575857
Si Si5 0.017905 0.871999 0.502062
Si Si6 0.671467 0.148584 0.056796
Si Si7 0.589548 0.613103 0.623470
Si Si8 0.199720 0.945318 0.839187
O O1 0.700210 0.758140 0.283644
O O2 0.500000 0.000000 0.500000
O O3 0.696032 0.915350 0.210286
O O4 0.873430 0.046829 0.395630
O O5 0.103409 0.398013 0.792436
O O6 0.175368 0.477438 0.011673
O O7 0.901675 0.215042 0.930916
O O8 0.950826 0.471039 0.293608
O O9 0.143163 0.755263 0.315401
O O10 0.332587 0.510615 0.420214
O O11 0.175580 0.778300 0.681704
O O12 0.000000 0.500000 0.500000
O O13 0.792865 0.756343 0.574223
O O14 0.000000 0.000000 0.500000
O O15 0.570736 0.296390 0.198877
O O16 0.698465 0.087379 0.124139
O O17 0.500000 0.000000 0.000000
O O18 0.500000 0.500000 0.500000
O O19 0.000000 0.000000 0.000000
#
# Coordination Sequence:
#
# PCOD9015287 Si02
#       8
#     2   2   2   2   2   2   2   2
#     4  12  27  44  69 103 144 193 235 297 366 434
#     4  11  22  46  67 100 139 185 233 293 356 421
#     4  10  21  41  75  92 136 183 228 281 364 409
#     4  11  23  42  70 101 136 185 232 294 357 422
#     4  11  23  42  70 102 142 178 238 295 356 423
#     4  12  25  40  69 102 137 181 240 293 353 424
#     4  11  23  44  70 101 137 184 243 291 348 428
#     4  12  24  44  68  97 147 185 235 296 367 423
#
# _framework density 22.709337000000001
#
# number of rings (size 3 to 8) (size 9 to 14) (size 15 to 20)
#    0.000    0.750    5.000    3.000    3.500    0.000 
#    4.500    0.625    0.000    0.000    0.000    0.000 
#    0.000    0.000    0.000    0.000    0.000    0.000 
#
# Total GULP energy -89313.911867 kJ/mol
# GULP energy per Si atom -5582.119492 kJ/mol
# Density = 2.265765 g / cm^3
# Si number density = 22.709337 Si / 1000 Ang^3
#
#
#
# Elastic Constant Matrix: (Units=GPa)
#
#
# Indices 1 2 3 4 5 6 
#
# 1 142.3705 41.3549 46.3442 7.4336 -2.4187 -15.3801
# 2 41.3549 96.1631 25.2163 7.3770 1.8749 -2.0498
# 3 46.3442 25.2163 110.2919 18.9117 -16.0224 -5.8088
# 4 7.4336 7.3770 18.9117 53.7853 -12.4363 0.7666
# 5 -2.4187 1.8749 -16.0224 -12.4363 51.6676 4.1531
# 6 -15.3801 -2.0498 -5.8088 0.7666 4.1531 35.1490
#
#
#
# Elastic Compliance Matrix: (Units=1/GPa)
#
#
# Indices 1 2 3 4 5 6 
#
# 1 0.009300 -0.003095 -0.003123 0.000028 -0.000692 0.003454
# 2 -0.003095 0.012219 -0.001544 -0.000983 -0.001245 -0.000728
# 3 -0.003123 -0.001544 0.011633 -0.002795 0.002829 0.000192
# 4 0.000028 -0.000983 -0.002795 0.020715 0.004274 -0.001464
# 5 -0.000692 -0.001245 0.002829 0.004274 0.021477 -0.002539
# 6 0.003454 -0.000728 0.000192 -0.001464 -0.002539 0.030283
#
#
# Mechanical properties :
#
#
# Convention : Reuss Voigt Hill
#
# Bulk Modulus (GPa) = 56.73313 63.85070 60.29192
# Shear Modulus (GPa) = 39.36164 43.84771 41.60467
#
# Velocity S-wave (km/s) = 4.16778 4.39888 4.28489
# Velocity P-wave (km/s) = 6.94241 7.34695 7.14755
#
# Compressibility (1/GPa) = 0.01762639
#
# Stress axis : x y z
#
# Youngs Moduli (GPa) = 107.53113 81.83912 85.96484
#
# Poissons Ratio (x) = 0.25332 0.26850
# Poissons Ratio (y) = 0.33284 0.13271
# Poissons Ratio (z) = 0.33587 0.12634
#
# Static dielectric constant tensor:
#      x y z
#    x 1.779850 0.045340 -0.036100 
#    y 0.045340 1.951120 -0.008410 
#    z -0.036100 -0.008410 1.862020 
# 
# From -- ./inp_files/392981.got.cif
#   From: 2010.05.17/outbox.cif.g08.bks.cpg/sg2_197_cif.got.tgz:392981.got - 2010.06.03 11:33:40.
