data_PCOD9015307
_publ_section_title
;
Structure prediction by ZEFSAII (Michael W. Deem and Ramdas Pophale) SiO2 
 PCOD9015307
Probable space group: P -1
;
_chemical_formula_sum "Si O2"
_cell_formula_units_Z 14
_cell_length_a 9.964856
_cell_length_b 8.989186
_cell_length_c 16.983046
_cell_angle_alpha 126.508492
_cell_angle_beta 42.415168
_cell_angle_gamma 95.157361
_cell_volume 630.690520
_symmetry_space_group_name_H-M "P -1"
_symmetry_group_IT_number 2
_symmetry_cell_setting 'triclinic'
loop_
_space_group_symop_operation_xyz
x,y,z
-x,-y,-z
loop_
_atom_site_type_symbol
_atom_site_label
_atom_site_fract_x
_atom_site_fract_y
_atom_site_fract_z
Si Si1 0.093982 0.059585 0.288924
Si Si2 0.775708 0.315095 0.773735
Si Si3 0.431628 0.728272 0.486571
Si Si4 0.676856 0.856857 0.543675
Si Si5 0.694786 0.595456 0.600591
Si Si6 0.710611 0.604783 0.165222
Si Si7 0.525625 0.325248 0.114846
O O1 0.866266 0.071688 0.350301
O O2 0.966464 0.336678 0.426979
O O3 0.145079 0.939243 0.313928
O O4 0.341334 0.891315 0.072623
O O5 0.705087 0.429778 0.753767
O O6 0.043519 0.268977 0.657935
O O7 0.500000 0.500000 0.000000
O O8 0.517806 0.799515 0.544267
O O9 0.447941 0.494081 0.410170
O O10 0.609844 0.680708 0.321653
O O11 0.715547 0.747112 0.578432
O O12 0.496701 0.147762 0.715564
O O13 0.545087 0.721837 0.786326
O O14 0.705036 0.393809 0.077974
O O15 0.000000 0.500000 0.000000
#
# Coordination Sequence:
#
# PCOD9015307 Si02
#       7
#     2   2   2   2   2   2   2
#     4   9  19  41  62  86 121 163 195 249 307 344
#     4  10  22  37  65  89 115 165 207 250 293 352
#     4   9  20  39  61  85 123 155 196 251 304 348
#     4  12  21  39  62  91 123 158 202 245 309 361
#     4   9  22  39  61  90 121 166 189 250 312 359
#     4  11  23  36  62  95 116 159 205 255 299 355
#     4  10  21  42  58  87 128 154 207 248 292 363
#
# _framework density 22.197893000000001
#
# number of rings (size 3 to 8) (size 9 to 14) (size 15 to 20)
#    0.857    1.143    1.429    1.714    4.000    2.857 
#    2.571    5.000    0.000    0.000    0.000    0.000 
#    0.000    0.000    0.000    0.000    0.000    0.000 
#
# Total GULP energy -78058.043481 kJ/mol
# GULP energy per Si atom -5575.574534 kJ/mol
# Density = 2.214737 g / cm^3
# Si number density = 22.197893 Si / 1000 Ang^3
#
#
#
# Elastic Constant Matrix: (Units=GPa)
#
#
# Indices 1 2 3 4 5 6 
#
# 1 66.0349 17.7700 14.6408 -6.3295 -17.5384 10.1553
# 2 17.7700 148.3012 50.1199 -11.8666 0.7655 -9.0025
# 3 14.6408 50.1199 111.3382 -2.6821 -9.1634 7.0956
# 4 -6.3295 -11.8666 -2.6821 21.8489 2.3286 -7.2938
# 5 -17.5384 0.7655 -9.1634 2.3286 35.1023 -4.5202
# 6 10.1553 -9.0025 7.0956 -7.2938 -4.5202 24.4098
#
#
#
# Elastic Compliance Matrix: (Units=1/GPa)
#
#
# Indices 1 2 3 4 5 6 
#
# 1 0.019399 -0.002689 -0.000145 0.000821 0.008737 -0.007157
# 2 -0.002689 0.009566 -0.004452 0.006610 -0.002186 0.007511
# 3 -0.000145 -0.004452 0.011481 -0.003117 0.002536 -0.005381
# 4 0.000821 0.006610 -0.003117 0.055868 -0.001759 0.019370
# 5 0.008737 -0.002186 0.002536 -0.001759 0.033750 0.000546
# 6 -0.007157 0.007511 -0.005381 0.019370 0.000546 0.054168
#
#
# Mechanical properties :
#
#
# Convention : Reuss Voigt Hill
#
# Bulk Modulus (GPa) = 38.64955 54.52619 46.58787
# Shear Modulus (GPa) = 24.10441 32.48178 28.29309
#
# Velocity S-wave (km/s) = 3.29886 3.82944 3.57401
# Velocity P-wave (km/s) = 5.65324 6.64604 6.16964
#
# Compressibility (1/GPa) = 0.02587352
#
# Stress axis : x y z
#
# Youngs Moduli (GPa) = 51.54826 104.53624 87.09766
#
# Poissons Ratio (x) = 0.28112 0.01267
# Poissons Ratio (y) = 0.13862 0.38776
# Poissons Ratio (z) = 0.00750 0.46539
#
# Static dielectric constant tensor:
#      x y z
#    x 1.862360 0.020880 -0.016650 
#    y 0.020880 1.808370 -0.006700 
#    z -0.016650 -0.006700 1.841360 
# 
# From -- ./inp_files/565398.got.cif
#   From: 2010.05.17/outbox.cif.g08.bks.cpg/sg2_283_cif.got.tgz:565398.got - 2010.06.03 11:33:40.
