data_PCOD9015045
_publ_section_title
;
Structure prediction by ZEFSAII (Michael W. Deem and Ramdas Pophale) SiO2 
 PCOD9015045
Probable space group: P -1
;
_chemical_formula_sum "Si O2"
_cell_formula_units_Z 16
_cell_length_a 12.430039
_cell_length_b 7.988202
_cell_length_c 9.192127
_cell_angle_alpha 69.743616
_cell_angle_beta 121.085641
_cell_angle_gamma 97.779388
_cell_volume 732.236533
_symmetry_space_group_name_H-M "P -1"
_symmetry_group_IT_number 2
_symmetry_cell_setting 'triclinic'
loop_
_space_group_symop_operation_xyz
x,y,z
-x,-y,-z
loop_
_atom_site_type_symbol
_atom_site_label
_atom_site_fract_x
_atom_site_fract_y
_atom_site_fract_z
Si Si1 0.357502 0.083029 0.388338
Si Si2 0.910956 0.015731 0.793389
Si Si3 0.349945 0.421070 0.776801
Si Si4 0.103574 0.643851 0.527639
Si Si5 0.325222 0.845251 0.001673
Si Si6 0.938780 0.130302 0.295490
Si Si7 0.622957 0.555567 0.875263
Si Si8 0.583678 0.937615 0.243350
O O1 0.235994 0.991788 0.267171
O O2 0.355844 0.281866 0.264651
O O3 0.340975 0.074264 0.552858
O O4 0.500000 0.000000 0.500000
O O5 0.957054 0.856579 0.761093
O O6 0.926871 0.194442 0.654724
O O7 0.000000 0.000000 0.000000
O O8 0.233248 0.542936 0.602712
O O9 0.475454 0.521981 0.799067
O O10 0.366444 0.228809 0.770270
O O11 0.333599 0.401010 0.944515
O O12 0.109993 0.710840 0.679723
O O13 0.000000 0.500000 0.500000
O O14 0.318564 0.634447 0.083849
O O15 0.432498 0.921507 0.157604
O O16 0.185003 0.930332 0.858714
O O17 0.389097 0.882230 0.877391
O O18 0.000000 0.000000 0.500000
#
# Coordination Sequence:
#
# PCOD9015045 Si02
#       8
#     2   2   2   2   2   2   2   2
#     4  12  28  45  70  96 140 178 220 278 353 394
#     4  11  28  47  65 102 140 178 226 280 342 407
#     4  10  22  41  70 100 130 163 236 275 326 395
#     4  11  24  42  72  98 131 180 228 274 331 403
#     4  10  21  41  70  99 127 174 229 273 328 396
#     4  10  22  42  69  91 137 178 226 268 334 399
#     4  10  23  42  70  98 130 172 221 284 325 396
#     4  10  24  39  69 101 132 170 223 278 337 399
#
# _framework density 21.850864999999999
#
# number of rings (size 3 to 8) (size 9 to 14) (size 15 to 20)
#    0.000    1.500    1.250    2.250   15.750    2.000 
#    2.250    1.250    0.000    0.000    0.000    0.000 
#    0.000    0.000    0.000    0.000    0.000    0.000 
#
# Total GULP energy -89338.842998 kJ/mol
# GULP energy per Si atom -5583.677687 kJ/mol
# Density = 2.180113 g / cm^3
# Si number density = 21.850865 Si / 1000 Ang^3
#
#
#
# Elastic Constant Matrix: (Units=GPa)
#
#
# Indices 1 2 3 4 5 6 
#
# 1 78.9954 16.3042 32.3808 -2.4426 25.8402 -0.7229
# 2 16.3042 60.2925 30.5629 -13.5485 5.6184 13.3228
# 3 32.3808 30.5629 136.6523 -4.2097 15.7604 13.7691
# 4 -2.4426 -13.5485 -4.2097 36.9500 6.5823 -2.9634
# 5 25.8402 5.6184 15.7604 6.5823 45.2222 -3.2776
# 6 -0.7229 13.3228 13.7691 -2.9634 -3.2776 29.5144
#
#
#
# Elastic Compliance Matrix: (Units=1/GPa)
#
#
# Indices 1 2 3 4 5 6 
#
# 1 0.017177 -0.002585 -0.002648 0.001590 -0.008656 0.002022
# 2 -0.002585 0.022546 -0.003152 0.007415 -0.001902 -0.008237
# 3 -0.002648 -0.003152 0.009121 -0.000280 -0.001457 -0.003087
# 4 0.001590 0.007415 -0.000280 0.030914 -0.006288 -0.000772
# 5 -0.008656 -0.001902 -0.001457 -0.006288 0.029002 0.003915
# 6 0.002022 -0.008237 -0.003087 -0.000772 0.003915 0.039447
#
#
# Mechanical properties :
#
#
# Convention : Reuss Voigt Hill
#
# Bulk Modulus (GPa) = 31.17957 48.27065 39.72511
# Shear Modulus (GPa) = 28.46240 35.45014 31.95627
#
# Velocity S-wave (km/s) = 3.61304 4.03223 3.82838
# Velocity P-wave (km/s) = 5.63077 6.61947 6.14504
#
# Compressibility (1/GPa) = 0.03207229
#
# Stress axis : x y z
#
# Youngs Moduli (GPa) = 58.21645 44.35286 109.63876
#
# Poissons Ratio (x) = 0.11467 0.29038
# Poissons Ratio (y) = 0.15051 0.34561
# Poissons Ratio (z) = 0.15419 0.13981
#
# Static dielectric constant tensor:
#      x y z
#    x 1.855690 -0.044690 0.034770 
#    y -0.044690 1.806440 0.050970 
#    z 0.034770 0.050970 1.777260 
# 
# From -- ./inp_files/242696.got.cif
#   From: 2010.05.17/outbox.cif.g08.bks.cpg/sg2_122_cif.got.tgz:242696.got - 2010.06.03 11:33:40.
