data_PCOD9015977
_publ_section_title
;
Structure prediction by ZEFSAII (Michael W. Deem and Ramdas Pophale) SiO2 
 PCOD9015977
Probable space group: P -1
;
_chemical_formula_sum "Si O2"
_cell_formula_units_Z 16
_cell_length_a 22.416174
_cell_length_b 9.124957
_cell_length_c 11.365851
_cell_angle_alpha 134.659673
_cell_angle_beta 142.151480
_cell_angle_gamma 29.328761
_cell_volume 697.903248
_symmetry_space_group_name_H-M "P -1"
_symmetry_group_IT_number 2
_symmetry_cell_setting 'triclinic'
loop_
_space_group_symop_operation_xyz
x,y,z
-x,-y,-z
loop_
_atom_site_type_symbol
_atom_site_label
_atom_site_fract_x
_atom_site_fract_y
_atom_site_fract_z
Si Si1 0.177797 0.730038 0.247297
Si Si2 0.859602 0.388896 0.133895
Si Si3 0.675853 0.437807 0.290268
Si Si4 0.221350 0.395839 0.629879
Si Si5 0.147486 0.338525 0.081664
Si Si6 0.583915 0.314789 0.849540
Si Si7 0.587881 0.287097 0.405433
Si Si8 0.896487 0.765084 0.307645
O O1 0.177464 0.534753 0.223614
O O2 0.294567 0.721565 0.442570
O O3 0.199032 0.616344 0.081215
O O4 0.023017 0.069494 0.208209
O O5 0.788069 0.445026 0.178202
O O6 0.853000 0.647573 0.260135
O O7 0.736730 0.550774 0.393192
O O8 0.537156 0.658151 0.279154
O O9 0.800125 0.115227 0.363062
O O10 0.626759 0.383739 0.067991
O O11 0.061698 0.557818 0.459641
O O12 0.334103 0.044718 0.631135
O O13 0.278185 0.021187 0.166128
O O14 0.133848 0.278828 0.893232
O O15 0.000000 0.500000 0.000000
O O16 0.513859 0.561689 0.780098
O O17 0.500000 0.500000 0.500000
#
# Coordination Sequence:
#
# PCOD9015977 Si02
#       8
#     2   2   2   2   2   2   2   2
#     4  10  24  43  68 105 139 183 225 287 349 406
#     4  10  22  42  72  98 142 177 229 279 347 409
#     4  10  24  44  70 100 135 181 232 289 344 407
#     4  12  25  41  73 104 133 184 234 285 339 420
#     4  10  24  42  73  96 134 182 229 284 347 414
#     4  10  25  47  66  95 141 184 226 288 352 411
#     4  12  29  45  68 102 148 182 230 285 346 421
#     4  10  21  42  66 103 135 172 230 285 335 409
#
# _framework density 22.925813999999999
#
# number of rings (size 3 to 8) (size 9 to 14) (size 15 to 20)
#    0.000    1.500    1.250    1.500   10.500    3.000 
#    0.000    0.000    0.000    0.000    0.000    0.000 
#    0.000    0.000    0.000    0.000    0.000    0.000 
#
# Total GULP energy -89577.961688 kJ/mol
# GULP energy per Si atom -5598.622606 kJ/mol
# Density = 2.287363 g / cm^3
# Si number density = 22.925814 Si / 1000 Ang^3
#
#
#
# Elastic Constant Matrix: (Units=GPa)
#
#
# Indices 1 2 3 4 5 6 
#
# 1 86.1600 40.8705 3.5056 -1.4926 2.8372 -1.3886
# 2 40.8705 152.6316 28.3252 -16.4324 -3.0238 12.2726
# 3 3.5056 28.3252 43.9370 -7.2045 -10.4000 12.1903
# 4 -1.4926 -16.4324 -7.2045 32.6395 3.4928 -6.0175
# 5 2.8372 -3.0238 -10.4000 3.4928 25.3825 0.8904
# 6 -1.3886 12.2726 12.1903 -6.0175 0.8904 40.6031
#
#
#
# Elastic Compliance Matrix: (Units=1/GPa)
#
#
# Indices 1 2 3 4 5 6 
#
# 1 0.013526 -0.003958 0.000546 -0.000812 -0.001698 0.001412
# 2 -0.003958 0.008910 -0.004880 0.003163 -0.000900 -0.000875
# 3 0.000546 -0.004880 0.031217 0.001698 0.012191 -0.007894
# 4 -0.000812 0.003163 0.001698 0.033609 -0.003587 0.003566
# 5 -0.001698 -0.000900 0.012191 -0.003587 0.045143 -0.004968
# 6 0.001412 -0.000875 -0.007894 0.003566 -0.004968 0.027949
#
#
# Mechanical properties :
#
#
# Convention : Reuss Voigt Hill
#
# Bulk Modulus (GPa) = 26.97701 47.57014 37.27358
# Shear Modulus (GPa) = 26.41386 33.72684 30.07035
#
# Velocity S-wave (km/s) = 3.39801 3.83969 3.62558
# Velocity P-wave (km/s) = 5.21420 6.36021 5.81551
#
# Compressibility (1/GPa) = 0.03706860
#
# Stress axis : x y z
#
# Youngs Moduli (GPa) = 73.93136 112.23162 32.03385
#
# Poissons Ratio (x) = 0.44418 -0.01748
# Poissons Ratio (y) = 0.29260 0.15633
# Poissons Ratio (z) = -0.04033 0.54771
#
# Static dielectric constant tensor:
#      x y z
#    x 1.855520 0.005550 -0.019460 
#    y 0.005550 1.815710 0.023640 
#    z -0.019460 0.023640 1.888360 
# 
# From -- ./inp_files/244126.got.cif
#   From: 2010.05.17/outbox.cif.g08.bks.cpg/sg2_123_cif.got.tgz:244126.got - 2010.06.03 11:33:40.
