data_PCOD9015092
_publ_section_title
;
Structure prediction by ZEFSAII (Michael W. Deem and Ramdas Pophale) SiO2 
 PCOD9015092
Probable space group: P -1
;
_chemical_formula_sum "Si O2"
_cell_formula_units_Z 16
_cell_length_a 8.491794
_cell_length_b 13.536437
_cell_length_c 13.965128
_cell_angle_alpha 52.487300
_cell_angle_beta 142.199684
_cell_angle_gamma 129.838676
_cell_volume 737.257759
_symmetry_space_group_name_H-M "P -1"
_symmetry_group_IT_number 2
_symmetry_cell_setting 'triclinic'
loop_
_space_group_symop_operation_xyz
x,y,z
-x,-y,-z
loop_
_atom_site_type_symbol
_atom_site_label
_atom_site_fract_x
_atom_site_fract_y
_atom_site_fract_z
Si Si1 0.868261 0.060162 0.197384
Si Si2 0.708230 0.760719 0.357597
Si Si3 0.097930 0.652119 0.486754
Si Si4 0.719565 0.595170 0.622052
Si Si5 0.669589 0.685933 0.749561
Si Si6 0.068132 0.807546 0.192971
Si Si7 0.062553 0.622927 0.126641
Si Si8 0.655173 0.960581 0.946453
O O1 0.822930 0.913209 0.297267
O O2 0.654483 0.106208 0.130013
O O3 0.789680 0.044795 0.056085
O O4 0.163967 0.163841 0.285414
O O5 0.768951 0.733969 0.512266
O O6 0.384778 0.701772 0.215265
O O7 0.870700 0.685310 0.418863
O O8 0.383322 0.677197 0.662638
O O9 0.000000 0.500000 0.500000
O O10 0.152503 0.748497 0.363827
O O11 0.500000 0.500000 0.500000
O O12 0.618704 0.603499 0.675441
O O13 0.953060 0.528265 0.777682
O O14 0.866880 0.638282 0.940193
O O15 0.998047 0.690724 0.150745
O O16 0.814770 0.858857 0.061978
O O17 0.292450 0.934584 0.177042
#
# Coordination Sequence:
#
# PCOD9015092 Si02
#       8
#     2   2   2   2   2   2   2   2
#     4  11  21  43  69 102 139 174 226 280 337 404
#     4  11  22  44  70  97 137 189 219 267 346 413
#     4  12  26  45  66  98 138 185 228 277 344 404
#     4  10  23  44  69  94 129 184 229 273 341 407
#     4  12  26  43  69 102 137 175 229 293 337 391
#     4  11  21  41  74  98 134 187 222 266 342 408
#     4  11  21  44  73 100 136 174 234 280 327 407
#     4  10  21  41  71 104 138 180 221 272 339 415
#
# _framework density 21.702044999999998
#
# number of rings (size 3 to 8) (size 9 to 14) (size 15 to 20)
#    0.000    1.000    3.750    4.875    0.000    1.000 
#    2.250    1.250    0.000    0.000    0.000    0.000 
#    0.000    0.000    0.000    0.000    0.000    0.000 
#
# Total GULP energy -89434.137573 kJ/mol
# GULP energy per Si atom -5589.633598 kJ/mol
# Density = 2.165265 g / cm^3
# Si number density = 21.702045 Si / 1000 Ang^3
#
#
#
# Elastic Constant Matrix: (Units=GPa)
#
#
# Indices 1 2 3 4 5 6 
#
# 1 102.7680 -1.3859 49.4921 3.3293 21.9191 -7.9635
# 2 -1.3859 46.2976 38.5966 -3.5032 17.3877 14.3014
# 3 49.4921 38.5966 135.2773 -18.9503 4.2159 8.5662
# 4 3.3293 -3.5032 -18.9503 37.2832 4.1082 -1.0870
# 5 21.9191 17.3877 4.2159 4.1082 44.3020 -6.0453
# 6 -7.9635 14.3014 8.5662 -1.0870 -6.0453 29.9972
#
#
#
# Elastic Compliance Matrix: (Units=1/GPa)
#
#
# Indices 1 2 3 4 5 6 
#
# 1 0.018199 0.015377 -0.011076 -0.004346 -0.013895 -0.002295
# 2 0.015377 0.057792 -0.020082 -0.003399 -0.031364 -0.024180
# 3 -0.011076 -0.020082 0.017501 0.006838 0.011639 0.004230
# 4 -0.004346 -0.003399 0.006838 0.030359 -0.000035 -0.000393
# 5 -0.013895 -0.031364 0.011639 -0.000035 0.042916 0.016588
# 6 -0.002295 -0.024180 0.004230 -0.000393 0.016588 0.046376
#
#
# Mechanical properties :
#
#
# Convention : Reuss Voigt Hill
#
# Bulk Modulus (GPa) = 16.14725 50.86094 33.50410
# Shear Modulus (GPa) = 18.84309 35.49249 27.16779
#
# Velocity S-wave (km/s) = 2.94983 4.04845 3.54199
# Velocity P-wave (km/s) = 4.36561 6.73351 5.67445
#
# Compressibility (1/GPa) = 0.06193004
#
# Stress axis : x y z
#
# Youngs Moduli (GPa) = 54.94932 17.30329 57.13810
#
# Poissons Ratio (x) = -0.26607 0.63284
# Poissons Ratio (y) = -0.84494 1.14746
# Poissons Ratio (z) = 0.60860 0.34749
#
# Static dielectric constant tensor:
#      x y z
#    x 1.807290 0.029250 -0.003030 
#    y 0.029250 1.820180 -0.029070 
#    z -0.003030 -0.029070 1.797860 
# 
# From -- ./inp_files/270930.got.cif
#   From: 2010.05.17/outbox.cif.g08.bks.cpg/sg2_136_cif.got.tgz:270930.got - 2010.06.03 11:33:40.
