data_PCOD9015165
_publ_section_title
;
Structure prediction by ZEFSAII (Michael W. Deem and Ramdas Pophale) SiO2 
 PCOD9015165
Probable space group: P -1
;
_chemical_formula_sum "Si O2"
_cell_formula_units_Z 12
_cell_length_a 16.004932
_cell_length_b 8.845963
_cell_length_c 7.071707
_cell_angle_alpha 49.965157
_cell_angle_beta 138.722430
_cell_angle_gamma 139.124802
_cell_volume 425.669611
_symmetry_space_group_name_H-M "P -1"
_symmetry_group_IT_number 2
_symmetry_cell_setting 'triclinic'
loop_
_space_group_symop_operation_xyz
x,y,z
-x,-y,-z
loop_
_atom_site_type_symbol
_atom_site_label
_atom_site_fract_x
_atom_site_fract_y
_atom_site_fract_z
Si Si1 0.447216 0.665812 0.695772
Si Si2 0.103548 0.365578 0.471257
Si Si3 0.819442 0.515845 0.096708
Si Si4 0.349099 0.229095 0.375228
Si Si5 0.382478 0.995061 0.951383
Si Si6 0.069255 0.891277 0.950866
O O1 0.268069 0.529483 0.525511
O O2 0.502272 0.703836 0.542528
O O3 0.500000 0.500000 0.000000
O O4 0.540666 0.893783 0.807504
O O5 0.972696 0.274497 0.168058
O O6 0.080395 0.123343 0.705469
O O7 0.111381 0.491601 0.577849
O O8 0.690365 0.572618 0.877742
O O9 0.936524 0.740313 0.993449
O O10 0.754662 0.272731 0.074874
O O11 0.339160 0.159274 0.633243
O O12 0.224392 0.997292 0.237718
O O13 0.500000 0.000000 0.000000
#
# Coordination Sequence:
#
# PCOD9015165 Si02
#       6
#     2   2   2   2   2   2
#     4  12  24  44  75 106 137 187 237 291 350 420
#     4  10  21  41  72 102 139 181 238 281 348 412
#     4  11  24  47  71 105 142 186 233 290 350 417
#     4  11  26  46  75 107 137 192 236 282 362 411
#     4  12  28  46  70 109 144 180 238 295 350 418
#     4  10  23  43  72 104 140 191 231 287 349 422
#
# _framework density 28.190875999999999
#
# number of rings (size 3 to 8) (size 9 to 14) (size 15 to 20)
#    0.000    1.000    5.000    2.000    4.667    5.333 
#    0.000    1.667    0.000    0.000    0.000    0.000 
#    0.000    0.000    0.000    0.000    0.000    0.000 
#
# Total GULP energy -67353.999712 kJ/mol
# GULP energy per Si atom -5612.833309 kJ/mol
# Density = 2.812671 g / cm^3
# Si number density = 28.190876 Si / 1000 Ang^3
#
#
#
# Elastic Constant Matrix: (Units=GPa)
#
#
# Indices 1 2 3 4 5 6 
#
# 1 147.9338 54.3634 17.7183 18.5648 -27.6034 15.4020
# 2 54.3634 208.9007 50.4547 34.8866 -20.1486 2.5317
# 3 17.7183 50.4547 136.3914 42.9346 -41.7244 -7.8563
# 4 18.5648 34.8866 42.9346 63.6149 -4.3065 1.1995
# 5 -27.6034 -20.1486 -41.7244 -4.3065 36.6950 -7.8455
# 6 15.4020 2.5317 -7.8563 1.1995 -7.8455 52.0527
#
#
#
# Elastic Compliance Matrix: (Units=1/GPa)
#
#
# Indices 1 2 3 4 5 6 
#
# 1 0.009192 -0.001738 0.003217 -0.003273 0.009084 -0.000705
# 2 -0.001738 0.005880 -0.001280 -0.001837 0.000276 0.000119
# 3 0.003217 -0.001280 0.017785 -0.010865 0.021805 0.005331
# 4 -0.003273 -0.001837 -0.010865 0.024150 -0.013674 -0.003200
# 5 0.009084 0.000276 0.021805 -0.013674 0.059537 0.009878
# 6 -0.000705 0.000119 0.005331 -0.003200 0.009878 0.021782
#
#
# Mechanical properties :
#
#
# Convention : Reuss Voigt Hill
#
# Bulk Modulus (GPa) = 30.06939 82.03317 56.05128
# Shear Modulus (GPa) = 33.55421 55.18515 44.36968
#
# Velocity S-wave (km/s) = 3.45374 4.42922 3.97155
# Velocity P-wave (km/s) = 5.15693 7.43772 6.39975
#
# Compressibility (1/GPa) = 0.03325641
#
# Stress axis : x y z
#
# Youngs Moduli (GPa) = 108.78787 170.05686 56.22695
#
# Poissons Ratio (x) = 0.29555 -0.18089
# Poissons Ratio (y) = 0.18907 0.07196
# Poissons Ratio (z) = -0.34999 0.21765
#
# Static dielectric constant tensor:
#      x y z
#    x 2.186680 -0.021590 0.067340 
#    y -0.021590 2.209630 -0.046610 
#    z 0.067340 -0.046610 2.273800 
# 
# From -- ./inp_files/87301.got.cif
#   From: 2010.05.17/outbox.cif.g08.bks.cpg/sg2_44_cif.got.tgz:87301.got - 2010.06.03 11:33:40.
