data_PCOD9015335
_publ_section_title
;
Structure prediction by ZEFSAII (Michael W. Deem and Ramdas Pophale) SiO2 
 PCOD9015335
Probable space group: P -1
;
_chemical_formula_sum "Si O2"
_cell_formula_units_Z 14
_cell_length_a 17.499129
_cell_length_b 11.345792
_cell_length_c 17.299675
_cell_angle_alpha 33.102054
_cell_angle_beta 23.672953
_cell_angle_gamma 31.657900
_cell_volume 695.727668
_symmetry_space_group_name_H-M "P -1"
_symmetry_group_IT_number 2
_symmetry_cell_setting 'triclinic'
loop_
_space_group_symop_operation_xyz
x,y,z
-x,-y,-z
loop_
_atom_site_type_symbol
_atom_site_label
_atom_site_fract_x
_atom_site_fract_y
_atom_site_fract_z
Si Si1 0.694059 0.807457 0.267879
Si Si2 0.578441 0.158343 0.061614
Si Si3 0.174223 0.564939 0.262290
Si Si4 0.907255 0.568322 0.961017
Si Si5 0.795840 0.193392 0.050073
Si Si6 0.464950 0.525347 0.717536
Si Si7 0.655825 0.071210 0.867203
O O1 0.548706 0.698131 0.502051
O O2 0.921301 0.609919 0.156375
O O3 0.625054 0.905156 0.192132
O O4 0.688079 0.037916 0.192084
O O5 0.383704 0.337608 0.188506
O O6 0.769973 0.238565 0.852460
O O7 0.542048 0.166532 0.000714
O O8 0.000000 0.500000 0.500000
O O9 0.138653 0.659382 0.155732
O O10 0.851674 0.839424 0.837899
O O11 0.694913 0.531424 0.159481
O O12 0.000000 0.500000 0.000000
O O13 0.658575 0.349388 0.159894
O O14 0.000000 0.000000 0.000000
O O15 0.657180 0.293589 0.695854
O O16 0.500000 0.000000 0.000000
#
# Coordination Sequence:
#
# PCOD9015335 Si02
#       7
#     2   2   2   2   2   2   2
#     4  11  24  39  68  95 126 171 209 259 325 385
#     4  10  21  42  60  93 129 161 211 261 310 378
#     4  10  23  39  64  92 125 168 205 255 323 380
#     4  11  23  44  65  90 131 170 218 262 305 376
#     4  11  22  40  65  95 129 158 206 269 320 376
#     4  11  24  43  66  95 129 167 210 265 326 372
#     4  10  22  43  66  87 129 171 208 268 308 360
#
# _framework density 20.122816
#
# number of rings (size 3 to 8) (size 9 to 14) (size 15 to 20)
#    0.000    1.429    4.286    0.429    2.000    2.286 
#    0.000    0.000    0.000    0.000    0.000    0.000 
#    0.000    0.000    0.000    0.000    0.000    0.000 
#
# Total GULP energy -78058.898653 kJ/mol
# GULP energy per Si atom -5575.635618 kJ/mol
# Density = 2.007702 g / cm^3
# Si number density = 20.122816 Si / 1000 Ang^3
#
#
#
# Elastic Constant Matrix: (Units=GPa)
#
#
# Indices 1 2 3 4 5 6 
#
# 1 113.3244 29.0573 46.4300 -10.9010 8.3833 -12.7937
# 2 29.0573 112.8567 35.0946 -14.0843 10.7844 -30.5529
# 3 46.4300 35.0946 145.7267 -25.1166 21.0531 -15.5735
# 4 -10.9010 -14.0843 -25.1166 24.1048 -7.0075 4.9769
# 5 8.3833 10.7844 21.0531 -7.0075 14.2074 -3.8472
# 6 -12.7937 -30.5529 -15.5735 4.9769 -3.8472 41.3811
#
#
#
# Elastic Compliance Matrix: (Units=1/GPa)
#
#
# Indices 1 2 3 4 5 6 
#
# 1 0.010525 -0.001454 -0.002697 0.000754 -0.000460 0.001032
# 2 -0.001454 0.012252 -0.000543 0.003198 -0.003992 0.007636
# 3 -0.002697 -0.000543 0.010513 0.006234 -0.010223 0.001021
# 4 0.000754 0.003198 0.006234 0.054519 0.014713 -0.000249
# 5 -0.000460 -0.003992 -0.010223 0.014713 0.096157 0.000233
# 6 0.001032 0.007636 0.001021 -0.000249 0.000233 0.030559
#
#
# Mechanical properties :
#
#
# Convention : Reuss Voigt Hill
#
# Bulk Modulus (GPa) = 41.83775 65.89685 53.86730
# Shear Modulus (GPa) = 21.56295 33.36038 27.46167
#
# Velocity S-wave (km/s) = 3.27703 4.07607 3.69820
# Velocity P-wave (km/s) = 5.92916 7.41424 6.71289
#
# Compressibility (1/GPa) = 0.02390186
#
# Stress axis : x y z
#
# Youngs Moduli (GPa) = 95.01314 81.61963 95.12248
#
# Poissons Ratio (x) = 0.11866 0.25651
# Poissons Ratio (y) = 0.13814 0.05169
# Poissons Ratio (z) = 0.25621 0.04435
#
# Static dielectric constant tensor:
#      x y z
#    x 1.759810 -0.003200 -0.004120 
#    y -0.003200 1.767720 -0.022800 
#    z -0.004120 -0.022800 1.654460 
# 
# From -- ./inp_files/214148.got.cif
#   From: 2010.05.17/outbox.cif.g08.bks.cpg/sg2_108_cif.got.tgz:214148.got - 2010.06.03 11:33:40.
