data_PCOD9015078
_publ_section_title
;
Structure prediction by ZEFSAII (Michael W. Deem and Ramdas Pophale) SiO2 
 PCOD9015078
Probable space group: P -1
;
_chemical_formula_sum "Si O2"
_cell_formula_units_Z 16
_cell_length_a 14.189393
_cell_length_b 15.415637
_cell_length_c 5.192798
_cell_angle_alpha 100.510125
_cell_angle_beta 91.070675
_cell_angle_gamma 144.214382
_cell_volume 625.020063
_symmetry_space_group_name_H-M "P -1"
_symmetry_group_IT_number 2
_symmetry_cell_setting 'triclinic'
loop_
_space_group_symop_operation_xyz
x,y,z
-x,-y,-z
loop_
_atom_site_type_symbol
_atom_site_label
_atom_site_fract_x
_atom_site_fract_y
_atom_site_fract_z
Si Si1 0.784595 0.910108 0.378186
Si Si2 0.237746 0.747295 0.226023
Si Si3 0.702586 0.466430 0.416805
Si Si4 0.394718 0.984584 0.747964
Si Si5 0.430805 0.373870 0.122120
Si Si6 0.604629 0.898367 0.708523
Si Si7 0.901201 0.857862 0.726486
Si Si8 0.887560 0.551794 0.962163
O O1 0.730240 0.919772 0.633683
O O2 0.838297 0.856685 0.463153
O O3 0.631806 0.764315 0.104933
O O4 0.942589 0.078949 0.336369
O O5 0.408782 0.889434 0.145718
O O6 0.185738 0.604865 0.147861
O O7 0.280135 0.815084 0.552962
O O8 0.085828 0.688312 0.077582
O O9 0.577188 0.451449 0.358349
O O10 0.575570 0.285584 0.348649
O O11 0.824058 0.558751 0.719643
O O12 0.811940 0.537024 0.205642
O O13 0.402238 0.048617 0.520674
O O14 0.342258 0.007088 0.986967
O O15 0.268796 0.290289 0.207471
O O16 0.500000 0.500000 0.000000
O O17 0.000000 0.000000 0.000000
#
# Coordination Sequence:
#
# PCOD9015078 Si02
#       8
#     2   2   2   2   2   2   2   2
#     4  10  21  41  71 101 142 195 251 306 374 466
#     4  10  24  46  71 112 147 198 244 313 374 444
#     4  12  23  44  70 109 142 198 253 297 373 461
#     4  11  25  41  73 109 147 186 256 307 372 434
#     4  11  24  43  74 109 148 197 251 320 377 450
#     4  12  22  42  71 106 143 197 246 312 365 442
#     4   9  20  39  67 104 135 183 250 302 378 447
#     4  11  25  44  74 101 154 200 243 297 380 457
#
# _framework density 25.599177999999998
#
# number of rings (size 3 to 8) (size 9 to 14) (size 15 to 20)
#    0.000    1.250    3.750    1.500    1.750    7.500 
#    0.000    3.750    0.000    0.000    0.000    0.000 
#    0.000    0.125    0.000    0.000    0.000    0.000 
#
# Total GULP energy -89587.347342 kJ/mol
# GULP energy per Si atom -5599.209209 kJ/mol
# Density = 2.554091 g / cm^3
# Si number density = 25.599178 Si / 1000 Ang^3
#
#
#
# Elastic Constant Matrix: (Units=GPa)
#
#
# Indices 1 2 3 4 5 6 
#
# 1 80.8265 61.8178 60.9051 10.3491 5.7413 21.0244
# 2 61.8178 145.0187 68.8583 -9.8216 -4.6995 30.4359
# 3 60.9051 68.8583 186.9838 -7.6739 -8.5677 29.6705
# 4 10.3491 -9.8216 -7.6739 40.8346 5.3434 1.1972
# 5 5.7413 -4.6995 -8.5677 5.3434 60.6097 -2.3112
# 6 21.0244 30.4359 29.6705 1.1972 -2.3112 42.3921
#
#
#
# Elastic Compliance Matrix: (Units=1/GPa)
#
#
# Indices 1 2 3 4 5 6 
#
# 1 0.024376 -0.008131 -0.005013 -0.008606 -0.002991 -0.002662
# 2 -0.008131 0.011982 -0.000883 0.004764 0.001001 -0.004032
# 3 -0.005013 -0.000883 0.007837 0.002442 0.001209 -0.002369
# 4 -0.008606 0.004764 0.002442 0.028462 -0.001045 -0.001722
# 5 -0.002991 0.001001 0.001209 -0.001045 0.017157 0.000884
# 6 -0.002662 -0.004032 -0.002369 -0.001722 0.000884 0.029559
#
#
# Mechanical properties :
#
#
# Convention : Reuss Voigt Hill
#
# Bulk Modulus (GPa) = 61.95399 88.44348 75.19873
# Shear Modulus (GPa) = 32.72061 43.51712 38.11886
#
# Velocity S-wave (km/s) = 3.57906 4.12751 3.86303
# Velocity P-wave (km/s) = 6.42912 7.57228 7.02400
#
# Compressibility (1/GPa) = 0.01614101
#
# Stress axis : x y z
#
# Youngs Moduli (GPa) = 41.02442 83.45554 127.59190
#
# Poissons Ratio (x) = 0.67861 0.63963
# Poissons Ratio (y) = 0.33359 0.11264
# Poissons Ratio (z) = 0.20566 0.07367
#
# Static dielectric constant tensor:
#      x y z
#    x 2.146420 -0.031430 0.028810 
#    y -0.031430 2.062960 0.017290 
#    z 0.028810 0.017290 2.048430 
# 
# From -- ./inp_files/99828.got.cif
#   From: 2010.05.17/outbox.cif.g08.bks.cpg/sg2_50_cif.got.tgz:99828.got - 2010.06.03 11:33:40.
