data_PCOD9015976
_publ_section_title
;
Structure prediction by ZEFSAII (Michael W. Deem and Ramdas Pophale) SiO2 
 PCOD9015976
Probable space group: P -1
;
_chemical_formula_sum "Si O2"
_cell_formula_units_Z 16
_cell_length_a 24.081236
_cell_length_b 5.720459
_cell_length_c 11.747301
_cell_angle_alpha 108.925500
_cell_angle_beta 150.108184
_cell_angle_gamma 58.478097
_cell_volume 655.050426
_symmetry_space_group_name_H-M "P -1"
_symmetry_group_IT_number 2
_symmetry_cell_setting 'triclinic'
loop_
_space_group_symop_operation_xyz
x,y,z
-x,-y,-z
loop_
_atom_site_type_symbol
_atom_site_label
_atom_site_fract_x
_atom_site_fract_y
_atom_site_fract_z
Si Si1 0.498395 0.271669 0.599783
Si Si2 0.867694 0.225582 0.709023
Si Si3 0.867404 0.939332 0.893541
Si Si4 0.668438 0.828176 0.400537
Si Si5 0.799458 0.847187 0.411411
Si Si6 0.273260 0.704608 0.103841
Si Si7 0.074627 0.652730 0.599753
Si Si8 0.540350 0.254336 0.934852
O O1 0.373834 0.526453 0.355342
O O2 0.635763 0.238961 0.806883
O O3 0.484029 0.337484 0.719468
O O4 0.500000 0.000000 0.500000
O O5 0.733028 0.485345 0.467980
O O6 0.856572 0.166077 0.812355
O O7 0.896076 0.947577 0.642744
O O8 0.980731 0.288315 0.890479
O O9 0.752568 0.880134 0.650396
O O10 0.842967 0.030507 0.994651
O O11 0.706947 0.903963 0.363245
O O12 0.517677 0.951558 0.167678
O O13 0.872238 0.521789 0.450466
O O14 0.696163 0.063942 0.170825
O O15 0.201979 0.568299 0.888505
O O16 0.000000 0.500000 0.500000
O O17 0.000000 0.000000 0.500000
O O18 0.500000 0.500000 0.000000
#
# Coordination Sequence:
#
# PCOD9015976 Si02
#       8
#     2   2   2   2   2   2   2   2
#     4  11  26  48  74 107 149 204 261 334 396 478
#     4  10  21  42  66 102 143 189 237 322 379 470
#     4  10  22  40  66 101 137 186 250 301 388 467
#     4  11  23  41  69 103 142 189 243 314 393 456
#     4  11  26  44  72 104 150 193 260 315 392 469
#     4  11  26  46  77 104 151 201 264 322 400 477
#     4  12  31  52  80 116 158 214 266 327 401 482
#     4  12  25  44  77 106 154 200 259 329 399 471
#
# _framework density 24.425599999999999
#
# number of rings (size 3 to 8) (size 9 to 14) (size 15 to 20)
#    0.000    1.000    1.250    3.750   10.500    1.000 
#    0.000    0.000    0.000    0.000    0.000    0.000 
#    0.000    0.000    0.000    0.000    0.000    0.000 
#
# Total GULP energy -89304.428173 kJ/mol
# GULP energy per Si atom -5581.526761 kJ/mol
# Density = 2.437001 g / cm^3
# Si number density = 24.425600 Si / 1000 Ang^3
#
#
#
# Elastic Constant Matrix: (Units=GPa)
#
#
# Indices 1 2 3 4 5 6 
#
# 1 85.9199 33.1295 42.7109 28.2373 2.7981 -7.3863
# 2 33.1295 107.2067 41.2724 23.1586 1.4893 -15.8439
# 3 42.7109 41.2724 139.3974 38.1993 14.9733 6.6056
# 4 28.2373 23.1586 38.1993 50.8355 7.7764 -0.8504
# 5 2.7981 1.4893 14.9733 7.7764 48.4309 5.6718
# 6 -7.3863 -15.8439 6.6056 -0.8504 5.6718 22.9269
#
#
#
# Elastic Compliance Matrix: (Units=1/GPa)
#
#
# Indices 1 2 3 4 5 6 
#
# 1 0.016173 -0.001917 -0.003057 -0.005813 0.000484 0.004431
# 2 -0.001917 0.012950 -0.003014 -0.002411 -0.000036 0.009119
# 3 -0.003057 -0.003014 0.010799 -0.004901 -0.001583 -0.005969
# 4 -0.005813 -0.002411 -0.004901 0.028060 -0.002526 -0.000461
# 5 0.000484 -0.000036 -0.001583 -0.002526 0.022099 -0.004974
# 6 0.004431 0.009119 -0.005969 -0.000461 -0.004974 0.054280
#
#
# Mechanical properties :
#
#
# Convention : Reuss Voigt Hill
#
# Bulk Modulus (GPa) = 41.76164 62.97218 52.36691
# Shear Modulus (GPa) = 29.70561 38.79940 34.25251
#
# Velocity S-wave (km/s) = 3.49114 3.98989 3.74882
# Velocity P-wave (km/s) = 5.77801 6.86023 6.34225
#
# Compressibility (1/GPa) = 0.02394542
#
# Stress axis : x y z
#
# Youngs Moduli (GPa) = 61.83098 77.22134 92.60373
#
# Poissons Ratio (x) = 0.14806 0.28306
# Poissons Ratio (y) = 0.11855 0.27912
# Poissons Ratio (z) = 0.18900 0.23275
#
# Static dielectric constant tensor:
#      x y z
#    x 1.973490 -0.020100 -0.023210 
#    y -0.020100 2.000850 -0.101480 
#    z -0.023210 -0.101480 1.979120 
# 
# From -- ./inp_files/473458.got.cif
#   From: 2010.05.17/outbox.cif.g08.bks.cpg/sg2_237_cif.got.tgz:473458.got - 2010.06.03 11:33:40.
